MODEL 1
REMARK VINA RESULT:     -11.1      0.000      0.000
REMARK SMILES COc1cc(C)c(S(=O)(=O)Nc2cc(C(=O)OCCOCCOCCOC(=O)c3ccc(-c4c5nc(c(-c6ccc(S(=O)(=O)[O-])cc6)c6ccc([nH]6)c(-c6ccc(S(=O)(=O)[O-])cc6)c6nc(c(-c7ccc(S(=O)(=O)[O-])cc7)c7ccc4[nH]7)C=C6)C=C5)cc3)ccc2F)cc1OC
REMARK SMILES IDX 21 1 20 2 19 3 18 4 17 5 15 6 16 7 14 8 12 9 13 10 91 11
REMARK SMILES IDX 90 12 92 13 89 14 11 15 8 17 9 18 10 19 7 20 3 21 4 22 94 23
REMARK SMILES IDX 5 24 93 25 6 26 2 27 1 28 95 29 96 30 22 31 23 32 24 33
REMARK SMILES IDX 25 34 26 35 27 36 28 37 29 38 30 39 88 40 31 41 87 42 32 43
REMARK SMILES IDX 33 44 34 45 81 46 35 47 86 48 80 49 82 50 36 51 85 52 79 53
REMARK SMILES IDX 78 54 37 56 67 57 48 58 66 59 49 60 52 61 65 62 83 63 50 64
REMARK SMILES IDX 51 65 64 67 84 68 53 69 38 70 39 71 47 72 40 73 46 74 41 75
REMARK SMILES IDX 42 76 43 77 44 78 45 79 68 80 69 81 77 82 70 83 76 84 71 85
REMARK SMILES IDX 72 86 73 87 74 88 75 89 54 90 55 91 63 92 56 93 62 94 57 95
REMARK SMILES IDX 58 96 59 97 60 98 61 99
REMARK H PARENT 11 16 82 55 52 66
REMARK Flexibility Score: inf
ROOT
ATOM      1  C   UNL A   1      33.893  21.501  25.455  1.00  0.00     0.188 C 
ENDROOT
BRANCH   1   2
ATOM      2  O   UNL A   1      34.476  22.281  26.459  1.00  0.00    -0.376 OA
BRANCH   2   3
ATOM      3  C   UNL A   1      34.052  23.652  26.423  1.00  0.00     0.202 C 
BRANCH   3   4
ATOM      4  C   UNL A   1      34.663  24.796  25.444  1.00  0.00     0.261 C 
BRANCH   4   5
ATOM      5  O   UNL A   1      34.287  25.300  23.856  1.00  0.00    -0.460 OA
BRANCH   5   6
ATOM      6  C   UNL A   1      33.500  26.111  22.951  1.00  0.00     0.338 C 
ATOM      7  O   UNL A   1      33.612  26.377  21.751  1.00  0.00    -0.246 OA
BRANCH   6   8
ATOM      8  C   UNL A   1      32.257  26.772  23.330  1.00  0.00     0.062 A 
ATOM      9  C   UNL A   1      31.771  28.783  24.384  1.00  0.00     0.085 A 
ATOM     10  C   UNL A   1      32.425  27.571  24.424  1.00  0.00     0.045 A 
ATOM     11  C   UNL A   1      30.646  28.985  23.559  1.00  0.00     0.147 A 
ATOM     12  C   UNL A   1      30.409  28.150  22.487  1.00  0.00     0.042 A 
ATOM     13  F   UNL A   1      29.940  30.122  23.655  1.00  0.00    -0.205 F 
ATOM     14  C   UNL A   1      31.313  27.120  22.305  1.00  0.00     0.019 A 
BRANCH   9  15
ATOM     15  N   UNL A   1      32.404  29.918  24.948  1.00  0.00    -0.277 N 
ATOM     16  H   UNL A   1      33.035  30.421  24.385  1.00  0.00     0.180 HD
BRANCH  15  17
ATOM     17  S   UNL A   1      32.145  30.459  26.529  1.00  0.00     0.262 S 
ATOM     18  O   UNL A   1      31.567  29.304  27.242  1.00  0.00    -0.201 OA
ATOM     19  O   UNL A   1      31.390  31.656  26.383  1.00  0.00    -0.201 OA
BRANCH  17  20
ATOM     20  C   UNL A   1      33.630  30.886  27.463  1.00  0.00     0.094 A 
ATOM     21  C   UNL A   1      35.681  31.896  29.180  1.00  0.00     0.161 A 
ATOM     22  C   UNL A   1      35.720  30.599  28.657  1.00  0.00     0.055 A 
ATOM     23  C   UNL A   1      34.645  32.735  28.773  1.00  0.00     0.162 A 
ATOM     24  C   UNL A   1      34.760  30.109  27.730  1.00  0.00    -0.027 A 
ATOM     25  C   UNL A   1      33.612  32.206  27.973  1.00  0.00     0.073 A 
ATOM     26  C   UNL A   1      35.203  28.891  26.989  1.00  0.00     0.046 C 
BRANCH  21  27
ATOM     27  O   UNL A   1      36.577  32.353  30.101  1.00  0.00    -0.493 OA
ATOM     28  C   UNL A   1      37.717  33.056  29.627  1.00  0.00     0.278 C 
ENDBRANCH  21  27
BRANCH  23  29
ATOM     29  O   UNL A   1      34.443  34.047  29.112  1.00  0.00    -0.493 OA
ATOM     30  C   UNL A   1      34.495  35.042  28.093  1.00  0.00     0.278 C 
ENDBRANCH  23  29
ENDBRANCH  17  20
ENDBRANCH  15  17
ENDBRANCH   9  15
ENDBRANCH   6   8
ENDBRANCH   5   6
ENDBRANCH   4   5
ENDBRANCH   3   4
ENDBRANCH   2   3
ENDBRANCH   1   2
BRANCH   1  31
ATOM     31  C   UNL A   1      34.692  20.220  25.255  1.00  0.00     0.188 C 
BRANCH  31  32
ATOM     32  O   UNL A   1      36.082  20.416  25.075  1.00  0.00    -0.376 OA
BRANCH  32  33
ATOM     33  C   UNL A   1      36.406  21.558  24.290  1.00  0.00     0.202 C 
BRANCH  33  34
ATOM     34  C   UNL A   1      37.551  22.515  24.782  1.00  0.00     0.261 C 
BRANCH  34  35
ATOM     35  O   UNL A   1      37.989  22.314  26.154  1.00  0.00    -0.460 OA
BRANCH  35  36
ATOM     36  C   UNL A   1      39.335  22.253  26.502  1.00  0.00     0.338 C 
ATOM     37  O   UNL A   1      40.071  21.359  26.109  1.00  0.00    -0.246 OA
BRANCH  36  38
ATOM     38  C   UNL A   1      39.839  23.662  26.653  1.00  0.00     0.060 A 
ATOM     39  C   UNL A   1      40.940  24.326  26.131  1.00  0.00     0.016 A 
ATOM     40  C   UNL A   1      39.130  24.403  27.519  1.00  0.00     0.016 A 
ATOM     41  C   UNL A   1      41.629  25.374  26.867  1.00  0.00     0.010 A 
ATOM     42  C   UNL A   1      39.879  25.262  28.317  1.00  0.00     0.010 A 
ATOM     43  C   UNL A   1      41.237  25.738  28.162  1.00  0.00    -0.014 A 
BRANCH  43  44
ATOM     44  C   UNL A   1      42.346  26.343  29.318  1.00  0.00     0.031 A 
ATOM     45  C   UNL A   1      42.475  27.670  30.406  1.00  0.00     0.074 A 
ATOM     46  C   UNL A   1      43.389  25.492  29.503  1.00  0.00     0.049 A 
ATOM     47  N   UNL A   1      43.601  28.303  30.671  1.00  0.00    -0.248 NA
ATOM     48  C   UNL A   1      41.418  28.430  31.211  1.00  0.00     0.031 C 
ATOM     49  C   UNL A   1      44.551  25.596  30.391  1.00  0.00     0.029 A 
ATOM     50  N   UNL A   1      43.638  24.325  28.787  1.00  0.00    -0.354 N 
ATOM     51  C   UNL A   1      43.315  29.316  31.605  1.00  0.00     0.074 A 
ATOM     52  C   UNL A   1      41.962  29.579  31.511  1.00  0.00     0.031 C 
ATOM     53  C   UNL A   1      45.508  24.766  29.940  1.00  0.00     0.029 A 
ATOM     54  C   UNL A   1      45.023  24.169  28.708  1.00  0.00     0.049 A 
ATOM     55  H   UNL A   1      42.961  23.718  28.407  1.00  0.00     0.167 HD
ATOM     56  C   UNL A   1      44.129  29.809  32.573  1.00  0.00     0.031 A 
ATOM     57  C   UNL A   1      45.569  24.330  27.471  1.00  0.00     0.031 A 
ATOM     58  C   UNL A   1      45.485  29.454  32.181  1.00  0.00     0.049 A 
ATOM     59  C   UNL A   1      46.262  25.704  27.399  1.00  0.00     0.074 A 
ATOM     60  C   UNL A   1      46.401  28.529  32.631  1.00  0.00     0.029 A 
ATOM     61  N   UNL A   1      45.847  29.715  30.838  1.00  0.00    -0.354 N 
ATOM     62  N   UNL A   1      46.134  26.642  28.321  1.00  0.00    -0.248 NA
ATOM     63  C   UNL A   1      47.250  26.091  26.399  1.00  0.00     0.031 C 
ATOM     64  C   UNL A   1      47.151  28.079  31.484  1.00  0.00     0.029 A 
ATOM     65  C   UNL A   1      46.743  28.767  30.345  1.00  0.00     0.049 A 
ATOM     66  H   UNL A   1      45.507  30.476  30.314  1.00  0.00     0.167 HD
ATOM     67  C   UNL A   1      47.001  27.679  28.111  1.00  0.00     0.074 A 
ATOM     68  C   UNL A   1      47.680  27.273  26.881  1.00  0.00     0.031 C 
ATOM     69  C   UNL A   1      47.163  28.784  28.920  1.00  0.00     0.031 A 
BRANCH  56  70
ATOM     70  C   UNL A   1      43.524  30.548  33.844  1.00  0.00    -0.014 A 
ATOM     71  C   UNL A   1      42.935  29.859  34.913  1.00  0.00     0.010 A 
ATOM     72  C   UNL A   1      43.521  31.971  34.052  1.00  0.00     0.010 A 
ATOM     73  C   UNL A   1      42.534  30.518  36.122  1.00  0.00     0.020 A 
ATOM     74  C   UNL A   1      43.230  32.629  35.265  1.00  0.00     0.020 A 
ATOM     75  C   UNL A   1      42.747  31.889  36.317  1.00  0.00     0.054 A 
BRANCH  75  76
ATOM     76  S   UNL A   1      42.371  32.705  37.901  1.00  0.00     0.124 S 
ATOM     77  O   UNL A   1      42.343  31.582  38.837  1.00  0.00    -0.237 OA
ATOM     78  O   UNL A   1      43.491  33.627  38.055  1.00  0.00    -0.237 OA
ATOM     79  O   UNL A   1      41.073  33.342  37.677  1.00  0.00    -0.744 OA
ENDBRANCH  75  76
ENDBRANCH  56  70
BRANCH  57  80
ATOM     80  C   UNL A   1      44.939  23.329  26.502  1.00  0.00    -0.014 A 
ATOM     81  C   UNL A   1      45.802  22.953  25.423  1.00  0.00     0.010 A 
ATOM     82  C   UNL A   1      43.818  22.501  26.681  1.00  0.00     0.010 A 
ATOM     83  C   UNL A   1      45.706  21.735  24.734  1.00  0.00     0.020 A 
ATOM     84  C   UNL A   1      43.658  21.304  25.907  1.00  0.00     0.020 A 
ATOM     85  C   UNL A   1      44.644  20.892  24.999  1.00  0.00     0.054 A 
BRANCH  85  86
ATOM     86  S   UNL A   1      44.681  19.209  24.282  1.00  0.00     0.124 S 
ATOM     87  O   UNL A   1      43.587  18.547  24.981  1.00  0.00    -0.237 OA
ATOM     88  O   UNL A   1      44.447  19.461  22.861  1.00  0.00    -0.237 OA
ATOM     89  O   UNL A   1      46.023  18.748  24.614  1.00  0.00    -0.744 OA
ENDBRANCH  85  86
ENDBRANCH  57  80
BRANCH  69  90
ATOM     90  C   UNL A   1      47.813  30.051  28.376  1.00  0.00    -0.014 A 
ATOM     91  C   UNL A   1      49.203  30.271  28.442  1.00  0.00     0.010 A 
ATOM     92  C   UNL A   1      47.065  30.967  27.602  1.00  0.00     0.010 A 
ATOM     93  C   UNL A   1      49.811  31.371  27.829  1.00  0.00     0.020 A 
ATOM     94  C   UNL A   1      47.676  32.031  26.919  1.00  0.00     0.020 A 
ATOM     95  C   UNL A   1      49.047  32.236  27.054  1.00  0.00     0.054 A 
BRANCH  95  96
ATOM     96  S   UNL A   1      49.872  33.542  26.106  1.00  0.00     0.124 S 
ATOM     97  O   UNL A   1      50.638  34.230  27.142  1.00  0.00    -0.237 OA
ATOM     98  O   UNL A   1      50.666  32.796  25.133  1.00  0.00    -0.237 OA
ATOM     99  O   UNL A   1      48.753  34.289  25.540  1.00  0.00    -0.744 OA
ENDBRANCH  95  96
ENDBRANCH  69  90
ENDBRANCH  43  44
ENDBRANCH  36  38
ENDBRANCH  35  36
ENDBRANCH  34  35
ENDBRANCH  33  34
ENDBRANCH  32  33
ENDBRANCH  31  32
ENDBRANCH   1  31
TORSDOF 25
ENDMDL
MODEL 2
REMARK VINA RESULT:     -11.0      4.067      6.340
REMARK SMILES COc1cc(C)c(S(=O)(=O)Nc2cc(C(=O)OCCOCCOCCOC(=O)c3ccc(-c4c5nc(c(-c6ccc(S(=O)(=O)[O-])cc6)c6ccc([nH]6)c(-c6ccc(S(=O)(=O)[O-])cc6)c6nc(c(-c7ccc(S(=O)(=O)[O-])cc7)c7ccc4[nH]7)C=C6)C=C5)cc3)ccc2F)cc1OC
REMARK SMILES IDX 21 1 20 2 19 3 18 4 17 5 15 6 16 7 14 8 12 9 13 10 91 11
REMARK SMILES IDX 90 12 92 13 89 14 11 15 8 17 9 18 10 19 7 20 3 21 4 22 94 23
REMARK SMILES IDX 5 24 93 25 6 26 2 27 1 28 95 29 96 30 22 31 23 32 24 33
REMARK SMILES IDX 25 34 26 35 27 36 28 37 29 38 30 39 88 40 31 41 87 42 32 43
REMARK SMILES IDX 33 44 34 45 81 46 35 47 86 48 80 49 82 50 36 51 85 52 79 53
REMARK SMILES IDX 78 54 37 56 67 57 48 58 66 59 49 60 52 61 65 62 83 63 50 64
REMARK SMILES IDX 51 65 64 67 84 68 53 69 38 70 39 71 47 72 40 73 46 74 41 75
REMARK SMILES IDX 42 76 43 77 44 78 45 79 68 80 69 81 77 82 70 83 76 84 71 85
REMARK SMILES IDX 72 86 73 87 74 88 75 89 54 90 55 91 63 92 56 93 62 94 57 95
REMARK SMILES IDX 58 96 59 97 60 98 61 99
REMARK H PARENT 11 16 82 55 52 66
REMARK Flexibility Score: inf
ROOT
ATOM      1  C   UNL A   1      40.403  22.328  27.445  1.00  0.00     0.188 C 
ENDROOT
BRANCH   1   2
ATOM      2  O   UNL A   1      39.434  23.327  27.311  1.00  0.00    -0.376 OA
BRANCH   2   3
ATOM      3  C   UNL A   1      38.567  23.124  26.185  1.00  0.00     0.202 C 
BRANCH   3   4
ATOM      4  C   UNL A   1      37.042  23.670  26.068  1.00  0.00     0.261 C 
BRANCH   4   5
ATOM      5  O   UNL A   1      35.532  22.894  25.873  1.00  0.00    -0.460 OA
BRANCH   5   6
ATOM      6  C   UNL A   1      34.118  22.810  26.169  1.00  0.00     0.338 C 
ATOM      7  O   UNL A   1      33.420  23.281  27.071  1.00  0.00    -0.246 OA
BRANCH   6   8
ATOM      8  C   UNL A   1      33.152  22.131  25.313  1.00  0.00     0.062 A 
ATOM      9  C   UNL A   1      32.092  22.705  23.327  1.00  0.00     0.085 A 
ATOM     10  C   UNL A   1      32.363  23.020  24.641  1.00  0.00     0.045 A 
ATOM     11  C   UNL A   1      32.179  21.378  22.857  1.00  0.00     0.147 A 
ATOM     12  C   UNL A   1      32.910  20.439  23.553  1.00  0.00     0.042 A 
ATOM     13  F   UNL A   1      31.763  21.079  21.617  1.00  0.00    -0.205 F 
ATOM     14  C   UNL A   1      33.510  20.875  24.719  1.00  0.00     0.019 A 
BRANCH   9  15
ATOM     15  N   UNL A   1      32.015  23.752  22.377  1.00  0.00    -0.277 N 
ATOM     16  H   UNL A   1      31.252  23.756  21.756  1.00  0.00     0.180 HD
BRANCH  15  17
ATOM     17  S   UNL A   1      33.155  24.994  22.243  1.00  0.00     0.262 S 
ATOM     18  O   UNL A   1      33.094  25.422  20.833  1.00  0.00    -0.201 OA
ATOM     19  O   UNL A   1      34.356  24.441  22.768  1.00  0.00    -0.201 OA
BRANCH  17  20
ATOM     20  C   UNL A   1      32.803  26.486  23.198  1.00  0.00     0.094 A 
ATOM     21  C   UNL A   1      31.838  28.887  24.411  1.00  0.00     0.161 A 
ATOM     22  C   UNL A   1      32.626  27.967  25.109  1.00  0.00     0.055 A 
ATOM     23  C   UNL A   1      31.595  28.650  23.059  1.00  0.00     0.162 A 
ATOM     24  C   UNL A   1      33.192  26.814  24.499  1.00  0.00    -0.027 A 
ATOM     25  C   UNL A   1      32.029  27.435  22.491  1.00  0.00     0.073 A 
ATOM     26  C   UNL A   1      34.314  26.209  25.276  1.00  0.00     0.046 C 
BRANCH  21  27
ATOM     27  O   UNL A   1      31.260  29.972  25.003  1.00  0.00    -0.493 OA
ATOM     28  C   UNL A   1      31.776  30.398  26.257  1.00  0.00     0.278 C 
ENDBRANCH  21  27
BRANCH  23  29
ATOM     29  O   UNL A   1      30.902  29.437  22.178  1.00  0.00    -0.493 OA
ATOM     30  C   UNL A   1      29.477  29.411  22.197  1.00  0.00     0.278 C 
ENDBRANCH  23  29
ENDBRANCH  17  20
ENDBRANCH  15  17
ENDBRANCH   9  15
ENDBRANCH   6   8
ENDBRANCH   5   6
ENDBRANCH   4   5
ENDBRANCH   3   4
ENDBRANCH   2   3
ENDBRANCH   1   2
BRANCH   1  31
ATOM     31  C   UNL A   1      40.685  21.684  26.094  1.00  0.00     0.188 C 
BRANCH  31  32
ATOM     32  O   UNL A   1      42.048  21.383  25.861  1.00  0.00    -0.376 OA
BRANCH  32  33
ATOM     33  C   UNL A   1      42.925  21.850  26.879  1.00  0.00     0.202 C 
BRANCH  33  34
ATOM     34  C   UNL A   1      43.851  23.082  26.576  1.00  0.00     0.261 C 
BRANCH  34  35
ATOM     35  O   UNL A   1      43.258  24.386  26.824  1.00  0.00    -0.460 OA
BRANCH  35  36
ATOM     36  C   UNL A   1      42.653  25.131  25.816  1.00  0.00     0.338 C 
ATOM     37  O   UNL A   1      42.318  24.634  24.750  1.00  0.00    -0.246 OA
BRANCH  36  38
ATOM     38  C   UNL A   1      41.823  26.203  26.466  1.00  0.00     0.060 A 
ATOM     39  C   UNL A   1      41.511  27.503  26.094  1.00  0.00     0.016 A 
ATOM     40  C   UNL A   1      41.354  25.868  27.678  1.00  0.00     0.016 A 
ATOM     41  C   UNL A   1      41.312  28.560  27.072  1.00  0.00     0.010 A 
ATOM     42  C   UNL A   1      41.358  26.892  28.620  1.00  0.00     0.010 A 
ATOM     43  C   UNL A   1      41.468  28.325  28.445  1.00  0.00    -0.014 A 
BRANCH  43  44
ATOM     44  C   UNL A   1      41.985  29.544  29.530  1.00  0.00     0.031 A 
ATOM     45  C   UNL A   1      41.291  30.637  30.665  1.00  0.00     0.074 A 
ATOM     46  C   UNL A   1      43.340  29.622  29.585  1.00  0.00     0.049 A 
ATOM     47  N   UNL A   1      41.717  31.869  30.862  1.00  0.00    -0.248 NA
ATOM     48  C   UNL A   1      40.080  30.504  31.591  1.00  0.00     0.031 C 
ATOM     49  C   UNL A   1      44.208  30.502  30.376  1.00  0.00     0.029 A 
ATOM     50  N   UNL A   1      44.241  28.911  28.796  1.00  0.00    -0.354 N 
ATOM     51  C   UNL A   1      40.914  32.445  31.864  1.00  0.00     0.074 A 
ATOM     52  C   UNL A   1      39.735  31.726  31.898  1.00  0.00     0.031 C 
ATOM     53  C   UNL A   1      45.426  30.522  29.806  1.00  0.00     0.029 A 
ATOM     54  C   UNL A   1      45.354  29.728  28.593  1.00  0.00     0.049 A 
ATOM     55  H   UNL A   1      44.115  27.999  28.447  1.00  0.00     0.167 HD
ATOM     56  C   UNL A   1      41.272  33.379  32.781  1.00  0.00     0.031 A 
ATOM     57  C   UNL A   1      45.530  30.187  27.323  1.00  0.00     0.031 A 
ATOM     58  C   UNL A   1      42.470  34.021  32.260  1.00  0.00     0.049 A 
ATOM     59  C   UNL A   1      45.109  31.667  27.257  1.00  0.00     0.074 A 
ATOM     60  C   UNL A   1      43.807  33.965  32.586  1.00  0.00     0.029 A 
ATOM     61  N   UNL A   1      42.433  34.427  30.905  1.00  0.00    -0.354 N 
ATOM     62  N   UNL A   1      44.472  32.295  28.230  1.00  0.00    -0.248 NA
ATOM     63  C   UNL A   1      45.480  32.595  26.196  1.00  0.00     0.031 C 
ATOM     64  C   UNL A   1      44.552  34.111  31.359  1.00  0.00     0.029 A 
ATOM     65  C   UNL A   1      43.682  34.319  30.293  1.00  0.00     0.049 A 
ATOM     66  H   UNL A   1      41.623  34.750  30.448  1.00  0.00     0.167 HD
ATOM     67  C   UNL A   1      44.392  33.639  27.996  1.00  0.00     0.074 A 
ATOM     68  C   UNL A   1      45.047  33.769  26.695  1.00  0.00     0.031 C 
ATOM     69  C   UNL A   1      43.844  34.583  28.840  1.00  0.00     0.031 A 
BRANCH  56  70
ATOM     70  C   UNL A   1      40.452  33.546  34.133  1.00  0.00    -0.014 A 
ATOM     71  C   UNL A   1      39.179  34.133  34.180  1.00  0.00     0.010 A 
ATOM     72  C   UNL A   1      40.895  33.116  35.431  1.00  0.00     0.010 A 
ATOM     73  C   UNL A   1      38.381  34.139  35.371  1.00  0.00     0.020 A 
ATOM     74  C   UNL A   1      40.095  33.018  36.589  1.00  0.00     0.020 A 
ATOM     75  C   UNL A   1      38.817  33.520  36.550  1.00  0.00     0.054 A 
BRANCH  75  76
ATOM     76  S   UNL A   1      37.753  33.401  38.023  1.00  0.00     0.124 S 
ATOM     77  O   UNL A   1      38.154  34.573  38.799  1.00  0.00    -0.237 OA
ATOM     78  O   UNL A   1      36.413  33.453  37.449  1.00  0.00    -0.237 OA
ATOM     79  O   UNL A   1      38.117  32.119  38.627  1.00  0.00    -0.744 OA
ENDBRANCH  75  76
ENDBRANCH  56  70
BRANCH  57  80
ATOM     80  C   UNL A   1      45.649  29.000  26.365  1.00  0.00    -0.014 A 
ATOM     81  C   UNL A   1      46.567  29.221  25.289  1.00  0.00     0.010 A 
ATOM     82  C   UNL A   1      45.267  27.661  26.553  1.00  0.00     0.010 A 
ATOM     83  C   UNL A   1      47.240  28.192  24.612  1.00  0.00     0.020 A 
ATOM     84  C   UNL A   1      45.876  26.610  25.791  1.00  0.00     0.020 A 
ATOM     85  C   UNL A   1      46.913  26.878  24.887  1.00  0.00     0.054 A 
BRANCH  85  86
ATOM     86  S   UNL A   1      47.976  25.564  24.187  1.00  0.00     0.124 S 
ATOM     87  O   UNL A   1      48.285  26.085  22.861  1.00  0.00    -0.237 OA
ATOM     88  O   UNL A   1      49.102  25.531  25.118  1.00  0.00    -0.237 OA
ATOM     89  O   UNL A   1      47.108  24.394  24.227  1.00  0.00    -0.744 OA
ENDBRANCH  85  86
ENDBRANCH  57  80
BRANCH  69  90
ATOM     90  C   UNL A   1      43.419  35.945  28.303  1.00  0.00    -0.014 A 
ATOM     91  C   UNL A   1      42.303  36.106  27.458  1.00  0.00     0.010 A 
ATOM     92  C   UNL A   1      44.015  37.129  28.795  1.00  0.00     0.010 A 
ATOM     93  C   UNL A   1      41.841  37.368  27.070  1.00  0.00     0.020 A 
ATOM     94  C   UNL A   1      43.511  38.399  28.473  1.00  0.00     0.020 A 
ATOM     95  C   UNL A   1      42.435  38.509  27.596  1.00  0.00     0.054 A 
BRANCH  95  96
ATOM     96  S   UNL A   1      41.707  40.131  27.244  1.00  0.00     0.124 S 
ATOM     97  O   UNL A   1      42.882  40.917  26.878  1.00  0.00    -0.237 OA
ATOM     98  O   UNL A   1      40.778  39.849  26.152  1.00  0.00    -0.237 OA
ATOM     99  O   UNL A   1      41.074  40.485  28.511  1.00  0.00    -0.744 OA
ENDBRANCH  95  96
ENDBRANCH  69  90
ENDBRANCH  43  44
ENDBRANCH  36  38
ENDBRANCH  35  36
ENDBRANCH  34  35
ENDBRANCH  33  34
ENDBRANCH  32  33
ENDBRANCH  31  32
ENDBRANCH   1  31
TORSDOF 25
ENDMDL
MODEL 3
REMARK VINA RESULT:     -10.1      3.276      4.161
REMARK SMILES COc1cc(C)c(S(=O)(=O)Nc2cc(C(=O)OCCOCCOCCOC(=O)c3ccc(-c4c5nc(c(-c6ccc(S(=O)(=O)[O-])cc6)c6ccc([nH]6)c(-c6ccc(S(=O)(=O)[O-])cc6)c6nc(c(-c7ccc(S(=O)(=O)[O-])cc7)c7ccc4[nH]7)C=C6)C=C5)cc3)ccc2F)cc1OC
REMARK SMILES IDX 21 1 20 2 19 3 18 4 17 5 15 6 16 7 14 8 12 9 13 10 91 11
REMARK SMILES IDX 90 12 92 13 89 14 11 15 8 17 9 18 10 19 7 20 3 21 4 22 94 23
REMARK SMILES IDX 5 24 93 25 6 26 2 27 1 28 95 29 96 30 22 31 23 32 24 33
REMARK SMILES IDX 25 34 26 35 27 36 28 37 29 38 30 39 88 40 31 41 87 42 32 43
REMARK SMILES IDX 33 44 34 45 81 46 35 47 86 48 80 49 82 50 36 51 85 52 79 53
REMARK SMILES IDX 78 54 37 56 67 57 48 58 66 59 49 60 52 61 65 62 83 63 50 64
REMARK SMILES IDX 51 65 64 67 84 68 53 69 38 70 39 71 47 72 40 73 46 74 41 75
REMARK SMILES IDX 42 76 43 77 44 78 45 79 68 80 69 81 77 82 70 83 76 84 71 85
REMARK SMILES IDX 72 86 73 87 74 88 75 89 54 90 55 91 63 92 56 93 62 94 57 95
REMARK SMILES IDX 58 96 59 97 60 98 61 99
REMARK H PARENT 11 16 82 55 52 66
REMARK Flexibility Score: inf
ROOT
ATOM      1  C   UNL A   1      36.412  23.273  26.098  1.00  0.00     0.188 C 
ENDROOT
BRANCH   1   2
ATOM      2  O   UNL A   1      35.729  22.123  25.690  1.00  0.00    -0.376 OA
BRANCH   2   3
ATOM      3  C   UNL A   1      34.598  22.406  24.852  1.00  0.00     0.202 C 
BRANCH   3   4
ATOM      4  C   UNL A   1      34.561  23.531  23.680  1.00  0.00     0.261 C 
BRANCH   4   5
ATOM      5  O   UNL A   1      34.022  25.151  23.628  1.00  0.00    -0.460 OA
BRANCH   5   6
ATOM      6  C   UNL A   1      33.381  26.237  22.919  1.00  0.00     0.338 C 
ATOM      7  O   UNL A   1      33.643  26.820  21.863  1.00  0.00    -0.246 OA
BRANCH   6   8
ATOM      8  C   UNL A   1      32.131  26.856  23.345  1.00  0.00     0.062 A 
ATOM      9  C   UNL A   1      31.615  28.855  24.407  1.00  0.00     0.085 A 
ATOM     10  C   UNL A   1      32.315  27.668  24.427  1.00  0.00     0.045 A 
ATOM     11  C   UNL A   1      30.450  29.009  23.628  1.00  0.00     0.147 A 
ATOM     12  C   UNL A   1      30.200  28.158  22.572  1.00  0.00     0.042 A 
ATOM     13  F   UNL A   1      29.707  30.120  23.747  1.00  0.00    -0.205 F 
ATOM     14  C   UNL A   1      31.134  27.160  22.359  1.00  0.00     0.019 A 
BRANCH   9  15
ATOM     15  N   UNL A   1      32.229  30.016  24.937  1.00  0.00    -0.277 N 
ATOM     16  H   UNL A   1      32.779  30.564  24.332  1.00  0.00     0.180 HD
BRANCH  15  17
ATOM     17  S   UNL A   1      32.077  30.518  26.545  1.00  0.00     0.262 S 
ATOM     18  O   UNL A   1      31.511  29.357  27.258  1.00  0.00    -0.201 OA
ATOM     19  O   UNL A   1      31.345  31.736  26.477  1.00  0.00    -0.201 OA
BRANCH  17  20
ATOM     20  C   UNL A   1      33.624  30.882  27.401  1.00  0.00     0.094 A 
ATOM     21  C   UNL A   1      35.805  31.814  28.996  1.00  0.00     0.161 A 
ATOM     22  C   UNL A   1      35.746  30.503  28.512  1.00  0.00     0.055 A 
ATOM     23  C   UNL A   1      34.803  32.702  28.609  1.00  0.00     0.162 A 
ATOM     24  C   UNL A   1      34.718  30.046  27.642  1.00  0.00    -0.027 A 
ATOM     25  C   UNL A   1      33.707  32.214  27.870  1.00  0.00     0.073 A 
ATOM     26  C   UNL A   1      35.055  28.784  26.920  1.00  0.00     0.046 C 
BRANCH  21  27
ATOM     27  O   UNL A   1      36.767  32.243  29.863  1.00  0.00    -0.493 OA
ATOM     28  C   UNL A   1      36.546  32.044  31.252  1.00  0.00     0.278 C 
ENDBRANCH  21  27
BRANCH  23  29
ATOM     29  O   UNL A   1      34.693  34.032  28.916  1.00  0.00    -0.493 OA
ATOM     30  C   UNL A   1      33.401  34.635  28.935  1.00  0.00     0.278 C 
ENDBRANCH  23  29
ENDBRANCH  17  20
ENDBRANCH  15  17
ENDBRANCH   9  15
ENDBRANCH   6   8
ENDBRANCH   5   6
ENDBRANCH   4   5
ENDBRANCH   3   4
ENDBRANCH   2   3
ENDBRANCH   1   2
BRANCH   1  31
ATOM     31  C   UNL A   1      37.664  23.468  25.254  1.00  0.00     0.188 C 
BRANCH  31  32
ATOM     32  O   UNL A   1      38.851  22.967  25.840  1.00  0.00    -0.376 OA
BRANCH  32  33
ATOM     33  C   UNL A   1      39.001  23.300  27.215  1.00  0.00     0.202 C 
BRANCH  33  34
ATOM     34  C   UNL A   1      39.447  24.758  27.597  1.00  0.00     0.261 C 
BRANCH  34  35
ATOM     35  O   UNL A   1      39.873  25.593  26.487  1.00  0.00    -0.460 OA
BRANCH  35  36
ATOM     36  C   UNL A   1      41.216  25.836  26.213  1.00  0.00     0.338 C 
ATOM     37  O   UNL A   1      41.874  25.113  25.480  1.00  0.00    -0.246 OA
BRANCH  36  38
ATOM     38  C   UNL A   1      41.430  27.324  26.229  1.00  0.00     0.060 A 
ATOM     39  C   UNL A   1      42.330  28.150  25.571  1.00  0.00     0.016 A 
ATOM     40  C   UNL A   1      40.649  27.977  27.104  1.00  0.00     0.016 A 
ATOM     41  C   UNL A   1      42.842  29.370  26.175  1.00  0.00     0.010 A 
ATOM     42  C   UNL A   1      41.263  29.029  27.777  1.00  0.00     0.010 A 
ATOM     43  C   UNL A   1      42.479  29.752  27.473  1.00  0.00    -0.014 A 
BRANCH  43  44
ATOM     44  C   UNL A   1      43.522  30.656  28.487  1.00  0.00     0.031 A 
ATOM     45  C   UNL A   1      43.767  32.297  28.947  1.00  0.00     0.074 A 
ATOM     46  C   UNL A   1      44.341  29.848  29.209  1.00  0.00     0.049 A 
ATOM     47  N   UNL A   1      44.950  32.838  29.158  1.00  0.00    -0.248 NA
ATOM     48  C   UNL A   1      42.784  33.454  29.141  1.00  0.00     0.031 C 
ATOM     49  C   UNL A   1      45.372  30.182  30.198  1.00  0.00     0.029 A 
ATOM     50  N   UNL A   1      44.447  28.465  29.095  1.00  0.00    -0.354 N 
ATOM     51  C   UNL A   1      44.748  34.182  29.523  1.00  0.00     0.074 A 
ATOM     52  C   UNL A   1      43.500  34.542  29.055  1.00  0.00     0.031 C 
ATOM     53  C   UNL A   1      46.196  29.128  30.328  1.00  0.00     0.029 A 
ATOM     54  C   UNL A   1      45.771  28.122  29.371  1.00  0.00     0.049 A 
ATOM     55  H   UNL A   1      43.720  27.842  28.863  1.00  0.00     0.167 HD
ATOM     56  C   UNL A   1      45.508  34.941  30.353  1.00  0.00     0.031 A 
ATOM     57  C   UNL A   1      46.498  27.662  28.315  1.00  0.00     0.031 A 
ATOM     58  C   UNL A   1      46.806  34.287  30.426  1.00  0.00     0.049 A 
ATOM     59  C   UNL A   1      47.454  28.772  27.838  1.00  0.00     0.074 A 
ATOM     60  C   UNL A   1      47.452  33.543  31.389  1.00  0.00     0.029 A 
ATOM     61  N   UNL A   1      47.388  33.894  29.197  1.00  0.00    -0.354 N 
ATOM     62  N   UNL A   1      47.393  30.025  28.254  1.00  0.00    -0.248 NA
ATOM     63  C   UNL A   1      48.623  28.562  26.993  1.00  0.00     0.031 C 
ATOM     64  C   UNL A   1      48.244  32.552  30.702  1.00  0.00     0.029 A 
ATOM     65  C   UNL A   1      48.136  32.723  29.324  1.00  0.00     0.049 A 
ATOM     66  H   UNL A   1      47.280  34.388  28.353  1.00  0.00     0.167 HD
ATOM     67  C   UNL A   1      48.468  30.752  27.826  1.00  0.00     0.074 A 
ATOM     68  C   UNL A   1      49.211  29.774  27.033  1.00  0.00     0.031 C 
ATOM     69  C   UNL A   1      48.737  32.070  28.134  1.00  0.00     0.031 A 
BRANCH  56  70
ATOM     70  C   UNL A   1      44.898  36.226  31.063  1.00  0.00    -0.014 A 
ATOM     71  C   UNL A   1      44.379  36.199  32.366  1.00  0.00     0.010 A 
ATOM     72  C   UNL A   1      44.820  37.538  30.479  1.00  0.00     0.010 A 
ATOM     73  C   UNL A   1      43.976  37.390  33.055  1.00  0.00     0.020 A 
ATOM     74  C   UNL A   1      44.526  38.734  31.166  1.00  0.00     0.020 A 
ATOM     75  C   UNL A   1      44.116  38.657  32.475  1.00  0.00     0.054 A 
BRANCH  75  76
ATOM     76  S   UNL A   1      43.739  40.183  33.396  1.00  0.00     0.124 S 
ATOM     77  O   UNL A   1      44.782  41.097  32.936  1.00  0.00    -0.237 OA
ATOM     78  O   UNL A   1      42.385  40.494  32.949  1.00  0.00    -0.237 OA
ATOM     79  O   UNL A   1      43.850  39.791  34.801  1.00  0.00    -0.744 OA
ENDBRANCH  75  76
ENDBRANCH  56  70
BRANCH  57  80
ATOM     80  C   UNL A   1      45.816  26.426  27.727  1.00  0.00    -0.014 A 
ATOM     81  C   UNL A   1      45.416  26.587  26.362  1.00  0.00     0.010 A 
ATOM     82  C   UNL A   1      45.820  25.100  28.192  1.00  0.00     0.010 A 
ATOM     83  C   UNL A   1      45.267  25.521  25.460  1.00  0.00     0.020 A 
ATOM     84  C   UNL A   1      45.566  24.008  27.297  1.00  0.00     0.020 A 
ATOM     85  C   UNL A   1      45.373  24.225  25.926  1.00  0.00     0.054 A 
BRANCH  85  86
ATOM     86  S   UNL A   1      45.431  22.872  24.696  1.00  0.00     0.124 S 
ATOM     87  O   UNL A   1      44.053  22.819  24.224  1.00  0.00    -0.237 OA
ATOM     88  O   UNL A   1      46.401  23.366  23.721  1.00  0.00    -0.237 OA
ATOM     89  O   UNL A   1      45.879  21.735  25.490  1.00  0.00    -0.744 OA
ENDBRANCH  85  86
ENDBRANCH  57  80
BRANCH  69  90
ATOM     90  C   UNL A   1      49.693  32.884  27.270  1.00  0.00    -0.014 A 
ATOM     91  C   UNL A   1      51.078  32.627  27.231  1.00  0.00     0.010 A 
ATOM     92  C   UNL A   1      49.195  33.805  26.320  1.00  0.00     0.010 A 
ATOM     93  C   UNL A   1      51.932  33.289  26.344  1.00  0.00     0.020 A 
ATOM     94  C   UNL A   1      50.033  34.418  25.374  1.00  0.00     0.020 A 
ATOM     95  C   UNL A   1      51.402  34.168  25.406  1.00  0.00     0.054 A 
BRANCH  95  96
ATOM     96  S   UNL A   1      52.488  34.870  24.136  1.00  0.00     0.124 S 
ATOM     97  O   UNL A   1      53.674  35.221  24.912  1.00  0.00    -0.237 OA
ATOM     98  O   UNL A   1      52.660  33.764  23.196  1.00  0.00    -0.237 OA
ATOM     99  O   UNL A   1      51.707  35.992  23.624  1.00  0.00    -0.744 OA
ENDBRANCH  95  96
ENDBRANCH  69  90
ENDBRANCH  43  44
ENDBRANCH  36  38
ENDBRANCH  35  36
ENDBRANCH  34  35
ENDBRANCH  33  34
ENDBRANCH  32  33
ENDBRANCH  31  32
ENDBRANCH   1  31
TORSDOF 25
ENDMDL
