MODEL 1
REMARK VINA RESULT:     -10.5      0.000      0.000
REMARK SMILES Cc1cn2c(=O)cc(CSc3ccccc3C(=O)OCCOCCOCCOC(=O)c3ccc(-c4c5nc(c(-c6ccc(S(=O)(=O)[O-])cc6)c6ccc([nH]6)c(-c6ccc(S(=O)(=O)[O-])cc6)c6nc(c(-c7ccc(S(=O)(=O)[O-])cc7)c7ccc4[nH]7)C=C6)C=C5)cc3)nc2s1
REMARK SMILES IDX 23 1 22 2 21 3 20 4 19 5 17 6 18 7 16 8 11 9 12 10 13 11
REMARK SMILES IDX 15 12 14 13 10 14 9 15 8 16 1 17 2 18 3 19 93 20 4 21 92 22
REMARK SMILES IDX 5 23 91 24 6 25 7 26 24 27 25 28 26 29 27 30 28 31 29 32
REMARK SMILES IDX 30 33 31 34 32 35 90 36 33 37 89 38 34 39 35 40 36 41 83 42
REMARK SMILES IDX 37 43 88 44 82 45 84 46 38 47 87 48 81 49 80 50 39 52 69 53
REMARK SMILES IDX 50 54 68 55 51 56 54 57 67 58 85 59 52 60 53 61 66 63 86 64
REMARK SMILES IDX 55 65 40 66 41 67 49 68 42 69 48 70 43 71 44 72 45 73 46 74
REMARK SMILES IDX 47 75 70 76 71 77 79 78 72 79 78 80 73 81 74 82 75 83 76 84
REMARK SMILES IDX 77 85 56 86 57 87 65 88 58 89 64 90 59 91 60 92 61 93 62 94
REMARK SMILES IDX 63 95
REMARK H PARENT 84 51 54 62
REMARK Flexibility Score: inf
ROOT
ATOM      1  C   UNL A   1      33.265  36.897  31.237  1.00  0.00     0.188 C 
ENDROOT
BRANCH   1   2
ATOM      2  O   UNL A   1      32.600  36.608  30.014  1.00  0.00    -0.376 OA
BRANCH   2   3
ATOM      3  C   UNL A   1      33.302  36.795  28.804  1.00  0.00     0.202 C 
BRANCH   3   4
ATOM      4  C   UNL A   1      34.176  35.609  28.398  1.00  0.00     0.261 C 
BRANCH   4   5
ATOM      5  O   UNL A   1      33.769  34.328  28.888  1.00  0.00    -0.460 OA
BRANCH   5   6
ATOM      6  C   UNL A   1      33.189  33.432  28.065  1.00  0.00     0.339 C 
ATOM      7  O   UNL A   1      32.166  33.531  27.420  1.00  0.00    -0.246 OA
BRANCH   6   8
ATOM      8  C   UNL A   1      34.070  32.256  27.996  1.00  0.00     0.073 A 
ATOM      9  C   UNL A   1      33.656  31.040  27.427  1.00  0.00     0.022 A 
ATOM     10  C   UNL A   1      34.481  29.923  27.630  1.00  0.00     0.016 A 
ATOM     11  C   UNL A   1      35.709  30.037  28.300  1.00  0.00     0.001 A 
ATOM     12  C   UNL A   1      35.329  32.388  28.612  1.00  0.00     0.017 A 
ATOM     13  C   UNL A   1      36.148  31.274  28.764  1.00  0.00     0.001 A 
BRANCH   9  14
ATOM     14  S   UNL A   1      32.077  30.781  26.597  1.00  0.00    -0.119 SA
BRANCH  14  15
ATOM     15  C   UNL A   1      31.806  28.965  26.645  1.00  0.00     0.131 C 
BRANCH  15  16
ATOM     16  C   UNL A   1      31.967  28.210  25.336  1.00  0.00     0.059 A 
ATOM     17  C   UNL A   1      32.981  23.127  22.201  1.00  0.00     0.058 C 
ATOM     18  C   UNL A   1      32.944  24.536  22.685  1.00  0.00     0.022 A 
ATOM     19  C   UNL A   1      32.044  25.473  22.350  1.00  0.00     0.111 A 
ATOM     20  S   UNL A   1      34.034  25.138  23.919  1.00  0.00    -0.102 S 
ATOM     21  N   UNL A   1      32.074  26.592  23.160  1.00  0.00    -0.258 N 
ATOM     22  C   UNL A   1      32.976  26.529  24.193  1.00  0.00     0.197 A 
ATOM     23  C   UNL A   1      31.188  27.636  23.088  1.00  0.00     0.258 A 
ATOM     24  N   UNL A   1      33.005  27.293  25.239  1.00  0.00    -0.224 NA
ATOM     25  O   UNL A   1      30.455  27.902  22.138  1.00  0.00    -0.269 OA
ATOM     26  C   UNL A   1      31.139  28.475  24.310  1.00  0.00     0.097 A 
ENDBRANCH  15  16
ENDBRANCH  14  15
ENDBRANCH   9  14
ENDBRANCH   6   8
ENDBRANCH   5   6
ENDBRANCH   4   5
ENDBRANCH   3   4
ENDBRANCH   2   3
ENDBRANCH   1   2
BRANCH   1  27
ATOM     27  C   UNL A   1      33.162  35.986  32.490  1.00  0.00     0.188 C 
BRANCH  27  28
ATOM     28  O   UNL A   1      32.864  34.614  32.236  1.00  0.00    -0.376 OA
BRANCH  28  29
ATOM     29  C   UNL A   1      33.679  33.616  32.831  1.00  0.00     0.202 C 
BRANCH  29  30
ATOM     30  C   UNL A   1      34.730  34.211  33.770  1.00  0.00     0.261 C 
BRANCH  30  31
ATOM     31  O   UNL A   1      35.576  33.216  34.332  1.00  0.00    -0.460 OA
BRANCH  31  32
ATOM     32  C   UNL A   1      36.884  33.424  34.082  1.00  0.00     0.338 C 
ATOM     33  O   UNL A   1      37.678  34.061  34.751  1.00  0.00    -0.246 OA
BRANCH  32  34
ATOM     34  C   UNL A   1      37.253  32.723  32.859  1.00  0.00     0.060 A 
ATOM     35  C   UNL A   1      36.987  31.352  32.822  1.00  0.00     0.016 A 
ATOM     36  C   UNL A   1      38.081  33.373  31.939  1.00  0.00     0.016 A 
ATOM     37  C   UNL A   1      37.811  30.572  32.056  1.00  0.00     0.010 A 
ATOM     38  C   UNL A   1      38.924  32.593  31.197  1.00  0.00     0.010 A 
ATOM     39  C   UNL A   1      38.856  31.213  31.388  1.00  0.00    -0.014 A 
BRANCH  39  40
ATOM     40  C   UNL A   1      40.049  30.429  31.182  1.00  0.00     0.031 A 
ATOM     41  C   UNL A   1      40.914  30.252  32.349  1.00  0.00     0.074 A 
ATOM     42  C   UNL A   1      40.266  29.843  29.991  1.00  0.00     0.049 A 
ATOM     43  N   UNL A   1      42.096  30.733  32.526  1.00  0.00    -0.248 NA
ATOM     44  C   UNL A   1      40.348  29.543  33.504  1.00  0.00     0.031 C 
ATOM     45  C   UNL A   1      39.325  29.693  28.873  1.00  0.00     0.029 A 
ATOM     46  N   UNL A   1      41.350  29.139  29.583  1.00  0.00    -0.354 N 
ATOM     47  C   UNL A   1      42.502  30.243  33.756  1.00  0.00     0.074 A 
ATOM     48  C   UNL A   1      41.339  29.667  34.385  1.00  0.00     0.031 C 
ATOM     49  C   UNL A   1      39.797  28.747  28.031  1.00  0.00     0.029 A 
ATOM     50  C   UNL A   1      41.108  28.319  28.492  1.00  0.00     0.049 A 
ATOM     51  H   UNL A   1      42.229  29.204  30.021  1.00  0.00     0.167 HD
ATOM     52  C   UNL A   1      43.811  30.120  34.093  1.00  0.00     0.031 A 
ATOM     53  C   UNL A   1      41.887  27.283  28.095  1.00  0.00     0.031 A 
ATOM     54  C   UNL A   1      44.694  30.808  33.196  1.00  0.00     0.049 A 
ATOM     55  C   UNL A   1      43.236  27.502  28.687  1.00  0.00     0.074 A 
ATOM     56  C   UNL A   1      44.852  32.129  32.824  1.00  0.00     0.029 A 
ATOM     57  N   UNL A   1      45.333  30.059  32.235  1.00  0.00    -0.354 N 
ATOM     58  N   UNL A   1      44.023  28.490  28.356  1.00  0.00    -0.248 NA
ATOM     59  C   UNL A   1      43.551  26.868  29.961  1.00  0.00     0.031 C 
ATOM     60  C   UNL A   1      45.198  32.090  31.443  1.00  0.00     0.029 A 
ATOM     61  C   UNL A   1      45.251  30.750  31.051  1.00  0.00     0.049 A 
ATOM     62  H   UNL A   1      45.769  29.186  32.371  1.00  0.00     0.167 HD
ATOM     63  C   UNL A   1      44.664  28.859  29.533  1.00  0.00     0.074 A 
ATOM     64  C   UNL A   1      44.419  27.755  30.456  1.00  0.00     0.031 C 
ATOM     65  C   UNL A   1      45.092  30.140  29.743  1.00  0.00     0.031 A 
BRANCH  52  66
ATOM     66  C   UNL A   1      44.271  29.068  35.049  1.00  0.00    -0.014 A 
ATOM     67  C   UNL A   1      44.113  27.711  34.734  1.00  0.00     0.010 A 
ATOM     68  C   UNL A   1      44.671  29.399  36.364  1.00  0.00     0.010 A 
ATOM     69  C   UNL A   1      44.345  26.725  35.700  1.00  0.00     0.020 A 
ATOM     70  C   UNL A   1      44.954  28.425  37.315  1.00  0.00     0.020 A 
ATOM     71  C   UNL A   1      44.763  27.091  36.983  1.00  0.00     0.054 A 
BRANCH  71  72
ATOM     72  S   UNL A   1      44.968  25.815  38.246  1.00  0.00     0.124 S 
ATOM     73  O   UNL A   1      44.612  24.605  37.511  1.00  0.00    -0.237 OA
ATOM     74  O   UNL A   1      46.379  25.952  38.598  1.00  0.00    -0.237 OA
ATOM     75  O   UNL A   1      44.028  26.210  39.292  1.00  0.00    -0.744 OA
ENDBRANCH  71  72
ENDBRANCH  52  66
BRANCH  53  76
ATOM     76  C   UNL A   1      41.416  25.981  27.551  1.00  0.00    -0.014 A 
ATOM     77  C   UNL A   1      42.101  25.350  26.497  1.00  0.00     0.010 A 
ATOM     78  C   UNL A   1      40.427  25.228  28.221  1.00  0.00     0.010 A 
ATOM     79  C   UNL A   1      41.846  24.007  26.169  1.00  0.00     0.020 A 
ATOM     80  C   UNL A   1      40.152  23.898  27.889  1.00  0.00     0.020 A 
ATOM     81  C   UNL A   1      40.887  23.284  26.884  1.00  0.00     0.054 A 
BRANCH  81  82
ATOM     82  S   UNL A   1      40.666  21.514  26.550  1.00  0.00     0.124 S 
ATOM     83  O   UNL A   1      40.670  20.936  27.891  1.00  0.00    -0.237 OA
ATOM     84  O   UNL A   1      39.384  21.489  25.853  1.00  0.00    -0.237 OA
ATOM     85  O   UNL A   1      41.825  21.169  25.727  1.00  0.00    -0.744 OA
ENDBRANCH  81  82
ENDBRANCH  53  76
BRANCH  65  86
ATOM     86  C   UNL A   1      45.110  31.093  28.568  1.00  0.00    -0.014 A 
ATOM     87  C   UNL A   1      44.065  32.003  28.313  1.00  0.00     0.010 A 
ATOM     88  C   UNL A   1      46.302  31.216  27.830  1.00  0.00     0.010 A 
ATOM     89  C   UNL A   1      44.210  33.011  27.349  1.00  0.00     0.020 A 
ATOM     90  C   UNL A   1      46.458  32.229  26.877  1.00  0.00     0.020 A 
ATOM     91  C   UNL A   1      45.413  33.127  26.648  1.00  0.00     0.054 A 
BRANCH  91  92
ATOM     92  S   UNL A   1      45.624  34.498  25.476  1.00  0.00     0.124 S 
ATOM     93  O   UNL A   1      45.033  35.627  26.191  1.00  0.00    -0.237 OA
ATOM     94  O   UNL A   1      47.074  34.550  25.307  1.00  0.00    -0.237 OA
ATOM     95  O   UNL A   1      44.884  34.064  24.291  1.00  0.00    -0.744 OA
ENDBRANCH  91  92
ENDBRANCH  65  86
ENDBRANCH  39  40
ENDBRANCH  32  34
ENDBRANCH  31  32
ENDBRANCH  30  31
ENDBRANCH  29  30
ENDBRANCH  28  29
ENDBRANCH  27  28
ENDBRANCH   1  27
TORSDOF 23
ENDMDL
MODEL 2
REMARK VINA RESULT:     -10.5      3.767     10.174
REMARK SMILES Cc1cn2c(=O)cc(CSc3ccccc3C(=O)OCCOCCOCCOC(=O)c3ccc(-c4c5nc(c(-c6ccc(S(=O)(=O)[O-])cc6)c6ccc([nH]6)c(-c6ccc(S(=O)(=O)[O-])cc6)c6nc(c(-c7ccc(S(=O)(=O)[O-])cc7)c7ccc4[nH]7)C=C6)C=C5)cc3)nc2s1
REMARK SMILES IDX 23 1 22 2 21 3 20 4 19 5 17 6 18 7 16 8 11 9 12 10 13 11
REMARK SMILES IDX 15 12 14 13 10 14 9 15 8 16 1 17 2 18 3 19 93 20 4 21 92 22
REMARK SMILES IDX 5 23 91 24 6 25 7 26 24 27 25 28 26 29 27 30 28 31 29 32
REMARK SMILES IDX 30 33 31 34 32 35 90 36 33 37 89 38 34 39 35 40 36 41 83 42
REMARK SMILES IDX 37 43 88 44 82 45 84 46 38 47 87 48 81 49 80 50 39 52 69 53
REMARK SMILES IDX 50 54 68 55 51 56 54 57 67 58 85 59 52 60 53 61 66 63 86 64
REMARK SMILES IDX 55 65 40 66 41 67 49 68 42 69 48 70 43 71 44 72 45 73 46 74
REMARK SMILES IDX 47 75 70 76 71 77 79 78 72 79 78 80 73 81 74 82 75 83 76 84
REMARK SMILES IDX 77 85 56 86 57 87 65 88 58 89 64 90 59 91 60 92 61 93 62 94
REMARK SMILES IDX 63 95
REMARK H PARENT 84 51 54 62
REMARK Flexibility Score: inf
ROOT
ATOM      1  C   UNL A   1      37.501  20.997  24.739  1.00  0.00     0.188 C 
ENDROOT
BRANCH   1   2
ATOM      2  O   UNL A   1      37.077  22.351  24.645  1.00  0.00    -0.376 OA
BRANCH   2   3
ATOM      3  C   UNL A   1      36.198  22.853  25.628  1.00  0.00     0.202 C 
BRANCH   3   4
ATOM      4  C   UNL A   1      36.016  24.370  25.587  1.00  0.00     0.261 C 
BRANCH   4   5
ATOM      5  O   UNL A   1      34.947  24.856  24.771  1.00  0.00    -0.460 OA
BRANCH   5   6
ATOM      6  C   UNL A   1      33.820  25.337  25.332  1.00  0.00     0.339 C 
ATOM      7  O   UNL A   1      33.301  25.042  26.389  1.00  0.00    -0.246 OA
BRANCH   6   8
ATOM      8  C   UNL A   1      33.305  26.400  24.455  1.00  0.00     0.073 A 
ATOM      9  C   UNL A   1      32.237  26.191  23.568  1.00  0.00     0.022 A 
ATOM     10  C   UNL A   1      31.989  27.191  22.615  1.00  0.00     0.016 A 
ATOM     11  C   UNL A   1      32.723  28.387  22.606  1.00  0.00     0.001 A 
ATOM     12  C   UNL A   1      34.002  27.623  24.490  1.00  0.00     0.017 A 
ATOM     13  C   UNL A   1      33.709  28.617  23.562  1.00  0.00     0.001 A 
BRANCH   9  14
ATOM     14  S   UNL A   1      31.271  24.672  23.466  1.00  0.00    -0.119 SA
BRANCH  14  15
ATOM     15  C   UNL A   1      32.408  23.433  22.727  1.00  0.00     0.131 C 
BRANCH  15  16
ATOM     16  C   UNL A   1      32.518  22.092  23.435  1.00  0.00     0.059 A 
ATOM     17  C   UNL A   1      34.080  16.241  23.563  1.00  0.00     0.058 C 
ATOM     18  C   UNL A   1      33.395  17.552  23.746  1.00  0.00     0.022 A 
ATOM     19  C   UNL A   1      33.569  18.412  24.761  1.00  0.00     0.111 A 
ATOM     20  S   UNL A   1      32.331  18.237  22.531  1.00  0.00    -0.102 S 
ATOM     21  N   UNL A   1      33.034  19.664  24.532  1.00  0.00    -0.258 N 
ATOM     22  C   UNL A   1      32.467  19.828  23.292  1.00  0.00     0.197 A 
ATOM     23  C   UNL A   1      33.173  20.742  25.368  1.00  0.00     0.258 A 
ATOM     24  N   UNL A   1      32.160  20.953  22.727  1.00  0.00    -0.224 NA
ATOM     25  O   UNL A   1      33.500  20.704  26.552  1.00  0.00    -0.269 OA
ATOM     26  C   UNL A   1      32.913  22.050  24.720  1.00  0.00     0.097 A 
ENDBRANCH  15  16
ENDBRANCH  14  15
ENDBRANCH   9  14
ENDBRANCH   6   8
ENDBRANCH   5   6
ENDBRANCH   4   5
ENDBRANCH   3   4
ENDBRANCH   2   3
ENDBRANCH   1   2
BRANCH   1  27
ATOM     27  C   UNL A   1      38.719  20.550  25.592  1.00  0.00     0.188 C 
BRANCH  27  28
ATOM     28  O   UNL A   1      39.691  21.559  25.860  1.00  0.00    -0.376 OA
BRANCH  28  29
ATOM     29  C   UNL A   1      40.400  21.515  27.089  1.00  0.00     0.202 C 
BRANCH  29  30
ATOM     30  C   UNL A   1      41.814  20.955  26.923  1.00  0.00     0.261 C 
BRANCH  30  31
ATOM     31  O   UNL A   1      42.209  20.885  25.558  1.00  0.00    -0.460 OA
BRANCH  31  32
ATOM     32  C   UNL A   1      43.529  20.663  25.396  1.00  0.00     0.338 C 
ATOM     33  O   UNL A   1      44.102  19.591  25.332  1.00  0.00    -0.246 OA
BRANCH  32  34
ATOM     34  C   UNL A   1      44.214  21.943  25.268  1.00  0.00     0.060 A 
ATOM     35  C   UNL A   1      45.305  22.154  26.114  1.00  0.00     0.016 A 
ATOM     36  C   UNL A   1      43.594  22.964  24.540  1.00  0.00     0.016 A 
ATOM     37  C   UNL A   1      45.574  23.443  26.485  1.00  0.00     0.010 A 
ATOM     38  C   UNL A   1      43.842  24.250  24.932  1.00  0.00     0.010 A 
ATOM     39  C   UNL A   1      44.725  24.438  25.996  1.00  0.00    -0.014 A 
BRANCH  39  40
ATOM     40  C   UNL A   1      44.545  25.589  26.846  1.00  0.00     0.031 A 
ATOM     41  C   UNL A   1      45.547  26.648  26.719  1.00  0.00     0.074 A 
ATOM     42  C   UNL A   1      43.456  25.675  27.630  1.00  0.00     0.049 A 
ATOM     43  N   UNL A   1      46.422  27.004  27.595  1.00  0.00    -0.248 NA
ATOM     44  C   UNL A   1      45.657  27.317  25.418  1.00  0.00     0.031 C 
ATOM     45  C   UNL A   1      42.250  24.837  27.598  1.00  0.00     0.029 A 
ATOM     46  N   UNL A   1      43.149  26.628  28.545  1.00  0.00    -0.354 N 
ATOM     47  C   UNL A   1      47.093  28.069  27.019  1.00  0.00     0.074 A 
ATOM     48  C   UNL A   1      46.705  28.109  25.630  1.00  0.00     0.031 C 
ATOM     49  C   UNL A   1      41.264  25.466  28.276  1.00  0.00     0.029 A 
ATOM     50  C   UNL A   1      41.803  26.678  28.872  1.00  0.00     0.049 A 
ATOM     51  H   UNL A   1      43.820  27.230  28.939  1.00  0.00     0.167 HD
ATOM     52  C   UNL A   1      47.741  29.006  27.758  1.00  0.00     0.031 A 
ATOM     53  C   UNL A   1      41.176  27.715  29.479  1.00  0.00     0.031 A 
ATOM     54  C   UNL A   1      47.912  28.625  29.130  1.00  0.00     0.049 A 
ATOM     55  C   UNL A   1      42.228  28.519  30.162  1.00  0.00     0.074 A 
ATOM     56  C   UNL A   1      48.561  27.586  29.768  1.00  0.00     0.029 A 
ATOM     57  N   UNL A   1      47.035  29.153  30.050  1.00  0.00    -0.354 N 
ATOM     58  N   UNL A   1      42.934  28.085  31.171  1.00  0.00    -0.248 NA
ATOM     59  C   UNL A   1      42.802  29.659  29.459  1.00  0.00     0.031 C 
ATOM     60  C   UNL A   1      47.741  27.263  30.886  1.00  0.00     0.029 A 
ATOM     61  C   UNL A   1      46.647  28.132  30.882  1.00  0.00     0.049 A 
ATOM     62  H   UNL A   1      46.739  30.091  30.101  1.00  0.00     0.167 HD
ATOM     63  C   UNL A   1      44.203  28.621  30.989  1.00  0.00     0.074 A 
ATOM     64  C   UNL A   1      44.029  29.667  29.988  1.00  0.00     0.031 C 
ATOM     65  C   UNL A   1      45.320  27.986  31.455  1.00  0.00     0.031 A 
BRANCH  52  66
ATOM     66  C   UNL A   1      47.891  30.411  27.272  1.00  0.00    -0.014 A 
ATOM     67  C   UNL A   1      49.152  31.023  27.267  1.00  0.00     0.010 A 
ATOM     68  C   UNL A   1      46.761  31.221  27.016  1.00  0.00     0.010 A 
ATOM     69  C   UNL A   1      49.275  32.395  27.016  1.00  0.00     0.020 A 
ATOM     70  C   UNL A   1      46.878  32.573  26.714  1.00  0.00     0.020 A 
ATOM     71  C   UNL A   1      48.135  33.158  26.743  1.00  0.00     0.054 A 
BRANCH  71  72
ATOM     72  S   UNL A   1      48.299  34.944  26.512  1.00  0.00     0.124 S 
ATOM     73  O   UNL A   1      49.620  35.199  27.079  1.00  0.00    -0.237 OA
ATOM     74  O   UNL A   1      48.192  35.080  25.062  1.00  0.00    -0.237 OA
ATOM     75  O   UNL A   1      47.177  35.493  27.271  1.00  0.00    -0.744 OA
ENDBRANCH  71  72
ENDBRANCH  52  66
BRANCH  53  76
ATOM     76  C   UNL A   1      39.805  28.212  29.188  1.00  0.00    -0.014 A 
ATOM     77  C   UNL A   1      38.848  28.331  30.212  1.00  0.00     0.010 A 
ATOM     78  C   UNL A   1      39.494  28.800  27.942  1.00  0.00     0.010 A 
ATOM     79  C   UNL A   1      37.660  29.056  30.014  1.00  0.00     0.020 A 
ATOM     80  C   UNL A   1      38.306  29.507  27.729  1.00  0.00     0.020 A 
ATOM     81  C   UNL A   1      37.408  29.658  28.777  1.00  0.00     0.054 A 
BRANCH  81  82
ATOM     82  S   UNL A   1      35.945  30.711  28.575  1.00  0.00     0.124 S 
ATOM     83  O   UNL A   1      35.625  31.077  29.951  1.00  0.00    -0.237 OA
ATOM     84  O   UNL A   1      36.456  31.790  27.735  1.00  0.00    -0.237 OA
ATOM     85  O   UNL A   1      34.972  29.832  27.928  1.00  0.00    -0.744 OA
ENDBRANCH  81  82
ENDBRANCH  53  76
BRANCH  65  86
ATOM     86  C   UNL A   1      45.143  26.829  32.413  1.00  0.00    -0.014 A 
ATOM     87  C   UNL A   1      45.024  27.009  33.806  1.00  0.00     0.010 A 
ATOM     88  C   UNL A   1      44.881  25.555  31.877  1.00  0.00     0.010 A 
ATOM     89  C   UNL A   1      44.649  25.944  34.638  1.00  0.00     0.020 A 
ATOM     90  C   UNL A   1      44.493  24.493  32.699  1.00  0.00     0.020 A 
ATOM     91  C   UNL A   1      44.370  24.695  34.076  1.00  0.00     0.054 A 
BRANCH  91  92
ATOM     92  S   UNL A   1      43.787  23.354  35.152  1.00  0.00     0.124 S 
ATOM     93  O   UNL A   1      43.996  22.166  34.329  1.00  0.00    -0.237 OA
ATOM     94  O   UNL A   1      44.664  23.476  36.315  1.00  0.00    -0.237 OA
ATOM     95  O   UNL A   1      42.386  23.690  35.405  1.00  0.00    -0.744 OA
ENDBRANCH  91  92
ENDBRANCH  65  86
ENDBRANCH  39  40
ENDBRANCH  32  34
ENDBRANCH  31  32
ENDBRANCH  30  31
ENDBRANCH  29  30
ENDBRANCH  28  29
ENDBRANCH  27  28
ENDBRANCH   1  27
TORSDOF 23
ENDMDL
MODEL 3
REMARK VINA RESULT:     -10.4      3.490     10.386
REMARK SMILES Cc1cn2c(=O)cc(CSc3ccccc3C(=O)OCCOCCOCCOC(=O)c3ccc(-c4c5nc(c(-c6ccc(S(=O)(=O)[O-])cc6)c6ccc([nH]6)c(-c6ccc(S(=O)(=O)[O-])cc6)c6nc(c(-c7ccc(S(=O)(=O)[O-])cc7)c7ccc4[nH]7)C=C6)C=C5)cc3)nc2s1
REMARK SMILES IDX 23 1 22 2 21 3 20 4 19 5 17 6 18 7 16 8 11 9 12 10 13 11
REMARK SMILES IDX 15 12 14 13 10 14 9 15 8 16 1 17 2 18 3 19 93 20 4 21 92 22
REMARK SMILES IDX 5 23 91 24 6 25 7 26 24 27 25 28 26 29 27 30 28 31 29 32
REMARK SMILES IDX 30 33 31 34 32 35 90 36 33 37 89 38 34 39 35 40 36 41 83 42
REMARK SMILES IDX 37 43 88 44 82 45 84 46 38 47 87 48 81 49 80 50 39 52 69 53
REMARK SMILES IDX 50 54 68 55 51 56 54 57 67 58 85 59 52 60 53 61 66 63 86 64
REMARK SMILES IDX 55 65 40 66 41 67 49 68 42 69 48 70 43 71 44 72 45 73 46 74
REMARK SMILES IDX 47 75 70 76 71 77 79 78 72 79 78 80 73 81 74 82 75 83 76 84
REMARK SMILES IDX 77 85 56 86 57 87 65 88 58 89 64 90 59 91 60 92 61 93 62 94
REMARK SMILES IDX 63 95
REMARK H PARENT 84 51 54 62
REMARK Flexibility Score: inf
ROOT
ATOM      1  C   UNL A   1      37.833  21.653  24.956  1.00  0.00     0.188 C 
ENDROOT
BRANCH   1   2
ATOM      2  O   UNL A   1      37.610  23.050  24.815  1.00  0.00    -0.376 OA
BRANCH   2   3
ATOM      3  C   UNL A   1      36.970  23.741  25.866  1.00  0.00     0.202 C 
BRANCH   3   4
ATOM      4  C   UNL A   1      35.520  24.125  25.571  1.00  0.00     0.261 C 
BRANCH   4   5
ATOM      5  O   UNL A   1      34.727  23.135  24.910  1.00  0.00    -0.460 OA
BRANCH   5   6
ATOM      6  C   UNL A   1      33.931  22.310  25.618  1.00  0.00     0.339 C 
ATOM      7  O   UNL A   1      33.527  22.421  26.757  1.00  0.00    -0.246 OA
BRANCH   6   8
ATOM      8  C   UNL A   1      33.528  21.209  24.729  1.00  0.00     0.073 A 
ATOM      9  C   UNL A   1      32.673  21.405  23.631  1.00  0.00     0.022 A 
ATOM     10  C   UNL A   1      32.164  20.258  23.003  1.00  0.00     0.016 A 
ATOM     11  C   UNL A   1      32.561  18.972  23.402  1.00  0.00     0.001 A 
ATOM     12  C   UNL A   1      33.976  19.925  25.091  1.00  0.00     0.017 A 
ATOM     13  C   UNL A   1      33.490  18.805  24.425  1.00  0.00     0.001 A 
BRANCH   9  14
ATOM     14  S   UNL A   1      32.066  23.009  23.077  1.00  0.00    -0.119 SA
BRANCH  14  15
ATOM     15  C   UNL A   1      31.025  23.627  24.458  1.00  0.00     0.131 C 
BRANCH  15  16
ATOM     16  C   UNL A   1      30.841  25.133  24.560  1.00  0.00     0.059 A 
ATOM     17  C   UNL A   1      32.599  30.601  26.485  1.00  0.00     0.058 C 
ATOM     18  C   UNL A   1      31.811  29.400  26.085  1.00  0.00     0.022 A 
ATOM     19  C   UNL A   1      31.301  29.145  24.871  1.00  0.00     0.111 A 
ATOM     20  S   UNL A   1      31.559  28.038  27.160  1.00  0.00    -0.102 S 
ATOM     21  N   UNL A   1      30.874  27.842  24.706  1.00  0.00    -0.258 N 
ATOM     22  C   UNL A   1      31.092  27.025  25.788  1.00  0.00     0.197 A 
ATOM     23  C   UNL A   1      30.415  27.310  23.528  1.00  0.00     0.258 A 
ATOM     24  N   UNL A   1      31.054  25.730  25.795  1.00  0.00    -0.224 NA
ATOM     25  O   UNL A   1      30.020  27.943  22.551  1.00  0.00    -0.269 OA
ATOM     26  C   UNL A   1      30.445  25.828  23.480  1.00  0.00     0.097 A 
ENDBRANCH  15  16
ENDBRANCH  14  15
ENDBRANCH   9  14
ENDBRANCH   6   8
ENDBRANCH   5   6
ENDBRANCH   4   5
ENDBRANCH   3   4
ENDBRANCH   2   3
ENDBRANCH   1   2
BRANCH   1  27
ATOM     27  C   UNL A   1      38.900  21.060  25.916  1.00  0.00     0.188 C 
BRANCH  27  28
ATOM     28  O   UNL A   1      40.090  21.832  26.073  1.00  0.00    -0.376 OA
BRANCH  28  29
ATOM     29  C   UNL A   1      40.896  21.618  27.221  1.00  0.00     0.202 C 
BRANCH  29  30
ATOM     30  C   UNL A   1      42.119  20.750  26.918  1.00  0.00     0.261 C 
BRANCH  30  31
ATOM     31  O   UNL A   1      42.487  20.798  25.545  1.00  0.00    -0.460 OA
BRANCH  31  32
ATOM     32  C   UNL A   1      43.804  20.598  25.338  1.00  0.00     0.338 C 
ATOM     33  O   UNL A   1      44.389  19.535  25.245  1.00  0.00    -0.246 OA
BRANCH  32  34
ATOM     34  C   UNL A   1      44.466  21.888  25.200  1.00  0.00     0.060 A 
ATOM     35  C   UNL A   1      45.562  22.119  26.035  1.00  0.00     0.016 A 
ATOM     36  C   UNL A   1      43.821  22.897  24.477  1.00  0.00     0.016 A 
ATOM     37  C   UNL A   1      45.812  23.414  26.401  1.00  0.00     0.010 A 
ATOM     38  C   UNL A   1      44.051  24.188  24.865  1.00  0.00     0.010 A 
ATOM     39  C   UNL A   1      44.941  24.394  25.919  1.00  0.00    -0.014 A 
BRANCH  39  40
ATOM     40  C   UNL A   1      44.751  25.542  26.768  1.00  0.00     0.031 A 
ATOM     41  C   UNL A   1      45.740  26.613  26.639  1.00  0.00     0.074 A 
ATOM     42  C   UNL A   1      43.663  25.617  27.556  1.00  0.00     0.049 A 
ATOM     43  N   UNL A   1      46.614  26.979  27.512  1.00  0.00    -0.248 NA
ATOM     44  C   UNL A   1      45.840  27.282  25.337  1.00  0.00     0.031 C 
ATOM     45  C   UNL A   1      42.466  24.766  27.527  1.00  0.00     0.029 A 
ATOM     46  N   UNL A   1      43.347  26.567  28.470  1.00  0.00    -0.354 N 
ATOM     47  C   UNL A   1      47.271  28.052  26.934  1.00  0.00     0.074 A 
ATOM     48  C   UNL A   1      46.880  28.086  25.546  1.00  0.00     0.031 C 
ATOM     49  C   UNL A   1      41.475  25.384  28.207  1.00  0.00     0.029 A 
ATOM     50  C   UNL A   1      42.001  26.602  28.801  1.00  0.00     0.049 A 
ATOM     51  H   UNL A   1      44.013  27.177  28.862  1.00  0.00     0.167 HD
ATOM     52  C   UNL A   1      47.910  28.996  27.670  1.00  0.00     0.031 A 
ATOM     53  C   UNL A   1      41.365  27.632  29.409  1.00  0.00     0.031 A 
ATOM     54  C   UNL A   1      48.089  28.618  29.043  1.00  0.00     0.049 A 
ATOM     55  C   UNL A   1      42.409  28.448  30.088  1.00  0.00     0.074 A 
ATOM     56  C   UNL A   1      48.751  27.587  29.679  1.00  0.00     0.029 A 
ATOM     57  N   UNL A   1      47.209  29.136  29.964  1.00  0.00    -0.354 N 
ATOM     58  N   UNL A   1      43.122  28.024  31.096  1.00  0.00    -0.248 NA
ATOM     59  C   UNL A   1      42.968  29.595  29.383  1.00  0.00     0.031 C 
ATOM     60  C   UNL A   1      47.938  27.255  30.800  1.00  0.00     0.029 A 
ATOM     61  C   UNL A   1      46.834  28.111  30.798  1.00  0.00     0.049 A 
ATOM     62  H   UNL A   1      46.903  30.071  30.015  1.00  0.00     0.167 HD
ATOM     63  C   UNL A   1      44.385  28.573  30.911  1.00  0.00     0.074 A 
ATOM     64  C   UNL A   1      44.197  29.617  29.909  1.00  0.00     0.031 C 
ATOM     65  C   UNL A   1      45.511  27.952  31.374  1.00  0.00     0.031 A 
BRANCH  52  66
ATOM     66  C   UNL A   1      48.044  30.402  27.184  1.00  0.00    -0.014 A 
ATOM     67  C   UNL A   1      49.291  31.041  27.209  1.00  0.00     0.010 A 
ATOM     68  C   UNL A   1      46.904  31.188  26.895  1.00  0.00     0.010 A 
ATOM     69  C   UNL A   1      49.391  32.414  26.956  1.00  0.00     0.020 A 
ATOM     70  C   UNL A   1      47.000  32.541  26.592  1.00  0.00     0.020 A 
ATOM     71  C   UNL A   1      48.244  33.153  26.650  1.00  0.00     0.054 A 
BRANCH  71  72
ATOM     72  S   UNL A   1      48.376  34.940  26.418  1.00  0.00     0.124 S 
ATOM     73  O   UNL A   1      49.048  35.354  27.646  1.00  0.00    -0.237 OA
ATOM     74  O   UNL A   1      49.170  35.035  25.196  1.00  0.00    -0.237 OA
ATOM     75  O   UNL A   1      46.986  35.374  26.289  1.00  0.00    -0.744 OA
ENDBRANCH  71  72
ENDBRANCH  52  66
BRANCH  53  76
ATOM     76  C   UNL A   1      39.988  28.114  29.121  1.00  0.00    -0.014 A 
ATOM     77  C   UNL A   1      38.952  27.942  30.058  1.00  0.00     0.010 A 
ATOM     78  C   UNL A   1      39.728  28.960  28.020  1.00  0.00     0.010 A 
ATOM     79  C   UNL A   1      37.735  28.633  29.928  1.00  0.00     0.020 A 
ATOM     80  C   UNL A   1      38.513  29.637  27.872  1.00  0.00     0.020 A 
ATOM     81  C   UNL A   1      37.533  29.493  28.845  1.00  0.00     0.054 A 
BRANCH  81  82
ATOM     82  S   UNL A   1      36.018  30.489  28.761  1.00  0.00     0.124 S 
ATOM     83  O   UNL A   1      36.308  31.413  27.669  1.00  0.00    -0.237 OA
ATOM     84  O   UNL A   1      35.001  29.480  28.485  1.00  0.00    -0.237 OA
ATOM     85  O   UNL A   1      35.936  31.105  30.085  1.00  0.00    -0.744 OA
ENDBRANCH  81  82
ENDBRANCH  53  76
BRANCH  65  86
ATOM     86  C   UNL A   1      45.349  26.793  32.334  1.00  0.00    -0.014 A 
ATOM     87  C   UNL A   1      45.445  26.947  33.731  1.00  0.00     0.010 A 
ATOM     88  C   UNL A   1      44.882  25.568  31.824  1.00  0.00     0.010 A 
ATOM     89  C   UNL A   1      45.080  25.904  34.595  1.00  0.00     0.020 A 
ATOM     90  C   UNL A   1      44.503  24.528  32.681  1.00  0.00     0.020 A 
ATOM     91  C   UNL A   1      44.596  24.705  34.063  1.00  0.00     0.054 A 
BRANCH  91  92
ATOM     92  S   UNL A   1      44.032  23.402  35.194  1.00  0.00     0.124 S 
ATOM     93  O   UNL A   1      42.588  23.387  34.974  1.00  0.00    -0.237 OA
ATOM     94  O   UNL A   1      44.755  22.227  34.710  1.00  0.00    -0.237 OA
ATOM     95  O   UNL A   1      44.450  23.877  36.513  1.00  0.00    -0.744 OA
ENDBRANCH  91  92
ENDBRANCH  65  86
ENDBRANCH  39  40
ENDBRANCH  32  34
ENDBRANCH  31  32
ENDBRANCH  30  31
ENDBRANCH  29  30
ENDBRANCH  28  29
ENDBRANCH  27  28
ENDBRANCH   1  27
TORSDOF 23
ENDMDL
