MODEL 1
REMARK VINA RESULT:      -8.5      0.000      0.000
REMARK SMILES C[N@H+](CCC(=O)Nc1sccc1C#N)CC(=O)OCCOCCOCCOC(=O)c1ccc(-c2c3nc(c(-c4ccc(S(=O)(=O)[O-])cc4)c4ccc([nH]4)c(-c4ccc(S(=O)(=O)[O-])cc4)c4nc(c(-c5ccc(S(=O)(=O)[O-])cc5)c5ccc2[nH]5)C=C4)C=C3)cc1
REMARK SMILES IDX 21 1 20 2 19 3 18 4 16 5 17 6 15 7 2 8 1 9 3 11 4 12 5 13
REMARK SMILES IDX 6 14 7 15 8 17 9 18 12 19 10 20 11 21 13 22 14 23 22 24
REMARK SMILES IDX 23 25 24 26 25 27 26 28 27 29 28 30 29 31 30 32 31 33 89 34
REMARK SMILES IDX 32 35 88 36 33 37 34 38 35 39 82 40 36 41 87 42 81 43 83 44
REMARK SMILES IDX 37 45 86 46 80 47 79 48 38 50 68 51 49 52 67 53 50 54 53 55
REMARK SMILES IDX 66 56 84 57 51 58 52 59 65 61 85 62 54 63 39 64 40 65 48 66
REMARK SMILES IDX 41 67 47 68 42 69 43 70 44 71 45 72 46 73 69 74 70 75 78 76
REMARK SMILES IDX 71 77 77 78 72 79 73 80 74 81 75 82 76 83 55 84 56 85 64 86
REMARK SMILES IDX 57 87 63 88 58 89 59 90 60 91 61 92 62 93
REMARK H PARENT 2 10 7 16 83 49 53 60
REMARK Flexibility Score: inf
ROOT
ATOM      1  O   UNL A   1      39.807  21.900  26.282  1.00  0.00    -0.376 OA
ENDROOT
BRANCH   1   2
ATOM      2  C   UNL A   1      39.353  23.231  26.510  1.00  0.00     0.202 C 
BRANCH   2   3
ATOM      3  C   UNL A   1      37.877  23.593  26.271  1.00  0.00     0.261 C 
BRANCH   3   4
ATOM      4  O   UNL A   1      37.184  22.642  25.444  1.00  0.00    -0.459 OA
BRANCH   4   5
ATOM      5  C   UNL A   1      35.979  23.068  24.972  1.00  0.00     0.361 C 
ATOM      6  O   UNL A   1      35.611  24.241  25.017  1.00  0.00    -0.245 OA
BRANCH   5   7
ATOM      7  C   UNL A   1      35.144  22.015  24.263  1.00  0.00     0.386 C 
BRANCH   7   8
ATOM      8  N   UNL A   1      33.877  21.634  24.901  1.00  0.00    -0.328 N 
ATOM      9  C   UNL A   1      33.834  20.157  24.943  1.00  0.00     0.333 C 
ATOM     10  H   UNL A   1      33.839  22.042  25.835  1.00  0.00     0.348 HD
BRANCH   8  11
ATOM     11  C   UNL A   1      32.705  22.140  24.166  1.00  0.00     0.272 C 
BRANCH  11  12
ATOM     12  C   UNL A   1      31.918  23.305  24.748  1.00  0.00     0.161 C 
BRANCH  12  13
ATOM     13  C   UNL A   1      32.229  24.231  25.928  1.00  0.00     0.230 C 
ATOM     14  O   UNL A   1      32.163  23.679  27.047  1.00  0.00    -0.274 OA
ATOM     15  N   UNL A   1      32.686  25.499  25.991  1.00  0.00    -0.316 N 
ATOM     16  H   UNL A   1      33.004  25.719  26.896  1.00  0.00     0.170 HD
BRANCH  15  17
ATOM     17  C   UNL A   1      32.828  26.567  25.143  1.00  0.00     0.113 A 
ATOM     18  S   UNL A   1      32.285  28.014  25.902  1.00  0.00    -0.125 S 
ATOM     19  C   UNL A   1      33.268  26.823  23.863  1.00  0.00     0.087 A 
ATOM     20  C   UNL A   1      33.058  28.989  24.731  1.00  0.00     0.068 A 
ATOM     21  C   UNL A   1      33.482  28.233  23.661  1.00  0.00     0.033 A 
BRANCH  19  22
ATOM     22  C   UNL A   1      33.501  25.845  22.859  1.00  0.00     0.102 C 
ATOM     23  N   UNL A   1      33.687  25.026  22.044  1.00  0.00    -0.192 NA
ENDBRANCH  19  22
ENDBRANCH  15  17
ENDBRANCH  12  13
ENDBRANCH  11  12
ENDBRANCH   8  11
ENDBRANCH   7   8
ENDBRANCH   5   7
ENDBRANCH   4   5
ENDBRANCH   3   4
ENDBRANCH   2   3
ENDBRANCH   1   2
BRANCH   1  24
ATOM     24  C   UNL A   1      40.547  21.296  27.319  1.00  0.00     0.188 C 
BRANCH  24  25
ATOM     25  C   UNL A   1      41.658  20.420  26.760  1.00  0.00     0.188 C 
BRANCH  25  26
ATOM     26  O   UNL A   1      42.043  19.238  27.450  1.00  0.00    -0.376 OA
BRANCH  26  27
ATOM     27  C   UNL A   1      42.902  18.270  26.867  1.00  0.00     0.202 C 
BRANCH  27  28
ATOM     28  C   UNL A   1      43.298  18.456  25.394  1.00  0.00     0.261 C 
BRANCH  28  29
ATOM     29  O   UNL A   1      44.688  18.722  25.164  1.00  0.00    -0.460 OA
BRANCH  29  30
ATOM     30  C   UNL A   1      44.973  19.561  24.136  1.00  0.00     0.338 C 
ATOM     31  O   UNL A   1      45.056  19.263  22.957  1.00  0.00    -0.246 OA
BRANCH  30  32
ATOM     32  C   UNL A   1      44.900  20.955  24.659  1.00  0.00     0.060 A 
ATOM     33  C   UNL A   1      44.440  21.958  23.794  1.00  0.00     0.016 A 
ATOM     34  C   UNL A   1      45.126  21.258  26.009  1.00  0.00     0.016 A 
ATOM     35  C   UNL A   1      44.259  23.267  24.256  1.00  0.00     0.010 A 
ATOM     36  C   UNL A   1      44.950  22.568  26.471  1.00  0.00     0.010 A 
ATOM     37  C   UNL A   1      44.556  23.591  25.587  1.00  0.00    -0.014 A 
BRANCH  37  38
ATOM     38  C   UNL A   1      44.730  25.015  25.985  1.00  0.00     0.031 A 
ATOM     39  C   UNL A   1      46.115  25.599  25.854  1.00  0.00     0.074 A 
ATOM     40  C   UNL A   1      43.718  25.797  26.408  1.00  0.00     0.049 A 
ATOM     41  N   UNL A   1      46.560  26.777  26.206  1.00  0.00    -0.248 NA
ATOM     42  C   UNL A   1      47.133  24.730  25.239  1.00  0.00     0.031 C 
ATOM     43  C   UNL A   1      42.313  25.406  26.496  1.00  0.00     0.029 A 
ATOM     44  N   UNL A   1      43.728  27.103  26.845  1.00  0.00    -0.354 N 
ATOM     45  C   UNL A   1      47.912  26.780  25.876  1.00  0.00     0.074 A 
ATOM     46  C   UNL A   1      48.216  25.484  25.313  1.00  0.00     0.031 C 
ATOM     47  C   UNL A   1      41.597  26.449  26.957  1.00  0.00     0.029 A 
ATOM     48  C   UNL A   1      42.497  27.566  27.250  1.00  0.00     0.049 A 
ATOM     49  H   UNL A   1      44.543  27.656  26.866  1.00  0.00     0.167 HD
ATOM     50  C   UNL A   1      48.824  27.768  26.029  1.00  0.00     0.031 A 
ATOM     51  C   UNL A   1      42.144  28.740  27.818  1.00  0.00     0.031 A 
ATOM     52  C   UNL A   1      48.533  29.054  26.599  1.00  0.00     0.049 A 
ATOM     53  C   UNL A   1      43.202  29.787  28.086  1.00  0.00     0.074 A 
ATOM     54  C   UNL A   1      49.397  30.115  26.806  1.00  0.00     0.029 A 
ATOM     55  N   UNL A   1      47.289  29.453  27.061  1.00  0.00    -0.354 N 
ATOM     56  N   UNL A   1      44.479  29.770  27.783  1.00  0.00    -0.248 NA
ATOM     57  C   UNL A   1      42.769  31.012  28.779  1.00  0.00     0.031 C 
ATOM     58  C   UNL A   1      48.691  31.130  27.457  1.00  0.00     0.029 A 
ATOM     59  C   UNL A   1      47.369  30.733  27.583  1.00  0.00     0.049 A 
ATOM     60  H   UNL A   1      46.471  28.907  27.024  1.00  0.00     0.167 HD
ATOM     61  C   UNL A   1      44.991  30.992  28.217  1.00  0.00     0.074 A 
ATOM     62  C   UNL A   1      43.885  31.729  28.790  1.00  0.00     0.031 C 
ATOM     63  C   UNL A   1      46.261  31.463  28.144  1.00  0.00     0.031 A 
BRANCH  50  64
ATOM     64  C   UNL A   1      50.245  27.465  25.633  1.00  0.00    -0.014 A 
ATOM     65  C   UNL A   1      51.226  27.149  26.589  1.00  0.00     0.010 A 
ATOM     66  C   UNL A   1      50.593  27.477  24.270  1.00  0.00     0.010 A 
ATOM     67  C   UNL A   1      52.540  26.886  26.190  1.00  0.00     0.020 A 
ATOM     68  C   UNL A   1      51.896  27.184  23.865  1.00  0.00     0.020 A 
ATOM     69  C   UNL A   1      52.865  26.905  24.830  1.00  0.00     0.054 A 
BRANCH  69  70
ATOM     70  S   UNL A   1      54.572  26.536  24.340  1.00  0.00     0.124 S 
ATOM     71  O   UNL A   1      54.725  25.158  24.798  1.00  0.00    -0.237 OA
ATOM     72  O   UNL A   1      54.533  26.716  22.890  1.00  0.00    -0.237 OA
ATOM     73  O   UNL A   1      55.363  27.526  25.067  1.00  0.00    -0.744 OA
ENDBRANCH  69  70
ENDBRANCH  50  64
BRANCH  51  74
ATOM     74  C   UNL A   1      40.728  28.991  28.226  1.00  0.00    -0.014 A 
ATOM     75  C   UNL A   1      39.762  29.387  27.282  1.00  0.00     0.010 A 
ATOM     76  C   UNL A   1      40.349  28.880  29.576  1.00  0.00     0.010 A 
ATOM     77  C   UNL A   1      38.454  29.683  27.683  1.00  0.00     0.020 A 
ATOM     78  C   UNL A   1      39.034  29.141  29.976  1.00  0.00     0.020 A 
ATOM     79  C   UNL A   1      38.098  29.554  29.028  1.00  0.00     0.054 A 
BRANCH  79  80
ATOM     80  S   UNL A   1      36.383  29.898  29.518  1.00  0.00     0.124 S 
ATOM     81  O   UNL A   1      36.292  29.219  30.806  1.00  0.00    -0.237 OA
ATOM     82  O   UNL A   1      36.360  31.358  29.567  1.00  0.00    -0.237 OA
ATOM     83  O   UNL A   1      35.596  29.306  28.440  1.00  0.00    -0.744 OA
ENDBRANCH  79  80
ENDBRANCH  51  74
BRANCH  63  84
ATOM     84  C   UNL A   1      46.531  32.861  28.647  1.00  0.00    -0.014 A 
ATOM     85  C   UNL A   1      46.855  33.111  29.992  1.00  0.00     0.010 A 
ATOM     86  C   UNL A   1      46.532  33.933  27.734  1.00  0.00     0.010 A 
ATOM     87  C   UNL A   1      47.145  34.411  30.420  1.00  0.00     0.020 A 
ATOM     88  C   UNL A   1      46.853  35.228  28.151  1.00  0.00     0.020 A 
ATOM     89  C   UNL A   1      47.144  35.461  29.495  1.00  0.00     0.054 A 
BRANCH  89  90
ATOM     90  S   UNL A   1      47.568  37.130  30.068  1.00  0.00     0.124 S 
ATOM     91  O   UNL A   1      48.479  36.850  31.174  1.00  0.00    -0.237 OA
ATOM     92  O   UNL A   1      48.182  37.727  28.884  1.00  0.00    -0.237 OA
ATOM     93  O   UNL A   1      46.280  37.704  30.451  1.00  0.00    -0.744 OA
ENDBRANCH  89  90
ENDBRANCH  63  84
ENDBRANCH  37  38
ENDBRANCH  30  32
ENDBRANCH  29  30
ENDBRANCH  28  29
ENDBRANCH  27  28
ENDBRANCH  26  27
ENDBRANCH  25  26
ENDBRANCH  24  25
ENDBRANCH   1  24
TORSDOF 26
ENDMDL
MODEL 2
REMARK VINA RESULT:      -7.4      6.267      8.277
REMARK SMILES C[N@H+](CCC(=O)Nc1sccc1C#N)CC(=O)OCCOCCOCCOC(=O)c1ccc(-c2c3nc(c(-c4ccc(S(=O)(=O)[O-])cc4)c4ccc([nH]4)c(-c4ccc(S(=O)(=O)[O-])cc4)c4nc(c(-c5ccc(S(=O)(=O)[O-])cc5)c5ccc2[nH]5)C=C4)C=C3)cc1
REMARK SMILES IDX 21 1 20 2 19 3 18 4 16 5 17 6 15 7 2 8 1 9 3 11 4 12 5 13
REMARK SMILES IDX 6 14 7 15 8 17 9 18 12 19 10 20 11 21 13 22 14 23 22 24
REMARK SMILES IDX 23 25 24 26 25 27 26 28 27 29 28 30 29 31 30 32 31 33 89 34
REMARK SMILES IDX 32 35 88 36 33 37 34 38 35 39 82 40 36 41 87 42 81 43 83 44
REMARK SMILES IDX 37 45 86 46 80 47 79 48 38 50 68 51 49 52 67 53 50 54 53 55
REMARK SMILES IDX 66 56 84 57 51 58 52 59 65 61 85 62 54 63 39 64 40 65 48 66
REMARK SMILES IDX 41 67 47 68 42 69 43 70 44 71 45 72 46 73 69 74 70 75 78 76
REMARK SMILES IDX 71 77 77 78 72 79 73 80 74 81 75 82 76 83 55 84 56 85 64 86
REMARK SMILES IDX 57 87 63 88 58 89 59 90 60 91 61 92 62 93
REMARK H PARENT 2 10 7 16 83 49 53 60
REMARK Flexibility Score: inf
ROOT
ATOM      1  O   UNL A   1      39.161  20.854  25.731  1.00  0.00    -0.376 OA
ENDROOT
BRANCH   1   2
ATOM      2  C   UNL A   1      38.242  19.872  25.259  1.00  0.00     0.202 C 
BRANCH   2   3
ATOM      3  C   UNL A   1      36.784  20.262  24.964  1.00  0.00     0.261 C 
BRANCH   3   4
ATOM      4  O   UNL A   1      36.620  21.654  24.642  1.00  0.00    -0.459 OA
BRANCH   4   5
ATOM      5  C   UNL A   1      36.187  22.430  25.675  1.00  0.00     0.361 C 
ATOM      6  O   UNL A   1      36.631  23.553  25.910  1.00  0.00    -0.245 OA
BRANCH   5   7
ATOM      7  C   UNL A   1      35.018  21.871  26.468  1.00  0.00     0.386 C 
BRANCH   7   8
ATOM      8  N   UNL A   1      33.939  22.809  26.807  1.00  0.00    -0.328 N 
ATOM      9  C   UNL A   1      33.206  22.237  27.957  1.00  0.00     0.333 C 
ATOM     10  H   UNL A   1      34.345  23.717  27.029  1.00  0.00     0.348 HD
BRANCH   8  11
ATOM     11  C   UNL A   1      33.008  23.021  25.685  1.00  0.00     0.272 C 
BRANCH  11  12
ATOM     12  C   UNL A   1      32.641  24.444  25.292  1.00  0.00     0.161 C 
BRANCH  12  13
ATOM     13  C   UNL A   1      31.565  25.386  25.841  1.00  0.00     0.230 C 
ATOM     14  O   UNL A   1      30.869  24.896  26.756  1.00  0.00    -0.274 OA
ATOM     15  N   UNL A   1      31.301  26.690  25.618  1.00  0.00    -0.316 N 
ATOM     16  H   UNL A   1      30.695  27.054  26.303  1.00  0.00     0.170 HD
BRANCH  15  17
ATOM     17  C   UNL A   1      31.642  27.649  24.700  1.00  0.00     0.113 A 
ATOM     18  S   UNL A   1      33.249  28.204  24.979  1.00  0.00    -0.125 S 
ATOM     19  C   UNL A   1      31.079  28.307  23.629  1.00  0.00     0.087 A 
ATOM     20  C   UNL A   1      33.327  28.936  23.437  1.00  0.00     0.068 A 
ATOM     21  C   UNL A   1      32.083  28.983  22.849  1.00  0.00     0.033 A 
BRANCH  19  22
ATOM     22  C   UNL A   1      29.695  28.322  23.305  1.00  0.00     0.102 C 
ATOM     23  N   UNL A   1      28.558  28.352  23.030  1.00  0.00    -0.192 NA
ENDBRANCH  19  22
ENDBRANCH  15  17
ENDBRANCH  12  13
ENDBRANCH  11  12
ENDBRANCH   8  11
ENDBRANCH   7   8
ENDBRANCH   5   7
ENDBRANCH   4   5
ENDBRANCH   3   4
ENDBRANCH   2   3
ENDBRANCH   1   2
BRANCH   1  24
ATOM     24  C   UNL A   1      40.381  20.380  26.256  1.00  0.00     0.188 C 
BRANCH  24  25
ATOM     25  C   UNL A   1      40.904  21.302  27.346  1.00  0.00     0.188 C 
BRANCH  25  26
ATOM     26  O   UNL A   1      42.150  21.965  27.176  1.00  0.00    -0.376 OA
BRANCH  26  27
ATOM     27  C   UNL A   1      42.609  22.394  25.902  1.00  0.00     0.202 C 
BRANCH  27  28
ATOM     28  C   UNL A   1      43.566  23.594  25.851  1.00  0.00     0.261 C 
BRANCH  28  29
ATOM     29  O   UNL A   1      44.152  23.962  27.107  1.00  0.00    -0.460 OA
BRANCH  29  30
ATOM     30  C   UNL A   1      44.842  25.130  27.125  1.00  0.00     0.338 C 
ATOM     31  O   UNL A   1      45.729  25.462  26.357  1.00  0.00    -0.246 OA
BRANCH  30  32
ATOM     32  C   UNL A   1      44.148  26.048  28.073  1.00  0.00     0.060 A 
ATOM     33  C   UNL A   1      44.144  27.418  27.774  1.00  0.00     0.016 A 
ATOM     34  C   UNL A   1      43.384  25.572  29.147  1.00  0.00     0.016 A 
ATOM     35  C   UNL A   1      43.427  28.316  28.574  1.00  0.00     0.010 A 
ATOM     36  C   UNL A   1      42.672  26.471  29.950  1.00  0.00     0.010 A 
ATOM     37  C   UNL A   1      42.722  27.855  29.695  1.00  0.00    -0.014 A 
BRANCH  37  38
ATOM     38  C   UNL A   1      42.284  28.815  30.746  1.00  0.00     0.031 A 
ATOM     39  C   UNL A   1      43.107  28.871  32.009  1.00  0.00     0.074 A 
ATOM     40  C   UNL A   1      41.233  29.644  30.602  1.00  0.00     0.049 A 
ATOM     41  N   UNL A   1      42.902  29.549  33.108  1.00  0.00    -0.248 NA
ATOM     42  C   UNL A   1      44.329  28.048  32.028  1.00  0.00     0.031 C 
ATOM     43  C   UNL A   1      40.403  29.773  29.406  1.00  0.00     0.029 A 
ATOM     44  N   UNL A   1      40.685  30.546  31.486  1.00  0.00    -0.354 N 
ATOM     45  C   UNL A   1      43.955  29.216  33.954  1.00  0.00     0.074 A 
ATOM     46  C   UNL A   1      44.785  28.266  33.249  1.00  0.00     0.031 C 
ATOM     47  C   UNL A   1      39.452  30.701  29.632  1.00  0.00     0.029 A 
ATOM     48  C   UNL A   1      39.570  31.193  31.006  1.00  0.00     0.049 A 
ATOM     49  H   UNL A   1      41.059  30.713  32.382  1.00  0.00     0.167 HD
ATOM     50  C   UNL A   1      44.212  29.657  35.208  1.00  0.00     0.031 A 
ATOM     51  C   UNL A   1      38.727  32.057  31.613  1.00  0.00     0.031 A 
ATOM     52  C   UNL A   1      43.386  30.591  35.921  1.00  0.00     0.049 A 
ATOM     53  C   UNL A   1      38.968  32.447  33.055  1.00  0.00     0.074 A 
ATOM     54  C   UNL A   1      43.560  31.087  37.201  1.00  0.00     0.029 A 
ATOM     55  N   UNL A   1      42.228  31.166  35.422  1.00  0.00    -0.354 N 
ATOM     56  N   UNL A   1      39.959  32.113  33.848  1.00  0.00    -0.248 NA
ATOM     57  C   UNL A   1      37.971  33.329  33.684  1.00  0.00     0.031 C 
ATOM     58  C   UNL A   1      42.469  31.907  37.502  1.00  0.00     0.029 A 
ATOM     59  C   UNL A   1      41.658  31.986  36.380  1.00  0.00     0.049 A 
ATOM     60  H   UNL A   1      41.864  31.014  34.520  1.00  0.00     0.167 HD
ATOM     61  C   UNL A   1      39.721  32.770  35.054  1.00  0.00     0.074 A 
ATOM     62  C   UNL A   1      38.502  33.531  34.882  1.00  0.00     0.031 C 
ATOM     63  C   UNL A   1      40.448  32.747  36.199  1.00  0.00     0.031 A 
BRANCH  50  64
ATOM     64  C   UNL A   1      45.406  29.072  35.915  1.00  0.00    -0.014 A 
ATOM     65  C   UNL A   1      45.334  27.840  36.589  1.00  0.00     0.010 A 
ATOM     66  C   UNL A   1      46.629  29.766  35.881  1.00  0.00     0.010 A 
ATOM     67  C   UNL A   1      46.457  27.331  37.248  1.00  0.00     0.020 A 
ATOM     68  C   UNL A   1      47.761  29.245  36.511  1.00  0.00     0.020 A 
ATOM     69  C   UNL A   1      47.663  28.038  37.204  1.00  0.00     0.054 A 
BRANCH  69  70
ATOM     70  S   UNL A   1      49.110  27.342  38.046  1.00  0.00     0.124 S 
ATOM     71  O   UNL A   1      49.642  26.437  37.031  1.00  0.00    -0.237 OA
ATOM     72  O   UNL A   1      49.920  28.526  38.320  1.00  0.00    -0.237 OA
ATOM     73  O   UNL A   1      48.544  26.691  39.226  1.00  0.00    -0.744 OA
ENDBRANCH  69  70
ENDBRANCH  50  64
BRANCH  51  74
ATOM     74  C   UNL A   1      37.535  32.592  30.887  1.00  0.00    -0.014 A 
ATOM     75  C   UNL A   1      37.628  33.754  30.098  1.00  0.00     0.010 A 
ATOM     76  C   UNL A   1      36.283  31.964  31.020  1.00  0.00     0.010 A 
ATOM     77  C   UNL A   1      36.493  34.284  29.474  1.00  0.00     0.020 A 
ATOM     78  C   UNL A   1      35.153  32.471  30.371  1.00  0.00     0.020 A 
ATOM     79  C   UNL A   1      35.262  33.636  29.612  1.00  0.00     0.054 A 
BRANCH  79  80
ATOM     80  S   UNL A   1      33.812  34.316  28.756  1.00  0.00     0.124 S 
ATOM     81  O   UNL A   1      32.951  34.696  29.870  1.00  0.00    -0.237 OA
ATOM     82  O   UNL A   1      34.389  35.421  27.994  1.00  0.00    -0.237 OA
ATOM     83  O   UNL A   1      33.337  33.194  27.949  1.00  0.00    -0.744 OA
ENDBRANCH  79  80
ENDBRANCH  51  74
BRANCH  63  84
ATOM     84  C   UNL A   1      39.986  33.607  37.351  1.00  0.00    -0.014 A 
ATOM     85  C   UNL A   1      39.166  33.094  38.372  1.00  0.00     0.010 A 
ATOM     86  C   UNL A   1      40.447  34.933  37.449  1.00  0.00     0.010 A 
ATOM     87  C   UNL A   1      38.791  33.902  39.450  1.00  0.00     0.020 A 
ATOM     88  C   UNL A   1      40.101  35.733  38.541  1.00  0.00     0.020 A 
ATOM     89  C   UNL A   1      39.263  35.216  39.529  1.00  0.00     0.054 A 
BRANCH  89  90
ATOM     90  S   UNL A   1      38.799  36.227  40.963  1.00  0.00     0.124 S 
ATOM     91  O   UNL A   1      40.037  36.248  41.735  1.00  0.00    -0.237 OA
ATOM     92  O   UNL A   1      38.420  37.497  40.349  1.00  0.00    -0.237 OA
ATOM     93  O   UNL A   1      37.698  35.483  41.571  1.00  0.00    -0.744 OA
ENDBRANCH  89  90
ENDBRANCH  63  84
ENDBRANCH  37  38
ENDBRANCH  30  32
ENDBRANCH  29  30
ENDBRANCH  28  29
ENDBRANCH  27  28
ENDBRANCH  26  27
ENDBRANCH  25  26
ENDBRANCH  24  25
ENDBRANCH   1  24
TORSDOF 26
ENDMDL
MODEL 3
REMARK VINA RESULT:      -7.1      3.291      4.931
REMARK SMILES C[N@H+](CCC(=O)Nc1sccc1C#N)CC(=O)OCCOCCOCCOC(=O)c1ccc(-c2c3nc(c(-c4ccc(S(=O)(=O)[O-])cc4)c4ccc([nH]4)c(-c4ccc(S(=O)(=O)[O-])cc4)c4nc(c(-c5ccc(S(=O)(=O)[O-])cc5)c5ccc2[nH]5)C=C4)C=C3)cc1
REMARK SMILES IDX 21 1 20 2 19 3 18 4 16 5 17 6 15 7 2 8 1 9 3 11 4 12 5 13
REMARK SMILES IDX 6 14 7 15 8 17 9 18 12 19 10 20 11 21 13 22 14 23 22 24
REMARK SMILES IDX 23 25 24 26 25 27 26 28 27 29 28 30 29 31 30 32 31 33 89 34
REMARK SMILES IDX 32 35 88 36 33 37 34 38 35 39 82 40 36 41 87 42 81 43 83 44
REMARK SMILES IDX 37 45 86 46 80 47 79 48 38 50 68 51 49 52 67 53 50 54 53 55
REMARK SMILES IDX 66 56 84 57 51 58 52 59 65 61 85 62 54 63 39 64 40 65 48 66
REMARK SMILES IDX 41 67 47 68 42 69 43 70 44 71 45 72 46 73 69 74 70 75 78 76
REMARK SMILES IDX 71 77 77 78 72 79 73 80 74 81 75 82 76 83 55 84 56 85 64 86
REMARK SMILES IDX 57 87 63 88 58 89 59 90 60 91 61 92 62 93
REMARK H PARENT 2 10 7 16 83 49 53 60
REMARK Flexibility Score: inf
ROOT
ATOM      1  O   UNL A   1      38.687  22.236  25.926  1.00  0.00    -0.376 OA
ENDROOT
BRANCH   1   2
ATOM      2  C   UNL A   1      37.834  21.290  25.287  1.00  0.00     0.202 C 
BRANCH   2   3
ATOM      3  C   UNL A   1      36.507  21.750  24.661  1.00  0.00     0.261 C 
BRANCH   3   4
ATOM      4  O   UNL A   1      35.611  22.358  25.607  1.00  0.00    -0.459 OA
BRANCH   4   5
ATOM      5  C   UNL A   1      34.677  21.515  26.130  1.00  0.00     0.361 C 
ATOM      6  O   UNL A   1      34.227  21.627  27.269  1.00  0.00    -0.245 OA
BRANCH   5   7
ATOM      7  C   UNL A   1      34.121  20.477  25.170  1.00  0.00     0.386 C 
BRANCH   7   8
ATOM      8  N   UNL A   1      32.888  20.829  24.455  1.00  0.00    -0.328 N 
ATOM      9  C   UNL A   1      32.275  19.567  23.988  1.00  0.00     0.333 C 
ATOM     10  H   UNL A   1      32.271  21.341  25.086  1.00  0.00     0.348 HD
BRANCH   8  11
ATOM     11  C   UNL A   1      33.141  21.710  23.301  1.00  0.00     0.272 C 
BRANCH  11  12
ATOM     12  C   UNL A   1      32.806  23.190  23.417  1.00  0.00     0.161 C 
BRANCH  12  13
ATOM     13  C   UNL A   1      31.924  23.939  24.421  1.00  0.00     0.230 C 
ATOM     14  O   UNL A   1      31.072  23.225  24.992  1.00  0.00    -0.274 OA
ATOM     15  N   UNL A   1      31.969  25.197  24.907  1.00  0.00    -0.316 N 
ATOM     16  H   UNL A   1      31.408  25.289  25.710  1.00  0.00     0.170 HD
BRANCH  15  17
ATOM     17  C   UNL A   1      32.580  26.383  24.591  1.00  0.00     0.113 A 
ATOM     18  S   UNL A   1      32.469  27.486  25.909  1.00  0.00    -0.125 S 
ATOM     19  C   UNL A   1      33.246  26.956  23.530  1.00  0.00     0.087 A 
ATOM     20  C   UNL A   1      33.677  28.494  25.243  1.00  0.00     0.068 A 
ATOM     21  C   UNL A   1      33.954  28.141  23.941  1.00  0.00     0.033 A 
BRANCH  19  22
ATOM     22  C   UNL A   1      33.260  26.459  22.199  1.00  0.00     0.102 C 
ATOM     23  N   UNL A   1      33.291  26.050  21.103  1.00  0.00    -0.192 NA
ENDBRANCH  19  22
ENDBRANCH  15  17
ENDBRANCH  12  13
ENDBRANCH  11  12
ENDBRANCH   8  11
ENDBRANCH   7   8
ENDBRANCH   5   7
ENDBRANCH   4   5
ENDBRANCH   3   4
ENDBRANCH   2   3
ENDBRANCH   1   2
BRANCH   1  24
ATOM     24  C   UNL A   1      39.869  21.732  26.508  1.00  0.00     0.188 C 
BRANCH  24  25
ATOM     25  C   UNL A   1      40.575  22.802  27.326  1.00  0.00     0.188 C 
BRANCH  25  26
ATOM     26  O   UNL A   1      41.985  22.746  27.499  1.00  0.00    -0.376 OA
BRANCH  26  27
ATOM     27  C   UNL A   1      42.811  21.914  26.698  1.00  0.00     0.202 C 
BRANCH  27  28
ATOM     28  C   UNL A   1      44.234  22.401  26.387  1.00  0.00     0.261 C 
BRANCH  28  29
ATOM     29  O   UNL A   1      44.764  23.365  27.306  1.00  0.00    -0.460 OA
BRANCH  29  30
ATOM     30  C   UNL A   1      45.972  23.894  26.985  1.00  0.00     0.338 C 
ATOM     31  O   UNL A   1      46.886  23.325  26.414  1.00  0.00    -0.246 OA
BRANCH  30  32
ATOM     32  C   UNL A   1      45.892  25.367  27.209  1.00  0.00     0.060 A 
ATOM     33  C   UNL A   1      46.328  25.867  28.445  1.00  0.00     0.016 A 
ATOM     34  C   UNL A   1      45.546  26.259  26.185  1.00  0.00     0.016 A 
ATOM     35  C   UNL A   1      46.368  27.247  28.677  1.00  0.00     0.010 A 
ATOM     36  C   UNL A   1      45.581  27.638  26.419  1.00  0.00     0.010 A 
ATOM     37  C   UNL A   1      45.951  28.142  27.682  1.00  0.00    -0.014 A 
BRANCH  37  38
ATOM     38  C   UNL A   1      45.632  29.552  28.035  1.00  0.00     0.031 A 
ATOM     39  C   UNL A   1      46.684  30.591  27.729  1.00  0.00     0.074 A 
ATOM     40  C   UNL A   1      44.456  29.937  28.565  1.00  0.00     0.049 A 
ATOM     41  N   UNL A   1      46.700  31.868  28.007  1.00  0.00    -0.248 NA
ATOM     42  C   UNL A   1      47.877  30.116  27.007  1.00  0.00     0.031 C 
ATOM     43  C   UNL A   1      43.311  29.068  28.828  1.00  0.00     0.029 A 
ATOM     44  N   UNL A   1      44.032  31.180  28.979  1.00  0.00    -0.354 N 
ATOM     45  C   UNL A   1      47.913  32.342  27.516  1.00  0.00     0.074 A 
ATOM     46  C   UNL A   1      48.609  31.215  26.938  1.00  0.00     0.031 C 
ATOM     47  C   UNL A   1      42.315  29.805  29.358  1.00  0.00     0.029 A 
ATOM     48  C   UNL A   1      42.768  31.187  29.523  1.00  0.00     0.049 A 
ATOM     49  H   UNL A   1      44.584  31.991  28.892  1.00  0.00     0.167 HD
ATOM     50  C   UNL A   1      48.409  33.601  27.542  1.00  0.00     0.031 A 
ATOM     51  C   UNL A   1      42.072  32.184  30.112  1.00  0.00     0.031 A 
ATOM     52  C   UNL A   1      47.729  34.724  28.125  1.00  0.00     0.049 A 
ATOM     53  C   UNL A   1      42.694  33.558  30.235  1.00  0.00     0.074 A 
ATOM     54  C   UNL A   1      48.159  36.037  28.210  1.00  0.00     0.029 A 
ATOM     55  N   UNL A   1      46.483  34.671  28.728  1.00  0.00    -0.354 N 
ATOM     56  N   UNL A   1      43.847  33.988  29.780  1.00  0.00    -0.248 NA
ATOM     57  C   UNL A   1      41.918  34.580  30.957  1.00  0.00     0.031 C 
ATOM     58  C   UNL A   1      47.204  36.762  28.926  1.00  0.00     0.029 A 
ATOM     59  C   UNL A   1      46.142  35.920  29.217  1.00  0.00     0.049 A 
ATOM     60  H   UNL A   1      45.923  33.864  28.798  1.00  0.00     0.167 HD
ATOM     61  C   UNL A   1      43.918  35.335  30.131  1.00  0.00     0.074 A 
ATOM     62  C   UNL A   1      42.687  35.652  30.823  1.00  0.00     0.031 C 
ATOM     63  C   UNL A   1      44.910  36.230  29.898  1.00  0.00     0.031 A 
BRANCH  50  64
ATOM     64  C   UNL A   1      49.790  33.812  26.982  1.00  0.00    -0.014 A 
ATOM     65  C   UNL A   1      49.996  34.121  25.625  1.00  0.00     0.010 A 
ATOM     66  C   UNL A   1      50.900  33.719  27.841  1.00  0.00     0.010 A 
ATOM     67  C   UNL A   1      51.292  34.297  25.132  1.00  0.00     0.020 A 
ATOM     68  C   UNL A   1      52.193  33.926  27.359  1.00  0.00     0.020 A 
ATOM     69  C   UNL A   1      52.382  34.198  26.004  1.00  0.00     0.054 A 
BRANCH  69  70
ATOM     70  S   UNL A   1      54.050  34.456  25.341  1.00  0.00     0.124 S 
ATOM     71  O   UNL A   1      54.856  34.488  26.559  1.00  0.00    -0.237 OA
ATOM     72  O   UNL A   1      54.241  33.282  24.492  1.00  0.00    -0.237 OA
ATOM     73  O   UNL A   1      53.948  35.727  24.629  1.00  0.00    -0.744 OA
ENDBRANCH  69  70
ENDBRANCH  50  64
BRANCH  51  74
ATOM     74  C   UNL A   1      40.715  31.927  30.684  1.00  0.00    -0.014 A 
ATOM     75  C   UNL A   1      40.561  31.242  31.905  1.00  0.00     0.010 A 
ATOM     76  C   UNL A   1      39.563  32.328  29.984  1.00  0.00     0.010 A 
ATOM     77  C   UNL A   1      39.286  30.949  32.401  1.00  0.00     0.020 A 
ATOM     78  C   UNL A   1      38.286  32.067  30.492  1.00  0.00     0.020 A 
ATOM     79  C   UNL A   1      38.156  31.368  31.692  1.00  0.00     0.054 A 
BRANCH  79  80
ATOM     80  S   UNL A   1      36.511  31.017  32.378  1.00  0.00     0.124 S 
ATOM     81  O   UNL A   1      35.644  31.268  31.232  1.00  0.00    -0.237 OA
ATOM     82  O   UNL A   1      36.635  29.620  32.786  1.00  0.00    -0.237 OA
ATOM     83  O   UNL A   1      36.390  31.971  33.478  1.00  0.00    -0.744 OA
ENDBRANCH  79  80
ENDBRANCH  51  74
BRANCH  63  84
ATOM     84  C   UNL A   1      44.701  37.657  30.344  1.00  0.00    -0.014 A 
ATOM     85  C   UNL A   1      44.051  38.597  29.526  1.00  0.00     0.010 A 
ATOM     86  C   UNL A   1      45.099  38.039  31.639  1.00  0.00     0.010 A 
ATOM     87  C   UNL A   1      43.832  39.901  29.984  1.00  0.00     0.020 A 
ATOM     88  C   UNL A   1      44.853  39.331  32.112  1.00  0.00     0.020 A 
ATOM     89  C   UNL A   1      44.232  40.259  31.275  1.00  0.00     0.054 A 
BRANCH  89  90
ATOM     90  S   UNL A   1      43.894  41.943  31.861  1.00  0.00     0.124 S 
ATOM     91  O   UNL A   1      42.686  41.751  32.659  1.00  0.00    -0.237 OA
ATOM     92  O   UNL A   1      45.101  42.267  32.616  1.00  0.00    -0.237 OA
ATOM     93  O   UNL A   1      43.711  42.708  30.630  1.00  0.00    -0.744 OA
ENDBRANCH  89  90
ENDBRANCH  63  84
ENDBRANCH  37  38
ENDBRANCH  30  32
ENDBRANCH  29  30
ENDBRANCH  28  29
ENDBRANCH  27  28
ENDBRANCH  26  27
ENDBRANCH  25  26
ENDBRANCH  24  25
ENDBRANCH   1  24
TORSDOF 26
ENDMDL
