MODEL 1
REMARK VINA RESULT:      -8.7      0.000      0.000
REMARK SMILES COc1ccc(CCC(=O)N(C)C[C@H](C)C(=O)OCCOCCOCCOC(=O)c2ccc(-c3c4nc(c(-c5ccc(S(=O)(=O)[O-])cc5)c5ccc([nH]5)c(-c5ccc(S(=O)(=O)[O-])cc5)c5nc(c(-c6ccc(S(=O)(=O)[O-])cc6)c6ccc3[nH]6)C=C5)C=C4)cc2)cc1F
REMARK SMILES IDX 20 1 19 2 18 3 16 4 17 5 14 6 15 7 13 8 11 9 12 10 9 11
REMARK SMILES IDX 10 12 8 13 7 14 6 15 3 16 4 17 91 18 5 19 90 20 92 21 2 22
REMARK SMILES IDX 1 23 21 24 22 25 23 26 24 27 25 28 26 29 27 30 28 31 29 32
REMARK SMILES IDX 30 33 31 34 89 35 32 36 88 37 33 38 34 39 35 40 82 41 36 42
REMARK SMILES IDX 87 43 81 44 83 45 37 46 86 47 80 48 79 49 38 51 68 52 49 53
REMARK SMILES IDX 67 54 50 55 53 56 66 57 84 58 51 59 52 60 65 62 85 63 54 64
REMARK SMILES IDX 39 65 40 66 48 67 41 68 47 69 42 70 43 71 44 72 45 73 46 74
REMARK SMILES IDX 69 75 70 76 78 77 71 78 77 79 72 80 73 81 74 82 75 83 76 84
REMARK SMILES IDX 55 85 56 86 64 87 57 88 63 89 58 90 59 91 60 92 61 93 62 94
REMARK H PARENT 83 50 53 61
REMARK Flexibility Score: inf
ROOT
ATOM      1  C   UNL A   1      39.705  21.840  26.147  1.00  0.00     0.202 C 
ENDROOT
BRANCH   1   2
ATOM      2  C   UNL A   1      38.335  22.519  25.928  1.00  0.00     0.261 C 
BRANCH   2   3
ATOM      3  O   UNL A   1      37.145  21.762  25.655  1.00  0.00    -0.463 OA
BRANCH   3   4
ATOM      4  C   UNL A   1      36.011  22.408  26.024  1.00  0.00     0.310 C 
ATOM      5  O   UNL A   1      35.967  23.625  26.180  1.00  0.00    -0.252 OA
BRANCH   4   6
ATOM      6  C   UNL A   1      34.775  21.569  26.261  1.00  0.00     0.115 C 
ATOM      7  C   UNL A   1      33.907  21.977  27.449  1.00  0.00     0.022 C 
BRANCH   6   8
ATOM      8  C   UNL A   1      33.920  21.400  24.994  1.00  0.00     0.134 C 
BRANCH   8   9
ATOM      9  N   UNL A   1      33.654  22.625  24.225  1.00  0.00    -0.345 N 
ATOM     10  C   UNL A   1      34.300  22.725  22.927  1.00  0.00     0.146 C 
BRANCH   9  11
ATOM     11  C   UNL A   1      32.544  23.389  24.552  1.00  0.00     0.222 C 
ATOM     12  O   UNL A   1      31.436  22.860  24.685  1.00  0.00    -0.275 OA
BRANCH  11  13
ATOM     13  C   UNL A   1      32.674  24.896  24.761  1.00  0.00     0.105 C 
BRANCH  13  14
ATOM     14  C   UNL A   1      31.372  25.719  24.758  1.00  0.00     0.045 C 
BRANCH  14  15
ATOM     15  C   UNL A   1      31.464  27.006  25.539  1.00  0.00    -0.044 A 
ATOM     16  C   UNL A   1      32.055  29.433  26.803  1.00  0.00     0.154 A 
ATOM     17  C   UNL A   1      32.282  28.236  27.473  1.00  0.00     0.050 A 
ATOM     18  C   UNL A   1      31.466  29.423  25.540  1.00  0.00     0.165 A 
ATOM     19  C   UNL A   1      31.960  27.030  26.851  1.00  0.00     0.008 A 
ATOM     20  C   UNL A   1      31.158  28.220  24.913  1.00  0.00     0.047 A 
ATOM     21  F   UNL A   1      31.264  30.568  24.872  1.00  0.00    -0.203 F 
BRANCH  16  22
ATOM     22  O   UNL A   1      32.552  30.578  27.364  1.00  0.00    -0.494 OA
ATOM     23  C   UNL A   1      33.969  30.493  27.499  1.00  0.00     0.278 C 
ENDBRANCH  16  22
ENDBRANCH  14  15
ENDBRANCH  13  14
ENDBRANCH  11  13
ENDBRANCH   9  11
ENDBRANCH   8   9
ENDBRANCH   6   8
ENDBRANCH   4   6
ENDBRANCH   3   4
ENDBRANCH   2   3
ENDBRANCH   1   2
BRANCH   1  24
ATOM     24  O   UNL A   1      39.955  20.462  26.350  1.00  0.00    -0.376 OA
BRANCH  24  25
ATOM     25  C   UNL A   1      41.263  20.011  26.588  1.00  0.00     0.188 C 
BRANCH  25  26
ATOM     26  C   UNL A   1      42.189  21.081  27.173  1.00  0.00     0.188 C 
BRANCH  26  27
ATOM     27  O   UNL A   1      43.308  21.562  26.451  1.00  0.00    -0.376 OA
BRANCH  27  28
ATOM     28  C   UNL A   1      43.766  22.890  26.656  1.00  0.00     0.202 C 
BRANCH  28  29
ATOM     29  C   UNL A   1      43.174  24.105  25.909  1.00  0.00     0.261 C 
BRANCH  29  30
ATOM     30  O   UNL A   1      41.891  24.583  26.328  1.00  0.00    -0.460 OA
BRANCH  30  31
ATOM     31  C   UNL A   1      41.653  25.904  26.107  1.00  0.00     0.338 C 
ATOM     32  O   UNL A   1      41.288  26.418  25.071  1.00  0.00    -0.246 OA
BRANCH  31  33
ATOM     33  C   UNL A   1      41.674  26.590  27.424  1.00  0.00     0.060 A 
ATOM     34  C   UNL A   1      40.818  26.120  28.436  1.00  0.00     0.016 A 
ATOM     35  C   UNL A   1      42.554  27.640  27.680  1.00  0.00     0.016 A 
ATOM     36  C   UNL A   1      40.842  26.697  29.704  1.00  0.00     0.010 A 
ATOM     37  C   UNL A   1      42.539  28.254  28.935  1.00  0.00     0.010 A 
ATOM     38  C   UNL A   1      41.666  27.802  29.942  1.00  0.00    -0.014 A 
BRANCH  38  39
ATOM     39  C   UNL A   1      41.434  28.634  31.145  1.00  0.00     0.031 A 
ATOM     40  C   UNL A   1      40.334  29.658  31.082  1.00  0.00     0.074 A 
ATOM     41  C   UNL A   1      42.157  28.481  32.269  1.00  0.00     0.049 A 
ATOM     42  N   UNL A   1      39.985  30.559  31.962  1.00  0.00    -0.248 NA
ATOM     43  C   UNL A   1      39.519  29.666  29.854  1.00  0.00     0.031 C 
ATOM     44  C   UNL A   1      43.198  27.479  32.482  1.00  0.00     0.029 A 
ATOM     45  N   UNL A   1      42.121  29.187  33.447  1.00  0.00    -0.354 N 
ATOM     46  C   UNL A   1      38.923  31.250  31.390  1.00  0.00     0.074 A 
ATOM     47  C   UNL A   1      38.701  30.683  30.078  1.00  0.00     0.031 C 
ATOM     48  C   UNL A   1      43.715  27.644  33.713  1.00  0.00     0.029 A 
ATOM     49  C   UNL A   1      43.070  28.788  34.357  1.00  0.00     0.049 A 
ATOM     50  H   UNL A   1      41.476  29.910  33.622  1.00  0.00     0.167 HD
ATOM     51  C   UNL A   1      38.196  32.266  31.909  1.00  0.00     0.031 A 
ATOM     52  C   UNL A   1      43.396  29.308  35.559  1.00  0.00     0.031 A 
ATOM     53  C   UNL A   1      38.433  32.839  33.206  1.00  0.00     0.049 A 
ATOM     54  C   UNL A   1      42.637  30.505  36.077  1.00  0.00     0.074 A 
ATOM     55  C   UNL A   1      37.751  33.872  33.826  1.00  0.00     0.029 A 
ATOM     56  N   UNL A   1      39.432  32.438  34.079  1.00  0.00    -0.354 N 
ATOM     57  N   UNL A   1      41.630  31.146  35.531  1.00  0.00    -0.248 NA
ATOM     58  C   UNL A   1      43.057  31.045  37.379  1.00  0.00     0.031 C 
ATOM     59  C   UNL A   1      38.380  34.138  35.045  1.00  0.00     0.029 A 
ATOM     60  C   UNL A   1      39.406  33.221  35.220  1.00  0.00     0.049 A 
ATOM     61  H   UNL A   1      40.068  31.705  33.911  1.00  0.00     0.167 HD
ATOM     62  C   UNL A   1      41.275  32.141  36.439  1.00  0.00     0.074 A 
ATOM     63  C   UNL A   1      42.166  32.008  37.572  1.00  0.00     0.031 C 
ATOM     64  C   UNL A   1      40.297  33.076  36.344  1.00  0.00     0.031 A 
BRANCH  51  65
ATOM     65  C   UNL A   1      37.104  32.847  31.051  1.00  0.00    -0.014 A 
ATOM     66  C   UNL A   1      35.757  32.488  31.234  1.00  0.00     0.010 A 
ATOM     67  C   UNL A   1      37.432  33.794  30.062  1.00  0.00     0.010 A 
ATOM     68  C   UNL A   1      34.762  33.036  30.420  1.00  0.00     0.020 A 
ATOM     69  C   UNL A   1      36.436  34.369  29.268  1.00  0.00     0.020 A 
ATOM     70  C   UNL A   1      35.108  33.974  29.442  1.00  0.00     0.054 A 
BRANCH  70  71
ATOM     71  S   UNL A   1      33.792  34.690  28.421  1.00  0.00     0.124 S 
ATOM     72  O   UNL A   1      33.722  33.742  27.311  1.00  0.00    -0.237 OA
ATOM     73  O   UNL A   1      32.646  34.681  29.327  1.00  0.00    -0.237 OA
ATOM     74  O   UNL A   1      34.302  36.015  28.076  1.00  0.00    -0.744 OA
ENDBRANCH  70  71
ENDBRANCH  51  65
BRANCH  52  75
ATOM     75  C   UNL A   1      44.510  28.715  36.353  1.00  0.00    -0.014 A 
ATOM     76  C   UNL A   1      45.827  29.182  36.203  1.00  0.00     0.010 A 
ATOM     77  C   UNL A   1      44.258  27.667  37.259  1.00  0.00     0.010 A 
ATOM     78  C   UNL A   1      46.873  28.604  36.929  1.00  0.00     0.020 A 
ATOM     79  C   UNL A   1      45.296  27.108  38.010  1.00  0.00     0.020 A 
ATOM     80  C   UNL A   1      46.600  27.574  37.834  1.00  0.00     0.054 A 
BRANCH  80  81
ATOM     81  S   UNL A   1      47.966  26.882  38.807  1.00  0.00     0.124 S 
ATOM     82  O   UNL A   1      47.724  27.462  40.125  1.00  0.00    -0.237 OA
ATOM     83  O   UNL A   1      47.732  25.444  38.693  1.00  0.00    -0.237 OA
ATOM     84  O   UNL A   1      49.158  27.369  38.117  1.00  0.00    -0.744 OA
ENDBRANCH  80  81
ENDBRANCH  52  75
BRANCH  64  85
ATOM     85  C   UNL A   1      40.098  34.005  37.515  1.00  0.00    -0.014 A 
ATOM     86  C   UNL A   1      40.803  35.215  37.624  1.00  0.00     0.010 A 
ATOM     87  C   UNL A   1      39.134  33.686  38.492  1.00  0.00     0.010 A 
ATOM     88  C   UNL A   1      40.574  36.073  38.704  1.00  0.00     0.020 A 
ATOM     89  C   UNL A   1      38.878  34.556  39.553  1.00  0.00     0.020 A 
ATOM     90  C   UNL A   1      39.611  35.739  39.661  1.00  0.00     0.054 A 
BRANCH  90  91
ATOM     91  S   UNL A   1      39.301  36.891  41.028  1.00  0.00     0.124 S 
ATOM     92  O   UNL A   1      38.456  37.897  40.392  1.00  0.00    -0.237 OA
ATOM     93  O   UNL A   1      38.637  36.043  42.014  1.00  0.00    -0.237 OA
ATOM     94  O   UNL A   1      40.636  37.348  41.406  1.00  0.00    -0.744 OA
ENDBRANCH  90  91
ENDBRANCH  64  85
ENDBRANCH  38  39
ENDBRANCH  31  33
ENDBRANCH  30  31
ENDBRANCH  29  30
ENDBRANCH  28  29
ENDBRANCH  27  28
ENDBRANCH  26  27
ENDBRANCH  25  26
ENDBRANCH  24  25
ENDBRANCH   1  24
TORSDOF 27
ENDMDL
MODEL 2
REMARK VINA RESULT:      -8.2      5.046      9.438
REMARK SMILES COc1ccc(CCC(=O)N(C)C[C@H](C)C(=O)OCCOCCOCCOC(=O)c2ccc(-c3c4nc(c(-c5ccc(S(=O)(=O)[O-])cc5)c5ccc([nH]5)c(-c5ccc(S(=O)(=O)[O-])cc5)c5nc(c(-c6ccc(S(=O)(=O)[O-])cc6)c6ccc3[nH]6)C=C5)C=C4)cc2)cc1F
REMARK SMILES IDX 20 1 19 2 18 3 16 4 17 5 14 6 15 7 13 8 11 9 12 10 9 11
REMARK SMILES IDX 10 12 8 13 7 14 6 15 3 16 4 17 91 18 5 19 90 20 92 21 2 22
REMARK SMILES IDX 1 23 21 24 22 25 23 26 24 27 25 28 26 29 27 30 28 31 29 32
REMARK SMILES IDX 30 33 31 34 89 35 32 36 88 37 33 38 34 39 35 40 82 41 36 42
REMARK SMILES IDX 87 43 81 44 83 45 37 46 86 47 80 48 79 49 38 51 68 52 49 53
REMARK SMILES IDX 67 54 50 55 53 56 66 57 84 58 51 59 52 60 65 62 85 63 54 64
REMARK SMILES IDX 39 65 40 66 48 67 41 68 47 69 42 70 43 71 44 72 45 73 46 74
REMARK SMILES IDX 69 75 70 76 78 77 71 78 77 79 72 80 73 81 74 82 75 83 76 84
REMARK SMILES IDX 55 85 56 86 64 87 57 88 63 89 58 90 59 91 60 92 61 93 62 94
REMARK H PARENT 83 50 53 61
REMARK Flexibility Score: inf
ROOT
ATOM      1  C   UNL A   1      42.841  19.774  25.876  1.00  0.00     0.202 C 
ENDROOT
BRANCH   1   2
ATOM      2  C   UNL A   1      42.701  21.312  25.834  1.00  0.00     0.261 C 
BRANCH   2   3
ATOM      3  O   UNL A   1      41.429  21.966  25.969  1.00  0.00    -0.463 OA
BRANCH   3   4
ATOM      4  C   UNL A   1      41.110  22.242  27.258  1.00  0.00     0.310 C 
ATOM      5  O   UNL A   1      40.481  21.460  27.963  1.00  0.00    -0.252 OA
BRANCH   4   6
ATOM      6  C   UNL A   1      41.546  23.580  27.813  1.00  0.00     0.115 C 
ATOM      7  C   UNL A   1      42.645  23.539  28.873  1.00  0.00     0.022 C 
BRANCH   6   8
ATOM      8  C   UNL A   1      41.889  24.597  26.711  1.00  0.00     0.134 C 
BRANCH   8   9
ATOM      9  N   UNL A   1      40.982  25.747  26.587  1.00  0.00    -0.345 N 
ATOM     10  C   UNL A   1      39.725  25.658  27.313  1.00  0.00     0.146 C 
BRANCH   9  11
ATOM     11  C   UNL A   1      41.499  26.962  26.165  1.00  0.00     0.222 C 
ATOM     12  O   UNL A   1      41.899  27.104  25.004  1.00  0.00    -0.275 OA
BRANCH  11  13
ATOM     13  C   UNL A   1      41.577  28.148  27.123  1.00  0.00     0.105 C 
BRANCH  13  14
ATOM     14  C   UNL A   1      42.202  27.893  28.506  1.00  0.00     0.045 C 
BRANCH  14  15
ATOM     15  C   UNL A   1      41.462  28.555  29.641  1.00  0.00    -0.044 A 
ATOM     16  C   UNL A   1      39.901  29.368  31.819  1.00  0.00     0.154 A 
ATOM     17  C   UNL A   1      39.420  29.541  30.526  1.00  0.00     0.050 A 
ATOM     18  C   UNL A   1      41.184  28.863  32.023  1.00  0.00     0.165 A 
ATOM     19  C   UNL A   1      40.212  29.160  29.443  1.00  0.00     0.008 A 
ATOM     20  C   UNL A   1      41.969  28.470  30.943  1.00  0.00     0.047 A 
ATOM     21  F   UNL A   1      41.653  28.669  33.264  1.00  0.00    -0.203 F 
BRANCH  16  22
ATOM     22  O   UNL A   1      39.030  29.577  32.853  1.00  0.00    -0.494 OA
ATOM     23  C   UNL A   1      37.789  28.922  32.599  1.00  0.00     0.278 C 
ENDBRANCH  16  22
ENDBRANCH  14  15
ENDBRANCH  13  14
ENDBRANCH  11  13
ENDBRANCH   9  11
ENDBRANCH   8   9
ENDBRANCH   6   8
ENDBRANCH   4   6
ENDBRANCH   3   4
ENDBRANCH   2   3
ENDBRANCH   1   2
BRANCH   1  24
ATOM     24  O   UNL A   1      43.487  18.947  24.927  1.00  0.00    -0.376 OA
BRANCH  24  25
ATOM     25  C   UNL A   1      44.850  18.642  25.072  1.00  0.00     0.188 C 
BRANCH  25  26
ATOM     26  C   UNL A   1      45.787  19.720  24.522  1.00  0.00     0.188 C 
BRANCH  26  27
ATOM     27  O   UNL A   1      46.402  20.668  25.376  1.00  0.00    -0.376 OA
BRANCH  27  28
ATOM     28  C   UNL A   1      46.008  22.031  25.319  1.00  0.00     0.202 C 
BRANCH  28  29
ATOM     29  C   UNL A   1      46.531  23.011  24.246  1.00  0.00     0.261 C 
BRANCH  29  30
ATOM     30  O   UNL A   1      46.065  24.363  24.297  1.00  0.00    -0.460 OA
BRANCH  30  31
ATOM     31  C   UNL A   1      47.011  25.304  24.558  1.00  0.00     0.338 C 
ATOM     32  O   UNL A   1      47.816  25.768  23.779  1.00  0.00    -0.246 OA
BRANCH  31  33
ATOM     33  C   UNL A   1      46.732  25.859  25.907  1.00  0.00     0.060 A 
ATOM     34  C   UNL A   1      45.410  25.822  26.384  1.00  0.00     0.016 A 
ATOM     35  C   UNL A   1      47.755  26.357  26.712  1.00  0.00     0.016 A 
ATOM     36  C   UNL A   1      45.109  26.281  27.665  1.00  0.00     0.010 A 
ATOM     37  C   UNL A   1      47.445  26.867  27.975  1.00  0.00     0.010 A 
ATOM     38  C   UNL A   1      46.118  26.854  28.445  1.00  0.00    -0.014 A 
BRANCH  38  39
ATOM     39  C   UNL A   1      45.748  27.660  29.632  1.00  0.00     0.031 A 
ATOM     40  C   UNL A   1      45.731  26.966  30.967  1.00  0.00     0.074 A 
ATOM     41  C   UNL A   1      45.454  28.970  29.542  1.00  0.00     0.049 A 
ATOM     42  N   UNL A   1      45.368  27.422  32.136  1.00  0.00    -0.248 NA
ATOM     43  C   UNL A   1      46.186  25.564  30.980  1.00  0.00     0.031 C 
ATOM     44  C   UNL A   1      45.505  29.772  28.323  1.00  0.00     0.029 A 
ATOM     45  N   UNL A   1      45.044  29.852  30.511  1.00  0.00    -0.354 N 
ATOM     46  C   UNL A   1      45.534  26.362  33.019  1.00  0.00     0.074 A 
ATOM     47  C   UNL A   1      46.006  25.233  32.248  1.00  0.00     0.031 C 
ATOM     48  C   UNL A   1      45.124  31.029  28.614  1.00  0.00     0.029 A 
ATOM     49  C   UNL A   1      44.764  31.108  30.030  1.00  0.00     0.049 A 
ATOM     50  H   UNL A   1      44.959  29.608  31.461  1.00  0.00     0.167 HD
ATOM     51  C   UNL A   1      45.313  26.329  34.354  1.00  0.00     0.031 A 
ATOM     52  C   UNL A   1      44.248  32.186  30.656  1.00  0.00     0.031 A 
ATOM     53  C   UNL A   1      44.825  27.448  35.113  1.00  0.00     0.049 A 
ATOM     54  C   UNL A   1      43.917  32.098  32.126  1.00  0.00     0.074 A 
ATOM     55  C   UNL A   1      44.570  27.519  36.471  1.00  0.00     0.029 A 
ATOM     56  N   UNL A   1      44.510  28.688  34.581  1.00  0.00    -0.354 N 
ATOM     57  N   UNL A   1      44.084  31.093  32.953  1.00  0.00    -0.248 NA
ATOM     58  C   UNL A   1      43.330  33.295  32.747  1.00  0.00     0.031 C 
ATOM     59  C   UNL A   1      44.038  28.780  36.748  1.00  0.00     0.029 A 
ATOM     60  C   UNL A   1      44.034  29.523  35.577  1.00  0.00     0.049 A 
ATOM     61  H   UNL A   1      44.609  28.938  33.633  1.00  0.00     0.167 HD
ATOM     62  C   UNL A   1      43.657  31.548  34.198  1.00  0.00     0.074 A 
ATOM     63  C   UNL A   1      43.236  32.922  34.017  1.00  0.00     0.031 C 
ATOM     64  C   UNL A   1      43.622  30.891  35.384  1.00  0.00     0.031 A 
BRANCH  51  65
ATOM     65  C   UNL A   1      45.559  25.025  35.066  1.00  0.00    -0.014 A 
ATOM     66  C   UNL A   1      46.776  24.765  35.721  1.00  0.00     0.010 A 
ATOM     67  C   UNL A   1      44.540  24.055  35.104  1.00  0.00     0.010 A 
ATOM     68  C   UNL A   1      46.984  23.545  36.369  1.00  0.00     0.020 A 
ATOM     69  C   UNL A   1      44.732  22.847  35.780  1.00  0.00     0.020 A 
ATOM     70  C   UNL A   1      45.960  22.594  36.395  1.00  0.00     0.054 A 
BRANCH  70  71
ATOM     71  S   UNL A   1      46.247  21.031  37.269  1.00  0.00     0.124 S 
ATOM     72  O   UNL A   1      47.703  20.924  37.224  1.00  0.00    -0.237 OA
ATOM     73  O   UNL A   1      45.678  21.295  38.588  1.00  0.00    -0.237 OA
ATOM     74  O   UNL A   1      45.526  20.046  36.466  1.00  0.00    -0.744 OA
ENDBRANCH  70  71
ENDBRANCH  51  65
BRANCH  52  75
ATOM     75  C   UNL A   1      43.991  33.442  29.896  1.00  0.00    -0.014 A 
ATOM     76  C   UNL A   1      45.044  34.322  29.586  1.00  0.00     0.010 A 
ATOM     77  C   UNL A   1      42.685  33.773  29.488  1.00  0.00     0.010 A 
ATOM     78  C   UNL A   1      44.794  35.513  28.897  1.00  0.00     0.020 A 
ATOM     79  C   UNL A   1      42.436  34.947  28.772  1.00  0.00     0.020 A 
ATOM     80  C   UNL A   1      43.492  35.815  28.489  1.00  0.00     0.054 A 
BRANCH  80  81
ATOM     81  S   UNL A   1      43.205  37.338  27.544  1.00  0.00     0.124 S 
ATOM     82  O   UNL A   1      42.292  36.882  26.501  1.00  0.00    -0.237 OA
ATOM     83  O   UNL A   1      42.625  38.224  28.552  1.00  0.00    -0.237 OA
ATOM     84  O   UNL A   1      44.541  37.714  27.088  1.00  0.00    -0.744 OA
ENDBRANCH  80  81
ENDBRANCH  52  75
BRANCH  64  85
ATOM     85  C   UNL A   1      43.157  31.656  36.597  1.00  0.00    -0.014 A 
ATOM     86  C   UNL A   1      44.064  32.313  37.447  1.00  0.00     0.010 A 
ATOM     87  C   UNL A   1      41.777  31.773  36.852  1.00  0.00     0.010 A 
ATOM     88  C   UNL A   1      43.602  33.043  38.546  1.00  0.00     0.020 A 
ATOM     89  C   UNL A   1      41.310  32.530  37.929  1.00  0.00     0.020 A 
ATOM     90  C   UNL A   1      42.228  33.149  38.779  1.00  0.00     0.054 A 
BRANCH  90  91
ATOM     91  S   UNL A   1      41.653  34.140  40.186  1.00  0.00     0.124 S 
ATOM     92  O   UNL A   1      40.335  33.567  40.444  1.00  0.00    -0.237 OA
ATOM     93  O   UNL A   1      42.667  33.868  41.202  1.00  0.00    -0.237 OA
ATOM     94  O   UNL A   1      41.648  35.506  39.669  1.00  0.00    -0.744 OA
ENDBRANCH  90  91
ENDBRANCH  64  85
ENDBRANCH  38  39
ENDBRANCH  31  33
ENDBRANCH  30  31
ENDBRANCH  29  30
ENDBRANCH  28  29
ENDBRANCH  27  28
ENDBRANCH  26  27
ENDBRANCH  25  26
ENDBRANCH  24  25
ENDBRANCH   1  24
TORSDOF 27
ENDMDL
MODEL 3
REMARK VINA RESULT:      -8.1      5.803      8.638
REMARK SMILES COc1ccc(CCC(=O)N(C)C[C@H](C)C(=O)OCCOCCOCCOC(=O)c2ccc(-c3c4nc(c(-c5ccc(S(=O)(=O)[O-])cc5)c5ccc([nH]5)c(-c5ccc(S(=O)(=O)[O-])cc5)c5nc(c(-c6ccc(S(=O)(=O)[O-])cc6)c6ccc3[nH]6)C=C5)C=C4)cc2)cc1F
REMARK SMILES IDX 20 1 19 2 18 3 16 4 17 5 14 6 15 7 13 8 11 9 12 10 9 11
REMARK SMILES IDX 10 12 8 13 7 14 6 15 3 16 4 17 91 18 5 19 90 20 92 21 2 22
REMARK SMILES IDX 1 23 21 24 22 25 23 26 24 27 25 28 26 29 27 30 28 31 29 32
REMARK SMILES IDX 30 33 31 34 89 35 32 36 88 37 33 38 34 39 35 40 82 41 36 42
REMARK SMILES IDX 87 43 81 44 83 45 37 46 86 47 80 48 79 49 38 51 68 52 49 53
REMARK SMILES IDX 67 54 50 55 53 56 66 57 84 58 51 59 52 60 65 62 85 63 54 64
REMARK SMILES IDX 39 65 40 66 48 67 41 68 47 69 42 70 43 71 44 72 45 73 46 74
REMARK SMILES IDX 69 75 70 76 78 77 71 78 77 79 72 80 73 81 74 82 75 83 76 84
REMARK SMILES IDX 55 85 56 86 64 87 57 88 63 89 58 90 59 91 60 92 61 93 62 94
REMARK H PARENT 83 50 53 61
REMARK Flexibility Score: inf
ROOT
ATOM      1  C   UNL A   1      33.574  22.247  26.313  1.00  0.00     0.202 C 
ENDROOT
BRANCH   1   2
ATOM      2  C   UNL A   1      33.214  23.636  25.741  1.00  0.00     0.261 C 
BRANCH   2   3
ATOM      3  O   UNL A   1      31.853  24.086  25.632  1.00  0.00    -0.463 OA
BRANCH   3   4
ATOM      4  C   UNL A   1      31.279  23.752  24.450  1.00  0.00     0.310 C 
ATOM      5  O   UNL A   1      31.302  22.608  24.006  1.00  0.00    -0.252 OA
BRANCH   4   6
ATOM      6  C   UNL A   1      30.607  24.855  23.664  1.00  0.00     0.115 C 
ATOM      7  C   UNL A   1      29.780  25.850  24.477  1.00  0.00     0.022 C 
BRANCH   6   8
ATOM      8  C   UNL A   1      31.578  25.593  22.726  1.00  0.00     0.134 C 
BRANCH   8   9
ATOM      9  N   UNL A   1      31.848  27.000  23.053  1.00  0.00    -0.345 N 
ATOM     10  C   UNL A   1      30.819  27.958  22.682  1.00  0.00     0.146 C 
BRANCH   9  11
ATOM     11  C   UNL A   1      32.805  27.290  24.014  1.00  0.00     0.222 C 
ATOM     12  O   UNL A   1      34.007  27.272  23.726  1.00  0.00    -0.275 OA
BRANCH  11  13
ATOM     13  C   UNL A   1      32.393  27.644  25.440  1.00  0.00     0.105 C 
BRANCH  13  14
ATOM     14  C   UNL A   1      33.488  27.593  26.521  1.00  0.00     0.045 C 
BRANCH  14  15
ATOM     15  C   UNL A   1      33.879  28.948  27.056  1.00  0.00    -0.044 A 
ATOM     16  C   UNL A   1      34.667  31.577  27.607  1.00  0.00     0.154 A 
ATOM     17  C   UNL A   1      35.609  30.556  27.643  1.00  0.00     0.050 A 
ATOM     18  C   UNL A   1      33.325  31.280  27.373  1.00  0.00     0.165 A 
ATOM     19  C   UNL A   1      35.207  29.243  27.396  1.00  0.00     0.008 A 
ATOM     20  C   UNL A   1      32.926  29.973  27.111  1.00  0.00     0.047 A 
ATOM     21  F   UNL A   1      32.409  32.257  27.311  1.00  0.00    -0.203 F 
BRANCH  16  22
ATOM     22  O   UNL A   1      35.125  32.865  27.669  1.00  0.00    -0.494 OA
ATOM     23  C   UNL A   1      36.386  32.914  28.333  1.00  0.00     0.278 C 
ENDBRANCH  16  22
ENDBRANCH  14  15
ENDBRANCH  13  14
ENDBRANCH  11  13
ENDBRANCH   9  11
ENDBRANCH   8   9
ENDBRANCH   6   8
ENDBRANCH   4   6
ENDBRANCH   3   4
ENDBRANCH   2   3
ENDBRANCH   1   2
BRANCH   1  24
ATOM     24  O   UNL A   1      34.397  21.263  25.716  1.00  0.00    -0.376 OA
BRANCH  24  25
ATOM     25  C   UNL A   1      35.549  21.644  25.009  1.00  0.00     0.188 C 
BRANCH  25  26
ATOM     26  C   UNL A   1      36.836  21.560  25.833  1.00  0.00     0.188 C 
BRANCH  26  27
ATOM     27  O   UNL A   1      38.109  21.699  25.228  1.00  0.00    -0.376 OA
BRANCH  27  28
ATOM     28  C   UNL A   1      39.284  21.445  25.984  1.00  0.00     0.202 C 
BRANCH  28  29
ATOM     29  C   UNL A   1      40.004  20.080  25.981  1.00  0.00     0.261 C 
BRANCH  29  30
ATOM     30  O   UNL A   1      41.230  19.972  26.713  1.00  0.00    -0.460 OA
BRANCH  30  31
ATOM     31  C   UNL A   1      42.357  20.300  26.026  1.00  0.00     0.338 C 
ATOM     32  O   UNL A   1      42.843  19.702  25.090  1.00  0.00    -0.246 OA
BRANCH  31  33
ATOM     33  C   UNL A   1      42.764  21.662  26.455  1.00  0.00     0.060 A 
ATOM     34  C   UNL A   1      42.775  22.690  25.495  1.00  0.00     0.016 A 
ATOM     35  C   UNL A   1      43.075  21.940  27.785  1.00  0.00     0.016 A 
ATOM     36  C   UNL A   1      43.096  23.995  25.863  1.00  0.00     0.010 A 
ATOM     37  C   UNL A   1      43.450  23.238  28.142  1.00  0.00     0.010 A 
ATOM     38  C   UNL A   1      43.487  24.263  27.178  1.00  0.00    -0.014 A 
BRANCH  38  39
ATOM     39  C   UNL A   1      44.169  25.541  27.487  1.00  0.00     0.031 A 
ATOM     40  C   UNL A   1      43.381  26.590  28.225  1.00  0.00     0.074 A 
ATOM     41  C   UNL A   1      45.450  25.768  27.146  1.00  0.00     0.049 A 
ATOM     42  N   UNL A   1      43.717  27.812  28.541  1.00  0.00    -0.248 NA
ATOM     43  C   UNL A   1      42.029  26.203  28.662  1.00  0.00     0.031 C 
ATOM     44  C   UNL A   1      46.340  24.809  26.496  1.00  0.00     0.029 A 
ATOM     45  N   UNL A   1      46.220  26.895  27.299  1.00  0.00    -0.354 N 
ATOM     46  C   UNL A   1      42.615  28.345  29.199  1.00  0.00     0.074 A 
ATOM     47  C   UNL A   1      41.591  27.324  29.214  1.00  0.00     0.031 C 
ATOM     48  C   UNL A   1      47.534  25.395  26.291  1.00  0.00     0.029 A 
ATOM     49  C   UNL A   1      47.478  26.780  26.758  1.00  0.00     0.049 A 
ATOM     50  H   UNL A   1      45.901  27.707  27.754  1.00  0.00     0.167 HD
ATOM     51  C   UNL A   1      42.466  29.575  29.743  1.00  0.00     0.031 A 
ATOM     52  C   UNL A   1      48.458  27.699  26.629  1.00  0.00     0.031 A 
ATOM     53  C   UNL A   1      43.479  30.594  29.708  1.00  0.00     0.049 A 
ATOM     54  C   UNL A   1      48.234  29.096  27.155  1.00  0.00     0.074 A 
ATOM     55  C   UNL A   1      43.429  31.874  30.231  1.00  0.00     0.029 A 
ATOM     56  N   UNL A   1      44.722  30.455  29.110  1.00  0.00    -0.354 N 
ATOM     57  N   UNL A   1      47.191  29.587  27.782  1.00  0.00    -0.248 NA
ATOM     58  C   UNL A   1      49.327  30.062  26.960  1.00  0.00     0.031 C 
ATOM     59  C   UNL A   1      44.615  32.530  29.893  1.00  0.00     0.029 A 
ATOM     60  C   UNL A   1      45.437  31.635  29.225  1.00  0.00     0.049 A 
ATOM     61  H   UNL A   1      45.048  29.637  28.668  1.00  0.00     0.167 HD
ATOM     62  C   UNL A   1      47.515  30.906  28.086  1.00  0.00     0.074 A 
ATOM     63  C   UNL A   1      48.855  31.132  27.586  1.00  0.00     0.031 C 
ATOM     64  C   UNL A   1      46.773  31.845  28.726  1.00  0.00     0.031 A 
BRANCH  51  65
ATOM     65  C   UNL A   1      41.142  29.895  30.382  1.00  0.00    -0.014 A 
ATOM     66  C   UNL A   1      40.067  30.401  29.629  1.00  0.00     0.010 A 
ATOM     67  C   UNL A   1      40.962  29.658  31.758  1.00  0.00     0.010 A 
ATOM     68  C   UNL A   1      38.848  30.697  30.247  1.00  0.00     0.020 A 
ATOM     69  C   UNL A   1      39.735  29.923  32.373  1.00  0.00     0.020 A 
ATOM     70  C   UNL A   1      38.690  30.456  31.615  1.00  0.00     0.054 A 
BRANCH  70  71
ATOM     71  S   UNL A   1      37.089  30.823  32.383  1.00  0.00     0.124 S 
ATOM     72  O   UNL A   1      37.494  31.466  33.630  1.00  0.00    -0.237 OA
ATOM     73  O   UNL A   1      36.459  31.700  31.400  1.00  0.00    -0.237 OA
ATOM     74  O   UNL A   1      36.466  29.509  32.533  1.00  0.00    -0.744 OA
ENDBRANCH  70  71
ENDBRANCH  51  65
BRANCH  52  75
ATOM     75  C   UNL A   1      49.738  27.339  25.955  1.00  0.00    -0.014 A 
ATOM     76  C   UNL A   1      49.816  27.267  24.553  1.00  0.00     0.010 A 
ATOM     77  C   UNL A   1      50.887  27.053  26.716  1.00  0.00     0.010 A 
ATOM     78  C   UNL A   1      51.011  26.901  23.926  1.00  0.00     0.020 A 
ATOM     79  C   UNL A   1      52.092  26.718  26.092  1.00  0.00     0.020 A 
ATOM     80  C   UNL A   1      52.144  26.635  24.700  1.00  0.00     0.054 A 
BRANCH  80  81
ATOM     81  S   UNL A   1      53.698  26.222  23.859  1.00  0.00     0.124 S 
ATOM     82  O   UNL A   1      54.517  27.397  24.138  1.00  0.00    -0.237 OA
ATOM     83  O   UNL A   1      54.101  24.991  24.537  1.00  0.00    -0.237 OA
ATOM     84  O   UNL A   1      53.297  26.053  22.464  1.00  0.00    -0.744 OA
ENDBRANCH  80  81
ENDBRANCH  52  75
BRANCH  64  85
ATOM     85  C   UNL A   1      47.404  33.192  28.971  1.00  0.00    -0.014 A 
ATOM     86  C   UNL A   1      47.038  34.324  28.222  1.00  0.00     0.010 A 
ATOM     87  C   UNL A   1      48.336  33.337  30.017  1.00  0.00     0.010 A 
ATOM     88  C   UNL A   1      47.616  35.568  28.493  1.00  0.00     0.020 A 
ATOM     89  C   UNL A   1      48.889  34.585  30.313  1.00  0.00     0.020 A 
ATOM     90  C   UNL A   1      48.536  35.691  29.539  1.00  0.00     0.054 A 
BRANCH  90  91
ATOM     91  S   UNL A   1      49.237  37.326  29.899  1.00  0.00     0.124 S 
ATOM     92  O   UNL A   1      49.804  37.705  28.608  1.00  0.00    -0.237 OA
ATOM     93  O   UNL A   1      48.065  38.089  30.319  1.00  0.00    -0.237 OA
ATOM     94  O   UNL A   1      50.212  37.061  30.954  1.00  0.00    -0.744 OA
ENDBRANCH  90  91
ENDBRANCH  64  85
ENDBRANCH  38  39
ENDBRANCH  31  33
ENDBRANCH  30  31
ENDBRANCH  29  30
ENDBRANCH  28  29
ENDBRANCH  27  28
ENDBRANCH  26  27
ENDBRANCH  25  26
ENDBRANCH  24  25
ENDBRANCH   1  24
TORSDOF 27
ENDMDL
