MODEL 1
REMARK VINA RESULT:      -9.8      0.000      0.000
REMARK SMILES O=C(Cn1ncc2ccccc2c1=O)N[C@@H]1C[NH2+][C@H](C(=O)OCCOCCOCCOC(=O)c2ccc(-c3c4nc(c(-c5ccc(S(=O)(=O)[O-])cc5)c5ccc([nH]5)c(-c5ccc(S(=O)(=O)[O-])cc5)c5nc(c(-c6ccc(S(=O)(=O)[O-])cc6)c6ccc3[nH]6)C=C5)C=C4)cc2)C1
REMARK SMILES IDX 26 1 25 2 24 3 23 4 22 5 20 6 21 7 19 8 16 9 17 10 94 11
REMARK SMILES IDX 18 12 15 15 1 16 2 17 3 19 4 20 5 21 13 22 6 23 12 24 14 25
REMARK SMILES IDX 7 26 11 27 8 28 10 29 9 30 27 31 28 32 29 33 30 34 31 35
REMARK SMILES IDX 32 36 33 37 34 38 35 39 93 40 36 41 92 42 37 43 38 44 39 45
REMARK SMILES IDX 86 46 40 47 91 48 85 49 87 50 41 51 90 52 84 53 83 54 42 56
REMARK SMILES IDX 72 57 53 58 71 59 54 60 57 61 70 62 88 63 55 64 56 65 69 67
REMARK SMILES IDX 89 68 58 69 43 70 44 71 52 72 45 73 51 74 46 75 47 76 48 77
REMARK SMILES IDX 49 78 50 79 73 80 74 81 82 82 75 83 81 84 76 85 77 86 78 87
REMARK SMILES IDX 79 88 80 89 59 90 60 91 68 92 61 93 67 94 62 95 63 96 64 97
REMARK SMILES IDX 65 98 66 99
REMARK H PARENT 18 13 18 14 15 18 87 55 57 66
REMARK Flexibility Score: inf
ROOT
ATOM      1  C   UNL A   1      38.234  23.283  25.986  1.00  0.00     0.188 C 
ENDROOT
BRANCH   1   2
ATOM      2  O   UNL A   1      37.471  22.469  25.126  1.00  0.00    -0.376 OA
BRANCH   2   3
ATOM      3  C   UNL A   1      36.303  21.851  25.646  1.00  0.00     0.202 C 
BRANCH   3   4
ATOM      4  C   UNL A   1      35.355  20.994  24.786  1.00  0.00     0.261 C 
BRANCH   4   5
ATOM      5  O   UNL A   1      34.564  19.997  25.475  1.00  0.00    -0.459 OA
BRANCH   5   6
ATOM      6  C   UNL A   1      33.557  19.461  24.731  1.00  0.00     0.365 C 
ATOM      7  O   UNL A   1      33.541  18.279  24.385  1.00  0.00    -0.245 OA
BRANCH   6   8
ATOM      8  C   UNL A   1      32.392  20.412  24.352  1.00  0.00     0.295 C 
ATOM      9  C   UNL A   1      31.683  22.620  23.645  1.00  0.00     0.143 C 
ATOM     10  C   UNL A   1      32.073  22.656  25.117  1.00  0.00     0.286 C 
ATOM     11  C   UNL A   1      32.379  21.348  23.134  1.00  0.00     0.108 C 
ATOM     12  N   UNL A   1      32.092  21.258  25.544  1.00  0.00    -0.333 N 
ATOM     13  H   UNL A   1      31.184  21.001  25.931  1.00  0.00     0.347 HD
ATOM     14  H   UNL A   1      32.803  21.119  26.263  1.00  0.00     0.347 HD
BRANCH   9  15
ATOM     15  N   UNL A   1      31.989  23.863  22.934  1.00  0.00    -0.346 N 
ATOM     16  O   UNL A   1      29.910  24.774  23.261  1.00  0.00    -0.273 OA
ATOM     17  C   UNL A   1      31.048  24.878  22.801  1.00  0.00     0.242 C 
ATOM     18  H   UNL A   1      32.884  23.982  22.542  1.00  0.00     0.164 HD
BRANCH  17  19
ATOM     19  C   UNL A   1      31.520  26.160  22.087  1.00  0.00     0.248 C 
BRANCH  19  20
ATOM     20  N   UNL A   1      31.726  27.247  23.036  1.00  0.00    -0.220 N 
ATOM     21  N   UNL A   1      30.765  28.240  23.106  1.00  0.00    -0.177 NA
ATOM     22  C   UNL A   1      32.884  27.237  23.803  1.00  0.00     0.275 A 
ATOM     23  C   UNL A   1      30.847  29.102  24.074  1.00  0.00     0.142 A 
ATOM     24  C   UNL A   1      32.915  28.184  24.928  1.00  0.00     0.050 A 
ATOM     25  O   UNL A   1      33.782  26.412  23.648  1.00  0.00    -0.267 OA
ATOM     26  C   UNL A   1      31.860  29.058  25.117  1.00  0.00     0.007 A 
ATOM     27  C   UNL A   1      33.887  28.074  25.906  1.00  0.00     0.014 A 
ATOM     28  C   UNL A   1      31.726  29.792  26.298  1.00  0.00     0.010 A 
ATOM     29  C   UNL A   1      33.687  28.692  27.134  1.00  0.00     0.001 A 
ATOM     30  C   UNL A   1      32.624  29.563  27.334  1.00  0.00     0.001 A 
ENDBRANCH  19  20
ENDBRANCH  17  19
ENDBRANCH   9  15
ENDBRANCH   6   8
ENDBRANCH   5   6
ENDBRANCH   4   5
ENDBRANCH   3   4
ENDBRANCH   2   3
ENDBRANCH   1   2
BRANCH   1  31
ATOM     31  C   UNL A   1      39.347  22.615  26.805  1.00  0.00     0.188 C 
BRANCH  31  32
ATOM     32  O   UNL A   1      40.226  21.662  26.246  1.00  0.00    -0.376 OA
BRANCH  32  33
ATOM     33  C   UNL A   1      41.564  22.048  25.961  1.00  0.00     0.202 C 
BRANCH  33  34
ATOM     34  C   UNL A   1      42.413  22.897  26.924  1.00  0.00     0.261 C 
BRANCH  34  35
ATOM     35  O   UNL A   1      42.522  24.288  26.599  1.00  0.00    -0.460 OA
BRANCH  35  36
ATOM     36  C   UNL A   1      43.605  24.919  27.129  1.00  0.00     0.338 C 
ATOM     37  O   UNL A   1      44.772  24.781  26.797  1.00  0.00    -0.246 OA
BRANCH  36  38
ATOM     38  C   UNL A   1      43.118  25.987  28.023  1.00  0.00     0.060 A 
ATOM     39  C   UNL A   1      41.938  25.831  28.744  1.00  0.00     0.016 A 
ATOM     40  C   UNL A   1      43.858  27.166  28.137  1.00  0.00     0.016 A 
ATOM     41  C   UNL A   1      41.522  26.850  29.615  1.00  0.00     0.010 A 
ATOM     42  C   UNL A   1      43.420  28.191  28.970  1.00  0.00     0.010 A 
ATOM     43  C   UNL A   1      42.279  28.026  29.767  1.00  0.00    -0.014 A 
BRANCH  43  44
ATOM     44  C   UNL A   1      42.023  29.016  30.855  1.00  0.00     0.031 A 
ATOM     45  C   UNL A   1      42.549  28.785  32.253  1.00  0.00     0.074 A 
ATOM     46  C   UNL A   1      41.093  29.980  30.654  1.00  0.00     0.049 A 
ATOM     47  N   UNL A   1      42.271  29.444  33.351  1.00  0.00    -0.248 NA
ATOM     48  C   UNL A   1      43.468  27.651  32.456  1.00  0.00     0.031 C 
ATOM     49  C   UNL A   1      40.330  30.179  29.414  1.00  0.00     0.029 A 
ATOM     50  N   UNL A   1      40.498  30.854  31.543  1.00  0.00    -0.354 N 
ATOM     51  C   UNL A   1      43.037  28.855  34.351  1.00  0.00     0.074 A 
ATOM     52  C   UNL A   1      43.676  27.699  33.766  1.00  0.00     0.031 C 
ATOM     53  C   UNL A   1      39.308  31.017  29.652  1.00  0.00     0.029 A 
ATOM     54  C   UNL A   1      39.348  31.436  31.050  1.00  0.00     0.049 A 
ATOM     55  H   UNL A   1      40.858  31.043  32.439  1.00  0.00     0.167 HD
ATOM     56  C   UNL A   1      43.257  29.291  35.614  1.00  0.00     0.031 A 
ATOM     57  C   UNL A   1      38.399  32.188  31.647  1.00  0.00     0.031 A 
ATOM     58  C   UNL A   1      42.616  30.448  36.186  1.00  0.00     0.049 A 
ATOM     59  C   UNL A   1      38.593  32.632  33.069  1.00  0.00     0.074 A 
ATOM     60  C   UNL A   1      42.908  31.087  37.380  1.00  0.00     0.029 A 
ATOM     61  N   UNL A   1      41.549  31.125  35.622  1.00  0.00    -0.354 N 
ATOM     62  N   UNL A   1      39.493  32.232  33.933  1.00  0.00    -0.248 NA
ATOM     63  C   UNL A   1      37.694  33.679  33.578  1.00  0.00     0.031 C 
ATOM     64  C   UNL A   1      41.972  32.104  37.571  1.00  0.00     0.029 A 
ATOM     65  C   UNL A   1      41.152  32.156  36.455  1.00  0.00     0.049 A 
ATOM     66  H   UNL A   1      41.135  30.907  34.756  1.00  0.00     0.167 HD
ATOM     67  C   UNL A   1      39.331  33.046  35.050  1.00  0.00     0.074 A 
ATOM     68  C   UNL A   1      38.220  33.930  34.772  1.00  0.00     0.031 C 
ATOM     69  C   UNL A   1      40.072  33.071  36.182  1.00  0.00     0.031 A 
BRANCH  56  70
ATOM     70  C   UNL A   1      44.342  28.630  36.432  1.00  0.00    -0.014 A 
ATOM     71  C   UNL A   1      45.694  28.984  36.269  1.00  0.00     0.010 A 
ATOM     72  C   UNL A   1      44.025  27.498  37.207  1.00  0.00     0.010 A 
ATOM     73  C   UNL A   1      46.706  28.189  36.818  1.00  0.00     0.020 A 
ATOM     74  C   UNL A   1      45.030  26.721  37.786  1.00  0.00     0.020 A 
ATOM     75  C   UNL A   1      46.366  27.052  37.558  1.00  0.00     0.054 A 
BRANCH  75  76
ATOM     76  S   UNL A   1      47.687  25.977  38.184  1.00  0.00     0.124 S 
ATOM     77  O   UNL A   1      47.630  24.848  37.260  1.00  0.00    -0.237 OA
ATOM     78  O   UNL A   1      48.870  26.828  38.070  1.00  0.00    -0.237 OA
ATOM     79  O   UNL A   1      47.271  25.682  39.553  1.00  0.00    -0.744 OA
ENDBRANCH  75  76
ENDBRANCH  56  70
BRANCH  57  80
ATOM     80  C   UNL A   1      37.222  32.646  30.861  1.00  0.00    -0.014 A 
ATOM     81  C   UNL A   1      35.991  31.968  30.933  1.00  0.00     0.010 A 
ATOM     82  C   UNL A   1      37.349  33.739  29.986  1.00  0.00     0.010 A 
ATOM     83  C   UNL A   1      34.917  32.362  30.127  1.00  0.00     0.020 A 
ATOM     84  C   UNL A   1      36.273  34.150  29.197  1.00  0.00     0.020 A 
ATOM     85  C   UNL A   1      35.069  33.445  29.257  1.00  0.00     0.054 A 
BRANCH  85  86
ATOM     86  S   UNL A   1      33.680  33.908  28.185  1.00  0.00     0.124 S 
ATOM     87  O   UNL A   1      33.247  32.608  27.678  1.00  0.00    -0.237 OA
ATOM     88  O   UNL A   1      32.764  34.557  29.119  1.00  0.00    -0.237 OA
ATOM     89  O   UNL A   1      34.289  34.792  27.195  1.00  0.00    -0.744 OA
ENDBRANCH  85  86
ENDBRANCH  57  80
BRANCH  69  90
ATOM     90  C   UNL A   1      39.799  34.131  37.217  1.00  0.00    -0.014 A 
ATOM     91  C   UNL A   1      40.518  35.341  37.156  1.00  0.00     0.010 A 
ATOM     92  C   UNL A   1      38.983  33.877  38.332  1.00  0.00     0.010 A 
ATOM     93  C   UNL A   1      40.485  36.245  38.219  1.00  0.00     0.020 A 
ATOM     94  C   UNL A   1      38.919  34.797  39.384  1.00  0.00     0.020 A 
ATOM     95  C   UNL A   1      39.701  35.956  39.338  1.00  0.00     0.054 A 
BRANCH  95  96
ATOM     96  S   UNL A   1      39.748  37.093  40.749  1.00  0.00     0.124 S 
ATOM     97  O   UNL A   1      40.962  37.859  40.486  1.00  0.00    -0.237 OA
ATOM     98  O   UNL A   1      38.495  37.833  40.607  1.00  0.00    -0.237 OA
ATOM     99  O   UNL A   1      39.809  36.204  41.907  1.00  0.00    -0.744 OA
ENDBRANCH  95  96
ENDBRANCH  69  90
ENDBRANCH  43  44
ENDBRANCH  36  38
ENDBRANCH  35  36
ENDBRANCH  34  35
ENDBRANCH  33  34
ENDBRANCH  32  33
ENDBRANCH  31  32
ENDBRANCH   1  31
TORSDOF 23
ENDMDL
MODEL 2
REMARK VINA RESULT:      -9.5      2.152      9.254
REMARK SMILES O=C(Cn1ncc2ccccc2c1=O)N[C@@H]1C[NH2+][C@H](C(=O)OCCOCCOCCOC(=O)c2ccc(-c3c4nc(c(-c5ccc(S(=O)(=O)[O-])cc5)c5ccc([nH]5)c(-c5ccc(S(=O)(=O)[O-])cc5)c5nc(c(-c6ccc(S(=O)(=O)[O-])cc6)c6ccc3[nH]6)C=C5)C=C4)cc2)C1
REMARK SMILES IDX 26 1 25 2 24 3 23 4 22 5 20 6 21 7 19 8 16 9 17 10 94 11
REMARK SMILES IDX 18 12 15 15 1 16 2 17 3 19 4 20 5 21 13 22 6 23 12 24 14 25
REMARK SMILES IDX 7 26 11 27 8 28 10 29 9 30 27 31 28 32 29 33 30 34 31 35
REMARK SMILES IDX 32 36 33 37 34 38 35 39 93 40 36 41 92 42 37 43 38 44 39 45
REMARK SMILES IDX 86 46 40 47 91 48 85 49 87 50 41 51 90 52 84 53 83 54 42 56
REMARK SMILES IDX 72 57 53 58 71 59 54 60 57 61 70 62 88 63 55 64 56 65 69 67
REMARK SMILES IDX 89 68 58 69 43 70 44 71 52 72 45 73 51 74 46 75 47 76 48 77
REMARK SMILES IDX 49 78 50 79 73 80 74 81 82 82 75 83 81 84 76 85 77 86 78 87
REMARK SMILES IDX 79 88 80 89 59 90 60 91 68 92 61 93 67 94 62 95 63 96 64 97
REMARK SMILES IDX 65 98 66 99
REMARK H PARENT 18 13 18 14 15 18 87 55 57 66
REMARK Flexibility Score: inf
ROOT
ATOM      1  C   UNL A   1      33.893  30.901  27.254  1.00  0.00     0.188 C 
ENDROOT
BRANCH   1   2
ATOM      2  O   UNL A   1      32.987  29.893  27.637  1.00  0.00    -0.376 OA
BRANCH   2   3
ATOM      3  C   UNL A   1      31.800  29.731  26.875  1.00  0.00     0.202 C 
BRANCH   3   4
ATOM      4  C   UNL A   1      31.771  29.012  25.513  1.00  0.00     0.261 C 
BRANCH   4   5
ATOM      5  O   UNL A   1      31.499  29.826  24.346  1.00  0.00    -0.459 OA
BRANCH   5   6
ATOM      6  C   UNL A   1      30.256  29.660  23.818  1.00  0.00     0.365 C 
ATOM      7  O   UNL A   1      29.396  30.541  23.847  1.00  0.00    -0.245 OA
BRANCH   6   8
ATOM      8  C   UNL A   1      29.966  28.296  23.139  1.00  0.00     0.295 C 
ATOM      9  C   UNL A   1      30.510  25.942  22.931  1.00  0.00     0.143 C 
ATOM     10  C   UNL A   1      31.580  26.777  22.238  1.00  0.00     0.286 C 
ATOM     11  C   UNL A   1      29.840  26.953  23.875  1.00  0.00     0.108 C 
ATOM     12  N   UNL A   1      30.984  28.100  22.065  1.00  0.00    -0.333 N 
ATOM     13  H   UNL A   1      30.537  28.161  21.150  1.00  0.00     0.347 HD
ATOM     14  H   UNL A   1      31.703  28.822  22.125  1.00  0.00     0.347 HD
BRANCH   9  15
ATOM     15  N   UNL A   1      31.035  24.722  23.546  1.00  0.00    -0.346 N 
ATOM     16  O   UNL A   1      30.825  25.500  25.693  1.00  0.00    -0.273 OA
ATOM     17  C   UNL A   1      31.148  24.592  24.926  1.00  0.00     0.242 C 
ATOM     18  H   UNL A   1      31.315  23.975  22.969  1.00  0.00     0.164 HD
BRANCH  17  19
ATOM     19  C   UNL A   1      31.654  23.232  25.448  1.00  0.00     0.248 C 
BRANCH  19  20
ATOM     20  N   UNL A   1      32.978  22.925  24.920  1.00  0.00    -0.220 N 
ATOM     21  N   UNL A   1      33.726  23.964  24.396  1.00  0.00    -0.177 NA
ATOM     22  C   UNL A   1      33.406  21.604  24.954  1.00  0.00     0.275 A 
ATOM     23  C   UNL A   1      34.970  23.732  24.101  1.00  0.00     0.142 A 
ATOM     24  C   UNL A   1      34.834  21.387  24.674  1.00  0.00     0.050 A 
ATOM     25  O   UNL A   1      32.686  20.675  25.315  1.00  0.00    -0.267 OA
ATOM     26  C   UNL A   1      35.636  22.460  24.333  1.00  0.00     0.007 A 
ATOM     27  C   UNL A   1      35.419  20.162  24.943  1.00  0.00     0.014 A 
ATOM     28  C   UNL A   1      37.029  22.348  24.305  1.00  0.00     0.010 A 
ATOM     29  C   UNL A   1      36.801  20.081  25.054  1.00  0.00     0.001 A 
ATOM     30  C   UNL A   1      37.613  21.157  24.722  1.00  0.00     0.001 A 
ENDBRANCH  19  20
ENDBRANCH  17  19
ENDBRANCH   9  15
ENDBRANCH   6   8
ENDBRANCH   5   6
ENDBRANCH   4   5
ENDBRANCH   3   4
ENDBRANCH   2   3
ENDBRANCH   1   2
BRANCH   1  31
ATOM     31  C   UNL A   1      33.933  32.186  28.091  1.00  0.00     0.188 C 
BRANCH  31  32
ATOM     32  O   UNL A   1      33.163  33.323  27.763  1.00  0.00    -0.376 OA
BRANCH  32  33
ATOM     33  C   UNL A   1      33.665  34.611  28.100  1.00  0.00     0.202 C 
BRANCH  33  34
ATOM     34  C   UNL A   1      32.867  35.626  28.937  1.00  0.00     0.261 C 
BRANCH  34  35
ATOM     35  O   UNL A   1      32.361  35.144  30.187  1.00  0.00    -0.460 OA
BRANCH  35  36
ATOM     36  C   UNL A   1      32.978  35.646  31.291  1.00  0.00     0.338 C 
ATOM     37  O   UNL A   1      32.607  36.583  31.979  1.00  0.00    -0.246 OA
BRANCH  36  38
ATOM     38  C   UNL A   1      34.061  34.718  31.668  1.00  0.00     0.060 A 
ATOM     39  C   UNL A   1      35.238  34.656  30.928  1.00  0.00     0.016 A 
ATOM     40  C   UNL A   1      33.891  33.895  32.784  1.00  0.00     0.016 A 
ATOM     41  C   UNL A   1      36.264  33.790  31.336  1.00  0.00     0.010 A 
ATOM     42  C   UNL A   1      34.895  33.008  33.160  1.00  0.00     0.010 A 
ATOM     43  C   UNL A   1      36.120  32.984  32.479  1.00  0.00    -0.014 A 
BRANCH  43  44
ATOM     44  C   UNL A   1      37.261  32.245  33.097  1.00  0.00     0.031 A 
ATOM     45  C   UNL A   1      38.097  32.880  34.185  1.00  0.00     0.074 A 
ATOM     46  C   UNL A   1      37.714  31.120  32.493  1.00  0.00     0.049 A 
ATOM     47  N   UNL A   1      39.224  32.457  34.702  1.00  0.00    -0.248 NA
ATOM     48  C   UNL A   1      37.634  34.166  34.736  1.00  0.00     0.031 C 
ATOM     49  C   UNL A   1      37.138  30.514  31.285  1.00  0.00     0.029 A 
ATOM     50  N   UNL A   1      38.868  30.391  32.701  1.00  0.00    -0.354 N 
ATOM     51  C   UNL A   1      39.561  33.381  35.685  1.00  0.00     0.074 A 
ATOM     52  C   UNL A   1      38.603  34.459  35.595  1.00  0.00     0.031 C 
ATOM     53  C   UNL A   1      37.990  29.598  30.799  1.00  0.00     0.029 A 
ATOM     54  C   UNL A   1      39.163  29.528  31.665  1.00  0.00     0.049 A 
ATOM     55  H   UNL A   1      39.426  30.479  33.507  1.00  0.00     0.167 HD
ATOM     56  C   UNL A   1      40.524  33.294  36.633  1.00  0.00     0.031 A 
ATOM     57  C   UNL A   1      40.262  28.789  31.402  1.00  0.00     0.031 A 
ATOM     58  C   UNL A   1      41.473  32.212  36.714  1.00  0.00     0.049 A 
ATOM     59  C   UNL A   1      41.371  28.727  32.412  1.00  0.00     0.074 A 
ATOM     60  C   UNL A   1      42.360  31.926  37.739  1.00  0.00     0.029 A 
ATOM     61  N   UNL A   1      41.672  31.255  35.736  1.00  0.00    -0.354 N 
ATOM     62  N   UNL A   1      41.540  29.460  33.484  1.00  0.00    -0.248 NA
ATOM     63  C   UNL A   1      42.400  27.693  32.223  1.00  0.00     0.031 C 
ATOM     64  C   UNL A   1      43.144  30.841  37.348  1.00  0.00     0.029 A 
ATOM     65  C   UNL A   1      42.687  30.395  36.118  1.00  0.00     0.049 A 
ATOM     66  H   UNL A   1      41.166  31.194  34.893  1.00  0.00     0.167 HD
ATOM     67  C   UNL A   1      42.635  28.913  34.146  1.00  0.00     0.074 A 
ATOM     68  C   UNL A   1      43.116  27.817  33.335  1.00  0.00     0.031 C 
ATOM     69  C   UNL A   1      43.158  29.276  35.341  1.00  0.00     0.031 A 
BRANCH  56  70
ATOM     70  C   UNL A   1      40.526  34.298  37.762  1.00  0.00    -0.014 A 
ATOM     71  C   UNL A   1      41.464  35.347  37.801  1.00  0.00     0.010 A 
ATOM     72  C   UNL A   1      39.726  34.060  38.896  1.00  0.00     0.010 A 
ATOM     73  C   UNL A   1      41.639  36.098  38.969  1.00  0.00     0.020 A 
ATOM     74  C   UNL A   1      39.872  34.829  40.051  1.00  0.00     0.020 A 
ATOM     75  C   UNL A   1      40.853  35.821  40.092  1.00  0.00     0.054 A 
BRANCH  75  76
ATOM     76  S   UNL A   1      41.154  36.737  41.629  1.00  0.00     0.124 S 
ATOM     77  O   UNL A   1      40.504  38.016  41.359  1.00  0.00    -0.237 OA
ATOM     78  O   UNL A   1      40.504  35.897  42.632  1.00  0.00    -0.237 OA
ATOM     79  O   UNL A   1      42.611  36.786  41.719  1.00  0.00    -0.744 OA
ENDBRANCH  75  76
ENDBRANCH  56  70
BRANCH  57  80
ATOM     80  C   UNL A   1      40.317  27.971  30.160  1.00  0.00    -0.014 A 
ATOM     81  C   UNL A   1      39.486  26.849  29.990  1.00  0.00     0.010 A 
ATOM     82  C   UNL A   1      41.252  28.285  29.158  1.00  0.00     0.010 A 
ATOM     83  C   UNL A   1      39.606  26.044  28.852  1.00  0.00     0.020 A 
ATOM     84  C   UNL A   1      41.360  27.497  28.010  1.00  0.00     0.020 A 
ATOM     85  C   UNL A   1      40.550  26.369  27.875  1.00  0.00     0.054 A 
BRANCH  85  86
ATOM     86  S   UNL A   1      40.723  25.283  26.431  1.00  0.00     0.124 S 
ATOM     87  O   UNL A   1      41.087  26.233  25.383  1.00  0.00    -0.237 OA
ATOM     88  O   UNL A   1      41.783  24.369  26.849  1.00  0.00    -0.237 OA
ATOM     89  O   UNL A   1      39.400  24.679  26.294  1.00  0.00    -0.744 OA
ENDBRANCH  85  86
ENDBRANCH  57  80
BRANCH  69  90
ATOM     90  C   UNL A   1      44.272  28.455  35.935  1.00  0.00    -0.014 A 
ATOM     91  C   UNL A   1      45.601  28.742  35.560  1.00  0.00     0.010 A 
ATOM     92  C   UNL A   1      44.013  27.310  36.707  1.00  0.00     0.010 A 
ATOM     93  C   UNL A   1      46.638  27.864  35.882  1.00  0.00     0.020 A 
ATOM     94  C   UNL A   1      45.056  26.447  37.063  1.00  0.00     0.020 A 
ATOM     95  C   UNL A   1      46.354  26.710  36.615  1.00  0.00     0.054 A 
BRANCH  95  96
ATOM     96  S   UNL A   1      47.696  25.535  36.938  1.00  0.00     0.124 S 
ATOM     97  O   UNL A   1      48.069  25.864  38.311  1.00  0.00    -0.237 OA
ATOM     98  O   UNL A   1      47.040  24.241  36.758  1.00  0.00    -0.237 OA
ATOM     99  O   UNL A   1      48.695  25.864  35.924  1.00  0.00    -0.744 OA
ENDBRANCH  95  96
ENDBRANCH  69  90
ENDBRANCH  43  44
ENDBRANCH  36  38
ENDBRANCH  35  36
ENDBRANCH  34  35
ENDBRANCH  33  34
ENDBRANCH  32  33
ENDBRANCH  31  32
ENDBRANCH   1  31
TORSDOF 23
ENDMDL
MODEL 3
REMARK VINA RESULT:      -9.4      5.790     11.839
REMARK SMILES O=C(Cn1ncc2ccccc2c1=O)N[C@@H]1C[NH2+][C@H](C(=O)OCCOCCOCCOC(=O)c2ccc(-c3c4nc(c(-c5ccc(S(=O)(=O)[O-])cc5)c5ccc([nH]5)c(-c5ccc(S(=O)(=O)[O-])cc5)c5nc(c(-c6ccc(S(=O)(=O)[O-])cc6)c6ccc3[nH]6)C=C5)C=C4)cc2)C1
REMARK SMILES IDX 26 1 25 2 24 3 23 4 22 5 20 6 21 7 19 8 16 9 17 10 94 11
REMARK SMILES IDX 18 12 15 15 1 16 2 17 3 19 4 20 5 21 13 22 6 23 12 24 14 25
REMARK SMILES IDX 7 26 11 27 8 28 10 29 9 30 27 31 28 32 29 33 30 34 31 35
REMARK SMILES IDX 32 36 33 37 34 38 35 39 93 40 36 41 92 42 37 43 38 44 39 45
REMARK SMILES IDX 86 46 40 47 91 48 85 49 87 50 41 51 90 52 84 53 83 54 42 56
REMARK SMILES IDX 72 57 53 58 71 59 54 60 57 61 70 62 88 63 55 64 56 65 69 67
REMARK SMILES IDX 89 68 58 69 43 70 44 71 52 72 45 73 51 74 46 75 47 76 48 77
REMARK SMILES IDX 49 78 50 79 73 80 74 81 82 82 75 83 81 84 76 85 77 86 78 87
REMARK SMILES IDX 79 88 80 89 59 90 60 91 68 92 61 93 67 94 62 95 63 96 64 97
REMARK SMILES IDX 65 98 66 99
REMARK H PARENT 18 13 18 14 15 18 87 55 57 66
REMARK Flexibility Score: inf
ROOT
ATOM      1  C   UNL A   1      34.694  31.310  27.576  1.00  0.00     0.188 C 
ENDROOT
BRANCH   1   2
ATOM      2  O   UNL A   1      34.011  30.338  26.819  1.00  0.00    -0.376 OA
BRANCH   2   3
ATOM      3  C   UNL A   1      32.595  30.287  26.911  1.00  0.00     0.202 C 
BRANCH   3   4
ATOM      4  C   UNL A   1      31.711  29.608  25.848  1.00  0.00     0.261 C 
BRANCH   4   5
ATOM      5  O   UNL A   1      32.153  29.696  24.472  1.00  0.00    -0.459 OA
BRANCH   5   6
ATOM      6  C   UNL A   1      31.346  29.064  23.576  1.00  0.00     0.365 C 
ATOM      7  O   UNL A   1      30.282  29.544  23.183  1.00  0.00    -0.245 OA
BRANCH   6   8
ATOM      8  C   UNL A   1      31.844  27.698  23.037  1.00  0.00     0.295 C 
ATOM      9  C   UNL A   1      32.631  25.455  23.521  1.00  0.00     0.143 C 
ATOM     10  C   UNL A   1      33.738  26.460  23.812  1.00  0.00     0.286 C 
ATOM     11  C   UNL A   1      31.363  26.325  23.535  1.00  0.00     0.108 C 
ATOM     12  N   UNL A   1      33.333  27.689  23.132  1.00  0.00    -0.333 N 
ATOM     13  H   UNL A   1      33.739  27.717  22.197  1.00  0.00     0.347 HD
ATOM     14  H   UNL A   1      33.658  28.504  23.653  1.00  0.00     0.347 HD
BRANCH   9  15
ATOM     15  N   UNL A   1      32.641  24.303  24.423  1.00  0.00    -0.346 N 
ATOM     16  O   UNL A   1      30.509  23.644  23.898  1.00  0.00    -0.273 OA
ATOM     17  C   UNL A   1      31.544  23.456  24.538  1.00  0.00     0.242 C 
ATOM     18  H   UNL A   1      33.446  24.123  24.962  1.00  0.00     0.164 HD
BRANCH  17  19
ATOM     19  C   UNL A   1      31.710  22.243  25.475  1.00  0.00     0.248 C 
BRANCH  19  20
ATOM     20  N   UNL A   1      33.097  21.796  25.519  1.00  0.00    -0.220 N 
ATOM     21  N   UNL A   1      33.425  20.628  24.856  1.00  0.00    -0.177 NA
ATOM     22  C   UNL A   1      34.006  22.558  26.242  1.00  0.00     0.275 A 
ATOM     23  C   UNL A   1      34.683  20.329  24.732  1.00  0.00     0.142 A 
ATOM     24  C   UNL A   1      35.425  22.230  26.030  1.00  0.00     0.050 A 
ATOM     25  O   UNL A   1      33.678  23.528  26.922  1.00  0.00    -0.267 OA
ATOM     26  C   UNL A   1      35.769  21.172  25.208  1.00  0.00     0.007 A 
ATOM     27  C   UNL A   1      36.414  23.086  26.482  1.00  0.00     0.014 A 
ATOM     28  C   UNL A   1      37.085  20.981  24.781  1.00  0.00     0.010 A 
ATOM     29  C   UNL A   1      37.693  22.985  25.950  1.00  0.00     0.001 A 
ATOM     30  C   UNL A   1      38.043  21.931  25.116  1.00  0.00     0.001 A 
ENDBRANCH  19  20
ENDBRANCH  17  19
ENDBRANCH   9  15
ENDBRANCH   6   8
ENDBRANCH   5   6
ENDBRANCH   4   5
ENDBRANCH   3   4
ENDBRANCH   2   3
ENDBRANCH   1   2
BRANCH   1  31
ATOM     31  C   UNL A   1      33.885  32.499  28.113  1.00  0.00     0.188 C 
BRANCH  31  32
ATOM     32  O   UNL A   1      34.124  33.060  29.387  1.00  0.00    -0.376 OA
BRANCH  32  33
ATOM     33  C   UNL A   1      35.440  33.494  29.709  1.00  0.00     0.202 C 
BRANCH  33  34
ATOM     34  C   UNL A   1      36.517  32.551  30.273  1.00  0.00     0.261 C 
BRANCH  34  35
ATOM     35  O   UNL A   1      36.137  31.176  30.404  1.00  0.00    -0.460 OA
BRANCH  35  36
ATOM     36  C   UNL A   1      36.917  30.441  31.242  1.00  0.00     0.338 C 
ATOM     37  O   UNL A   1      36.562  29.850  32.249  1.00  0.00    -0.246 OA
BRANCH  36  38
ATOM     38  C   UNL A   1      38.237  30.273  30.605  1.00  0.00     0.060 A 
ATOM     39  C   UNL A   1      39.408  30.388  31.347  1.00  0.00     0.016 A 
ATOM     40  C   UNL A   1      38.300  29.997  29.237  1.00  0.00     0.016 A 
ATOM     41  C   UNL A   1      40.646  30.185  30.719  1.00  0.00     0.010 A 
ATOM     42  C   UNL A   1      39.532  29.837  28.609  1.00  0.00     0.010 A 
ATOM     43  C   UNL A   1      40.721  29.869  29.350  1.00  0.00    -0.014 A 
BRANCH  43  44
ATOM     44  C   UNL A   1      41.978  29.397  28.697  1.00  0.00     0.031 A 
ATOM     45  C   UNL A   1      42.222  27.924  28.461  1.00  0.00     0.074 A 
ATOM     46  C   UNL A   1      43.011  30.263  28.567  1.00  0.00     0.049 A 
ATOM     47  N   UNL A   1      43.323  27.330  28.074  1.00  0.00    -0.248 NA
ATOM     48  C   UNL A   1      41.108  26.997  28.727  1.00  0.00     0.031 C 
ATOM     49  C   UNL A   1      42.991  31.676  28.972  1.00  0.00     0.029 A 
ATOM     50  N   UNL A   1      44.332  30.043  28.232  1.00  0.00    -0.354 N 
ATOM     51  C   UNL A   1      43.012  25.978  27.979  1.00  0.00     0.074 A 
ATOM     52  C   UNL A   1      41.668  25.819  28.486  1.00  0.00     0.031 C 
ATOM     53  C   UNL A   1      44.246  32.154  28.974  1.00  0.00     0.029 A 
ATOM     54  C   UNL A   1      45.162  31.098  28.551  1.00  0.00     0.049 A 
ATOM     55  H   UNL A   1      44.651  29.214  27.808  1.00  0.00     0.167 HD
ATOM     56  C   UNL A   1      43.746  24.978  27.435  1.00  0.00     0.031 A 
ATOM     57  C   UNL A   1      46.506  31.211  28.552  1.00  0.00     0.031 A 
ATOM     58  C   UNL A   1      45.084  25.148  26.931  1.00  0.00     0.049 A 
ATOM     59  C   UNL A   1      47.344  30.088  28.010  1.00  0.00     0.074 A 
ATOM     60  C   UNL A   1      45.841  24.256  26.189  1.00  0.00     0.029 A 
ATOM     61  N   UNL A   1      45.870  26.270  27.127  1.00  0.00    -0.354 N 
ATOM     62  N   UNL A   1      46.970  28.873  27.692  1.00  0.00    -0.248 NA
ATOM     63  C   UNL A   1      48.765  30.366  27.758  1.00  0.00     0.031 C 
ATOM     64  C   UNL A   1      47.107  24.808  26.000  1.00  0.00     0.029 A 
ATOM     65  C   UNL A   1      47.113  26.082  26.548  1.00  0.00     0.049 A 
ATOM     66  H   UNL A   1      45.588  27.081  27.607  1.00  0.00     0.167 HD
ATOM     67  C   UNL A   1      48.086  28.277  27.112  1.00  0.00     0.074 A 
ATOM     68  C   UNL A   1      49.159  29.245  27.163  1.00  0.00     0.031 C 
ATOM     69  C   UNL A   1      48.183  27.047  26.555  1.00  0.00     0.031 A 
BRANCH  56  70
ATOM     70  C   UNL A   1      43.087  23.638  27.201  1.00  0.00    -0.014 A 
ATOM     71  C   UNL A   1      43.109  22.634  28.188  1.00  0.00     0.010 A 
ATOM     72  C   UNL A   1      42.636  23.309  25.908  1.00  0.00     0.010 A 
ATOM     73  C   UNL A   1      42.746  21.321  27.870  1.00  0.00     0.020 A 
ATOM     74  C   UNL A   1      42.241  22.008  25.596  1.00  0.00     0.020 A 
ATOM     75  C   UNL A   1      42.331  21.013  26.571  1.00  0.00     0.054 A 
BRANCH  75  76
ATOM     76  S   UNL A   1      41.956  19.290  26.147  1.00  0.00     0.124 S 
ATOM     77  O   UNL A   1      40.518  19.338  25.901  1.00  0.00    -0.237 OA
ATOM     78  O   UNL A   1      42.791  19.063  24.969  1.00  0.00    -0.237 OA
ATOM     79  O   UNL A   1      42.359  18.547  27.338  1.00  0.00    -0.744 OA
ENDBRANCH  75  76
ENDBRANCH  56  70
BRANCH  57  80
ATOM     80  C   UNL A   1      47.137  32.483  28.999  1.00  0.00    -0.014 A 
ATOM     81  C   UNL A   1      47.487  33.485  28.076  1.00  0.00     0.010 A 
ATOM     82  C   UNL A   1      47.444  32.669  30.358  1.00  0.00     0.010 A 
ATOM     83  C   UNL A   1      48.151  34.640  28.502  1.00  0.00     0.020 A 
ATOM     84  C   UNL A   1      48.087  33.831  30.792  1.00  0.00     0.020 A 
ATOM     85  C   UNL A   1      48.456  34.800  29.857  1.00  0.00     0.054 A 
BRANCH  85  86
ATOM     86  S   UNL A   1      49.363  36.282  30.381  1.00  0.00     0.124 S 
ATOM     87  O   UNL A   1      49.810  36.827  29.102  1.00  0.00    -0.237 OA
ATOM     88  O   UNL A   1      48.333  37.054  31.070  1.00  0.00    -0.237 OA
ATOM     89  O   UNL A   1      50.421  35.753  31.238  1.00  0.00    -0.744 OA
ENDBRANCH  85  86
ENDBRANCH  57  80
BRANCH  69  90
ATOM     90  C   UNL A   1      49.462  26.652  25.863  1.00  0.00    -0.014 A 
ATOM     91  C   UNL A   1      50.435  25.937  26.590  1.00  0.00     0.010 A 
ATOM     92  C   UNL A   1      49.781  27.126  24.580  1.00  0.00     0.010 A 
ATOM     93  C   UNL A   1      51.723  25.766  26.081  1.00  0.00     0.020 A 
ATOM     94  C   UNL A   1      51.060  26.925  24.051  1.00  0.00     0.020 A 
ATOM     95  C   UNL A   1      52.034  26.281  24.820  1.00  0.00     0.054 A 
BRANCH  95  96
ATOM     96  S   UNL A   1      53.737  26.134  24.218  1.00  0.00     0.124 S 
ATOM     97  O   UNL A   1      54.402  27.237  24.905  1.00  0.00    -0.237 OA
ATOM     98  O   UNL A   1      54.120  24.795  24.661  1.00  0.00    -0.237 OA
ATOM     99  O   UNL A   1      53.606  26.289  22.771  1.00  0.00    -0.744 OA
ENDBRANCH  95  96
ENDBRANCH  69  90
ENDBRANCH  43  44
ENDBRANCH  36  38
ENDBRANCH  35  36
ENDBRANCH  34  35
ENDBRANCH  33  34
ENDBRANCH  32  33
ENDBRANCH  31  32
ENDBRANCH   1  31
TORSDOF 23
ENDMDL
