MODEL 1
REMARK VINA RESULT:     -10.1      0.000      0.000
REMARK SMILES COc1ccc(N[C@]2(Br)C(=O)NC(=O)N[C@@H]2C(=O)OCCOCCOCCOC(=O)c2ccc(-c3c4nc(c(-c5ccc(S(=O)(=O)[O-])cc5)c5ccc([nH]5)c(-c5ccc(S(=O)(=O)[O-])cc5)c5nc(c(-c6ccc(S(=O)(=O)[O-])cc6)c6ccc3[nH]6)C=C5)C=C4)cc2)cc1
REMARK SMILES IDX 23 1 22 2 21 3 20 4 19 5 17 6 18 7 16 8 8 9 10 10 9 11 11 12
REMARK SMILES IDX 12 13 15 14 13 15 14 18 7 19 6 21 3 22 4 23 92 24 5 25 91 26
REMARK SMILES IDX 2 27 1 28 24 29 25 30 26 31 27 32 28 33 29 34 30 35 31 36
REMARK SMILES IDX 32 37 90 38 33 39 89 40 34 41 35 42 36 43 83 44 37 45 88 46
REMARK SMILES IDX 82 47 84 48 38 49 87 50 81 51 80 52 39 54 69 55 50 56 68 57
REMARK SMILES IDX 51 58 54 59 67 60 85 61 52 62 53 63 66 65 86 66 55 67 40 68
REMARK SMILES IDX 41 69 49 70 42 71 48 72 43 73 44 74 45 75 46 76 47 77 70 78
REMARK SMILES IDX 71 79 79 80 72 81 78 82 73 83 74 84 75 85 76 86 77 87 56 88
REMARK SMILES IDX 57 89 65 90 58 91 64 92 59 93 60 94 61 95 62 96 63 97
REMARK H PARENT 12 16 15 17 7 20 84 53 54 64
REMARK Flexibility Score: inf
ROOT
ATOM      1  C   UNL A   1      33.453  31.427  27.631  1.00  0.00     0.188 C 
ENDROOT
BRANCH   1   2
ATOM      2  O   UNL A   1      32.749  30.337  27.052  1.00  0.00    -0.376 OA
BRANCH   2   3
ATOM      3  C   UNL A   1      33.425  29.086  27.068  1.00  0.00     0.202 C 
BRANCH   3   4
ATOM      4  C   UNL A   1      33.456  28.447  25.682  1.00  0.00     0.261 C 
BRANCH   4   5
ATOM      5  O   UNL A   1      32.351  27.541  25.504  1.00  0.00    -0.462 OA
BRANCH   5   6
ATOM      6  C   UNL A   1      32.602  26.333  24.930  1.00  0.00     0.332 C 
ATOM      7  O   UNL A   1      32.700  26.147  23.726  1.00  0.00    -0.250 OA
BRANCH   6   8
ATOM      8  C   UNL A   1      32.563  25.246  26.000  1.00  0.00     0.240 C 
ATOM      9  C   UNL A   1      32.739  23.815  25.475  1.00  0.00     0.204 C 
ATOM     10  C   UNL A   1      31.441  23.236  24.916  1.00  0.00     0.267 C 
ATOM     11  Br  UNL A   1      32.977  22.687  27.181  1.00  0.00    -0.048 Br
ATOM     12  O   UNL A   1      31.390  22.210  24.238  1.00  0.00    -0.271 OA
ATOM     13  N   UNL A   1      30.277  23.866  25.296  1.00  0.00    -0.275 N 
ATOM     14  N   UNL A   1      31.276  25.439  26.667  1.00  0.00    -0.321 N 
ATOM     15  C   UNL A   1      30.132  24.865  26.213  1.00  0.00     0.322 C 
ATOM     16  H   UNL A   1      29.453  23.558  24.854  1.00  0.00     0.174 HD
ATOM     17  H   UNL A   1      31.237  26.004  27.472  1.00  0.00     0.166 HD
ATOM     18  O   UNL A   1      29.041  25.217  26.644  1.00  0.00    -0.248 OA
BRANCH   9  19
ATOM     19  N   UNL A   1      33.958  23.458  24.753  1.00  0.00    -0.360 N 
ATOM     20  H   UNL A   1      33.917  23.640  23.786  1.00  0.00     0.162 HD
BRANCH  19  21
ATOM     21  C   UNL A   1      35.150  22.916  25.171  1.00  0.00     0.036 A 
ATOM     22  C   UNL A   1      37.873  22.170  25.555  1.00  0.00     0.119 A 
ATOM     23  C   UNL A   1      36.900  21.229  25.212  1.00  0.00     0.048 A 
ATOM     24  C   UNL A   1      37.462  23.458  25.833  1.00  0.00     0.048 A 
ATOM     25  C   UNL A   1      35.550  21.597  25.041  1.00  0.00     0.029 A 
ATOM     26  C   UNL A   1      36.128  23.809  25.616  1.00  0.00     0.029 A 
BRANCH  22  27
ATOM     27  O   UNL A   1      39.168  21.736  25.551  1.00  0.00    -0.497 OA
ATOM     28  C   UNL A   1      39.852  21.765  26.803  1.00  0.00     0.278 C 
ENDBRANCH  22  27
ENDBRANCH  19  21
ENDBRANCH   9  19
ENDBRANCH   6   8
ENDBRANCH   5   6
ENDBRANCH   4   5
ENDBRANCH   3   4
ENDBRANCH   2   3
ENDBRANCH   1   2
BRANCH   1  29
ATOM     29  C   UNL A   1      34.978  31.233  27.658  1.00  0.00     0.188 C 
BRANCH  29  30
ATOM     30  O   UNL A   1      35.852  32.339  27.840  1.00  0.00    -0.376 OA
BRANCH  30  31
ATOM     31  C   UNL A   1      35.621  33.220  28.922  1.00  0.00     0.202 C 
BRANCH  31  32
ATOM     32  C   UNL A   1      35.643  32.613  30.335  1.00  0.00     0.261 C 
BRANCH  32  33
ATOM     33  O   UNL A   1      36.865  31.989  30.773  1.00  0.00    -0.460 OA
BRANCH  33  34
ATOM     34  C   UNL A   1      36.825  30.643  30.956  1.00  0.00     0.338 C 
ATOM     35  O   UNL A   1      35.905  30.002  31.425  1.00  0.00    -0.246 OA
BRANCH  34  36
ATOM     36  C   UNL A   1      38.062  30.012  30.413  1.00  0.00     0.060 A 
ATOM     37  C   UNL A   1      38.989  29.442  31.298  1.00  0.00     0.016 A 
ATOM     38  C   UNL A   1      38.345  30.028  29.043  1.00  0.00     0.016 A 
ATOM     39  C   UNL A   1      40.188  28.878  30.818  1.00  0.00     0.010 A 
ATOM     40  C   UNL A   1      39.546  29.469  28.566  1.00  0.00     0.010 A 
ATOM     41  C   UNL A   1      40.483  28.889  29.445  1.00  0.00    -0.014 A 
BRANCH  41  42
ATOM     42  C   UNL A   1      41.825  28.471  28.931  1.00  0.00     0.031 A 
ATOM     43  C   UNL A   1      42.876  29.540  28.779  1.00  0.00     0.074 A 
ATOM     44  C   UNL A   1      42.131  27.208  28.560  1.00  0.00     0.049 A 
ATOM     45  N   UNL A   1      44.102  29.443  28.334  1.00  0.00    -0.248 NA
ATOM     46  C   UNL A   1      42.482  30.901  29.180  1.00  0.00     0.031 C 
ATOM     47  C   UNL A   1      41.255  26.049  28.666  1.00  0.00     0.029 A 
ATOM     48  N   UNL A   1      43.278  26.691  27.993  1.00  0.00    -0.354 N 
ATOM     49  C   UNL A   1      44.631  30.726  28.411  1.00  0.00     0.074 A 
ATOM     50  C   UNL A   1      43.574  31.591  28.892  1.00  0.00     0.031 C 
ATOM     51  C   UNL A   1      41.868  24.970  28.151  1.00  0.00     0.029 A 
ATOM     52  C   UNL A   1      43.192  25.351  27.674  1.00  0.00     0.049 A 
ATOM     53  H   UNL A   1      44.086  27.229  27.832  1.00  0.00     0.167 HD
ATOM     54  C   UNL A   1      45.884  31.152  28.126  1.00  0.00     0.031 A 
ATOM     55  C   UNL A   1      44.070  24.520  27.068  1.00  0.00     0.031 A 
ATOM     56  C   UNL A   1      46.931  30.316  27.607  1.00  0.00     0.049 A 
ATOM     57  C   UNL A   1      45.431  25.035  26.672  1.00  0.00     0.074 A 
ATOM     58  C   UNL A   1      48.237  30.663  27.310  1.00  0.00     0.029 A 
ATOM     59  N   UNL A   1      46.791  28.975  27.282  1.00  0.00    -0.354 N 
ATOM     60  N   UNL A   1      45.938  26.235  26.831  1.00  0.00    -0.248 NA
ATOM     61  C   UNL A   1      46.351  24.077  26.039  1.00  0.00     0.031 C 
ATOM     62  C   UNL A   1      48.866  29.554  26.739  1.00  0.00     0.029 A 
ATOM     63  C   UNL A   1      47.976  28.492  26.752  1.00  0.00     0.049 A 
ATOM     64  H   UNL A   1      45.971  28.447  27.409  1.00  0.00     0.167 HD
ATOM     65  C   UNL A   1      47.246  26.162  26.358  1.00  0.00     0.074 A 
ATOM     66  C   UNL A   1      47.455  24.801  25.911  1.00  0.00     0.031 C 
ATOM     67  C   UNL A   1      48.188  27.136  26.309  1.00  0.00     0.031 A 
BRANCH  54  68
ATOM     68  C   UNL A   1      46.168  32.613  28.345  1.00  0.00    -0.014 A 
ATOM     69  C   UNL A   1      45.989  33.549  27.308  1.00  0.00     0.010 A 
ATOM     70  C   UNL A   1      46.625  33.055  29.598  1.00  0.00     0.010 A 
ATOM     71  C   UNL A   1      46.321  34.891  27.505  1.00  0.00     0.020 A 
ATOM     72  C   UNL A   1      46.926  34.402  29.809  1.00  0.00     0.020 A 
ATOM     73  C   UNL A   1      46.793  35.306  28.752  1.00  0.00     0.054 A 
BRANCH  73  74
ATOM     74  S   UNL A   1      47.224  37.053  28.977  1.00  0.00     0.124 S 
ATOM     75  O   UNL A   1      48.152  36.990  30.103  1.00  0.00    -0.237 OA
ATOM     76  O   UNL A   1      47.819  37.403  27.690  1.00  0.00    -0.237 OA
ATOM     77  O   UNL A   1      45.942  37.693  29.262  1.00  0.00    -0.744 OA
ENDBRANCH  73  74
ENDBRANCH  54  68
BRANCH  55  78
ATOM     78  C   UNL A   1      43.703  23.095  26.800  1.00  0.00    -0.014 A 
ATOM     79  C   UNL A   1      43.120  22.301  27.805  1.00  0.00     0.010 A 
ATOM     80  C   UNL A   1      43.963  22.514  25.544  1.00  0.00     0.010 A 
ATOM     81  C   UNL A   1      42.824  20.952  27.567  1.00  0.00     0.020 A 
ATOM     82  C   UNL A   1      43.643  21.174  25.294  1.00  0.00     0.020 A 
ATOM     83  C   UNL A   1      43.085  20.398  26.311  1.00  0.00     0.054 A 
BRANCH  83  84
ATOM     84  S   UNL A   1      42.654  18.658  26.015  1.00  0.00     0.124 S 
ATOM     85  O   UNL A   1      43.536  18.308  24.908  1.00  0.00    -0.237 OA
ATOM     86  O   UNL A   1      42.970  18.033  27.297  1.00  0.00    -0.237 OA
ATOM     87  O   UNL A   1      41.230  18.706  25.689  1.00  0.00    -0.744 OA
ENDBRANCH  83  84
ENDBRANCH  55  78
BRANCH  67  88
ATOM     88  C   UNL A   1      49.560  26.773  25.796  1.00  0.00    -0.014 A 
ATOM     89  C   UNL A   1      49.954  27.055  24.477  1.00  0.00     0.010 A 
ATOM     90  C   UNL A   1      50.499  26.210  26.682  1.00  0.00     0.010 A 
ATOM     91  C   UNL A   1      51.252  26.758  24.045  1.00  0.00     0.020 A 
ATOM     92  C   UNL A   1      51.806  25.941  26.264  1.00  0.00     0.020 A 
ATOM     93  C   UNL A   1      52.171  26.208  24.944  1.00  0.00     0.054 A 
BRANCH  93  94
ATOM     94  S   UNL A   1      53.865  25.888  24.377  1.00  0.00     0.124 S 
ATOM     95  O   UNL A   1      54.608  26.974  25.009  1.00  0.00    -0.237 OA
ATOM     96  O   UNL A   1      54.132  24.553  24.905  1.00  0.00    -0.237 OA
ATOM     97  O   UNL A   1      53.765  25.967  22.920  1.00  0.00    -0.744 OA
ENDBRANCH  93  94
ENDBRANCH  67  88
ENDBRANCH  41  42
ENDBRANCH  34  36
ENDBRANCH  33  34
ENDBRANCH  32  33
ENDBRANCH  31  32
ENDBRANCH  30  31
ENDBRANCH  29  30
ENDBRANCH   1  29
TORSDOF 23
ENDMDL
MODEL 2
REMARK VINA RESULT:      -9.5      1.630      2.321
REMARK SMILES COc1ccc(N[C@]2(Br)C(=O)NC(=O)N[C@@H]2C(=O)OCCOCCOCCOC(=O)c2ccc(-c3c4nc(c(-c5ccc(S(=O)(=O)[O-])cc5)c5ccc([nH]5)c(-c5ccc(S(=O)(=O)[O-])cc5)c5nc(c(-c6ccc(S(=O)(=O)[O-])cc6)c6ccc3[nH]6)C=C5)C=C4)cc2)cc1
REMARK SMILES IDX 23 1 22 2 21 3 20 4 19 5 17 6 18 7 16 8 8 9 10 10 9 11 11 12
REMARK SMILES IDX 12 13 15 14 13 15 14 18 7 19 6 21 3 22 4 23 92 24 5 25 91 26
REMARK SMILES IDX 2 27 1 28 24 29 25 30 26 31 27 32 28 33 29 34 30 35 31 36
REMARK SMILES IDX 32 37 90 38 33 39 89 40 34 41 35 42 36 43 83 44 37 45 88 46
REMARK SMILES IDX 82 47 84 48 38 49 87 50 81 51 80 52 39 54 69 55 50 56 68 57
REMARK SMILES IDX 51 58 54 59 67 60 85 61 52 62 53 63 66 65 86 66 55 67 40 68
REMARK SMILES IDX 41 69 49 70 42 71 48 72 43 73 44 74 45 75 46 76 47 77 70 78
REMARK SMILES IDX 71 79 79 80 72 81 78 82 73 83 74 84 75 85 76 86 77 87 56 88
REMARK SMILES IDX 57 89 65 90 58 91 64 92 59 93 60 94 61 95 62 96 63 97
REMARK H PARENT 12 16 15 17 7 20 84 53 54 64
REMARK Flexibility Score: inf
ROOT
ATOM      1  C   UNL A   1      33.830  31.338  28.007  1.00  0.00     0.188 C 
ENDROOT
BRANCH   1   2
ATOM      2  O   UNL A   1      33.462  30.100  27.414  1.00  0.00    -0.376 OA
BRANCH   2   3
ATOM      3  C   UNL A   1      34.520  29.172  27.215  1.00  0.00     0.202 C 
BRANCH   3   4
ATOM      4  C   UNL A   1      34.394  28.456  25.873  1.00  0.00     0.261 C 
BRANCH   4   5
ATOM      5  O   UNL A   1      33.365  27.449  25.918  1.00  0.00    -0.462 OA
BRANCH   5   6
ATOM      6  C   UNL A   1      33.553  26.310  25.195  1.00  0.00     0.332 C 
ATOM      7  O   UNL A   1      34.644  25.802  24.980  1.00  0.00    -0.250 OA
BRANCH   6   8
ATOM      8  C   UNL A   1      32.230  25.887  24.563  1.00  0.00     0.240 C 
ATOM      9  C   UNL A   1      32.364  25.012  23.310  1.00  0.00     0.204 C 
ATOM     10  C   UNL A   1      32.640  25.833  22.053  1.00  0.00     0.267 C 
ATOM     11  Br  UNL A   1      30.442  24.365  22.950  1.00  0.00    -0.048 Br
ATOM     12  O   UNL A   1      33.011  25.342  20.986  1.00  0.00    -0.271 OA
ATOM     13  N   UNL A   1      32.351  27.177  22.124  1.00  0.00    -0.275 N 
ATOM     14  N   UNL A   1      31.538  27.146  24.290  1.00  0.00    -0.321 N 
ATOM     15  C   UNL A   1      31.728  27.842  23.139  1.00  0.00     0.322 C 
ATOM     16  H   UNL A   1      32.626  27.722  21.352  1.00  0.00     0.174 HD
ATOM     17  H   UNL A   1      30.915  27.502  24.964  1.00  0.00     0.166 HD
ATOM     18  O   UNL A   1      31.321  28.992  23.029  1.00  0.00    -0.248 OA
BRANCH   9  19
ATOM     19  N   UNL A   1      33.060  23.730  23.398  1.00  0.00    -0.360 N 
ATOM     20  H   UNL A   1      34.002  23.767  23.114  1.00  0.00     0.162 HD
BRANCH  19  21
ATOM     21  C   UNL A   1      32.645  22.483  23.804  1.00  0.00     0.036 A 
ATOM     22  C   UNL A   1      32.384  19.878  24.927  1.00  0.00     0.119 A 
ATOM     23  C   UNL A   1      32.316  20.088  23.548  1.00  0.00     0.048 A 
ATOM     24  C   UNL A   1      32.451  20.984  25.750  1.00  0.00     0.048 A 
ATOM     25  C   UNL A   1      32.427  21.380  22.996  1.00  0.00     0.029 A 
ATOM     26  C   UNL A   1      32.602  22.250  25.181  1.00  0.00     0.029 A 
BRANCH  22  27
ATOM     27  O   UNL A   1      32.414  18.578  25.344  1.00  0.00    -0.497 OA
ATOM     28  C   UNL A   1      32.769  17.604  24.363  1.00  0.00     0.278 C 
ENDBRANCH  22  27
ENDBRANCH  19  21
ENDBRANCH   9  19
ENDBRANCH   6   8
ENDBRANCH   5   6
ENDBRANCH   4   5
ENDBRANCH   3   4
ENDBRANCH   2   3
ENDBRANCH   1   2
BRANCH   1  29
ATOM     29  C   UNL A   1      35.338  31.629  27.943  1.00  0.00     0.188 C 
BRANCH  29  30
ATOM     30  O   UNL A   1      35.853  32.899  28.321  1.00  0.00    -0.376 OA
BRANCH  30  31
ATOM     31  C   UNL A   1      35.286  33.561  29.436  1.00  0.00     0.202 C 
BRANCH  31  32
ATOM     32  C   UNL A   1      35.647  33.017  30.829  1.00  0.00     0.261 C 
BRANCH  32  33
ATOM     33  O   UNL A   1      36.986  32.524  31.026  1.00  0.00    -0.460 OA
BRANCH  33  34
ATOM     34  C   UNL A   1      37.101  31.257  31.503  1.00  0.00     0.338 C 
ATOM     35  O   UNL A   1      36.331  30.694  32.257  1.00  0.00    -0.246 OA
BRANCH  34  36
ATOM     36  C   UNL A   1      38.286  30.584  30.898  1.00  0.00     0.060 A 
ATOM     37  C   UNL A   1      39.219  29.952  31.734  1.00  0.00     0.016 A 
ATOM     38  C   UNL A   1      38.517  30.619  29.519  1.00  0.00     0.016 A 
ATOM     39  C   UNL A   1      40.372  29.347  31.196  1.00  0.00     0.010 A 
ATOM     40  C   UNL A   1      39.672  30.018  28.984  1.00  0.00     0.010 A 
ATOM     41  C   UNL A   1      40.615  29.376  29.813  1.00  0.00    -0.014 A 
BRANCH  41  42
ATOM     42  C   UNL A   1      41.916  28.912  29.238  1.00  0.00     0.031 A 
ATOM     43  C   UNL A   1      43.008  29.935  29.069  1.00  0.00     0.074 A 
ATOM     44  C   UNL A   1      42.149  27.645  28.827  1.00  0.00     0.049 A 
ATOM     45  N   UNL A   1      44.211  29.794  28.576  1.00  0.00    -0.248 NA
ATOM     46  C   UNL A   1      42.693  31.302  29.515  1.00  0.00     0.031 C 
ATOM     47  C   UNL A   1      41.225  26.525  28.941  1.00  0.00     0.029 A 
ATOM     48  N   UNL A   1      43.250  27.091  28.205  1.00  0.00    -0.354 N 
ATOM     49  C   UNL A   1      44.801  31.049  28.661  1.00  0.00     0.074 A 
ATOM     50  C   UNL A   1      43.804  31.949  29.201  1.00  0.00     0.031 C 
ATOM     51  C   UNL A   1      41.769  25.431  28.379  1.00  0.00     0.029 A 
ATOM     52  C   UNL A   1      43.090  25.764  27.859  1.00  0.00     0.049 A 
ATOM     53  H   UNL A   1      44.075  27.596  28.025  1.00  0.00     0.167 HD
ATOM     54  C   UNL A   1      46.061  31.425  28.337  1.00  0.00     0.031 A 
ATOM     55  C   UNL A   1      43.905  24.909  27.202  1.00  0.00     0.031 A 
ATOM     56  C   UNL A   1      47.048  30.556  27.759  1.00  0.00     0.049 A 
ATOM     57  C   UNL A   1      45.273  25.371  26.765  1.00  0.00     0.074 A 
ATOM     58  C   UNL A   1      48.357  30.851  27.420  1.00  0.00     0.029 A 
ATOM     59  N   UNL A   1      46.835  29.231  27.410  1.00  0.00    -0.354 N 
ATOM     60  N   UNL A   1      45.840  26.543  26.931  1.00  0.00    -0.248 NA
ATOM     61  C   UNL A   1      46.124  24.388  26.076  1.00  0.00     0.031 C 
ATOM     62  C   UNL A   1      48.912  29.728  26.800  1.00  0.00     0.029 A 
ATOM     63  C   UNL A   1      47.975  28.707  26.824  1.00  0.00     0.049 A 
ATOM     64  H   UNL A   1      45.996  28.737  27.557  1.00  0.00     0.167 HD
ATOM     65  C   UNL A   1      47.125  26.423  26.406  1.00  0.00     0.074 A 
ATOM     66  C   UNL A   1      47.254  25.064  25.922  1.00  0.00     0.031 C 
ATOM     67  C   UNL A   1      48.108  27.355  26.343  1.00  0.00     0.031 A 
BRANCH  54  68
ATOM     68  C   UNL A   1      46.419  32.866  28.577  1.00  0.00    -0.014 A 
ATOM     69  C   UNL A   1      46.982  33.279  29.800  1.00  0.00     0.010 A 
ATOM     70  C   UNL A   1      46.184  33.820  27.573  1.00  0.00     0.010 A 
ATOM     71  C   UNL A   1      47.247  34.629  30.034  1.00  0.00     0.020 A 
ATOM     72  C   UNL A   1      46.479  35.168  27.791  1.00  0.00     0.020 A 
ATOM     73  C   UNL A   1      46.987  35.565  29.029  1.00  0.00     0.054 A 
BRANCH  73  74
ATOM     74  S   UNL A   1      47.334  37.313  29.364  1.00  0.00     0.124 S 
ATOM     75  O   UNL A   1      47.962  37.247  30.681  1.00  0.00    -0.237 OA
ATOM     76  O   UNL A   1      48.220  37.679  28.263  1.00  0.00    -0.237 OA
ATOM     77  O   UNL A   1      46.015  37.941  29.334  1.00  0.00    -0.744 OA
ENDBRANCH  73  74
ENDBRANCH  54  68
BRANCH  55  78
ATOM     78  C   UNL A   1      43.464  23.509  26.916  1.00  0.00    -0.014 A 
ATOM     79  C   UNL A   1      42.536  22.861  27.754  1.00  0.00     0.010 A 
ATOM     80  C   UNL A   1      43.991  22.803  25.818  1.00  0.00     0.010 A 
ATOM     81  C   UNL A   1      42.163  21.533  27.514  1.00  0.00     0.020 A 
ATOM     82  C   UNL A   1      43.599  21.484  25.559  1.00  0.00     0.020 A 
ATOM     83  C   UNL A   1      42.695  20.854  26.415  1.00  0.00     0.054 A 
BRANCH  83  84
ATOM     84  S   UNL A   1      42.163  19.145  26.101  1.00  0.00     0.124 S 
ATOM     85  O   UNL A   1      42.827  18.844  24.838  1.00  0.00    -0.237 OA
ATOM     86  O   UNL A   1      42.676  18.435  27.270  1.00  0.00    -0.237 OA
ATOM     87  O   UNL A   1      40.707  19.244  26.033  1.00  0.00    -0.744 OA
ENDBRANCH  83  84
ENDBRANCH  55  78
BRANCH  67  88
ATOM     88  C   UNL A   1      49.442  26.943  25.769  1.00  0.00    -0.014 A 
ATOM     89  C   UNL A   1      49.790  27.220  24.437  1.00  0.00     0.010 A 
ATOM     90  C   UNL A   1      50.394  26.335  26.610  1.00  0.00     0.010 A 
ATOM     91  C   UNL A   1      51.056  26.877  23.948  1.00  0.00     0.020 A 
ATOM     92  C   UNL A   1      51.670  26.018  26.135  1.00  0.00     0.020 A 
ATOM     93  C   UNL A   1      51.989  26.282  24.802  1.00  0.00     0.054 A 
BRANCH  93  94
ATOM     94  S   UNL A   1      53.644  25.902  24.161  1.00  0.00     0.124 S 
ATOM     95  O   UNL A   1      53.437  25.976  22.718  1.00  0.00    -0.237 OA
ATOM     96  O   UNL A   1      54.461  26.968  24.735  1.00  0.00    -0.237 OA
ATOM     97  O   UNL A   1      53.920  24.565  24.683  1.00  0.00    -0.744 OA
ENDBRANCH  93  94
ENDBRANCH  67  88
ENDBRANCH  41  42
ENDBRANCH  34  36
ENDBRANCH  33  34
ENDBRANCH  32  33
ENDBRANCH  31  32
ENDBRANCH  30  31
ENDBRANCH  29  30
ENDBRANCH   1  29
TORSDOF 23
ENDMDL
MODEL 3
REMARK VINA RESULT:      -9.1      1.898      3.658
REMARK SMILES COc1ccc(N[C@]2(Br)C(=O)NC(=O)N[C@@H]2C(=O)OCCOCCOCCOC(=O)c2ccc(-c3c4nc(c(-c5ccc(S(=O)(=O)[O-])cc5)c5ccc([nH]5)c(-c5ccc(S(=O)(=O)[O-])cc5)c5nc(c(-c6ccc(S(=O)(=O)[O-])cc6)c6ccc3[nH]6)C=C5)C=C4)cc2)cc1
REMARK SMILES IDX 23 1 22 2 21 3 20 4 19 5 17 6 18 7 16 8 8 9 10 10 9 11 11 12
REMARK SMILES IDX 12 13 15 14 13 15 14 18 7 19 6 21 3 22 4 23 92 24 5 25 91 26
REMARK SMILES IDX 2 27 1 28 24 29 25 30 26 31 27 32 28 33 29 34 30 35 31 36
REMARK SMILES IDX 32 37 90 38 33 39 89 40 34 41 35 42 36 43 83 44 37 45 88 46
REMARK SMILES IDX 82 47 84 48 38 49 87 50 81 51 80 52 39 54 69 55 50 56 68 57
REMARK SMILES IDX 51 58 54 59 67 60 85 61 52 62 53 63 66 65 86 66 55 67 40 68
REMARK SMILES IDX 41 69 49 70 42 71 48 72 43 73 44 74 45 75 46 76 47 77 70 78
REMARK SMILES IDX 71 79 79 80 72 81 78 82 73 83 74 84 75 85 76 86 77 87 56 88
REMARK SMILES IDX 57 89 65 90 58 91 64 92 59 93 60 94 61 95 62 96 63 97
REMARK H PARENT 12 16 15 17 7 20 84 53 54 64
REMARK Flexibility Score: inf
ROOT
ATOM      1  C   UNL A   1      33.761  31.033  27.571  1.00  0.00     0.188 C 
ENDROOT
BRANCH   1   2
ATOM      2  O   UNL A   1      33.227  29.835  27.023  1.00  0.00    -0.376 OA
BRANCH   2   3
ATOM      3  C   UNL A   1      33.971  28.652  27.282  1.00  0.00     0.202 C 
BRANCH   3   4
ATOM      4  C   UNL A   1      34.148  27.813  26.019  1.00  0.00     0.261 C 
BRANCH   4   5
ATOM      5  O   UNL A   1      33.524  26.523  26.162  1.00  0.00    -0.462 OA
BRANCH   5   6
ATOM      6  C   UNL A   1      34.092  25.464  25.522  1.00  0.00     0.332 C 
ATOM      7  O   UNL A   1      35.287  25.208  25.539  1.00  0.00    -0.250 OA
BRANCH   6   8
ATOM      8  C   UNL A   1      33.043  24.774  24.655  1.00  0.00     0.240 C 
ATOM      9  C   UNL A   1      31.604  24.877  25.178  1.00  0.00     0.204 C 
ATOM     10  C   UNL A   1      31.304  23.847  26.265  1.00  0.00     0.267 C 
ATOM     11  Br  UNL A   1      30.459  24.160  23.623  1.00  0.00    -0.048 Br
ATOM     12  O   UNL A   1      30.308  23.888  26.986  1.00  0.00    -0.271 OA
ATOM     13  N   UNL A   1      32.164  22.774  26.344  1.00  0.00    -0.275 N 
ATOM     14  N   UNL A   1      33.502  23.390  24.560  1.00  0.00    -0.321 N 
ATOM     15  C   UNL A   1      33.177  22.453  25.488  1.00  0.00     0.322 C 
ATOM     16  H   UNL A   1      32.032  22.168  27.108  1.00  0.00     0.174 HD
ATOM     17  H   UNL A   1      34.068  23.127  23.798  1.00  0.00     0.166 HD
ATOM     18  O   UNL A   1      33.750  21.372  25.514  1.00  0.00    -0.248 OA
BRANCH   9  19
ATOM     19  N   UNL A   1      30.997  26.193  25.365  1.00  0.00    -0.360 N 
ATOM     20  H   UNL A   1      30.985  26.498  26.302  1.00  0.00     0.162 HD
BRANCH  19  21
ATOM     21  C   UNL A   1      30.442  27.085  24.478  1.00  0.00     0.036 A 
ATOM     22  C   UNL A   1      29.244  29.319  23.177  1.00  0.00     0.119 A 
ATOM     23  C   UNL A   1      28.620  28.069  23.205  1.00  0.00     0.048 A 
ATOM     24  C   UNL A   1      30.523  29.418  23.685  1.00  0.00     0.048 A 
ATOM     25  C   UNL A   1      29.223  26.961  23.833  1.00  0.00     0.029 A 
ATOM     26  C   UNL A   1      31.084  28.319  24.339  1.00  0.00     0.029 A 
BRANCH  22  27
ATOM     27  O   UNL A   1      28.509  30.354  22.674  1.00  0.00    -0.497 OA
ATOM     28  C   UNL A   1      28.214  30.306  21.279  1.00  0.00     0.278 C 
ENDBRANCH  22  27
ENDBRANCH  19  21
ENDBRANCH   9  19
ENDBRANCH   6   8
ENDBRANCH   5   6
ENDBRANCH   4   5
ENDBRANCH   3   4
ENDBRANCH   2   3
ENDBRANCH   1   2
BRANCH   1  29
ATOM     29  C   UNL A   1      35.297  31.064  27.607  1.00  0.00     0.188 C 
BRANCH  29  30
ATOM     30  O   UNL A   1      35.991  32.076  28.326  1.00  0.00    -0.376 OA
BRANCH  30  31
ATOM     31  C   UNL A   1      35.300  32.796  29.328  1.00  0.00     0.202 C 
BRANCH  31  32
ATOM     32  C   UNL A   1      35.784  32.616  30.777  1.00  0.00     0.261 C 
BRANCH  32  33
ATOM     33  O   UNL A   1      37.082  33.138  31.116  1.00  0.00    -0.460 OA
BRANCH  33  34
ATOM     34  C   UNL A   1      37.777  32.461  32.069  1.00  0.00     0.338 C 
ATOM     35  O   UNL A   1      37.522  32.414  33.256  1.00  0.00    -0.246 OA
BRANCH  34  36
ATOM     36  C   UNL A   1      38.885  31.685  31.443  1.00  0.00     0.060 A 
ATOM     37  C   UNL A   1      39.824  31.041  32.265  1.00  0.00     0.016 A 
ATOM     38  C   UNL A   1      39.043  31.632  30.054  1.00  0.00     0.016 A 
ATOM     39  C   UNL A   1      40.907  30.337  31.704  1.00  0.00     0.010 A 
ATOM     40  C   UNL A   1      40.129  30.932  29.495  1.00  0.00     0.010 A 
ATOM     41  C   UNL A   1      41.076  30.278  30.310  1.00  0.00    -0.014 A 
BRANCH  41  42
ATOM     42  C   UNL A   1      42.314  29.703  29.697  1.00  0.00     0.031 A 
ATOM     43  C   UNL A   1      43.488  30.626  29.500  1.00  0.00     0.074 A 
ATOM     44  C   UNL A   1      42.422  28.423  29.275  1.00  0.00     0.049 A 
ATOM     45  N   UNL A   1      44.659  30.382  28.972  1.00  0.00    -0.248 NA
ATOM     46  C   UNL A   1      43.308  32.013  29.960  1.00  0.00     0.031 C 
ATOM     47  C   UNL A   1      41.405  27.389  29.411  1.00  0.00     0.029 A 
ATOM     48  N   UNL A   1      43.450  27.777  28.620  1.00  0.00    -0.354 N 
ATOM     49  C   UNL A   1      45.360  31.578  29.045  1.00  0.00     0.074 A 
ATOM     50  C   UNL A   1      44.463  32.560  29.617  1.00  0.00     0.031 C 
ATOM     51  C   UNL A   1      41.833  26.254  28.830  1.00  0.00     0.029 A 
ATOM     52  C   UNL A   1      43.164  26.472  28.274  1.00  0.00     0.049 A 
ATOM     53  H   UNL A   1      44.312  28.207  28.418  1.00  0.00     0.167 HD
ATOM     54  C   UNL A   1      46.639  31.843  28.687  1.00  0.00     0.031 A 
ATOM     55  C   UNL A   1      43.880  25.552  27.591  1.00  0.00     0.031 A 
ATOM     56  C   UNL A   1      47.528  30.893  28.077  1.00  0.00     0.049 A 
ATOM     57  C   UNL A   1      45.271  25.893  27.117  1.00  0.00     0.074 A 
ATOM     58  C   UNL A   1      48.848  31.073  27.702  1.00  0.00     0.029 A 
ATOM     59  N   UNL A   1      47.188  29.594  27.730  1.00  0.00    -0.354 N 
ATOM     60  N   UNL A   1      45.944  27.009  27.270  1.00  0.00    -0.248 NA
ATOM     61  C   UNL A   1      46.011  24.842  26.400  1.00  0.00     0.031 C 
ATOM     62  C   UNL A   1      49.283  29.908  27.063  1.00  0.00     0.029 A 
ATOM     63  C   UNL A   1      48.260  28.975  27.110  1.00  0.00     0.049 A 
ATOM     64  H   UNL A   1      46.313  29.176  27.899  1.00  0.00     0.167 HD
ATOM     65  C   UNL A   1      47.198  26.778  26.709  1.00  0.00     0.074 A 
ATOM     66  C   UNL A   1      47.193  25.416  26.216  1.00  0.00     0.031 C 
ATOM     67  C   UNL A   1      48.258  27.619  26.620  1.00  0.00     0.031 A 
BRANCH  54  68
ATOM     68  C   UNL A   1      47.131  33.245  28.922  1.00  0.00    -0.014 A 
ATOM     69  C   UNL A   1      46.935  34.252  27.958  1.00  0.00     0.010 A 
ATOM     70  C   UNL A   1      47.803  33.558  30.115  1.00  0.00     0.010 A 
ATOM     71  C   UNL A   1      47.456  35.532  28.159  1.00  0.00     0.020 A 
ATOM     72  C   UNL A   1      48.297  34.846  30.336  1.00  0.00     0.020 A 
ATOM     73  C   UNL A   1      48.140  35.817  29.345  1.00  0.00     0.054 A 
BRANCH  73  74
ATOM     74  S   UNL A   1      48.812  37.484  29.576  1.00  0.00     0.124 S 
ATOM     75  O   UNL A   1      48.712  37.650  31.024  1.00  0.00    -0.237 OA
ATOM     76  O   UNL A   1      50.169  37.357  29.051  1.00  0.00    -0.237 OA
ATOM     77  O   UNL A   1      47.920  38.332  28.790  1.00  0.00    -0.744 OA
ENDBRANCH  73  74
ENDBRANCH  54  68
BRANCH  55  78
ATOM     78  C   UNL A   1      43.308  24.198  27.313  1.00  0.00    -0.014 A 
ATOM     79  C   UNL A   1      43.392  23.171  28.271  1.00  0.00     0.010 A 
ATOM     80  C   UNL A   1      42.700  23.919  26.074  1.00  0.00     0.010 A 
ATOM     81  C   UNL A   1      42.901  21.889  27.989  1.00  0.00     0.020 A 
ATOM     82  C   UNL A   1      42.183  22.647  25.799  1.00  0.00     0.020 A 
ATOM     83  C   UNL A   1      42.296  21.637  26.755  1.00  0.00     0.054 A 
BRANCH  83  84
ATOM     84  S   UNL A   1      41.630  19.978  26.431  1.00  0.00     0.124 S 
ATOM     85  O   UNL A   1      42.790  19.284  25.883  1.00  0.00    -0.237 OA
ATOM     86  O   UNL A   1      41.202  19.544  27.758  1.00  0.00    -0.237 OA
ATOM     87  O   UNL A   1      40.544  20.222  25.484  1.00  0.00    -0.744 OA
ENDBRANCH  83  84
ENDBRANCH  55  78
BRANCH  67  88
ATOM     88  C   UNL A   1      49.533  27.093  26.008  1.00  0.00    -0.014 A 
ATOM     89  C   UNL A   1      49.871  27.353  24.669  1.00  0.00     0.010 A 
ATOM     90  C   UNL A   1      50.448  26.392  26.817  1.00  0.00     0.010 A 
ATOM     91  C   UNL A   1      51.087  26.901  24.143  1.00  0.00     0.020 A 
ATOM     92  C   UNL A   1      51.677  25.965  26.305  1.00  0.00     0.020 A 
ATOM     93  C   UNL A   1      51.984  26.214  24.967  1.00  0.00     0.054 A 
BRANCH  93  94
ATOM     94  S   UNL A   1      53.579  25.692  24.278  1.00  0.00     0.124 S 
ATOM     95  O   UNL A   1      53.344  25.803  22.842  1.00  0.00    -0.237 OA
ATOM     96  O   UNL A   1      54.506  26.671  24.841  1.00  0.00    -0.237 OA
ATOM     97  O   UNL A   1      53.745  24.328  24.779  1.00  0.00    -0.744 OA
ENDBRANCH  93  94
ENDBRANCH  67  88
ENDBRANCH  41  42
ENDBRANCH  34  36
ENDBRANCH  33  34
ENDBRANCH  32  33
ENDBRANCH  31  32
ENDBRANCH  30  31
ENDBRANCH  29  30
ENDBRANCH   1  29
TORSDOF 23
ENDMDL
