MODEL 1
REMARK VINA RESULT:      -8.6      0.000      0.000
REMARK SMILES Cc1cc(N)c(S(=O)(=O)NCC(=O)OCCOCCOCCOC(=O)c2ccc(-c3c4nc(c(-c5ccc(S(=O)(=O)[O-])cc5)c5ccc([nH]5)c(-c5ccc(S(=O)(=O)[O-])cc5)c5nc(c(-c6ccc(S(=O)(=O)[O-])cc6)c6ccc3[nH]6)C=C5)C=C4)cc2)cc1Cl
REMARK SMILES IDX 18 1 17 2 16 3 15 4 14 5 12 6 13 7 11 8 10 9 7 11 8 12 9 13
REMARK SMILES IDX 6 14 1 15 2 16 3 17 87 18 4 19 86 20 88 21 5 22 19 25 20 26
REMARK SMILES IDX 21 27 22 28 23 29 24 30 25 31 26 32 27 33 85 34 28 35 84 36
REMARK SMILES IDX 29 37 30 38 31 39 78 40 32 41 83 42 77 43 79 44 33 45 82 46
REMARK SMILES IDX 76 47 75 48 34 50 64 51 45 52 63 53 46 54 49 55 62 56 80 57
REMARK SMILES IDX 47 58 48 59 61 61 81 62 50 63 35 64 36 65 44 66 37 67 43 68
REMARK SMILES IDX 38 69 39 70 40 71 41 72 42 73 65 74 66 75 74 76 67 77 73 78
REMARK SMILES IDX 68 79 69 80 70 81 71 82 72 83 51 84 52 85 60 86 53 87 59 88
REMARK SMILES IDX 54 89 55 90 56 91 57 92 58 93
REMARK H PARENT 10 10 5 23 5 24 79 49 49 60
REMARK Flexibility Score: inf
ROOT
ATOM      1  C   UNL A   1      40.398  21.148  26.444  1.00  0.00     0.188 C 
ENDROOT
BRANCH   1   2
ATOM      2  O   UNL A   1      40.812  20.171  27.391  1.00  0.00    -0.376 OA
BRANCH   2   3
ATOM      3  C   UNL A   1      42.073  19.526  27.197  1.00  0.00     0.202 C 
BRANCH   3   4
ATOM      4  C   UNL A   1      42.568  19.420  25.758  1.00  0.00     0.261 C 
BRANCH   4   5
ATOM      5  O   UNL A   1      43.935  18.995  25.791  1.00  0.00    -0.462 OA
BRANCH   5   6
ATOM      6  C   UNL A   1      44.663  19.228  24.678  1.00  0.00     0.321 C 
ATOM      7  O   UNL A   1      44.445  18.734  23.581  1.00  0.00    -0.251 OA
BRANCH   6   8
ATOM      8  C   UNL A   1      45.652  20.338  24.927  1.00  0.00     0.221 C 
BRANCH   8   9
ATOM      9  N   UNL A   1      45.297  21.559  25.647  1.00  0.00    -0.200 NA
ATOM     10  H   UNL A   1      44.600  21.276  26.336  1.00  0.00     0.142 HD
BRANCH   9  11
ATOM     11  S   UNL A   1      44.687  22.946  24.942  1.00  0.00     0.243 S 
ATOM     12  O   UNL A   1      43.260  22.777  24.759  1.00  0.00    -0.207 OA
ATOM     13  O   UNL A   1      45.566  23.237  23.835  1.00  0.00    -0.207 OA
BRANCH  11  14
ATOM     14  C   UNL A   1      44.920  24.222  26.146  1.00  0.00     0.106 A 
ATOM     15  C   UNL A   1      44.874  27.619  28.770  1.00  0.00     0.046 C 
ATOM     16  C   UNL A   1      44.931  26.374  27.932  1.00  0.00    -0.030 A 
ATOM     17  C   UNL A   1      45.757  26.371  26.791  1.00  0.00     0.031 A 
ATOM     18  C   UNL A   1      44.136  25.253  28.187  1.00  0.00     0.045 A 
ATOM     19  C   UNL A   1      45.740  25.322  25.863  1.00  0.00     0.052 A 
ATOM     20  C   UNL A   1      44.162  24.165  27.322  1.00  0.00     0.044 A 
ATOM     21  Cl  UNL A   1      43.062  25.171  29.535  1.00  0.00    -0.084 Cl
BRANCH  19  22
ATOM     22  N   UNL A   1      46.633  25.369  24.798  1.00  0.00    -0.398 N 
ATOM     23  H   UNL A   1      47.459  25.900  24.871  1.00  0.00     0.156 HD
ATOM     24  H   UNL A   1      46.440  24.870  23.971  1.00  0.00     0.156 HD
ENDBRANCH  19  22
ENDBRANCH  11  14
ENDBRANCH   9  11
ENDBRANCH   8   9
ENDBRANCH   6   8
ENDBRANCH   5   6
ENDBRANCH   4   5
ENDBRANCH   3   4
ENDBRANCH   2   3
ENDBRANCH   1   2
BRANCH   1  25
ATOM     25  C   UNL A   1      38.899  21.335  26.137  1.00  0.00     0.188 C 
BRANCH  25  26
ATOM     26  O   UNL A   1      38.357  22.630  25.965  1.00  0.00    -0.376 OA
BRANCH  26  27
ATOM     27  C   UNL A   1      38.909  23.697  26.728  1.00  0.00     0.202 C 
BRANCH  27  28
ATOM     28  C   UNL A   1      39.641  24.782  25.942  1.00  0.00     0.261 C 
BRANCH  28  29
ATOM     29  O   UNL A   1      40.783  25.257  26.671  1.00  0.00    -0.460 OA
BRANCH  29  30
ATOM     30  C   UNL A   1      41.090  26.565  26.486  1.00  0.00     0.338 C 
ATOM     31  O   UNL A   1      41.317  27.129  25.430  1.00  0.00    -0.246 OA
BRANCH  30  32
ATOM     32  C   UNL A   1      40.868  27.277  27.762  1.00  0.00     0.060 A 
ATOM     33  C   UNL A   1      40.089  26.729  28.782  1.00  0.00     0.016 A 
ATOM     34  C   UNL A   1      41.437  28.550  27.905  1.00  0.00     0.016 A 
ATOM     35  C   UNL A   1      39.909  27.445  29.967  1.00  0.00     0.010 A 
ATOM     36  C   UNL A   1      41.240  29.273  29.079  1.00  0.00     0.010 A 
ATOM     37  C   UNL A   1      40.495  28.714  30.126  1.00  0.00    -0.014 A 
BRANCH  37  38
ATOM     38  C   UNL A   1      40.489  29.370  31.452  1.00  0.00     0.031 A 
ATOM     39  C   UNL A   1      41.545  29.094  32.476  1.00  0.00     0.074 A 
ATOM     40  C   UNL A   1      39.490  30.234  31.713  1.00  0.00     0.049 A 
ATOM     41  N   UNL A   1      41.719  29.669  33.637  1.00  0.00    -0.248 NA
ATOM     42  C   UNL A   1      42.530  28.047  32.168  1.00  0.00     0.031 C 
ATOM     43  C   UNL A   1      38.408  30.565  30.780  1.00  0.00     0.029 A 
ATOM     44  N   UNL A   1      39.224  30.998  32.818  1.00  0.00    -0.354 N 
ATOM     45  C   UNL A   1      42.847  29.080  34.190  1.00  0.00     0.074 A 
ATOM     46  C   UNL A   1      43.294  28.069  33.256  1.00  0.00     0.031 C 
ATOM     47  C   UNL A   1      37.612  31.487  31.343  1.00  0.00     0.029 A 
ATOM     48  C   UNL A   1      38.114  31.798  32.678  1.00  0.00     0.049 A 
ATOM     49  H   UNL A   1      39.775  30.978  33.634  1.00  0.00     0.167 HD
ATOM     50  C   UNL A   1      43.455  29.378  35.362  1.00  0.00     0.031 A 
ATOM     51  C   UNL A   1      37.569  32.697  33.520  1.00  0.00     0.031 A 
ATOM     52  C   UNL A   1      42.986  30.381  36.285  1.00  0.00     0.049 A 
ATOM     53  C   UNL A   1      38.234  32.960  34.839  1.00  0.00     0.074 A 
ATOM     54  C   UNL A   1      43.571  30.787  37.473  1.00  0.00     0.029 A 
ATOM     55  N   UNL A   1      41.826  31.126  36.137  1.00  0.00    -0.354 N 
ATOM     56  N   UNL A   1      39.347  32.450  35.311  1.00  0.00    -0.248 NA
ATOM     57  C   UNL A   1      37.583  33.926  35.736  1.00  0.00     0.031 C 
ATOM     58  C   UNL A   1      42.733  31.728  38.075  1.00  0.00     0.029 A 
ATOM     59  C   UNL A   1      41.660  31.960  37.230  1.00  0.00     0.049 A 
ATOM     60  H   UNL A   1      41.213  31.071  35.369  1.00  0.00     0.167 HD
ATOM     61  C   UNL A   1      39.546  33.056  36.545  1.00  0.00     0.074 A 
ATOM     62  C   UNL A   1      38.442  33.972  36.748  1.00  0.00     0.031 C 
ATOM     63  C   UNL A   1      40.559  32.871  37.423  1.00  0.00     0.031 A 
BRANCH  50  64
ATOM     64  C   UNL A   1      44.718  28.647  35.733  1.00  0.00    -0.014 A 
ATOM     65  C   UNL A   1      45.956  29.082  35.223  1.00  0.00     0.010 A 
ATOM     66  C   UNL A   1      44.653  27.425  36.426  1.00  0.00     0.010 A 
ATOM     67  C   UNL A   1      47.097  28.286  35.359  1.00  0.00     0.020 A 
ATOM     68  C   UNL A   1      45.796  26.637  36.581  1.00  0.00     0.020 A 
ATOM     69  C   UNL A   1      47.005  27.060  36.023  1.00  0.00     0.054 A 
BRANCH  69  70
ATOM     70  S   UNL A   1      48.481  26.009  36.131  1.00  0.00     0.124 S 
ATOM     71  O   UNL A   1      48.330  25.400  37.448  1.00  0.00    -0.237 OA
ATOM     72  O   UNL A   1      48.311  25.107  34.994  1.00  0.00    -0.237 OA
ATOM     73  O   UNL A   1      49.585  26.958  36.001  1.00  0.00    -0.744 OA
ENDBRANCH  69  70
ENDBRANCH  50  64
BRANCH  51  74
ATOM     74  C   UNL A   1      36.361  33.451  33.094  1.00  0.00    -0.014 A 
ATOM     75  C   UNL A   1      36.432  34.834  32.842  1.00  0.00     0.010 A 
ATOM     76  C   UNL A   1      35.117  32.802  33.012  1.00  0.00     0.010 A 
ATOM     77  C   UNL A   1      35.276  35.560  32.551  1.00  0.00     0.020 A 
ATOM     78  C   UNL A   1      33.962  33.521  32.695  1.00  0.00     0.020 A 
ATOM     79  C   UNL A   1      34.047  34.900  32.490  1.00  0.00     0.054 A 
BRANCH  79  80
ATOM     80  S   UNL A   1      32.553  35.865  32.129  1.00  0.00     0.124 S 
ATOM     81  O   UNL A   1      32.560  35.894  30.669  1.00  0.00    -0.237 OA
ATOM     82  O   UNL A   1      31.497  35.060  32.738  1.00  0.00    -0.237 OA
ATOM     83  O   UNL A   1      32.809  37.146  32.784  1.00  0.00    -0.744 OA
ENDBRANCH  79  80
ENDBRANCH  51  74
BRANCH  63  84
ATOM     84  C   UNL A   1      40.553  33.670  38.699  1.00  0.00    -0.014 A 
ATOM     85  C   UNL A   1      39.759  33.245  39.781  1.00  0.00     0.010 A 
ATOM     86  C   UNL A   1      41.205  34.913  38.771  1.00  0.00     0.010 A 
ATOM     87  C   UNL A   1      39.581  34.067  40.894  1.00  0.00     0.020 A 
ATOM     88  C   UNL A   1      41.049  35.728  39.897  1.00  0.00     0.020 A 
ATOM     89  C   UNL A   1      40.214  35.312  40.938  1.00  0.00     0.054 A 
BRANCH  89  90
ATOM     90  S   UNL A   1      39.925  36.394  42.365  1.00  0.00     0.124 S 
ATOM     91  O   UNL A   1      38.519  36.141  42.663  1.00  0.00    -0.237 OA
ATOM     92  O   UNL A   1      40.879  35.890  43.351  1.00  0.00    -0.237 OA
ATOM     93  O   UNL A   1      40.225  37.729  41.848  1.00  0.00    -0.744 OA
ENDBRANCH  89  90
ENDBRANCH  63  84
ENDBRANCH  37  38
ENDBRANCH  30  32
ENDBRANCH  29  30
ENDBRANCH  28  29
ENDBRANCH  27  28
ENDBRANCH  26  27
ENDBRANCH  25  26
ENDBRANCH   1  25
TORSDOF 24
ENDMDL
MODEL 2
REMARK VINA RESULT:      -8.5      3.247      5.256
REMARK SMILES Cc1cc(N)c(S(=O)(=O)NCC(=O)OCCOCCOCCOC(=O)c2ccc(-c3c4nc(c(-c5ccc(S(=O)(=O)[O-])cc5)c5ccc([nH]5)c(-c5ccc(S(=O)(=O)[O-])cc5)c5nc(c(-c6ccc(S(=O)(=O)[O-])cc6)c6ccc3[nH]6)C=C5)C=C4)cc2)cc1Cl
REMARK SMILES IDX 18 1 17 2 16 3 15 4 14 5 12 6 13 7 11 8 10 9 7 11 8 12 9 13
REMARK SMILES IDX 6 14 1 15 2 16 3 17 87 18 4 19 86 20 88 21 5 22 19 25 20 26
REMARK SMILES IDX 21 27 22 28 23 29 24 30 25 31 26 32 27 33 85 34 28 35 84 36
REMARK SMILES IDX 29 37 30 38 31 39 78 40 32 41 83 42 77 43 79 44 33 45 82 46
REMARK SMILES IDX 76 47 75 48 34 50 64 51 45 52 63 53 46 54 49 55 62 56 80 57
REMARK SMILES IDX 47 58 48 59 61 61 81 62 50 63 35 64 36 65 44 66 37 67 43 68
REMARK SMILES IDX 38 69 39 70 40 71 41 72 42 73 65 74 66 75 74 76 67 77 73 78
REMARK SMILES IDX 68 79 69 80 70 81 71 82 72 83 51 84 52 85 60 86 53 87 59 88
REMARK SMILES IDX 54 89 55 90 56 91 57 92 58 93
REMARK H PARENT 10 10 5 23 5 24 79 49 49 60
REMARK Flexibility Score: inf
ROOT
ATOM      1  C   UNL A   1      43.847  20.810  25.358  1.00  0.00     0.188 C 
ENDROOT
BRANCH   1   2
ATOM      2  O   UNL A   1      42.893  21.343  26.268  1.00  0.00    -0.376 OA
BRANCH   2   3
ATOM      3  C   UNL A   1      41.738  20.561  26.583  1.00  0.00     0.202 C 
BRANCH   3   4
ATOM      4  C   UNL A   1      40.603  21.284  27.301  1.00  0.00     0.261 C 
BRANCH   4   5
ATOM      5  O   UNL A   1      39.773  21.898  26.310  1.00  0.00    -0.462 OA
BRANCH   5   6
ATOM      6  C   UNL A   1      39.478  23.203  26.499  1.00  0.00     0.321 C 
ATOM      7  O   UNL A   1      40.302  24.091  26.663  1.00  0.00    -0.251 OA
BRANCH   6   8
ATOM      8  C   UNL A   1      38.007  23.441  26.274  1.00  0.00     0.221 C 
BRANCH   8   9
ATOM      9  N   UNL A   1      37.443  23.675  24.946  1.00  0.00    -0.200 NA
ATOM     10  H   UNL A   1      36.759  24.421  25.069  1.00  0.00     0.142 HD
BRANCH   9  11
ATOM     11  S   UNL A   1      36.680  22.520  24.011  1.00  0.00     0.243 S 
ATOM     12  O   UNL A   1      37.156  21.214  24.418  1.00  0.00    -0.207 OA
ATOM     13  O   UNL A   1      36.799  22.982  22.649  1.00  0.00    -0.207 OA
BRANCH  11  14
ATOM     14  C   UNL A   1      34.969  22.621  24.451  1.00  0.00     0.106 A 
ATOM     15  C   UNL A   1      30.981  23.554  25.740  1.00  0.00     0.046 C 
ATOM     16  C   UNL A   1      32.333  23.166  25.213  1.00  0.00    -0.030 A 
ATOM     17  C   UNL A   1      33.201  22.448  26.058  1.00  0.00     0.031 A 
ATOM     18  C   UNL A   1      32.798  23.563  23.955  1.00  0.00     0.045 A 
ATOM     19  C   UNL A   1      34.535  22.196  25.714  1.00  0.00     0.052 A 
ATOM     20  C   UNL A   1      34.095  23.254  23.559  1.00  0.00     0.044 A 
ATOM     21  Cl  UNL A   1      31.829  24.478  22.860  1.00  0.00    -0.084 Cl
BRANCH  19  22
ATOM     22  N   UNL A   1      35.305  21.425  26.578  1.00  0.00    -0.398 N 
ATOM     23  H   UNL A   1      35.927  20.753  26.215  1.00  0.00     0.156 HD
ATOM     24  H   UNL A   1      35.230  21.551  27.551  1.00  0.00     0.156 HD
ENDBRANCH  19  22
ENDBRANCH  11  14
ENDBRANCH   9  11
ENDBRANCH   8   9
ENDBRANCH   6   8
ENDBRANCH   5   6
ENDBRANCH   4   5
ENDBRANCH   3   4
ENDBRANCH   2   3
ENDBRANCH   1   2
BRANCH   1  25
ATOM     25  C   UNL A   1      45.350  21.072  25.577  1.00  0.00     0.188 C 
BRANCH  25  26
ATOM     26  O   UNL A   1      45.934  22.292  25.163  1.00  0.00    -0.376 OA
BRANCH  26  27
ATOM     27  C   UNL A   1      45.500  23.492  25.791  1.00  0.00     0.202 C 
BRANCH  27  28
ATOM     28  C   UNL A   1      44.364  24.244  25.101  1.00  0.00     0.261 C 
BRANCH  28  29
ATOM     29  O   UNL A   1      43.695  25.116  26.024  1.00  0.00    -0.460 OA
BRANCH  29  30
ATOM     30  C   UNL A   1      44.219  26.362  26.133  1.00  0.00     0.338 C 
ATOM     31  O   UNL A   1      44.947  26.931  25.337  1.00  0.00    -0.246 OA
BRANCH  30  32
ATOM     32  C   UNL A   1      43.568  27.040  27.273  1.00  0.00     0.060 A 
ATOM     33  C   UNL A   1      42.745  26.348  28.164  1.00  0.00     0.016 A 
ATOM     34  C   UNL A   1      43.772  28.419  27.415  1.00  0.00     0.016 A 
ATOM     35  C   UNL A   1      42.152  27.037  29.224  1.00  0.00     0.010 A 
ATOM     36  C   UNL A   1      43.163  29.110  28.461  1.00  0.00     0.010 A 
ATOM     37  C   UNL A   1      42.370  28.418  29.385  1.00  0.00    -0.014 A 
BRANCH  37  38
ATOM     38  C   UNL A   1      41.926  29.097  30.622  1.00  0.00     0.031 A 
ATOM     39  C   UNL A   1      42.692  28.988  31.903  1.00  0.00     0.074 A 
ATOM     40  C   UNL A   1      40.795  29.826  30.559  1.00  0.00     0.049 A 
ATOM     41  N   UNL A   1      42.474  29.607  33.034  1.00  0.00    -0.248 NA
ATOM     42  C   UNL A   1      43.844  28.075  31.927  1.00  0.00     0.031 C 
ATOM     43  C   UNL A   1      39.974  29.988  29.356  1.00  0.00     0.029 A 
ATOM     44  N   UNL A   1      40.150  30.573  31.509  1.00  0.00    -0.354 N 
ATOM     45  C   UNL A   1      43.475  29.186  33.898  1.00  0.00     0.074 A 
ATOM     46  C   UNL A   1      44.278  28.223  33.175  1.00  0.00     0.031 C 
ATOM     47  C   UNL A   1      38.948  30.808  29.634  1.00  0.00     0.029 A 
ATOM     48  C   UNL A   1      39.030  31.213  31.035  1.00  0.00     0.049 A 
ATOM     49  H   UNL A   1      40.458  30.644  32.441  1.00  0.00     0.167 HD
ATOM     50  C   UNL A   1      43.704  29.588  35.170  1.00  0.00     0.031 A 
ATOM     51  C   UNL A   1      38.172  32.050  31.649  1.00  0.00     0.031 A 
ATOM     52  C   UNL A   1      42.884  30.541  35.877  1.00  0.00     0.049 A 
ATOM     53  C   UNL A   1      38.419  32.430  33.080  1.00  0.00     0.074 A 
ATOM     54  C   UNL A   1      43.073  31.048  37.152  1.00  0.00     0.029 A 
ATOM     55  N   UNL A   1      41.725  31.121  35.385  1.00  0.00    -0.354 N 
ATOM     56  N   UNL A   1      39.417  32.084  33.857  1.00  0.00    -0.248 NA
ATOM     57  C   UNL A   1      37.437  33.320  33.715  1.00  0.00     0.031 C 
ATOM     58  C   UNL A   1      41.995  31.882  37.456  1.00  0.00     0.029 A 
ATOM     59  C   UNL A   1      41.169  31.949  36.345  1.00  0.00     0.049 A 
ATOM     60  H   UNL A   1      41.352  30.967  34.486  1.00  0.00     0.167 HD
ATOM     61  C   UNL A   1      39.201  32.738  35.063  1.00  0.00     0.074 A 
ATOM     62  C   UNL A   1      37.979  33.503  34.914  1.00  0.00     0.031 C 
ATOM     63  C   UNL A   1      39.954  32.710  36.187  1.00  0.00     0.031 A 
BRANCH  50  64
ATOM     64  C   UNL A   1      44.899  29.041  35.904  1.00  0.00    -0.014 A 
ATOM     65  C   UNL A   1      44.736  27.985  36.820  1.00  0.00     0.010 A 
ATOM     66  C   UNL A   1      46.140  29.698  35.827  1.00  0.00     0.010 A 
ATOM     67  C   UNL A   1      45.779  27.626  37.679  1.00  0.00     0.020 A 
ATOM     68  C   UNL A   1      47.191  29.328  36.670  1.00  0.00     0.020 A 
ATOM     69  C   UNL A   1      46.995  28.312  37.609  1.00  0.00     0.054 A 
BRANCH  69  70
ATOM     70  S   UNL A   1      48.314  27.878  38.777  1.00  0.00     0.124 S 
ATOM     71  O   UNL A   1      49.515  28.067  37.970  1.00  0.00    -0.237 OA
ATOM     72  O   UNL A   1      48.116  28.847  39.853  1.00  0.00    -0.237 OA
ATOM     73  O   UNL A   1      48.011  26.494  39.135  1.00  0.00    -0.744 OA
ENDBRANCH  69  70
ENDBRANCH  50  64
BRANCH  51  74
ATOM     74  C   UNL A   1      37.041  32.627  30.876  1.00  0.00    -0.014 A 
ATOM     75  C   UNL A   1      37.251  33.703  29.994  1.00  0.00     0.010 A 
ATOM     76  C   UNL A   1      35.734  32.150  31.077  1.00  0.00     0.010 A 
ATOM     77  C   UNL A   1      36.171  34.314  29.354  1.00  0.00     0.020 A 
ATOM     78  C   UNL A   1      34.654  32.743  30.419  1.00  0.00     0.020 A 
ATOM     79  C   UNL A   1      34.878  33.837  29.579  1.00  0.00     0.054 A 
BRANCH  79  80
ATOM     80  S   UNL A   1      33.486  34.657  28.754  1.00  0.00     0.124 S 
ATOM     81  O   UNL A   1      34.139  35.809  28.139  1.00  0.00    -0.237 OA
ATOM     82  O   UNL A   1      33.013  33.631  27.828  1.00  0.00    -0.237 OA
ATOM     83  O   UNL A   1      32.574  34.965  29.854  1.00  0.00    -0.744 OA
ENDBRANCH  79  80
ENDBRANCH  51  74
BRANCH  63  84
ATOM     84  C   UNL A   1      39.506  33.530  37.368  1.00  0.00    -0.014 A 
ATOM     85  C   UNL A   1      39.972  34.851  37.513  1.00  0.00     0.010 A 
ATOM     86  C   UNL A   1      38.755  32.948  38.403  1.00  0.00     0.010 A 
ATOM     87  C   UNL A   1      39.734  35.559  38.691  1.00  0.00     0.020 A 
ATOM     88  C   UNL A   1      38.492  33.666  39.575  1.00  0.00     0.020 A 
ATOM     89  C   UNL A   1      39.010  34.956  39.722  1.00  0.00     0.054 A 
BRANCH  89  90
ATOM     90  S   UNL A   1      38.760  35.869  41.270  1.00  0.00     0.124 S 
ATOM     91  O   UNL A   1      37.508  35.303  41.761  1.00  0.00    -0.237 OA
ATOM     92  O   UNL A   1      39.952  35.526  42.043  1.00  0.00    -0.237 OA
ATOM     93  O   UNL A   1      38.689  37.263  40.837  1.00  0.00    -0.744 OA
ENDBRANCH  89  90
ENDBRANCH  63  84
ENDBRANCH  37  38
ENDBRANCH  30  32
ENDBRANCH  29  30
ENDBRANCH  28  29
ENDBRANCH  27  28
ENDBRANCH  26  27
ENDBRANCH  25  26
ENDBRANCH   1  25
TORSDOF 24
ENDMDL
MODEL 3
REMARK VINA RESULT:      -8.4      6.505     10.785
REMARK SMILES Cc1cc(N)c(S(=O)(=O)NCC(=O)OCCOCCOCCOC(=O)c2ccc(-c3c4nc(c(-c5ccc(S(=O)(=O)[O-])cc5)c5ccc([nH]5)c(-c5ccc(S(=O)(=O)[O-])cc5)c5nc(c(-c6ccc(S(=O)(=O)[O-])cc6)c6ccc3[nH]6)C=C5)C=C4)cc2)cc1Cl
REMARK SMILES IDX 18 1 17 2 16 3 15 4 14 5 12 6 13 7 11 8 10 9 7 11 8 12 9 13
REMARK SMILES IDX 6 14 1 15 2 16 3 17 87 18 4 19 86 20 88 21 5 22 19 25 20 26
REMARK SMILES IDX 21 27 22 28 23 29 24 30 25 31 26 32 27 33 85 34 28 35 84 36
REMARK SMILES IDX 29 37 30 38 31 39 78 40 32 41 83 42 77 43 79 44 33 45 82 46
REMARK SMILES IDX 76 47 75 48 34 50 64 51 45 52 63 53 46 54 49 55 62 56 80 57
REMARK SMILES IDX 47 58 48 59 61 61 81 62 50 63 35 64 36 65 44 66 37 67 43 68
REMARK SMILES IDX 38 69 39 70 40 71 41 72 42 73 65 74 66 75 74 76 67 77 73 78
REMARK SMILES IDX 68 79 69 80 70 81 71 82 72 83 51 84 52 85 60 86 53 87 59 88
REMARK SMILES IDX 54 89 55 90 56 91 57 92 58 93
REMARK H PARENT 10 10 5 23 5 24 79 49 49 60
REMARK Flexibility Score: inf
ROOT
ATOM      1  C   UNL A   1      36.002  21.483  25.767  1.00  0.00     0.188 C 
ENDROOT
BRANCH   1   2
ATOM      2  O   UNL A   1      35.046  21.618  24.722  1.00  0.00    -0.376 OA
BRANCH   2   3
ATOM      3  C   UNL A   1      35.111  22.774  23.884  1.00  0.00     0.202 C 
BRANCH   3   4
ATOM      4  C   UNL A   1      33.888  23.054  23.016  1.00  0.00     0.261 C 
BRANCH   4   5
ATOM      5  O   UNL A   1      34.046  24.352  22.435  1.00  0.00    -0.462 OA
BRANCH   5   6
ATOM      6  C   UNL A   1      33.440  24.555  21.246  1.00  0.00     0.321 C 
ATOM      7  O   UNL A   1      33.283  23.703  20.384  1.00  0.00    -0.251 OA
BRANCH   6   8
ATOM      8  C   UNL A   1      32.802  25.921  21.214  1.00  0.00     0.221 C 
BRANCH   8   9
ATOM      9  N   UNL A   1      33.539  27.139  21.544  1.00  0.00    -0.200 NA
ATOM     10  H   UNL A   1      34.524  26.880  21.506  1.00  0.00     0.142 HD
BRANCH   9  11
ATOM     11  S   UNL A   1      33.362  28.014  22.956  1.00  0.00     0.243 S 
ATOM     12  O   UNL A   1      33.698  29.396  22.684  1.00  0.00    -0.207 OA
ATOM     13  O   UNL A   1      34.046  27.251  23.973  1.00  0.00    -0.207 OA
BRANCH  11  14
ATOM     14  C   UNL A   1      31.633  27.952  23.329  1.00  0.00     0.106 A 
ATOM     15  C   UNL A   1      27.433  27.201  23.800  1.00  0.00     0.046 C 
ATOM     16  C   UNL A   1      28.902  27.502  23.735  1.00  0.00    -0.030 A 
ATOM     17  C   UNL A   1      29.352  28.451  22.797  1.00  0.00     0.031 A 
ATOM     18  C   UNL A   1      29.850  26.817  24.503  1.00  0.00     0.045 A 
ATOM     19  C   UNL A   1      30.714  28.666  22.549  1.00  0.00     0.052 A 
ATOM     20  C   UNL A   1      31.206  27.072  24.332  1.00  0.00     0.044 A 
ATOM     21  Cl  UNL A   1      29.407  25.609  25.652  1.00  0.00    -0.084 Cl
BRANCH  19  22
ATOM     22  N   UNL A   1      31.072  29.667  21.653  1.00  0.00    -0.398 N 
ATOM     23  H   UNL A   1      30.829  29.585  20.702  1.00  0.00     0.156 HD
ATOM     24  H   UNL A   1      31.567  30.457  21.969  1.00  0.00     0.156 HD
ENDBRANCH  19  22
ENDBRANCH  11  14
ENDBRANCH   9  11
ENDBRANCH   8   9
ENDBRANCH   6   8
ENDBRANCH   5   6
ENDBRANCH   4   5
ENDBRANCH   3   4
ENDBRANCH   2   3
ENDBRANCH   1   2
BRANCH   1  25
ATOM     25  C   UNL A   1      37.410  22.087  25.604  1.00  0.00     0.188 C 
BRANCH  25  26
ATOM     26  O   UNL A   1      38.516  21.259  25.297  1.00  0.00    -0.376 OA
BRANCH  26  27
ATOM     27  C   UNL A   1      38.323  19.850  25.302  1.00  0.00     0.202 C 
BRANCH  27  28
ATOM     28  C   UNL A   1      39.521  19.005  25.730  1.00  0.00     0.261 C 
BRANCH  28  29
ATOM     29  O   UNL A   1      40.751  19.631  25.340  1.00  0.00    -0.460 OA
BRANCH  29  30
ATOM     30  C   UNL A   1      41.756  19.558  26.248  1.00  0.00     0.338 C 
ATOM     31  O   UNL A   1      42.362  18.561  26.603  1.00  0.00    -0.246 OA
BRANCH  30  32
ATOM     32  C   UNL A   1      42.184  20.933  26.577  1.00  0.00     0.060 A 
ATOM     33  C   UNL A   1      42.291  21.372  27.899  1.00  0.00     0.016 A 
ATOM     34  C   UNL A   1      42.446  21.807  25.513  1.00  0.00     0.016 A 
ATOM     35  C   UNL A   1      42.697  22.683  28.154  1.00  0.00     0.010 A 
ATOM     36  C   UNL A   1      42.831  23.121  25.768  1.00  0.00     0.010 A 
ATOM     37  C   UNL A   1      42.983  23.559  27.091  1.00  0.00    -0.014 A 
BRANCH  37  38
ATOM     38  C   UNL A   1      43.620  24.866  27.361  1.00  0.00     0.031 A 
ATOM     39  C   UNL A   1      45.080  25.098  27.127  1.00  0.00     0.074 A 
ATOM     40  C   UNL A   1      42.835  25.855  27.830  1.00  0.00     0.049 A 
ATOM     41  N   UNL A   1      45.750  26.216  27.226  1.00  0.00    -0.248 NA
ATOM     42  C   UNL A   1      45.896  23.939  26.735  1.00  0.00     0.031 C 
ATOM     43  C   UNL A   1      41.400  25.725  28.096  1.00  0.00     0.029 A 
ATOM     44  N   UNL A   1      43.120  27.156  28.151  1.00  0.00    -0.354 N 
ATOM     45  C   UNL A   1      47.059  25.909  26.881  1.00  0.00     0.074 A 
ATOM     46  C   UNL A   1      47.100  24.487  26.612  1.00  0.00     0.031 C 
ATOM     47  C   UNL A   1      40.924  26.908  28.513  1.00  0.00     0.029 A 
ATOM     48  C   UNL A   1      42.020  27.872  28.561  1.00  0.00     0.049 A 
ATOM     49  H   UNL A   1      44.024  27.541  28.094  1.00  0.00     0.167 HD
ATOM     50  C   UNL A   1      48.116  26.748  26.784  1.00  0.00     0.031 A 
ATOM     51  C   UNL A   1      41.899  29.165  28.919  1.00  0.00     0.031 A 
ATOM     52  C   UNL A   1      48.057  28.160  27.068  1.00  0.00     0.049 A 
ATOM     53  C   UNL A   1      43.104  30.056  28.858  1.00  0.00     0.074 A 
ATOM     54  C   UNL A   1      49.068  29.098  26.944  1.00  0.00     0.029 A 
ATOM     55  N   UNL A   1      46.941  28.836  27.539  1.00  0.00    -0.354 N 
ATOM     56  N   UNL A   1      44.317  29.766  28.452  1.00  0.00    -0.248 NA
ATOM     57  C   UNL A   1      42.928  31.451  29.288  1.00  0.00     0.031 C 
ATOM     58  C   UNL A   1      48.585  30.326  27.401  1.00  0.00     0.029 A 
ATOM     59  C   UNL A   1      47.252  30.169  27.746  1.00  0.00     0.049 A 
ATOM     60  H   UNL A   1      46.060  28.429  27.702  1.00  0.00     0.167 HD
ATOM     61  C   UNL A   1      45.040  30.948  28.548  1.00  0.00     0.074 A 
ATOM     62  C   UNL A   1      44.131  31.959  29.048  1.00  0.00     0.031 C 
ATOM     63  C   UNL A   1      46.340  31.170  28.242  1.00  0.00     0.031 A 
BRANCH  50  64
ATOM     64  C   UNL A   1      49.441  26.201  26.324  1.00  0.00    -0.014 A 
ATOM     65  C   UNL A   1      50.381  25.751  27.271  1.00  0.00     0.010 A 
ATOM     66  C   UNL A   1      49.825  26.312  24.976  1.00  0.00     0.010 A 
ATOM     67  C   UNL A   1      51.694  25.465  26.886  1.00  0.00     0.020 A 
ATOM     68  C   UNL A   1      51.131  26.007  24.584  1.00  0.00     0.020 A 
ATOM     69  C   UNL A   1      52.064  25.612  25.547  1.00  0.00     0.054 A 
BRANCH  69  70
ATOM     70  S   UNL A   1      53.790  25.303  25.076  1.00  0.00     0.124 S 
ATOM     71  O   UNL A   1      53.918  26.079  23.846  1.00  0.00    -0.237 OA
ATOM     72  O   UNL A   1      54.529  25.815  26.227  1.00  0.00    -0.237 OA
ATOM     73  O   UNL A   1      53.843  23.852  24.909  1.00  0.00    -0.744 OA
ENDBRANCH  69  70
ENDBRANCH  50  64
BRANCH  51  74
ATOM     74  C   UNL A   1      40.562  29.690  29.302  1.00  0.00    -0.014 A 
ATOM     75  C   UNL A   1      39.527  29.775  28.352  1.00  0.00     0.010 A 
ATOM     76  C   UNL A   1      40.342  30.178  30.601  1.00  0.00     0.010 A 
ATOM     77  C   UNL A   1      38.309  30.371  28.685  1.00  0.00     0.020 A 
ATOM     78  C   UNL A   1      39.115  30.751  30.945  1.00  0.00     0.020 A 
ATOM     79  C   UNL A   1      38.115  30.865  29.976  1.00  0.00     0.054 A 
BRANCH  79  80
ATOM     80  S   UNL A   1      36.532  31.653  30.384  1.00  0.00     0.124 S 
ATOM     81  O   UNL A   1      36.549  32.824  29.512  1.00  0.00    -0.237 OA
ATOM     82  O   UNL A   1      35.560  30.620  30.034  1.00  0.00    -0.237 OA
ATOM     83  O   UNL A   1      36.651  31.932  31.814  1.00  0.00    -0.744 OA
ENDBRANCH  79  80
ENDBRANCH  51  74
BRANCH  63  84
ATOM     84  C   UNL A   1      46.888  32.561  28.422  1.00  0.00    -0.014 A 
ATOM     85  C   UNL A   1      46.874  33.459  27.337  1.00  0.00     0.010 A 
ATOM     86  C   UNL A   1      47.549  32.924  29.607  1.00  0.00     0.010 A 
ATOM     87  C   UNL A   1      47.551  34.676  27.418  1.00  0.00     0.020 A 
ATOM     88  C   UNL A   1      48.206  34.156  29.700  1.00  0.00     0.020 A 
ATOM     89  C   UNL A   1      48.228  35.010  28.594  1.00  0.00     0.054 A 
BRANCH  89  90
ATOM     90  S   UNL A   1      49.152  36.570  28.662  1.00  0.00     0.124 S 
ATOM     91  O   UNL A   1      49.814  36.478  29.960  1.00  0.00    -0.237 OA
ATOM     92  O   UNL A   1      50.031  36.475  27.499  1.00  0.00    -0.237 OA
ATOM     93  O   UNL A   1      48.109  37.590  28.562  1.00  0.00    -0.744 OA
ENDBRANCH  89  90
ENDBRANCH  63  84
ENDBRANCH  37  38
ENDBRANCH  30  32
ENDBRANCH  29  30
ENDBRANCH  28  29
ENDBRANCH  27  28
ENDBRANCH  26  27
ENDBRANCH  25  26
ENDBRANCH   1  25
TORSDOF 24
ENDMDL
