MODEL 1
REMARK VINA RESULT:     -10.4      0.000      0.000
REMARK SMILES Cc1cccc(-c2cc(C(=O)OCCOCCOCCOC(=O)c3ccc(-c4c5nc(c(-c6ccc(S(=O)(=O)[O-])cc6)c6ccc([nH]6)c(-c6ccc(S(=O)(=O)[O-])cc6)c6nc(c(-c7ccc(S(=O)(=O)[O-])cc7)c7ccc4[nH]7)C=C6)C=C5)cc3)ccn2)c1
REMARK SMILES IDX 17 1 16 2 15 3 14 4 13 5 12 6 10 7 11 8 9 9 7 10 8 11 86 12
REMARK SMILES IDX 85 13 84 14 6 15 1 16 2 17 3 18 87 19 4 20 5 21 18 22 19 23
REMARK SMILES IDX 20 24 21 25 22 26 23 27 24 28 25 29 83 30 26 31 82 32 27 33
REMARK SMILES IDX 28 34 29 35 76 36 30 37 81 38 75 39 77 40 31 41 80 42 74 43
REMARK SMILES IDX 73 44 32 46 62 47 43 48 61 49 44 50 47 51 60 52 78 53 45 54
REMARK SMILES IDX 46 55 59 57 79 58 48 59 33 60 34 61 42 62 35 63 41 64 36 65
REMARK SMILES IDX 37 66 38 67 39 68 40 69 63 70 64 71 72 72 65 73 71 74 66 75
REMARK SMILES IDX 67 76 68 77 69 78 70 79 49 80 50 81 58 82 51 83 57 84 52 85
REMARK SMILES IDX 53 86 54 87 55 88 56 89
REMARK H PARENT 77 45 47 56
REMARK Flexibility Score: inf
ROOT
ATOM      1  C   UNL A   1      40.491  21.644  26.912  1.00  0.00     0.188 C 
ENDROOT
BRANCH   1   2
ATOM      2  C   UNL A   1      39.170  22.087  26.308  1.00  0.00     0.188 C 
BRANCH   2   3
ATOM      3  O   UNL A   1      38.830  23.474  26.189  1.00  0.00    -0.376 OA
BRANCH   3   4
ATOM      4  C   UNL A   1      37.480  23.852  25.892  1.00  0.00     0.202 C 
BRANCH   4   5
ATOM      5  C   UNL A   1      36.256  22.822  25.878  1.00  0.00     0.261 C 
BRANCH   5   6
ATOM      6  O   UNL A   1      35.140  22.918  26.856  1.00  0.00    -0.460 OA
BRANCH   6   7
ATOM      7  C   UNL A   1      33.831  22.454  26.885  1.00  0.00     0.338 C 
ATOM      8  O   UNL A   1      33.549  21.435  27.527  1.00  0.00    -0.246 OA
BRANCH   7   9
ATOM      9  C   UNL A   1      32.565  23.332  26.022  1.00  0.00     0.063 A 
ATOM     10  C   UNL A   1      31.543  25.449  25.688  1.00  0.00     0.071 A 
ATOM     11  C   UNL A   1      32.346  24.598  26.477  1.00  0.00     0.044 A 
ATOM     12  N   UNL A   1      30.760  25.135  24.625  1.00  0.00    -0.256 NA
ATOM     13  C   UNL A   1      30.976  23.950  24.123  1.00  0.00     0.112 A 
ATOM     14  C   UNL A   1      31.892  23.115  24.732  1.00  0.00     0.036 A 
BRANCH  10  15
ATOM     15  C   UNL A   1      31.897  26.836  25.637  1.00  0.00     0.000 A 
ATOM     16  C   UNL A   1      34.555  28.981  27.240  1.00  0.00     0.044 C 
ATOM     17  C   UNL A   1      33.400  28.570  26.382  1.00  0.00    -0.050 A 
ATOM     18  C   UNL A   1      32.596  29.486  25.695  1.00  0.00     0.003 A 
ATOM     19  C   UNL A   1      33.055  27.235  26.321  1.00  0.00     0.013 A 
ATOM     20  C   UNL A   1      31.506  29.064  24.920  1.00  0.00     0.001 A 
ATOM     21  C   UNL A   1      31.159  27.727  24.880  1.00  0.00     0.010 A 
ENDBRANCH  10  15
ENDBRANCH   7   9
ENDBRANCH   6   7
ENDBRANCH   5   6
ENDBRANCH   4   5
ENDBRANCH   3   4
ENDBRANCH   2   3
ENDBRANCH   1   2
BRANCH   1  22
ATOM     22  O   UNL A   1      41.340  22.777  27.036  1.00  0.00    -0.376 OA
BRANCH  22  23
ATOM     23  C   UNL A   1      42.578  22.713  26.354  1.00  0.00     0.202 C 
BRANCH  23  24
ATOM     24  C   UNL A   1      42.949  23.961  25.525  1.00  0.00     0.261 C 
BRANCH  24  25
ATOM     25  O   UNL A   1      42.791  25.240  26.207  1.00  0.00    -0.460 OA
BRANCH  25  26
ATOM     26  C   UNL A   1      41.621  25.977  26.105  1.00  0.00     0.338 C 
ATOM     27  O   UNL A   1      40.915  25.922  25.108  1.00  0.00    -0.246 OA
BRANCH  26  28
ATOM     28  C   UNL A   1      41.168  26.508  27.432  1.00  0.00     0.060 A 
ATOM     29  C   UNL A   1      39.956  26.360  28.121  1.00  0.00     0.016 A 
ATOM     30  C   UNL A   1      42.068  27.309  28.036  1.00  0.00     0.016 A 
ATOM     31  C   UNL A   1      39.601  27.196  29.270  1.00  0.00     0.010 A 
ATOM     32  C   UNL A   1      41.583  28.268  28.914  1.00  0.00     0.010 A 
ATOM     33  C   UNL A   1      40.392  28.271  29.698  1.00  0.00    -0.014 A 
BRANCH  33  34
ATOM     34  C   UNL A   1      40.005  29.387  30.935  1.00  0.00     0.031 A 
ATOM     35  C   UNL A   1      39.251  30.990  30.951  1.00  0.00     0.074 A 
ATOM     36  C   UNL A   1      40.344  28.964  32.166  1.00  0.00     0.049 A 
ATOM     37  N   UNL A   1      39.523  31.924  31.847  1.00  0.00    -0.248 NA
ATOM     38  C   UNL A   1      38.362  31.727  29.947  1.00  0.00     0.031 C 
ATOM     39  C   UNL A   1      39.922  29.497  33.448  1.00  0.00     0.029 A 
ATOM     40  N   UNL A   1      41.303  28.005  32.489  1.00  0.00    -0.354 N 
ATOM     41  C   UNL A   1      38.687  33.033  31.561  1.00  0.00     0.074 A 
ATOM     42  C   UNL A   1      38.456  33.022  30.189  1.00  0.00     0.031 C 
ATOM     43  C   UNL A   1      40.806  29.095  34.378  1.00  0.00     0.029 A 
ATOM     44  C   UNL A   1      41.895  28.428  33.681  1.00  0.00     0.049 A 
ATOM     45  H   UNL A   1      41.520  27.192  31.978  1.00  0.00     0.167 HD
ATOM     46  C   UNL A   1      37.892  33.652  32.482  1.00  0.00     0.031 A 
ATOM     47  C   UNL A   1      43.215  28.762  33.695  1.00  0.00     0.031 A 
ATOM     48  C   UNL A   1      38.508  33.453  33.757  1.00  0.00     0.049 A 
ATOM     49  C   UNL A   1      43.383  30.210  34.092  1.00  0.00     0.074 A 
ATOM     50  C   UNL A   1      38.285  32.599  34.812  1.00  0.00     0.029 A 
ATOM     51  N   UNL A   1      39.815  33.880  33.837  1.00  0.00    -0.354 N 
ATOM     52  N   UNL A   1      42.400  31.074  34.065  1.00  0.00    -0.248 NA
ATOM     53  C   UNL A   1      44.605  30.796  34.630  1.00  0.00     0.031 C 
ATOM     54  C   UNL A   1      39.570  32.346  35.394  1.00  0.00     0.029 A 
ATOM     55  C   UNL A   1      40.523  33.099  34.722  1.00  0.00     0.049 A 
ATOM     56  H   UNL A   1      40.191  34.638  33.334  1.00  0.00     0.167 HD
ATOM     57  C   UNL A   1      42.798  32.258  34.609  1.00  0.00     0.074 A 
ATOM     58  C   UNL A   1      44.199  32.049  34.920  1.00  0.00     0.031 C 
ATOM     59  C   UNL A   1      41.960  33.321  34.779  1.00  0.00     0.031 A 
BRANCH  46  60
ATOM     60  C   UNL A   1      36.497  34.267  32.233  1.00  0.00    -0.014 A 
ATOM     61  C   UNL A   1      36.066  35.323  33.061  1.00  0.00     0.010 A 
ATOM     62  C   UNL A   1      35.512  33.803  31.317  1.00  0.00     0.010 A 
ATOM     63  C   UNL A   1      34.762  35.866  32.992  1.00  0.00     0.020 A 
ATOM     64  C   UNL A   1      34.214  34.355  31.215  1.00  0.00     0.020 A 
ATOM     65  C   UNL A   1      33.842  35.383  32.064  1.00  0.00     0.054 A 
BRANCH  65  66
ATOM     66  S   UNL A   1      32.168  36.092  32.001  1.00  0.00     0.124 S 
ATOM     67  O   UNL A   1      31.348  35.013  32.546  1.00  0.00    -0.237 OA
ATOM     68  O   UNL A   1      32.294  37.275  32.847  1.00  0.00    -0.237 OA
ATOM     69  O   UNL A   1      31.956  36.369  30.581  1.00  0.00    -0.744 OA
ENDBRANCH  65  66
ENDBRANCH  46  60
BRANCH  47  70
ATOM     70  C   UNL A   1      44.059  27.839  32.854  1.00  0.00    -0.014 A 
ATOM     71  C   UNL A   1      44.143  26.501  33.326  1.00  0.00     0.010 A 
ATOM     72  C   UNL A   1      44.377  28.059  31.502  1.00  0.00     0.010 A 
ATOM     73  C   UNL A   1      44.323  25.417  32.458  1.00  0.00     0.020 A 
ATOM     74  C   UNL A   1      44.604  26.963  30.625  1.00  0.00     0.020 A 
ATOM     75  C   UNL A   1      44.489  25.650  31.099  1.00  0.00     0.054 A 
BRANCH  75  76
ATOM     76  S   UNL A   1      44.354  24.211  29.981  1.00  0.00     0.124 S 
ATOM     77  O   UNL A   1      45.466  24.418  29.057  1.00  0.00    -0.237 OA
ATOM     78  O   UNL A   1      44.514  23.091  30.910  1.00  0.00    -0.237 OA
ATOM     79  O   UNL A   1      43.025  24.358  29.395  1.00  0.00    -0.744 OA
ENDBRANCH  75  76
ENDBRANCH  47  70
BRANCH  59  80
ATOM     80  C   UNL A   1      42.431  34.750  34.922  1.00  0.00    -0.014 A 
ATOM     81  C   UNL A   1      42.459  35.419  36.153  1.00  0.00     0.010 A 
ATOM     82  C   UNL A   1      43.111  35.355  33.835  1.00  0.00     0.010 A 
ATOM     83  C   UNL A   1      43.086  36.664  36.278  1.00  0.00     0.020 A 
ATOM     84  C   UNL A   1      43.813  36.549  33.973  1.00  0.00     0.020 A 
ATOM     85  C   UNL A   1      43.758  37.218  35.188  1.00  0.00     0.054 A 
BRANCH  85  86
ATOM     86  S   UNL A   1      44.583  38.815  35.357  1.00  0.00     0.124 S 
ATOM     87  O   UNL A   1      43.779  39.653  34.472  1.00  0.00    -0.237 OA
ATOM     88  O   UNL A   1      44.456  39.105  36.783  1.00  0.00    -0.237 OA
ATOM     89  O   UNL A   1      45.945  38.544  34.902  1.00  0.00    -0.744 OA
ENDBRANCH  85  86
ENDBRANCH  59  80
ENDBRANCH  33  34
ENDBRANCH  26  28
ENDBRANCH  25  26
ENDBRANCH  24  25
ENDBRANCH  23  24
ENDBRANCH  22  23
ENDBRANCH   1  22
TORSDOF 21
ENDMDL
MODEL 2
REMARK VINA RESULT:     -10.1      1.710      2.198
REMARK SMILES Cc1cccc(-c2cc(C(=O)OCCOCCOCCOC(=O)c3ccc(-c4c5nc(c(-c6ccc(S(=O)(=O)[O-])cc6)c6ccc([nH]6)c(-c6ccc(S(=O)(=O)[O-])cc6)c6nc(c(-c7ccc(S(=O)(=O)[O-])cc7)c7ccc4[nH]7)C=C6)C=C5)cc3)ccn2)c1
REMARK SMILES IDX 17 1 16 2 15 3 14 4 13 5 12 6 10 7 11 8 9 9 7 10 8 11 86 12
REMARK SMILES IDX 85 13 84 14 6 15 1 16 2 17 3 18 87 19 4 20 5 21 18 22 19 23
REMARK SMILES IDX 20 24 21 25 22 26 23 27 24 28 25 29 83 30 26 31 82 32 27 33
REMARK SMILES IDX 28 34 29 35 76 36 30 37 81 38 75 39 77 40 31 41 80 42 74 43
REMARK SMILES IDX 73 44 32 46 62 47 43 48 61 49 44 50 47 51 60 52 78 53 45 54
REMARK SMILES IDX 46 55 59 57 79 58 48 59 33 60 34 61 42 62 35 63 41 64 36 65
REMARK SMILES IDX 37 66 38 67 39 68 40 69 63 70 64 71 72 72 65 73 71 74 66 75
REMARK SMILES IDX 67 76 68 77 69 78 70 79 49 80 50 81 58 82 51 83 57 84 52 85
REMARK SMILES IDX 53 86 54 87 55 88 56 89
REMARK H PARENT 77 45 47 56
REMARK Flexibility Score: inf
ROOT
ATOM      1  C   UNL A   1      40.758  23.695  27.676  1.00  0.00     0.188 C 
ENDROOT
BRANCH   1   2
ATOM      2  C   UNL A   1      40.500  22.578  26.680  1.00  0.00     0.188 C 
BRANCH   2   3
ATOM      3  O   UNL A   1      39.233  21.912  26.616  1.00  0.00    -0.376 OA
BRANCH   3   4
ATOM      4  C   UNL A   1      38.233  22.372  25.699  1.00  0.00     0.202 C 
BRANCH   4   5
ATOM      5  C   UNL A   1      37.106  23.440  26.083  1.00  0.00     0.261 C 
BRANCH   5   6
ATOM      6  O   UNL A   1      35.701  23.297  25.619  1.00  0.00    -0.460 OA
BRANCH   6   7
ATOM      7  C   UNL A   1      34.659  22.431  25.926  1.00  0.00     0.338 C 
ATOM      8  O   UNL A   1      34.853  21.209  25.946  1.00  0.00    -0.246 OA
BRANCH   7   9
ATOM      9  C   UNL A   1      33.060  23.076  26.308  1.00  0.00     0.063 A 
ATOM     10  C   UNL A   1      31.726  25.038  26.418  1.00  0.00     0.071 A 
ATOM     11  C   UNL A   1      33.002  24.437  26.374  1.00  0.00     0.044 A 
ATOM     12  N   UNL A   1      30.518  24.455  26.623  1.00  0.00    -0.256 NA
ATOM     13  C   UNL A   1      30.517  23.155  26.514  1.00  0.00     0.112 A 
ATOM     14  C   UNL A   1      31.708  22.496  26.284  1.00  0.00     0.036 A 
BRANCH  10  15
ATOM     15  C   UNL A   1      31.554  26.281  25.727  1.00  0.00     0.000 A 
ATOM     16  C   UNL A   1      33.021  29.743  26.040  1.00  0.00     0.044 C 
ATOM     17  C   UNL A   1      32.215  28.593  25.525  1.00  0.00    -0.050 A 
ATOM     18  C   UNL A   1      31.228  28.733  24.544  1.00  0.00     0.003 A 
ATOM     19  C   UNL A   1      32.391  27.347  26.092  1.00  0.00     0.013 A 
ATOM     20  C   UNL A   1      30.474  27.634  24.104  1.00  0.00     0.001 A 
ATOM     21  C   UNL A   1      30.646  26.394  24.691  1.00  0.00     0.010 A 
ENDBRANCH  10  15
ENDBRANCH   7   9
ENDBRANCH   6   7
ENDBRANCH   5   6
ENDBRANCH   4   5
ENDBRANCH   3   4
ENDBRANCH   2   3
ENDBRANCH   1   2
BRANCH   1  22
ATOM     22  O   UNL A   1      41.302  24.810  26.982  1.00  0.00    -0.376 OA
BRANCH  22  23
ATOM     23  C   UNL A   1      42.484  24.576  26.242  1.00  0.00     0.202 C 
BRANCH  23  24
ATOM     24  C   UNL A   1      42.612  25.361  24.919  1.00  0.00     0.261 C 
BRANCH  24  25
ATOM     25  O   UNL A   1      42.394  26.800  25.018  1.00  0.00    -0.460 OA
BRANCH  25  26
ATOM     26  C   UNL A   1      43.376  27.651  25.500  1.00  0.00     0.338 C 
ATOM     27  O   UNL A   1      44.415  27.843  24.884  1.00  0.00    -0.246 OA
BRANCH  26  28
ATOM     28  C   UNL A   1      42.868  28.539  26.597  1.00  0.00     0.060 A 
ATOM     29  C   UNL A   1      43.548  29.312  27.548  1.00  0.00     0.016 A 
ATOM     30  C   UNL A   1      41.525  28.547  26.715  1.00  0.00     0.016 A 
ATOM     31  C   UNL A   1      42.877  29.881  28.719  1.00  0.00     0.010 A 
ATOM     32  C   UNL A   1      40.995  28.835  27.965  1.00  0.00     0.010 A 
ATOM     33  C   UNL A   1      41.538  29.607  29.033  1.00  0.00    -0.014 A 
BRANCH  33  34
ATOM     34  C   UNL A   1      40.702  30.106  30.439  1.00  0.00     0.031 A 
ATOM     35  C   UNL A   1      39.828  31.580  30.890  1.00  0.00     0.074 A 
ATOM     36  C   UNL A   1      40.705  29.187  31.421  1.00  0.00     0.049 A 
ATOM     37  N   UNL A   1      39.736  32.033  32.130  1.00  0.00    -0.248 NA
ATOM     38  C   UNL A   1      39.206  32.709  30.066  1.00  0.00     0.031 C 
ATOM     39  C   UNL A   1      39.878  29.141  32.611  1.00  0.00     0.029 A 
ATOM     40  N   UNL A   1      41.614  28.143  31.590  1.00  0.00    -0.354 N 
ATOM     41  C   UNL A   1      38.919  33.191  32.091  1.00  0.00     0.074 A 
ATOM     42  C   UNL A   1      39.102  33.773  30.842  1.00  0.00     0.031 C 
ATOM     43  C   UNL A   1      40.485  28.347  33.510  1.00  0.00     0.029 A 
ATOM     44  C   UNL A   1      41.788  27.996  32.967  1.00  0.00     0.049 A 
ATOM     45  H   UNL A   1      42.047  27.617  30.880  1.00  0.00     0.167 HD
ATOM     46  C   UNL A   1      37.835  33.391  32.896  1.00  0.00     0.031 A 
ATOM     47  C   UNL A   1      43.008  28.238  33.520  1.00  0.00     0.031 A 
ATOM     48  C   UNL A   1      38.067  32.644  34.092  1.00  0.00     0.049 A 
ATOM     49  C   UNL A   1      42.916  29.372  34.515  1.00  0.00     0.074 A 
ATOM     50  C   UNL A   1      37.628  31.432  34.573  1.00  0.00     0.029 A 
ATOM     51  N   UNL A   1      39.247  32.943  34.738  1.00  0.00    -0.354 N 
ATOM     52  N   UNL A   1      41.906  30.205  34.552  1.00  0.00    -0.248 NA
ATOM     53  C   UNL A   1      43.865  29.623  35.592  1.00  0.00     0.031 C 
ATOM     54  C   UNL A   1      38.703  30.904  35.358  1.00  0.00     0.029 A 
ATOM     55  C   UNL A   1      39.735  31.832  35.386  1.00  0.00     0.049 A 
ATOM     56  H   UNL A   1      39.680  33.828  34.736  1.00  0.00     0.167 HD
ATOM     57  C   UNL A   1      42.013  31.028  35.632  1.00  0.00     0.074 A 
ATOM     58  C   UNL A   1      43.276  30.649  36.238  1.00  0.00     0.031 C 
ATOM     59  C   UNL A   1      41.066  31.950  35.966  1.00  0.00     0.031 A 
BRANCH  46  60
ATOM     60  C   UNL A   1      36.522  34.110  32.513  1.00  0.00    -0.014 A 
ATOM     61  C   UNL A   1      35.910  34.952  33.464  1.00  0.00     0.010 A 
ATOM     62  C   UNL A   1      35.765  33.926  31.322  1.00  0.00     0.010 A 
ATOM     63  C   UNL A   1      34.647  35.553  33.254  1.00  0.00     0.020 A 
ATOM     64  C   UNL A   1      34.516  34.544  31.084  1.00  0.00     0.020 A 
ATOM     65  C   UNL A   1      33.957  35.351  32.060  1.00  0.00     0.054 A 
BRANCH  65  66
ATOM     66  S   UNL A   1      32.331  36.127  31.817  1.00  0.00     0.124 S 
ATOM     67  O   UNL A   1      31.434  35.206  32.510  1.00  0.00    -0.237 OA
ATOM     68  O   UNL A   1      32.505  37.431  32.452  1.00  0.00    -0.237 OA
ATOM     69  O   UNL A   1      32.171  36.165  30.364  1.00  0.00    -0.744 OA
ENDBRANCH  65  66
ENDBRANCH  46  60
BRANCH  47  70
ATOM     70  C   UNL A   1      44.145  27.726  32.673  1.00  0.00    -0.014 A 
ATOM     71  C   UNL A   1      44.268  26.312  32.620  1.00  0.00     0.010 A 
ATOM     72  C   UNL A   1      44.768  28.460  31.648  1.00  0.00     0.010 A 
ATOM     73  C   UNL A   1      44.795  25.653  31.502  1.00  0.00     0.020 A 
ATOM     74  C   UNL A   1      45.343  27.795  30.530  1.00  0.00     0.020 A 
ATOM     75  C   UNL A   1      45.272  26.399  30.432  1.00  0.00     0.054 A 
BRANCH  75  76
ATOM     76  S   UNL A   1      45.603  25.507  28.872  1.00  0.00     0.124 S 
ATOM     77  O   UNL A   1      45.513  24.107  29.279  1.00  0.00    -0.237 OA
ATOM     78  O   UNL A   1      44.512  25.979  28.017  1.00  0.00    -0.237 OA
ATOM     79  O   UNL A   1      46.938  25.959  28.496  1.00  0.00    -0.744 OA
ENDBRANCH  75  76
ENDBRANCH  47  70
BRANCH  59  80
ATOM     80  C   UNL A   1      41.336  33.162  36.826  1.00  0.00    -0.014 A 
ATOM     81  C   UNL A   1      41.151  33.163  38.215  1.00  0.00     0.010 A 
ATOM     82  C   UNL A   1      42.046  34.253  36.263  1.00  0.00     0.010 A 
ATOM     83  C   UNL A   1      41.600  34.232  38.998  1.00  0.00     0.020 A 
ATOM     84  C   UNL A   1      42.575  35.276  37.045  1.00  0.00     0.020 A 
ATOM     85  C   UNL A   1      42.309  35.279  38.408  1.00  0.00     0.054 A 
BRANCH  85  86
ATOM     86  S   UNL A   1      42.906  36.647  39.423  1.00  0.00     0.124 S 
ATOM     87  O   UNL A   1      44.337  36.622  39.133  1.00  0.00    -0.237 OA
ATOM     88  O   UNL A   1      42.177  37.797  38.893  1.00  0.00    -0.237 OA
ATOM     89  O   UNL A   1      42.532  36.252  40.779  1.00  0.00    -0.744 OA
ENDBRANCH  85  86
ENDBRANCH  59  80
ENDBRANCH  33  34
ENDBRANCH  26  28
ENDBRANCH  25  26
ENDBRANCH  24  25
ENDBRANCH  23  24
ENDBRANCH  22  23
ENDBRANCH   1  22
TORSDOF 21
ENDMDL
MODEL 3
REMARK VINA RESULT:      -9.6      4.661     11.321
REMARK SMILES Cc1cccc(-c2cc(C(=O)OCCOCCOCCOC(=O)c3ccc(-c4c5nc(c(-c6ccc(S(=O)(=O)[O-])cc6)c6ccc([nH]6)c(-c6ccc(S(=O)(=O)[O-])cc6)c6nc(c(-c7ccc(S(=O)(=O)[O-])cc7)c7ccc4[nH]7)C=C6)C=C5)cc3)ccn2)c1
REMARK SMILES IDX 17 1 16 2 15 3 14 4 13 5 12 6 10 7 11 8 9 9 7 10 8 11 86 12
REMARK SMILES IDX 85 13 84 14 6 15 1 16 2 17 3 18 87 19 4 20 5 21 18 22 19 23
REMARK SMILES IDX 20 24 21 25 22 26 23 27 24 28 25 29 83 30 26 31 82 32 27 33
REMARK SMILES IDX 28 34 29 35 76 36 30 37 81 38 75 39 77 40 31 41 80 42 74 43
REMARK SMILES IDX 73 44 32 46 62 47 43 48 61 49 44 50 47 51 60 52 78 53 45 54
REMARK SMILES IDX 46 55 59 57 79 58 48 59 33 60 34 61 42 62 35 63 41 64 36 65
REMARK SMILES IDX 37 66 38 67 39 68 40 69 63 70 64 71 72 72 65 73 71 74 66 75
REMARK SMILES IDX 67 76 68 77 69 78 70 79 49 80 50 81 58 82 51 83 57 84 52 85
REMARK SMILES IDX 53 86 54 87 55 88 56 89
REMARK H PARENT 77 45 47 56
REMARK Flexibility Score: inf
ROOT
ATOM      1  C   UNL A   1      35.884  32.752  29.475  1.00  0.00     0.188 C 
ENDROOT
BRANCH   1   2
ATOM      2  C   UNL A   1      35.293  31.510  28.833  1.00  0.00     0.188 C 
BRANCH   2   3
ATOM      3  O   UNL A   1      34.507  31.587  27.638  1.00  0.00    -0.376 OA
BRANCH   3   4
ATOM      4  C   UNL A   1      33.598  30.528  27.314  1.00  0.00     0.202 C 
BRANCH   4   5
ATOM      5  C   UNL A   1      34.062  29.026  27.017  1.00  0.00     0.261 C 
BRANCH   5   6
ATOM      6  O   UNL A   1      34.171  28.499  25.631  1.00  0.00    -0.460 OA
BRANCH   6   7
ATOM      7  C   UNL A   1      33.304  28.426  24.548  1.00  0.00     0.338 C 
ATOM      8  O   UNL A   1      32.831  29.460  24.060  1.00  0.00    -0.246 OA
BRANCH   7   9
ATOM      9  C   UNL A   1      32.890  26.855  23.855  1.00  0.00     0.063 A 
ATOM     10  C   UNL A   1      33.635  24.629  23.491  1.00  0.00     0.071 A 
ATOM     11  C   UNL A   1      33.931  25.976  23.788  1.00  0.00     0.044 A 
ATOM     12  N   UNL A   1      32.472  24.093  23.043  1.00  0.00    -0.256 NA
ATOM     13  C   UNL A   1      31.437  24.882  23.140  1.00  0.00     0.112 A 
ATOM     14  C   UNL A   1      31.612  26.171  23.602  1.00  0.00     0.036 A 
BRANCH  10  15
ATOM     15  C   UNL A   1      34.416  23.620  24.141  1.00  0.00     0.000 A 
ATOM     16  C   UNL A   1      34.228  21.802  27.442  1.00  0.00     0.044 C 
ATOM     17  C   UNL A   1      34.690  22.207  26.078  1.00  0.00    -0.050 A 
ATOM     18  C   UNL A   1      35.895  21.768  25.519  1.00  0.00     0.003 A 
ATOM     19  C   UNL A   1      33.939  23.117  25.361  1.00  0.00     0.013 A 
ATOM     20  C   UNL A   1      36.307  22.190  24.246  1.00  0.00     0.001 A 
ATOM     21  C   UNL A   1      35.557  23.115  23.545  1.00  0.00     0.010 A 
ENDBRANCH  10  15
ENDBRANCH   7   9
ENDBRANCH   6   7
ENDBRANCH   5   6
ENDBRANCH   4   5
ENDBRANCH   3   4
ENDBRANCH   2   3
ENDBRANCH   1   2
BRANCH   1  22
ATOM     22  O   UNL A   1      35.569  32.744  30.862  1.00  0.00    -0.376 OA
BRANCH  22  23
ATOM     23  C   UNL A   1      35.478  31.475  31.479  1.00  0.00     0.202 C 
BRANCH  23  24
ATOM     24  C   UNL A   1      36.327  31.289  32.755  1.00  0.00     0.261 C 
BRANCH  24  25
ATOM     25  O   UNL A   1      37.647  30.704  32.551  1.00  0.00    -0.460 OA
BRANCH  25  26
ATOM     26  C   UNL A   1      37.902  29.371  32.836  1.00  0.00     0.338 C 
ATOM     27  O   UNL A   1      37.036  28.636  33.287  1.00  0.00    -0.246 OA
BRANCH  26  28
ATOM     28  C   UNL A   1      39.171  28.888  32.198  1.00  0.00     0.060 A 
ATOM     29  C   UNL A   1      40.507  29.259  32.406  1.00  0.00     0.016 A 
ATOM     30  C   UNL A   1      38.981  27.980  31.221  1.00  0.00     0.016 A 
ATOM     31  C   UNL A   1      41.578  28.882  31.480  1.00  0.00     0.010 A 
ATOM     32  C   UNL A   1      39.944  27.901  30.225  1.00  0.00     0.010 A 
ATOM     33  C   UNL A   1      41.333  28.219  30.269  1.00  0.00    -0.014 A 
BRANCH  33  34
ATOM     34  C   UNL A   1      42.488  27.855  29.060  1.00  0.00     0.031 A 
ATOM     35  C   UNL A   1      43.455  26.421  28.678  1.00  0.00     0.074 A 
ATOM     36  C   UNL A   1      42.716  28.873  28.212  1.00  0.00     0.049 A 
ATOM     37  N   UNL A   1      44.650  26.467  28.112  1.00  0.00    -0.248 NA
ATOM     38  C   UNL A   1      43.305  24.943  29.042  1.00  0.00     0.031 C 
ATOM     39  C   UNL A   1      43.391  28.840  26.928  1.00  0.00     0.029 A 
ATOM     40  N   UNL A   1      42.485  30.228  28.446  1.00  0.00    -0.354 N 
ATOM     41  C   UNL A   1      45.072  25.127  27.921  1.00  0.00     0.074 A 
ATOM     42  C   UNL A   1      44.491  24.371  28.933  1.00  0.00     0.031 C 
ATOM     43  C   UNL A   1      43.788  30.089  26.633  1.00  0.00     0.029 A 
ATOM     44  C   UNL A   1      43.511  30.918  27.796  1.00  0.00     0.049 A 
ATOM     45  H   UNL A   1      41.747  30.620  28.967  1.00  0.00     0.167 HD
ATOM     46  C   UNL A   1      45.523  24.628  26.732  1.00  0.00     0.031 A 
ATOM     47  C   UNL A   1      44.400  31.645  28.527  1.00  0.00     0.031 A 
ATOM     48  C   UNL A   1      46.078  25.728  26.008  1.00  0.00     0.049 A 
ATOM     49  C   UNL A   1      45.799  31.105  28.335  1.00  0.00     0.074 A 
ATOM     50  C   UNL A   1      45.634  26.529  24.981  1.00  0.00     0.029 A 
ATOM     51  N   UNL A   1      47.061  26.422  26.680  1.00  0.00    -0.354 N 
ATOM     52  N   UNL A   1      46.041  29.918  27.838  1.00  0.00    -0.248 NA
ATOM     53  C   UNL A   1      47.027  31.850  28.583  1.00  0.00     0.031 C 
ATOM     54  C   UNL A   1      46.221  27.817  25.202  1.00  0.00     0.029 A 
ATOM     55  C   UNL A   1      47.050  27.748  26.313  1.00  0.00     0.049 A 
ATOM     56  H   UNL A   1      47.685  26.025  27.330  1.00  0.00     0.167 HD
ATOM     57  C   UNL A   1      47.379  29.752  27.643  1.00  0.00     0.074 A 
ATOM     58  C   UNL A   1      47.963  30.978  28.156  1.00  0.00     0.031 C 
ATOM     59  C   UNL A   1      47.919  28.639  27.069  1.00  0.00     0.031 A 
BRANCH  46  60
ATOM     60  C   UNL A   1      45.295  23.202  26.185  1.00  0.00    -0.014 A 
ATOM     61  C   UNL A   1      46.281  22.630  25.355  1.00  0.00     0.010 A 
ATOM     62  C   UNL A   1      44.118  22.414  26.321  1.00  0.00     0.010 A 
ATOM     63  C   UNL A   1      46.108  21.385  24.706  1.00  0.00     0.020 A 
ATOM     64  C   UNL A   1      43.942  21.154  25.705  1.00  0.00     0.020 A 
ATOM     65  C   UNL A   1      44.940  20.649  24.889  1.00  0.00     0.054 A 
BRANCH  65  66
ATOM     66  S   UNL A   1      44.737  19.055  24.037  1.00  0.00     0.124 S 
ATOM     67  O   UNL A   1      44.400  19.464  22.677  1.00  0.00    -0.237 OA
ATOM     68  O   UNL A   1      46.052  18.440  24.200  1.00  0.00    -0.237 OA
ATOM     69  O   UNL A   1      43.655  18.398  24.769  1.00  0.00    -0.744 OA
ENDBRANCH  65  66
ENDBRANCH  46  60
BRANCH  47  70
ATOM     70  C   UNL A   1      43.751  32.388  29.666  1.00  0.00    -0.014 A 
ATOM     71  C   UNL A   1      44.109  31.934  30.964  1.00  0.00     0.010 A 
ATOM     72  C   UNL A   1      43.215  33.684  29.570  1.00  0.00     0.010 A 
ATOM     73  C   UNL A   1      44.133  32.791  32.071  1.00  0.00     0.020 A 
ATOM     74  C   UNL A   1      43.198  34.545  30.701  1.00  0.00     0.020 A 
ATOM     75  C   UNL A   1      43.737  34.113  31.919  1.00  0.00     0.054 A 
BRANCH  75  76
ATOM     76  S   UNL A   1      44.131  35.266  33.283  1.00  0.00     0.124 S 
ATOM     77  O   UNL A   1      43.765  34.495  34.468  1.00  0.00    -0.237 OA
ATOM     78  O   UNL A   1      45.567  35.477  33.093  1.00  0.00    -0.237 OA
ATOM     79  O   UNL A   1      43.283  36.421  33.008  1.00  0.00    -0.744 OA
ENDBRANCH  75  76
ENDBRANCH  47  70
BRANCH  59  80
ATOM     80  C   UNL A   1      49.354  28.207  27.256  1.00  0.00    -0.014 A 
ATOM     81  C   UNL A   1      49.715  27.073  27.995  1.00  0.00     0.010 A 
ATOM     82  C   UNL A   1      50.356  28.804  26.449  1.00  0.00     0.010 A 
ATOM     83  C   UNL A   1      51.029  26.592  27.978  1.00  0.00     0.020 A 
ATOM     84  C   UNL A   1      51.642  28.280  26.356  1.00  0.00     0.020 A 
ATOM     85  C   UNL A   1      51.982  27.199  27.158  1.00  0.00     0.054 A 
BRANCH  85  86
ATOM     86  S   UNL A   1      53.671  26.566  27.122  1.00  0.00     0.124 S 
ATOM     87  O   UNL A   1      54.097  26.794  28.500  1.00  0.00    -0.237 OA
ATOM     88  O   UNL A   1      53.493  25.166  26.743  1.00  0.00    -0.237 OA
ATOM     89  O   UNL A   1      54.325  27.398  26.116  1.00  0.00    -0.744 OA
ENDBRANCH  85  86
ENDBRANCH  59  80
ENDBRANCH  33  34
ENDBRANCH  26  28
ENDBRANCH  25  26
ENDBRANCH  24  25
ENDBRANCH  23  24
ENDBRANCH  22  23
ENDBRANCH   1  22
TORSDOF 21
ENDMDL
