MODEL 1
REMARK VINA RESULT:      -8.0      0.000      0.000
REMARK SMILES C[C@H](C[N@@H+](C)[C@@H](C)[C@@H](C)O)C(=O)OCCOCCOCCOC(=O)c1ccc(-c2c3nc(c(-c4ccc(S(=O)(=O)[O-])cc4)c4ccc([nH]4)c(-c4ccc(S(=O)(=O)[O-])cc4)c4nc(c(-c5ccc(S(=O)(=O)[O-])cc5)c5ccc2[nH]5)C=C4)C=C3)cc1
REMARK SMILES IDX 17 1 16 2 15 3 14 4 13 5 11 6 12 7 2 8 1 9 3 10 4 11 5 12
REMARK SMILES IDX 6 14 7 15 8 16 9 17 10 18 18 20 19 21 20 22 21 23 22 24
REMARK SMILES IDX 23 25 24 26 25 27 26 28 84 29 27 30 83 31 28 32 29 33 30 34
REMARK SMILES IDX 77 35 31 36 82 37 76 38 78 39 32 40 81 41 75 42 74 43 33 45
REMARK SMILES IDX 63 46 44 47 62 48 45 49 48 50 61 51 79 52 46 53 47 54 60 56
REMARK SMILES IDX 80 57 49 58 34 59 35 60 43 61 36 62 42 63 37 64 38 65 39 66
REMARK SMILES IDX 40 67 41 68 64 69 65 70 73 71 66 72 72 73 67 74 68 75 69 76
REMARK SMILES IDX 70 77 71 78 50 79 51 80 59 81 52 82 58 83 53 84 54 85 55 86
REMARK SMILES IDX 56 87 57 88
REMARK H PARENT 4 13 10 19 78 44 48 55
REMARK Flexibility Score: inf
ROOT
ATOM      1  C   UNL A   1      33.854  31.981  28.001  1.00  0.00     0.188 C 
ENDROOT
BRANCH   1   2
ATOM      2  O   UNL A   1      34.084  30.848  27.187  1.00  0.00    -0.376 OA
BRANCH   2   3
ATOM      3  C   UNL A   1      33.106  29.821  27.113  1.00  0.00     0.202 C 
BRANCH   3   4
ATOM      4  C   UNL A   1      32.489  29.350  25.782  1.00  0.00     0.261 C 
BRANCH   4   5
ATOM      5  O   UNL A   1      31.213  28.701  25.903  1.00  0.00    -0.463 OA
BRANCH   5   6
ATOM      6  C   UNL A   1      31.189  27.362  25.656  1.00  0.00     0.314 C 
ATOM      7  O   UNL A   1      31.100  26.510  26.532  1.00  0.00    -0.252 OA
BRANCH   6   8
ATOM      8  C   UNL A   1      31.076  27.049  24.162  1.00  0.00     0.151 C 
ATOM      9  C   UNL A   1      29.679  27.367  23.644  1.00  0.00     0.026 C 
BRANCH   8  10
ATOM     10  C   UNL A   1      31.704  25.715  23.673  1.00  0.00     0.277 C 
BRANCH  10  11
ATOM     11  N   UNL A   1      32.897  25.667  22.800  1.00  0.00    -0.332 N 
ATOM     12  C   UNL A   1      33.530  27.002  22.798  1.00  0.00     0.333 C 
ATOM     13  H   UNL A   1      32.559  25.397  21.876  1.00  0.00     0.348 HD
BRANCH  11  14
ATOM     14  C   UNL A   1      33.909  24.635  23.152  1.00  0.00     0.209 C 
ATOM     15  C   UNL A   1      34.125  24.421  24.665  1.00  0.00     0.078 C 
BRANCH  14  16
ATOM     16  C   UNL A   1      33.678  23.280  22.425  1.00  0.00     0.169 C 
ATOM     17  C   UNL A   1      32.585  22.432  23.077  1.00  0.00     0.045 C 
BRANCH  16  18
ATOM     18  O   UNL A   1      33.289  23.503  21.063  1.00  0.00    -0.387 OA
ATOM     19  H   UNL A   1      33.463  22.703  20.542  1.00  0.00     0.211 HD
ENDBRANCH  16  18
ENDBRANCH  14  16
ENDBRANCH  11  14
ENDBRANCH  10  11
ENDBRANCH   8  10
ENDBRANCH   6   8
ENDBRANCH   5   6
ENDBRANCH   4   5
ENDBRANCH   3   4
ENDBRANCH   2   3
ENDBRANCH   1   2
BRANCH   1  20
ATOM     20  C   UNL A   1      35.053  32.821  28.464  1.00  0.00     0.188 C 
BRANCH  20  21
ATOM     21  O   UNL A   1      35.187  34.160  28.064  1.00  0.00    -0.376 OA
BRANCH  21  22
ATOM     22  C   UNL A   1      34.024  34.954  27.923  1.00  0.00     0.202 C 
BRANCH  22  23
ATOM     23  C   UNL A   1      33.363  35.764  29.061  1.00  0.00     0.261 C 
BRANCH  23  24
ATOM     24  O   UNL A   1      32.539  35.070  30.009  1.00  0.00    -0.460 OA
BRANCH  24  25
ATOM     25  C   UNL A   1      32.870  35.227  31.317  1.00  0.00     0.338 C 
ATOM     26  O   UNL A   1      32.169  35.713  32.195  1.00  0.00    -0.246 OA
BRANCH  25  27
ATOM     27  C   UNL A   1      34.127  34.493  31.590  1.00  0.00     0.060 A 
ATOM     28  C   UNL A   1      34.063  33.144  31.976  1.00  0.00     0.016 A 
ATOM     29  C   UNL A   1      35.363  35.126  31.468  1.00  0.00     0.016 A 
ATOM     30  C   UNL A   1      35.233  32.426  32.240  1.00  0.00     0.010 A 
ATOM     31  C   UNL A   1      36.531  34.415  31.767  1.00  0.00     0.010 A 
ATOM     32  C   UNL A   1      36.475  33.067  32.170  1.00  0.00    -0.014 A 
BRANCH  32  33
ATOM     33  C   UNL A   1      37.705  32.391  32.661  1.00  0.00     0.031 A 
ATOM     34  C   UNL A   1      38.173  32.676  34.065  1.00  0.00     0.074 A 
ATOM     35  C   UNL A   1      38.411  31.555  31.877  1.00  0.00     0.049 A 
ATOM     36  N   UNL A   1      39.274  32.300  34.664  1.00  0.00    -0.248 NA
ATOM     37  C   UNL A   1      37.281  33.496  34.902  1.00  0.00     0.031 C 
ATOM     38  C   UNL A   1      38.043  31.148  30.522  1.00  0.00     0.029 A 
ATOM     39  N   UNL A   1      39.604  30.912  32.108  1.00  0.00    -0.354 N 
ATOM     40  C   UNL A   1      39.218  32.853  35.938  1.00  0.00     0.074 A 
ATOM     41  C   UNL A   1      37.983  33.602  36.022  1.00  0.00     0.031 C 
ATOM     42  C   UNL A   1      39.003  30.343  30.032  1.00  0.00     0.029 A 
ATOM     43  C   UNL A   1      40.074  30.212  31.020  1.00  0.00     0.049 A 
ATOM     44  H   UNL A   1      40.077  30.947  32.970  1.00  0.00     0.167 HD
ATOM     45  C   UNL A   1      40.118  32.753  36.946  1.00  0.00     0.031 A 
ATOM     46  C   UNL A   1      41.247  29.573  30.828  1.00  0.00     0.031 A 
ATOM     47  C   UNL A   1      41.351  32.016  36.861  1.00  0.00     0.049 A 
ATOM     48  C   UNL A   1      42.272  29.549  31.937  1.00  0.00     0.074 A 
ATOM     49  C   UNL A   1      42.312  31.837  37.840  1.00  0.00     0.029 A 
ATOM     50  N   UNL A   1      41.802  31.346  35.734  1.00  0.00    -0.354 N 
ATOM     51  N   UNL A   1      42.192  30.053  33.147  1.00  0.00    -0.248 NA
ATOM     52  C   UNL A   1      43.544  28.867  31.656  1.00  0.00     0.031 C 
ATOM     53  C   UNL A   1      43.376  31.121  37.285  1.00  0.00     0.029 A 
ATOM     54  C   UNL A   1      43.045  30.786  35.983  1.00  0.00     0.049 A 
ATOM     55  H   UNL A   1      41.311  31.279  34.883  1.00  0.00     0.167 HD
ATOM     56  C   UNL A   1      43.389  29.721  33.776  1.00  0.00     0.074 A 
ATOM     57  C   UNL A   1      44.166  28.957  32.824  1.00  0.00     0.031 C 
ATOM     58  C   UNL A   1      43.810  30.022  35.031  1.00  0.00     0.031 A 
BRANCH  45  59
ATOM     59  C   UNL A   1      39.826  33.487  38.227  1.00  0.00    -0.014 A 
ATOM     60  C   UNL A   1      39.066  32.898  39.253  1.00  0.00     0.010 A 
ATOM     61  C   UNL A   1      40.393  34.758  38.440  1.00  0.00     0.010 A 
ATOM     62  C   UNL A   1      38.863  33.574  40.460  1.00  0.00     0.020 A 
ATOM     63  C   UNL A   1      40.217  35.425  39.654  1.00  0.00     0.020 A 
ATOM     64  C   UNL A   1      39.445  34.830  40.655  1.00  0.00     0.054 A 
BRANCH  64  65
ATOM     65  S   UNL A   1      39.214  35.656  42.253  1.00  0.00     0.124 S 
ATOM     66  O   UNL A   1      40.132  34.912  43.112  1.00  0.00    -0.237 OA
ATOM     67  O   UNL A   1      39.606  37.032  41.959  1.00  0.00    -0.237 OA
ATOM     68  O   UNL A   1      37.796  35.464  42.544  1.00  0.00    -0.744 OA
ENDBRANCH  64  65
ENDBRANCH  45  59
BRANCH  46  69
ATOM     69  C   UNL A   1      41.555  28.936  29.513  1.00  0.00    -0.014 A 
ATOM     70  C   UNL A   1      41.279  27.577  29.287  1.00  0.00     0.010 A 
ATOM     71  C   UNL A   1      42.174  29.683  28.492  1.00  0.00     0.010 A 
ATOM     72  C   UNL A   1      41.644  26.968  28.081  1.00  0.00     0.020 A 
ATOM     73  C   UNL A   1      42.507  29.087  27.272  1.00  0.00     0.020 A 
ATOM     74  C   UNL A   1      42.256  27.727  27.081  1.00  0.00     0.054 A 
BRANCH  74  75
ATOM     75  S   UNL A   1      42.700  26.923  25.517  1.00  0.00     0.124 S 
ATOM     76  O   UNL A   1      41.648  25.919  25.384  1.00  0.00    -0.237 OA
ATOM     77  O   UNL A   1      42.642  28.031  24.566  1.00  0.00    -0.237 OA
ATOM     78  O   UNL A   1      44.038  26.396  25.770  1.00  0.00    -0.744 OA
ENDBRANCH  74  75
ENDBRANCH  46  69
BRANCH  58  79
ATOM     79  C   UNL A   1      45.153  29.493  35.469  1.00  0.00    -0.014 A 
ATOM     80  C   UNL A   1      46.326  30.254  35.320  1.00  0.00     0.010 A 
ATOM     81  C   UNL A   1      45.232  28.235  36.095  1.00  0.00     0.010 A 
ATOM     82  C   UNL A   1      47.556  29.753  35.757  1.00  0.00     0.020 A 
ATOM     83  C   UNL A   1      46.455  27.744  36.562  1.00  0.00     0.020 A 
ATOM     84  C   UNL A   1      47.612  28.501  36.376  1.00  0.00     0.054 A 
BRANCH  84  85
ATOM     85  S   UNL A   1      49.215  27.892  36.971  1.00  0.00     0.124 S 
ATOM     86  O   UNL A   1      49.384  26.668  36.192  1.00  0.00    -0.237 OA
ATOM     87  O   UNL A   1      50.120  28.985  36.627  1.00  0.00    -0.237 OA
ATOM     88  O   UNL A   1      49.002  27.693  38.403  1.00  0.00    -0.744 OA
ENDBRANCH  84  85
ENDBRANCH  58  79
ENDBRANCH  32  33
ENDBRANCH  25  27
ENDBRANCH  24  25
ENDBRANCH  23  24
ENDBRANCH  22  23
ENDBRANCH  21  22
ENDBRANCH  20  21
ENDBRANCH   1  20
TORSDOF 25
ENDMDL
MODEL 2
REMARK VINA RESULT:      -7.8      2.903      4.434
REMARK SMILES C[C@H](C[N@@H+](C)[C@@H](C)[C@@H](C)O)C(=O)OCCOCCOCCOC(=O)c1ccc(-c2c3nc(c(-c4ccc(S(=O)(=O)[O-])cc4)c4ccc([nH]4)c(-c4ccc(S(=O)(=O)[O-])cc4)c4nc(c(-c5ccc(S(=O)(=O)[O-])cc5)c5ccc2[nH]5)C=C4)C=C3)cc1
REMARK SMILES IDX 17 1 16 2 15 3 14 4 13 5 11 6 12 7 2 8 1 9 3 10 4 11 5 12
REMARK SMILES IDX 6 14 7 15 8 16 9 17 10 18 18 20 19 21 20 22 21 23 22 24
REMARK SMILES IDX 23 25 24 26 25 27 26 28 84 29 27 30 83 31 28 32 29 33 30 34
REMARK SMILES IDX 77 35 31 36 82 37 76 38 78 39 32 40 81 41 75 42 74 43 33 45
REMARK SMILES IDX 63 46 44 47 62 48 45 49 48 50 61 51 79 52 46 53 47 54 60 56
REMARK SMILES IDX 80 57 49 58 34 59 35 60 43 61 36 62 42 63 37 64 38 65 39 66
REMARK SMILES IDX 40 67 41 68 64 69 65 70 73 71 66 72 72 73 67 74 68 75 69 76
REMARK SMILES IDX 70 77 71 78 50 79 51 80 59 81 52 82 58 83 53 84 54 85 55 86
REMARK SMILES IDX 56 87 57 88
REMARK H PARENT 4 13 10 19 78 44 48 55
REMARK Flexibility Score: inf
ROOT
ATOM      1  C   UNL A   1      32.121  28.838  24.269  1.00  0.00     0.188 C 
ENDROOT
BRANCH   1   2
ATOM      2  O   UNL A   1      31.527  27.738  23.610  1.00  0.00    -0.376 OA
BRANCH   2   3
ATOM      3  C   UNL A   1      30.733  26.818  24.345  1.00  0.00     0.202 C 
BRANCH   3   4
ATOM      4  C   UNL A   1      30.649  26.833  25.884  1.00  0.00     0.261 C 
BRANCH   4   5
ATOM      5  O   UNL A   1      30.717  25.540  26.506  1.00  0.00    -0.463 OA
BRANCH   5   6
ATOM      6  C   UNL A   1      31.610  24.659  25.974  1.00  0.00     0.314 C 
ATOM      7  O   UNL A   1      32.810  24.884  25.872  1.00  0.00    -0.252 OA
BRANCH   6   8
ATOM      8  C   UNL A   1      30.985  23.286  25.715  1.00  0.00     0.151 C 
ATOM      9  C   UNL A   1      30.065  22.882  26.859  1.00  0.00     0.026 C 
BRANCH   8  10
ATOM     10  C   UNL A   1      31.925  22.178  25.164  1.00  0.00     0.277 C 
BRANCH  10  11
ATOM     11  N   UNL A   1      33.345  22.064  25.564  1.00  0.00    -0.332 N 
ATOM     12  C   UNL A   1      33.401  21.580  26.960  1.00  0.00     0.333 C 
ATOM     13  H   UNL A   1      33.741  22.998  25.462  1.00  0.00     0.348 HD
BRANCH  11  14
ATOM     14  C   UNL A   1      34.187  21.195  24.699  1.00  0.00     0.209 C 
ATOM     15  C   UNL A   1      35.680  21.579  24.642  1.00  0.00     0.078 C 
BRANCH  14  16
ATOM     16  C   UNL A   1      34.012  19.680  25.001  1.00  0.00     0.169 C 
ATOM     17  C   UNL A   1      33.118  18.969  23.985  1.00  0.00     0.045 C 
BRANCH  16  18
ATOM     18  O   UNL A   1      35.284  19.016  24.987  1.00  0.00    -0.387 OA
ATOM     19  H   UNL A   1      35.706  19.108  25.856  1.00  0.00     0.211 HD
ENDBRANCH  16  18
ENDBRANCH  14  16
ENDBRANCH  11  14
ENDBRANCH  10  11
ENDBRANCH   8  10
ENDBRANCH   6   8
ENDBRANCH   5   6
ENDBRANCH   4   5
ENDBRANCH   3   4
ENDBRANCH   2   3
ENDBRANCH   1   2
BRANCH   1  20
ATOM     20  C   UNL A   1      33.576  28.722  24.749  1.00  0.00     0.188 C 
BRANCH  20  21
ATOM     21  O   UNL A   1      33.866  28.324  26.063  1.00  0.00    -0.376 OA
BRANCH  21  22
ATOM     22  C   UNL A   1      33.266  29.018  27.141  1.00  0.00     0.202 C 
BRANCH  22  23
ATOM     23  C   UNL A   1      33.148  30.556  27.247  1.00  0.00     0.261 C 
BRANCH  23  24
ATOM     24  O   UNL A   1      34.352  31.337  27.261  1.00  0.00    -0.460 OA
BRANCH  24  25
ATOM     25  C   UNL A   1      34.725  31.837  28.468  1.00  0.00     0.338 C 
ATOM     26  O   UNL A   1      34.061  32.565  29.195  1.00  0.00    -0.246 OA
BRANCH  25  27
ATOM     27  C   UNL A   1      35.973  31.170  28.904  1.00  0.00     0.060 A 
ATOM     28  C   UNL A   1      35.892  29.999  29.676  1.00  0.00     0.016 A 
ATOM     29  C   UNL A   1      37.218  31.692  28.557  1.00  0.00     0.016 A 
ATOM     30  C   UNL A   1      37.053  29.348  30.101  1.00  0.00     0.010 A 
ATOM     31  C   UNL A   1      38.380  31.058  29.014  1.00  0.00     0.010 A 
ATOM     32  C   UNL A   1      38.307  29.892  29.802  1.00  0.00    -0.014 A 
BRANCH  32  33
ATOM     33  C   UNL A   1      39.539  29.347  30.429  1.00  0.00     0.031 A 
ATOM     34  C   UNL A   1      40.075  30.016  31.668  1.00  0.00     0.074 A 
ATOM     35  C   UNL A   1      40.189  28.290  29.905  1.00  0.00     0.049 A 
ATOM     36  N   UNL A   1      41.191  29.793  32.314  1.00  0.00    -0.248 NA
ATOM     37  C   UNL A   1      39.241  31.080  32.254  1.00  0.00     0.031 C 
ATOM     38  C   UNL A   1      39.752  27.515  28.745  1.00  0.00     0.029 A 
ATOM     39  N   UNL A   1      41.373  27.700  30.276  1.00  0.00    -0.354 N 
ATOM     40  C   UNL A   1      41.205  30.700  33.367  1.00  0.00     0.074 A 
ATOM     41  C   UNL A   1      39.994  31.486  33.267  1.00  0.00     0.031 C 
ATOM     42  C   UNL A   1      40.669  26.565  28.485  1.00  0.00     0.029 A 
ATOM     43  C   UNL A   1      41.777  26.692  29.430  1.00  0.00     0.049 A 
ATOM     44  H   UNL A   1      41.884  27.971  31.072  1.00  0.00     0.167 HD
ATOM     45  C   UNL A   1      42.144  30.869  34.329  1.00  0.00     0.031 A 
ATOM     46  C   UNL A   1      42.925  25.982  29.397  1.00  0.00     0.031 A 
ATOM     47  C   UNL A   1      43.353  30.094  34.424  1.00  0.00     0.049 A 
ATOM     48  C   UNL A   1      43.995  26.249  30.428  1.00  0.00     0.074 A 
ATOM     49  C   UNL A   1      44.352  30.178  35.380  1.00  0.00     0.029 A 
ATOM     50  N   UNL A   1      43.738  29.105  33.532  1.00  0.00    -0.354 N 
ATOM     51  N   UNL A   1      43.981  27.091  31.435  1.00  0.00    -0.248 NA
ATOM     52  C   UNL A   1      45.237  25.467  30.319  1.00  0.00     0.031 C 
ATOM     53  C   UNL A   1      45.372  29.290  35.027  1.00  0.00     0.029 A 
ATOM     54  C   UNL A   1      44.975  28.597  33.894  1.00  0.00     0.049 A 
ATOM     55  H   UNL A   1      43.209  28.807  32.757  1.00  0.00     0.167 HD
ATOM     56  C   UNL A   1      45.196  26.915  32.093  1.00  0.00     0.074 A 
ATOM     57  C   UNL A   1      45.911  25.875  31.385  1.00  0.00     0.031 C 
ATOM     58  C   UNL A   1      45.678  27.558  33.187  1.00  0.00     0.031 A 
BRANCH  45  59
ATOM     59  C   UNL A   1      41.927  31.960  35.343  1.00  0.00    -0.014 A 
ATOM     60  C   UNL A   1      41.198  31.729  36.522  1.00  0.00     0.010 A 
ATOM     61  C   UNL A   1      42.536  33.215  35.149  1.00  0.00     0.010 A 
ATOM     62  C   UNL A   1      41.065  32.739  37.481  1.00  0.00     0.020 A 
ATOM     63  C   UNL A   1      42.431  34.216  36.116  1.00  0.00     0.020 A 
ATOM     64  C   UNL A   1      41.687  33.974  37.274  1.00  0.00     0.054 A 
BRANCH  64  65
ATOM     65  S   UNL A   1      41.548  35.244  38.561  1.00  0.00     0.124 S 
ATOM     66  O   UNL A   1      41.732  36.473  37.794  1.00  0.00    -0.237 OA
ATOM     67  O   UNL A   1      40.200  35.024  39.080  1.00  0.00    -0.237 OA
ATOM     68  O   UNL A   1      42.629  34.922  39.488  1.00  0.00    -0.744 OA
ENDBRANCH  64  65
ENDBRANCH  45  59
BRANCH  46  69
ATOM     69  C   UNL A   1      43.159  24.974  28.321  1.00  0.00    -0.014 A 
ATOM     70  C   UNL A   1      42.769  23.634  28.490  1.00  0.00     0.010 A 
ATOM     71  C   UNL A   1      43.819  25.345  27.134  1.00  0.00     0.010 A 
ATOM     72  C   UNL A   1      43.064  22.679  27.511  1.00  0.00     0.020 A 
ATOM     73  C   UNL A   1      44.084  24.401  26.137  1.00  0.00     0.020 A 
ATOM     74  C   UNL A   1      43.720  23.068  26.340  1.00  0.00     0.054 A 
BRANCH  74  75
ATOM     75  S   UNL A   1      44.071  21.818  25.074  1.00  0.00     0.124 S 
ATOM     76  O   UNL A   1      43.080  20.790  25.380  1.00  0.00    -0.237 OA
ATOM     77  O   UNL A   1      43.854  22.557  23.833  1.00  0.00    -0.237 OA
ATOM     78  O   UNL A   1      45.459  21.445  25.337  1.00  0.00    -0.744 OA
ENDBRANCH  74  75
ENDBRANCH  46  69
BRANCH  58  79
ATOM     79  C   UNL A   1      47.025  27.132  33.717  1.00  0.00    -0.014 A 
ATOM     80  C   UNL A   1      47.153  26.072  34.631  1.00  0.00     0.010 A 
ATOM     81  C   UNL A   1      48.189  27.769  33.245  1.00  0.00     0.010 A 
ATOM     82  C   UNL A   1      48.414  25.680  35.089  1.00  0.00     0.020 A 
ATOM     83  C   UNL A   1      49.454  27.359  33.676  1.00  0.00     0.020 A 
ATOM     84  C   UNL A   1      49.557  26.325  34.608  1.00  0.00     0.054 A 
BRANCH  84  85
ATOM     85  S   UNL A   1      51.184  25.769  35.187  1.00  0.00     0.124 S 
ATOM     86  O   UNL A   1      51.127  26.090  36.611  1.00  0.00    -0.237 OA
ATOM     87  O   UNL A   1      51.170  24.345  34.864  1.00  0.00    -0.237 OA
ATOM     88  O   UNL A   1      52.125  26.571  34.406  1.00  0.00    -0.744 OA
ENDBRANCH  84  85
ENDBRANCH  58  79
ENDBRANCH  32  33
ENDBRANCH  25  27
ENDBRANCH  24  25
ENDBRANCH  23  24
ENDBRANCH  22  23
ENDBRANCH  21  22
ENDBRANCH  20  21
ENDBRANCH   1  20
TORSDOF 25
ENDMDL
MODEL 3
REMARK VINA RESULT:      -7.7      1.930      8.802
REMARK SMILES C[C@H](C[N@@H+](C)[C@@H](C)[C@@H](C)O)C(=O)OCCOCCOCCOC(=O)c1ccc(-c2c3nc(c(-c4ccc(S(=O)(=O)[O-])cc4)c4ccc([nH]4)c(-c4ccc(S(=O)(=O)[O-])cc4)c4nc(c(-c5ccc(S(=O)(=O)[O-])cc5)c5ccc2[nH]5)C=C4)C=C3)cc1
REMARK SMILES IDX 17 1 16 2 15 3 14 4 13 5 11 6 12 7 2 8 1 9 3 10 4 11 5 12
REMARK SMILES IDX 6 14 7 15 8 16 9 17 10 18 18 20 19 21 20 22 21 23 22 24
REMARK SMILES IDX 23 25 24 26 25 27 26 28 84 29 27 30 83 31 28 32 29 33 30 34
REMARK SMILES IDX 77 35 31 36 82 37 76 38 78 39 32 40 81 41 75 42 74 43 33 45
REMARK SMILES IDX 63 46 44 47 62 48 45 49 48 50 61 51 79 52 46 53 47 54 60 56
REMARK SMILES IDX 80 57 49 58 34 59 35 60 43 61 36 62 42 63 37 64 38 65 39 66
REMARK SMILES IDX 40 67 41 68 64 69 65 70 73 71 66 72 72 73 67 74 68 75 69 76
REMARK SMILES IDX 70 77 71 78 50 79 51 80 59 81 52 82 58 83 53 84 54 85 55 86
REMARK SMILES IDX 56 87 57 88
REMARK H PARENT 4 13 10 19 78 44 48 55
REMARK Flexibility Score: inf
ROOT
ATOM      1  C   UNL A   1      34.228  31.150  27.792  1.00  0.00     0.188 C 
ENDROOT
BRANCH   1   2
ATOM      2  O   UNL A   1      34.356  30.020  26.953  1.00  0.00    -0.376 OA
BRANCH   2   3
ATOM      3  C   UNL A   1      33.194  29.371  26.459  1.00  0.00     0.202 C 
BRANCH   3   4
ATOM      4  C   UNL A   1      32.596  29.671  25.072  1.00  0.00     0.261 C 
BRANCH   4   5
ATOM      5  O   UNL A   1      31.221  29.287  24.909  1.00  0.00    -0.463 OA
BRANCH   5   6
ATOM      6  C   UNL A   1      30.996  28.036  24.420  1.00  0.00     0.314 C 
ATOM      7  O   UNL A   1      31.178  27.010  25.066  1.00  0.00    -0.252 OA
BRANCH   6   8
ATOM      8  C   UNL A   1      30.296  28.062  23.059  1.00  0.00     0.151 C 
ATOM      9  C   UNL A   1      30.914  27.044  22.110  1.00  0.00     0.026 C 
BRANCH   8  10
ATOM     10  C   UNL A   1      29.980  29.460  22.458  1.00  0.00     0.277 C 
BRANCH  10  11
ATOM     11  N   UNL A   1      28.599  29.954  22.271  1.00  0.00    -0.332 N 
ATOM     12  C   UNL A   1      27.667  28.983  22.880  1.00  0.00     0.333 C 
ATOM     13  H   UNL A   1      28.466  30.040  21.263  1.00  0.00     0.348 HD
BRANCH  11  14
ATOM     14  C   UNL A   1      28.326  31.314  22.810  1.00  0.00     0.209 C 
ATOM     15  C   UNL A   1      29.017  31.637  24.151  1.00  0.00     0.078 C 
BRANCH  14  16
ATOM     16  C   UNL A   1      28.571  32.443  21.770  1.00  0.00     0.169 C 
ATOM     17  C   UNL A   1      27.905  32.166  20.421  1.00  0.00     0.045 C 
BRANCH  16  18
ATOM     18  O   UNL A   1      28.052  33.690  22.253  1.00  0.00    -0.387 OA
ATOM     19  H   UNL A   1      27.787  34.243  21.500  1.00  0.00     0.211 HD
ENDBRANCH  16  18
ENDBRANCH  14  16
ENDBRANCH  11  14
ENDBRANCH  10  11
ENDBRANCH   8  10
ENDBRANCH   6   8
ENDBRANCH   5   6
ENDBRANCH   4   5
ENDBRANCH   3   4
ENDBRANCH   2   3
ENDBRANCH   1   2
BRANCH   1  20
ATOM     20  C   UNL A   1      35.494  31.900  28.231  1.00  0.00     0.188 C 
BRANCH  20  21
ATOM     21  O   UNL A   1      35.674  33.254  27.904  1.00  0.00    -0.376 OA
BRANCH  21  22
ATOM     22  C   UNL A   1      34.541  34.100  27.832  1.00  0.00     0.202 C 
BRANCH  22  23
ATOM     23  C   UNL A   1      33.783  34.668  29.053  1.00  0.00     0.261 C 
BRANCH  23  24
ATOM     24  O   UNL A   1      33.624  33.836  30.211  1.00  0.00    -0.460 OA
BRANCH  24  25
ATOM     25  C   UNL A   1      33.781  34.450  31.413  1.00  0.00     0.338 C 
ATOM     26  O   UNL A   1      32.932  35.085  32.025  1.00  0.00    -0.246 OA
BRANCH  25  27
ATOM     27  C   UNL A   1      35.072  34.033  32.006  1.00  0.00     0.060 A 
ATOM     28  C   UNL A   1      36.209  34.832  31.804  1.00  0.00     0.016 A 
ATOM     29  C   UNL A   1      35.166  32.862  32.757  1.00  0.00     0.016 A 
ATOM     30  C   UNL A   1      37.441  34.463  32.351  1.00  0.00     0.010 A 
ATOM     31  C   UNL A   1      36.408  32.476  33.274  1.00  0.00     0.010 A 
ATOM     32  C   UNL A   1      37.557  33.264  33.062  1.00  0.00    -0.014 A 
BRANCH  32  33
ATOM     33  C   UNL A   1      38.892  32.743  33.457  1.00  0.00     0.031 A 
ATOM     34  C   UNL A   1      39.638  31.862  32.489  1.00  0.00     0.074 A 
ATOM     35  C   UNL A   1      39.432  33.024  34.659  1.00  0.00     0.049 A 
ATOM     36  N   UNL A   1      40.753  31.200  32.661  1.00  0.00    -0.248 NA
ATOM     37  C   UNL A   1      39.045  31.706  31.150  1.00  0.00     0.031 C 
ATOM     38  C   UNL A   1      38.846  33.905  35.667  1.00  0.00     0.029 A 
ATOM     39  N   UNL A   1      40.593  32.575  35.240  1.00  0.00    -0.354 N 
ATOM     40  C   UNL A   1      40.985  30.533  31.463  1.00  0.00     0.074 A 
ATOM     41  C   UNL A   1      39.888  30.858  30.578  1.00  0.00     0.031 C 
ATOM     42  C   UNL A   1      39.639  33.914  36.753  1.00  0.00     0.029 A 
ATOM     43  C   UNL A   1      40.765  33.006  36.536  1.00  0.00     0.049 A 
ATOM     44  H   UNL A   1      41.242  31.999  34.774  1.00  0.00     0.167 HD
ATOM     45  C   UNL A   1      42.015  29.717  31.132  1.00  0.00     0.031 A 
ATOM     46  C   UNL A   1      41.699  32.677  37.453  1.00  0.00     0.031 A 
ATOM     47  C   UNL A   1      43.102  29.386  32.016  1.00  0.00     0.049 A 
ATOM     48  C   UNL A   1      42.788  31.697  37.088  1.00  0.00     0.074 A 
ATOM     49  C   UNL A   1      44.202  28.587  31.758  1.00  0.00     0.029 A 
ATOM     50  N   UNL A   1      43.223  29.819  33.326  1.00  0.00    -0.354 N 
ATOM     51  N   UNL A   1      43.009  31.097  35.941  1.00  0.00    -0.248 NA
ATOM     52  C   UNL A   1      43.756  31.352  38.140  1.00  0.00     0.031 C 
ATOM     53  C   UNL A   1      44.952  28.481  32.933  1.00  0.00     0.029 A 
ATOM     54  C   UNL A   1      44.360  29.275  33.901  1.00  0.00     0.049 A 
ATOM     55  H   UNL A   1      42.594  30.425  33.781  1.00  0.00     0.167 HD
ATOM     56  C   UNL A   1      44.158  30.330  36.130  1.00  0.00     0.074 A 
ATOM     57  C   UNL A   1      44.596  30.558  37.490  1.00  0.00     0.031 C 
ATOM     58  C   UNL A   1      44.793  29.510  35.255  1.00  0.00     0.031 A 
BRANCH  45  59
ATOM     59  C   UNL A   1      42.005  29.089  29.764  1.00  0.00    -0.014 A 
ATOM     60  C   UNL A   1      42.469  29.786  28.635  1.00  0.00     0.010 A 
ATOM     61  C   UNL A   1      41.601  27.748  29.622  1.00  0.00     0.010 A 
ATOM     62  C   UNL A   1      42.512  29.159  27.385  1.00  0.00     0.020 A 
ATOM     63  C   UNL A   1      41.669  27.109  28.382  1.00  0.00     0.020 A 
ATOM     64  C   UNL A   1      42.117  27.823  27.269  1.00  0.00     0.054 A 
BRANCH  64  65
ATOM     65  S   UNL A   1      42.240  27.019  25.648  1.00  0.00     0.124 S 
ATOM     66  O   UNL A   1      40.976  26.290  25.576  1.00  0.00    -0.237 OA
ATOM     67  O   UNL A   1      42.362  28.155  24.738  1.00  0.00    -0.237 OA
ATOM     68  O   UNL A   1      43.433  26.184  25.761  1.00  0.00    -0.744 OA
ENDBRANCH  64  65
ENDBRANCH  45  59
BRANCH  46  69
ATOM     69  C   UNL A   1      41.631  33.236  38.836  1.00  0.00    -0.014 A 
ATOM     70  C   UNL A   1      40.930  32.565  39.852  1.00  0.00     0.010 A 
ATOM     71  C   UNL A   1      42.231  34.475  39.129  1.00  0.00     0.010 A 
ATOM     72  C   UNL A   1      40.802  33.135  41.124  1.00  0.00     0.020 A 
ATOM     73  C   UNL A   1      42.137  35.031  40.409  1.00  0.00     0.020 A 
ATOM     74  C   UNL A   1      41.406  34.365  41.394  1.00  0.00     0.054 A 
BRANCH  74  75
ATOM     75  S   UNL A   1      41.247  35.074  43.056  1.00  0.00     0.124 S 
ATOM     76  O   UNL A   1      40.461  34.055  43.746  1.00  0.00    -0.237 OA
ATOM     77  O   UNL A   1      42.640  35.194  43.481  1.00  0.00    -0.237 OA
ATOM     78  O   UNL A   1      40.561  36.342  42.823  1.00  0.00    -0.744 OA
ENDBRANCH  74  75
ENDBRANCH  46  69
BRANCH  58  79
ATOM     79  C   UNL A   1      46.054  28.826  35.720  1.00  0.00    -0.014 A 
ATOM     80  C   UNL A   1      46.023  27.545  36.299  1.00  0.00     0.010 A 
ATOM     81  C   UNL A   1      47.298  29.453  35.519  1.00  0.00     0.010 A 
ATOM     82  C   UNL A   1      47.208  26.920  36.700  1.00  0.00     0.020 A 
ATOM     83  C   UNL A   1      48.487  28.819  35.889  1.00  0.00     0.020 A 
ATOM     84  C   UNL A   1      48.433  27.561  36.491  1.00  0.00     0.054 A 
BRANCH  84  85
ATOM     85  S   UNL A   1      49.959  26.710  36.983  1.00  0.00     0.124 S 
ATOM     86  O   UNL A   1      50.188  27.246  38.323  1.00  0.00    -0.237 OA
ATOM     87  O   UNL A   1      49.573  25.303  36.928  1.00  0.00    -0.237 OA
ATOM     88  O   UNL A   1      50.930  27.125  35.973  1.00  0.00    -0.744 OA
ENDBRANCH  84  85
ENDBRANCH  58  79
ENDBRANCH  32  33
ENDBRANCH  25  27
ENDBRANCH  24  25
ENDBRANCH  23  24
ENDBRANCH  22  23
ENDBRANCH  21  22
ENDBRANCH  20  21
ENDBRANCH   1  20
TORSDOF 25
ENDMDL
