MODEL 1
REMARK VINA RESULT:      -9.4      0.000      0.000
REMARK SMILES COc1ccc(C(=O)c2ccccc2)cc1[C@@H](C)C(=O)OCCOCCOCCOC(=O)c1ccc(-c2c3nc(c(-c4ccc(S(=O)(=O)[O-])cc4)c4ccc([nH]4)c(-c4ccc(S(=O)(=O)[O-])cc4)c4nc(c(-c5ccc(S(=O)(=O)[O-])cc5)c5ccc2[nH]5)C=C4)C=C3)cc1
REMARK SMILES IDX 25 1 24 2 23 3 22 4 21 5 19 6 20 7 17 8 18 9 16 10 3 11 4 12
REMARK SMILES IDX 5 13 15 14 6 15 2 16 1 17 7 18 8 19 9 20 10 21 14 22 11 23
REMARK SMILES IDX 13 24 12 25 26 26 27 27 28 28 29 29 30 30 31 31 32 32 33 33
REMARK SMILES IDX 34 34 92 35 35 36 91 37 36 38 37 39 38 40 85 41 39 42 90 43
REMARK SMILES IDX 84 44 86 45 40 46 89 47 83 48 82 49 41 51 71 52 52 53 70 54
REMARK SMILES IDX 53 55 56 56 69 57 87 58 54 59 55 60 68 62 88 63 57 64 42 65
REMARK SMILES IDX 43 66 51 67 44 68 50 69 45 70 46 71 47 72 48 73 49 74 72 75
REMARK SMILES IDX 73 76 81 77 74 78 80 79 75 80 76 81 77 82 78 83 79 84 58 85
REMARK SMILES IDX 59 86 67 87 60 88 66 89 61 90 62 91 63 92 64 93 65 94
REMARK H PARENT 86 50 56 61
REMARK Flexibility Score: inf
ROOT
ATOM      1  C   UNL A   1      34.998  23.865  24.364  1.00  0.00     0.188 C 
ENDROOT
BRANCH   1   2
ATOM      2  O   UNL A   1      33.603  23.935  24.085  1.00  0.00    -0.376 OA
BRANCH   2   3
ATOM      3  C   UNL A   1      33.175  23.896  22.728  1.00  0.00     0.202 C 
BRANCH   3   4
ATOM      4  C   UNL A   1      32.872  25.230  22.028  1.00  0.00     0.261 C 
BRANCH   4   5
ATOM      5  O   UNL A   1      33.986  26.148  21.981  1.00  0.00    -0.463 OA
BRANCH   5   6
ATOM      6  C   UNL A   1      33.717  27.441  22.293  1.00  0.00     0.313 C 
ATOM      7  O   UNL A   1      34.382  28.383  21.866  1.00  0.00    -0.252 OA
BRANCH   6   8
ATOM      8  C   UNL A   1      32.468  27.673  23.156  1.00  0.00     0.130 C 
ATOM      9  C   UNL A   1      31.681  28.848  22.577  1.00  0.00     0.025 C 
BRANCH   8  10
ATOM     10  C   UNL A   1      32.581  27.855  24.670  1.00  0.00     0.009 A 
ATOM     11  C   UNL A   1      31.595  27.401  25.574  1.00  0.00     0.122 A 
ATOM     12  C   UNL A   1      31.738  27.611  26.954  1.00  0.00     0.047 A 
ATOM     13  C   UNL A   1      32.843  28.295  27.463  1.00  0.00     0.016 A 
ATOM     14  C   UNL A   1      33.669  28.576  25.211  1.00  0.00     0.020 A 
ATOM     15  C   UNL A   1      33.806  28.807  26.593  1.00  0.00     0.023 A 
BRANCH  11  16
ATOM     16  O   UNL A   1      30.371  26.913  25.204  1.00  0.00    -0.496 OA
ATOM     17  C   UNL A   1      30.341  25.569  24.733  1.00  0.00     0.278 C 
ENDBRANCH  11  16
BRANCH  15  18
ATOM     18  C   UNL A   1      34.961  29.556  27.174  1.00  0.00     0.193 C 
ATOM     19  O   UNL A   1      36.089  29.070  27.178  1.00  0.00    -0.289 OA
BRANCH  18  20
ATOM     20  C   UNL A   1      34.792  30.919  27.722  1.00  0.00     0.022 A 
ATOM     21  C   UNL A   1      33.590  31.586  27.475  1.00  0.00     0.012 A 
ATOM     22  C   UNL A   1      35.799  31.526  28.482  1.00  0.00     0.012 A 
ATOM     23  C   UNL A   1      33.368  32.839  28.046  1.00  0.00     0.001 A 
ATOM     24  C   UNL A   1      35.565  32.773  29.060  1.00  0.00     0.001 A 
ATOM     25  C   UNL A   1      34.348  33.423  28.850  1.00  0.00     0.000 A 
ENDBRANCH  18  20
ENDBRANCH  15  18
ENDBRANCH   8  10
ENDBRANCH   6   8
ENDBRANCH   5   6
ENDBRANCH   4   5
ENDBRANCH   3   4
ENDBRANCH   2   3
ENDBRANCH   1   2
BRANCH   1  26
ATOM     26  C   UNL A   1      35.477  23.015  25.551  1.00  0.00     0.188 C 
BRANCH  26  27
ATOM     27  O   UNL A   1      36.550  23.569  26.285  1.00  0.00    -0.376 OA
BRANCH  27  28
ATOM     28  C   UNL A   1      37.805  23.620  25.629  1.00  0.00     0.202 C 
BRANCH  28  29
ATOM     29  C   UNL A   1      39.007  23.978  26.518  1.00  0.00     0.261 C 
BRANCH  29  30
ATOM     30  O   UNL A   1      38.894  25.197  27.273  1.00  0.00    -0.460 OA
BRANCH  30  31
ATOM     31  C   UNL A   1      39.966  26.029  27.267  1.00  0.00     0.338 C 
ATOM     32  O   UNL A   1      40.759  26.193  26.363  1.00  0.00    -0.246 OA
BRANCH  31  33
ATOM     33  C   UNL A   1      39.862  26.879  28.478  1.00  0.00     0.060 A 
ATOM     34  C   UNL A   1      40.666  28.024  28.594  1.00  0.00     0.016 A 
ATOM     35  C   UNL A   1      38.956  26.548  29.485  1.00  0.00     0.016 A 
ATOM     36  C   UNL A   1      40.574  28.835  29.730  1.00  0.00     0.010 A 
ATOM     37  C   UNL A   1      38.887  27.341  30.632  1.00  0.00     0.010 A 
ATOM     38  C   UNL A   1      39.714  28.472  30.773  1.00  0.00    -0.014 A 
BRANCH  38  39
ATOM     39  C   UNL A   1      39.816  29.105  32.110  1.00  0.00     0.031 A 
ATOM     40  C   UNL A   1      38.830  30.193  32.440  1.00  0.00     0.074 A 
ATOM     41  C   UNL A   1      40.783  28.780  32.986  1.00  0.00     0.049 A 
ATOM     42  N   UNL A   1      38.834  31.045  33.430  1.00  0.00    -0.248 NA
ATOM     43  C   UNL A   1      37.696  30.345  31.513  1.00  0.00     0.031 C 
ATOM     44  C   UNL A   1      41.753  27.699  32.823  1.00  0.00     0.029 A 
ATOM     45  N   UNL A   1      41.122  29.360  34.186  1.00  0.00    -0.354 N 
ATOM     46  C   UNL A   1      37.722  31.856  33.229  1.00  0.00     0.074 A 
ATOM     47  C   UNL A   1      37.075  31.398  32.019  1.00  0.00     0.031 C 
ATOM     48  C   UNL A   1      42.594  27.709  33.874  1.00  0.00     0.029 A 
ATOM     49  C   UNL A   1      42.258  28.830  34.751  1.00  0.00     0.049 A 
ATOM     50  H   UNL A   1      40.600  30.084  34.600  1.00  0.00     0.167 HD
ATOM     51  C   UNL A   1      37.286  32.894  33.979  1.00  0.00     0.031 A 
ATOM     52  C   UNL A   1      42.968  29.235  35.825  1.00  0.00     0.031 A 
ATOM     53  C   UNL A   1      37.947  33.358  35.167  1.00  0.00     0.049 A 
ATOM     54  C   UNL A   1      42.519  30.454  36.595  1.00  0.00     0.074 A 
ATOM     55  C   UNL A   1      37.591  34.407  35.994  1.00  0.00     0.029 A 
ATOM     56  N   UNL A   1      39.103  32.804  35.695  1.00  0.00    -0.354 N 
ATOM     57  N   UNL A   1      41.476  31.222  36.390  1.00  0.00    -0.248 NA
ATOM     58  C   UNL A   1      43.347  30.862  37.741  1.00  0.00     0.031 C 
ATOM     59  C   UNL A   1      38.563  34.523  36.992  1.00  0.00     0.029 A 
ATOM     60  C   UNL A   1      39.484  33.501  36.827  1.00  0.00     0.049 A 
ATOM     61  H   UNL A   1      39.582  32.031  35.319  1.00  0.00     0.167 HD
ATOM     62  C   UNL A   1      41.498  32.175  37.405  1.00  0.00     0.074 A 
ATOM     63  C   UNL A   1      42.659  31.890  38.222  1.00  0.00     0.031 C 
ATOM     64  C   UNL A   1      40.630  33.189  37.645  1.00  0.00     0.031 A 
BRANCH  51  65
ATOM     65  C   UNL A   1      36.065  33.630  33.498  1.00  0.00    -0.014 A 
ATOM     66  C   UNL A   1      34.781  33.062  33.597  1.00  0.00     0.010 A 
ATOM     67  C   UNL A   1      36.204  34.920  32.954  1.00  0.00     0.010 A 
ATOM     68  C   UNL A   1      33.665  33.755  33.123  1.00  0.00     0.020 A 
ATOM     69  C   UNL A   1      35.086  35.629  32.508  1.00  0.00     0.020 A 
ATOM     70  C   UNL A   1      33.825  35.033  32.579  1.00  0.00     0.054 A 
BRANCH  70  71
ATOM     71  S   UNL A   1      32.355  35.916  31.986  1.00  0.00     0.124 S 
ATOM     72  O   UNL A   1      31.290  35.269  32.747  1.00  0.00    -0.237 OA
ATOM     73  O   UNL A   1      32.643  37.299  32.358  1.00  0.00    -0.237 OA
ATOM     74  O   UNL A   1      32.346  35.649  30.550  1.00  0.00    -0.744 OA
ENDBRANCH  70  71
ENDBRANCH  51  65
BRANCH  52  75
ATOM     75  C   UNL A   1      44.204  28.503  36.225  1.00  0.00    -0.014 A 
ATOM     76  C   UNL A   1      45.458  28.884  35.714  1.00  0.00     0.010 A 
ATOM     77  C   UNL A   1      44.134  27.412  37.113  1.00  0.00     0.010 A 
ATOM     78  C   UNL A   1      46.613  28.178  36.066  1.00  0.00     0.020 A 
ATOM     79  C   UNL A   1      45.290  26.723  37.491  1.00  0.00     0.020 A 
ATOM     80  C   UNL A   1      46.522  27.105  36.957  1.00  0.00     0.054 A 
BRANCH  80  81
ATOM     81  S   UNL A   1      48.042  26.239  37.439  1.00  0.00     0.124 S 
ATOM     82  O   UNL A   1      48.445  25.611  36.185  1.00  0.00    -0.237 OA
ATOM     83  O   UNL A   1      48.893  27.332  37.902  1.00  0.00    -0.237 OA
ATOM     84  O   UNL A   1      47.596  25.320  38.484  1.00  0.00    -0.744 OA
ENDBRANCH  80  81
ENDBRANCH  52  75
BRANCH  64  85
ATOM     85  C   UNL A   1      40.840  34.029  38.879  1.00  0.00    -0.014 A 
ATOM     86  C   UNL A   1      41.702  35.139  38.880  1.00  0.00     0.010 A 
ATOM     87  C   UNL A   1      40.072  33.756  40.028  1.00  0.00     0.010 A 
ATOM     88  C   UNL A   1      41.801  35.953  40.014  1.00  0.00     0.020 A 
ATOM     89  C   UNL A   1      40.148  34.582  41.151  1.00  0.00     0.020 A 
ATOM     90  C   UNL A   1      41.017  35.673  41.139  1.00  0.00     0.054 A 
BRANCH  90  91
ATOM     91  S   UNL A   1      41.105  36.790  42.567  1.00  0.00     0.124 S 
ATOM     92  O   UNL A   1      39.742  37.311  42.629  1.00  0.00    -0.237 OA
ATOM     93  O   UNL A   1      41.484  35.891  43.653  1.00  0.00    -0.237 OA
ATOM     94  O   UNL A   1      42.126  37.762  42.185  1.00  0.00    -0.744 OA
ENDBRANCH  90  91
ENDBRANCH  64  85
ENDBRANCH  38  39
ENDBRANCH  31  33
ENDBRANCH  30  31
ENDBRANCH  29  30
ENDBRANCH  28  29
ENDBRANCH  27  28
ENDBRANCH  26  27
ENDBRANCH   1  26
TORSDOF 24
ENDMDL
MODEL 2
REMARK VINA RESULT:      -9.3      2.020      3.798
REMARK SMILES COc1ccc(C(=O)c2ccccc2)cc1[C@@H](C)C(=O)OCCOCCOCCOC(=O)c1ccc(-c2c3nc(c(-c4ccc(S(=O)(=O)[O-])cc4)c4ccc([nH]4)c(-c4ccc(S(=O)(=O)[O-])cc4)c4nc(c(-c5ccc(S(=O)(=O)[O-])cc5)c5ccc2[nH]5)C=C4)C=C3)cc1
REMARK SMILES IDX 25 1 24 2 23 3 22 4 21 5 19 6 20 7 17 8 18 9 16 10 3 11 4 12
REMARK SMILES IDX 5 13 15 14 6 15 2 16 1 17 7 18 8 19 9 20 10 21 14 22 11 23
REMARK SMILES IDX 13 24 12 25 26 26 27 27 28 28 29 29 30 30 31 31 32 32 33 33
REMARK SMILES IDX 34 34 92 35 35 36 91 37 36 38 37 39 38 40 85 41 39 42 90 43
REMARK SMILES IDX 84 44 86 45 40 46 89 47 83 48 82 49 41 51 71 52 52 53 70 54
REMARK SMILES IDX 53 55 56 56 69 57 87 58 54 59 55 60 68 62 88 63 57 64 42 65
REMARK SMILES IDX 43 66 51 67 44 68 50 69 45 70 46 71 47 72 48 73 49 74 72 75
REMARK SMILES IDX 73 76 81 77 74 78 80 79 75 80 76 81 77 82 78 83 79 84 58 85
REMARK SMILES IDX 59 86 67 87 60 88 66 89 61 90 62 91 63 92 64 93 65 94
REMARK H PARENT 86 50 56 61
REMARK Flexibility Score: inf
ROOT
ATOM      1  C   UNL A   1      39.751  20.274  26.058  1.00  0.00     0.188 C 
ENDROOT
BRANCH   1   2
ATOM      2  O   UNL A   1      38.609  20.391  25.215  1.00  0.00    -0.376 OA
BRANCH   2   3
ATOM      3  C   UNL A   1      37.808  21.564  25.309  1.00  0.00     0.202 C 
BRANCH   3   4
ATOM      4  C   UNL A   1      36.283  21.392  25.384  1.00  0.00     0.261 C 
BRANCH   4   5
ATOM      5  O   UNL A   1      35.529  22.577  25.046  1.00  0.00    -0.463 OA
BRANCH   5   6
ATOM      6  C   UNL A   1      35.208  22.737  23.737  1.00  0.00     0.313 C 
ATOM      7  O   UNL A   1      36.052  22.890  22.857  1.00  0.00    -0.252 OA
BRANCH   6   8
ATOM      8  C   UNL A   1      33.712  22.635  23.400  1.00  0.00     0.130 C 
ATOM      9  C   UNL A   1      33.442  23.421  22.118  1.00  0.00     0.025 C 
BRANCH   8  10
ATOM     10  C   UNL A   1      32.647  22.998  24.434  1.00  0.00     0.009 A 
ATOM     11  C   UNL A   1      31.908  22.028  25.149  1.00  0.00     0.122 A 
ATOM     12  C   UNL A   1      30.927  22.414  26.073  1.00  0.00     0.047 A 
ATOM     13  C   UNL A   1      30.638  23.762  26.291  1.00  0.00     0.016 A 
ATOM     14  C   UNL A   1      32.308  24.352  24.648  1.00  0.00     0.020 A 
ATOM     15  C   UNL A   1      31.309  24.743  25.560  1.00  0.00     0.023 A 
BRANCH  11  16
ATOM     16  O   UNL A   1      31.932  20.685  24.883  1.00  0.00    -0.496 OA
ATOM     17  C   UNL A   1      32.804  19.896  25.687  1.00  0.00     0.278 C 
ENDBRANCH  11  16
BRANCH  15  18
ATOM     18  C   UNL A   1      30.954  26.174  25.802  1.00  0.00     0.193 C 
ATOM     19  O   UNL A   1      30.737  26.586  26.939  1.00  0.00    -0.289 OA
BRANCH  18  20
ATOM     20  C   UNL A   1      30.897  27.148  24.691  1.00  0.00     0.022 A 
ATOM     21  C   UNL A   1      32.009  27.963  24.469  1.00  0.00     0.012 A 
ATOM     22  C   UNL A   1      29.768  27.247  23.869  1.00  0.00     0.012 A 
ATOM     23  C   UNL A   1      32.019  28.833  23.380  1.00  0.00     0.001 A 
ATOM     24  C   UNL A   1      29.789  28.110  22.774  1.00  0.00     0.001 A 
ATOM     25  C   UNL A   1      30.916  28.894  22.526  1.00  0.00     0.000 A 
ENDBRANCH  18  20
ENDBRANCH  15  18
ENDBRANCH   8  10
ENDBRANCH   6   8
ENDBRANCH   5   6
ENDBRANCH   4   5
ENDBRANCH   3   4
ENDBRANCH   2   3
ENDBRANCH   1   2
BRANCH   1  26
ATOM     26  C   UNL A   1      40.520  21.545  26.451  1.00  0.00     0.188 C 
BRANCH  26  27
ATOM     27  O   UNL A   1      41.912  21.494  26.220  1.00  0.00    -0.376 OA
BRANCH  27  28
ATOM     28  C   UNL A   1      42.472  22.570  25.487  1.00  0.00     0.202 C 
BRANCH  28  29
ATOM     29  C   UNL A   1      42.615  23.895  26.253  1.00  0.00     0.261 C 
BRANCH  29  30
ATOM     30  O   UNL A   1      41.618  24.894  25.978  1.00  0.00    -0.460 OA
BRANCH  30  31
ATOM     31  C   UNL A   1      42.053  26.165  25.786  1.00  0.00     0.338 C 
ATOM     32  O   UNL A   1      42.532  26.627  24.771  1.00  0.00    -0.246 OA
BRANCH  31  33
ATOM     33  C   UNL A   1      41.623  26.954  26.965  1.00  0.00     0.060 A 
ATOM     34  C   UNL A   1      42.283  28.155  27.275  1.00  0.00     0.016 A 
ATOM     35  C   UNL A   1      40.557  26.512  27.748  1.00  0.00     0.016 A 
ATOM     36  C   UNL A   1      41.884  28.909  28.383  1.00  0.00     0.010 A 
ATOM     37  C   UNL A   1      40.179  27.251  28.870  1.00  0.00     0.010 A 
ATOM     38  C   UNL A   1      40.857  28.438  29.209  1.00  0.00    -0.014 A 
BRANCH  38  39
ATOM     39  C   UNL A   1      40.619  29.023  30.552  1.00  0.00     0.031 A 
ATOM     40  C   UNL A   1      39.538  30.063  30.674  1.00  0.00     0.074 A 
ATOM     41  C   UNL A   1      41.370  28.699  31.619  1.00  0.00     0.049 A 
ATOM     42  N   UNL A   1      39.277  30.876  31.662  1.00  0.00    -0.248 NA
ATOM     43  C   UNL A   1      38.644  30.209  29.513  1.00  0.00     0.031 C 
ATOM     44  C   UNL A   1      42.397  27.660  31.656  1.00  0.00     0.029 A 
ATOM     45  N   UNL A   1      41.397  29.245  32.881  1.00  0.00    -0.354 N 
ATOM     46  C   UNL A   1      38.208  31.654  31.231  1.00  0.00     0.074 A 
ATOM     47  C   UNL A   1      37.878  31.220  29.891  1.00  0.00     0.031 C 
ATOM     48  C   UNL A   1      42.971  27.659  32.872  1.00  0.00     0.029 A 
ATOM     49  C   UNL A   1      42.394  28.735  33.679  1.00  0.00     0.049 A 
ATOM     50  H   UNL A   1      40.764  29.934  33.183  1.00  0.00     0.167 HD
ATOM     51  C   UNL A   1      37.566  32.647  31.888  1.00  0.00     0.031 A 
ATOM     52  C   UNL A   1      42.818  29.123  34.900  1.00  0.00     0.031 A 
ATOM     53  C   UNL A   1      37.913  33.089  33.210  1.00  0.00     0.049 A 
ATOM     54  C   UNL A   1      42.151  30.295  35.579  1.00  0.00     0.074 A 
ATOM     55  C   UNL A   1      37.330  34.093  33.961  1.00  0.00     0.029 A 
ATOM     56  N   UNL A   1      38.938  32.556  33.976  1.00  0.00    -0.354 N 
ATOM     57  N   UNL A   1      41.151  31.034  35.159  1.00  0.00    -0.248 NA
ATOM     58  C   UNL A   1      42.673  30.688  36.898  1.00  0.00     0.031 C 
ATOM     59  C   UNL A   1      38.040  34.205  35.161  1.00  0.00     0.029 A 
ATOM     60  C   UNL A   1      39.017  33.223  35.186  1.00  0.00     0.049 A 
ATOM     61  H   UNL A   1      39.524  31.815  33.700  1.00  0.00     0.167 HD
ATOM     62  C   UNL A   1      40.897  31.948  36.179  1.00  0.00     0.074 A 
ATOM     63  C   UNL A   1      41.849  31.672  37.235  1.00  0.00     0.031 C 
ATOM     64  C   UNL A   1      39.954  32.921  36.238  1.00  0.00     0.031 A 
BRANCH  51  65
ATOM     65  C   UNL A   1      36.458  33.357  31.157  1.00  0.00    -0.014 A 
ATOM     66  C   UNL A   1      35.184  33.515  31.733  1.00  0.00     0.010 A 
ATOM     67  C   UNL A   1      36.704  33.892  29.880  1.00  0.00     0.010 A 
ATOM     68  C   UNL A   1      34.166  34.159  31.026  1.00  0.00     0.020 A 
ATOM     69  C   UNL A   1      35.697  34.563  29.182  1.00  0.00     0.020 A 
ATOM     70  C   UNL A   1      34.428  34.676  29.753  1.00  0.00     0.054 A 
BRANCH  70  71
ATOM     71  S   UNL A   1      33.091  35.520  28.865  1.00  0.00     0.124 S 
ATOM     72  O   UNL A   1      32.445  34.410  28.170  1.00  0.00    -0.237 OA
ATOM     73  O   UNL A   1      32.316  36.118  29.949  1.00  0.00    -0.237 OA
ATOM     74  O   UNL A   1      33.792  36.471  28.006  1.00  0.00    -0.744 OA
ENDBRANCH  70  71
ENDBRANCH  51  65
BRANCH  52  75
ATOM     75  C   UNL A   1      43.958  28.420  35.556  1.00  0.00    -0.014 A 
ATOM     76  C   UNL A   1      43.741  27.600  36.679  1.00  0.00     0.010 A 
ATOM     77  C   UNL A   1      45.270  28.575  35.070  1.00  0.00     0.010 A 
ATOM     78  C   UNL A   1      44.814  26.965  37.312  1.00  0.00     0.020 A 
ATOM     79  C   UNL A   1      46.341  27.917  35.681  1.00  0.00     0.020 A 
ATOM     80  C   UNL A   1      46.108  27.124  36.806  1.00  0.00     0.054 A 
BRANCH  80  81
ATOM     81  S   UNL A   1      47.476  26.248  37.614  1.00  0.00     0.124 S 
ATOM     82  O   UNL A   1      48.194  25.687  36.474  1.00  0.00    -0.237 OA
ATOM     83  O   UNL A   1      48.160  27.323  38.327  1.00  0.00    -0.237 OA
ATOM     84  O   UNL A   1      46.801  25.275  38.470  1.00  0.00    -0.744 OA
ENDBRANCH  80  81
ENDBRANCH  52  75
BRANCH  64  85
ATOM     85  C   UNL A   1      39.837  33.720  37.511  1.00  0.00    -0.014 A 
ATOM     86  C   UNL A   1      40.345  35.026  37.613  1.00  0.00     0.010 A 
ATOM     87  C   UNL A   1      39.107  33.182  38.589  1.00  0.00     0.010 A 
ATOM     88  C   UNL A   1      40.135  35.775  38.777  1.00  0.00     0.020 A 
ATOM     89  C   UNL A   1      38.872  33.937  39.740  1.00  0.00     0.020 A 
ATOM     90  C   UNL A   1      39.394  35.227  39.830  1.00  0.00     0.054 A 
BRANCH  90  91
ATOM     91  S   UNL A   1      39.068  36.248  41.294  1.00  0.00     0.124 S 
ATOM     92  O   UNL A   1      38.899  37.575  40.709  1.00  0.00    -0.237 OA
ATOM     93  O   UNL A   1      37.855  35.644  41.841  1.00  0.00    -0.237 OA
ATOM     94  O   UNL A   1      40.265  36.075  42.112  1.00  0.00    -0.744 OA
ENDBRANCH  90  91
ENDBRANCH  64  85
ENDBRANCH  38  39
ENDBRANCH  31  33
ENDBRANCH  30  31
ENDBRANCH  29  30
ENDBRANCH  28  29
ENDBRANCH  27  28
ENDBRANCH  26  27
ENDBRANCH   1  26
TORSDOF 24
ENDMDL
MODEL 3
REMARK VINA RESULT:      -9.1      0.706      8.001
REMARK SMILES COc1ccc(C(=O)c2ccccc2)cc1[C@@H](C)C(=O)OCCOCCOCCOC(=O)c1ccc(-c2c3nc(c(-c4ccc(S(=O)(=O)[O-])cc4)c4ccc([nH]4)c(-c4ccc(S(=O)(=O)[O-])cc4)c4nc(c(-c5ccc(S(=O)(=O)[O-])cc5)c5ccc2[nH]5)C=C4)C=C3)cc1
REMARK SMILES IDX 25 1 24 2 23 3 22 4 21 5 19 6 20 7 17 8 18 9 16 10 3 11 4 12
REMARK SMILES IDX 5 13 15 14 6 15 2 16 1 17 7 18 8 19 9 20 10 21 14 22 11 23
REMARK SMILES IDX 13 24 12 25 26 26 27 27 28 28 29 29 30 30 31 31 32 32 33 33
REMARK SMILES IDX 34 34 92 35 35 36 91 37 36 38 37 39 38 40 85 41 39 42 90 43
REMARK SMILES IDX 84 44 86 45 40 46 89 47 83 48 82 49 41 51 71 52 52 53 70 54
REMARK SMILES IDX 53 55 56 56 69 57 87 58 54 59 55 60 68 62 88 63 57 64 42 65
REMARK SMILES IDX 43 66 51 67 44 68 50 69 45 70 46 71 47 72 48 73 49 74 72 75
REMARK SMILES IDX 73 76 81 77 74 78 80 79 75 80 76 81 77 82 78 83 79 84 58 85
REMARK SMILES IDX 59 86 67 87 60 88 66 89 61 90 62 91 63 92 64 93 65 94
REMARK H PARENT 86 50 56 61
REMARK Flexibility Score: inf
ROOT
ATOM      1  C   UNL A   1      34.807  23.840  24.308  1.00  0.00     0.188 C 
ENDROOT
BRANCH   1   2
ATOM      2  O   UNL A   1      33.420  23.881  23.988  1.00  0.00    -0.376 OA
BRANCH   2   3
ATOM      3  C   UNL A   1      33.033  23.837  22.618  1.00  0.00     0.202 C 
BRANCH   3   4
ATOM      4  C   UNL A   1      32.784  25.171  21.896  1.00  0.00     0.261 C 
BRANCH   4   5
ATOM      5  O   UNL A   1      33.915  26.070  21.893  1.00  0.00    -0.463 OA
BRANCH   5   6
ATOM      6  C   UNL A   1      33.667  27.355  22.252  1.00  0.00     0.313 C 
ATOM      7  O   UNL A   1      34.349  28.300  21.862  1.00  0.00    -0.252 OA
BRANCH   6   8
ATOM      8  C   UNL A   1      32.418  27.576  23.120  1.00  0.00     0.130 C 
ATOM      9  C   UNL A   1      31.608  28.730  22.531  1.00  0.00     0.025 C 
BRANCH   8  10
ATOM     10  C   UNL A   1      32.537  27.778  24.630  1.00  0.00     0.009 A 
ATOM     11  C   UNL A   1      31.542  27.360  25.541  1.00  0.00     0.122 A 
ATOM     12  C   UNL A   1      31.690  27.587  26.918  1.00  0.00     0.047 A 
ATOM     13  C   UNL A   1      32.811  28.253  27.417  1.00  0.00     0.016 A 
ATOM     14  C   UNL A   1      33.642  28.481  25.160  1.00  0.00     0.020 A 
ATOM     15  C   UNL A   1      33.785  28.729  26.538  1.00  0.00     0.023 A 
BRANCH  11  16
ATOM     16  O   UNL A   1      30.306  26.895  25.179  1.00  0.00    -0.496 OA
ATOM     17  C   UNL A   1      29.881  25.682  25.793  1.00  0.00     0.278 C 
ENDBRANCH  11  16
BRANCH  15  18
ATOM     18  C   UNL A   1      34.957  29.459  27.108  1.00  0.00     0.193 C 
ATOM     19  O   UNL A   1      36.054  28.914  27.204  1.00  0.00    -0.289 OA
BRANCH  18  20
ATOM     20  C   UNL A   1      34.847  30.871  27.534  1.00  0.00     0.022 A 
ATOM     21  C   UNL A   1      36.008  31.529  27.947  1.00  0.00     0.012 A 
ATOM     22  C   UNL A   1      33.619  31.543  27.513  1.00  0.00     0.012 A 
ATOM     23  C   UNL A   1      35.952  32.883  28.276  1.00  0.00     0.001 A 
ATOM     24  C   UNL A   1      33.572  32.900  27.831  1.00  0.00     0.001 A 
ATOM     25  C   UNL A   1      34.739  33.569  28.203  1.00  0.00     0.000 A 
ENDBRANCH  18  20
ENDBRANCH  15  18
ENDBRANCH   8  10
ENDBRANCH   6   8
ENDBRANCH   5   6
ENDBRANCH   4   5
ENDBRANCH   3   4
ENDBRANCH   2   3
ENDBRANCH   1   2
BRANCH   1  26
ATOM     26  C   UNL A   1      35.269  23.001  25.509  1.00  0.00     0.188 C 
BRANCH  26  27
ATOM     27  O   UNL A   1      36.364  23.536  26.222  1.00  0.00    -0.376 OA
BRANCH  27  28
ATOM     28  C   UNL A   1      37.613  23.545  25.552  1.00  0.00     0.202 C 
BRANCH  28  29
ATOM     29  C   UNL A   1      38.837  23.861  26.427  1.00  0.00     0.261 C 
BRANCH  29  30
ATOM     30  O   UNL A   1      38.856  25.162  27.041  1.00  0.00    -0.460 OA
BRANCH  30  31
ATOM     31  C   UNL A   1      39.958  25.926  26.838  1.00  0.00     0.338 C 
ATOM     32  O   UNL A   1      40.553  26.085  25.792  1.00  0.00    -0.246 OA
BRANCH  31  33
ATOM     33  C   UNL A   1      40.171  26.718  28.073  1.00  0.00     0.060 A 
ATOM     34  C   UNL A   1      39.276  26.584  29.147  1.00  0.00     0.016 A 
ATOM     35  C   UNL A   1      41.266  27.577  28.169  1.00  0.00     0.016 A 
ATOM     36  C   UNL A   1      39.469  27.323  30.318  1.00  0.00     0.010 A 
ATOM     37  C   UNL A   1      41.440  28.337  29.327  1.00  0.00     0.010 A 
ATOM     38  C   UNL A   1      40.529  28.235  30.396  1.00  0.00    -0.014 A 
BRANCH  38  39
ATOM     39  C   UNL A   1      40.586  29.260  31.467  1.00  0.00     0.031 A 
ATOM     40  C   UNL A   1      41.670  29.124  32.501  1.00  0.00     0.074 A 
ATOM     41  C   UNL A   1      39.675  30.244  31.567  1.00  0.00     0.049 A 
ATOM     42  N   UNL A   1      41.811  29.741  33.643  1.00  0.00    -0.248 NA
ATOM     43  C   UNL A   1      42.730  28.145  32.205  1.00  0.00     0.031 C 
ATOM     44  C   UNL A   1      38.620  30.532  30.598  1.00  0.00     0.029 A 
ATOM     45  N   UNL A   1      39.481  31.172  32.563  1.00  0.00    -0.354 N 
ATOM     46  C   UNL A   1      42.957  29.203  34.219  1.00  0.00     0.074 A 
ATOM     47  C   UNL A   1      43.466  28.206  33.303  1.00  0.00     0.031 C 
ATOM     48  C   UNL A   1      37.874  31.552  31.059  1.00  0.00     0.029 A 
ATOM     49  C   UNL A   1      38.361  31.949  32.380  1.00  0.00     0.049 A 
ATOM     50  H   UNL A   1      40.086  31.270  33.333  1.00  0.00     0.167 HD
ATOM     51  C   UNL A   1      43.528  29.506  35.408  1.00  0.00     0.031 A 
ATOM     52  C   UNL A   1      37.775  32.843  33.204  1.00  0.00     0.031 A 
ATOM     53  C   UNL A   1      43.005  30.482  36.322  1.00  0.00     0.049 A 
ATOM     54  C   UNL A   1      38.374  33.099  34.566  1.00  0.00     0.074 A 
ATOM     55  C   UNL A   1      43.503  30.857  37.556  1.00  0.00     0.029 A 
ATOM     56  N   UNL A   1      41.861  31.234  36.105  1.00  0.00    -0.354 N 
ATOM     57  N   UNL A   1      39.448  32.576  35.108  1.00  0.00    -0.248 NA
ATOM     58  C   UNL A   1      37.677  34.065  35.431  1.00  0.00     0.031 C 
ATOM     59  C   UNL A   1      42.629  31.797  38.111  1.00  0.00     0.029 A 
ATOM     60  C   UNL A   1      41.627  32.060  37.190  1.00  0.00     0.049 A 
ATOM     61  H   UNL A   1      41.297  31.187  35.300  1.00  0.00     0.167 HD
ATOM     62  C   UNL A   1      39.580  33.182  36.356  1.00  0.00     0.074 A 
ATOM     63  C   UNL A   1      38.475  34.108  36.490  1.00  0.00     0.031 C 
ATOM     64  C   UNL A   1      40.535  32.995  37.300  1.00  0.00     0.031 A 
BRANCH  51  65
ATOM     65  C   UNL A   1      44.754  28.729  35.804  1.00  0.00    -0.014 A 
ATOM     66  C   UNL A   1      46.045  29.178  35.473  1.00  0.00     0.010 A 
ATOM     67  C   UNL A   1      44.610  27.537  36.538  1.00  0.00     0.010 A 
ATOM     68  C   UNL A   1      47.167  28.427  35.832  1.00  0.00     0.020 A 
ATOM     69  C   UNL A   1      45.731  26.800  36.927  1.00  0.00     0.020 A 
ATOM     70  C   UNL A   1      47.002  27.241  36.555  1.00  0.00     0.054 A 
BRANCH  70  71
ATOM     71  S   UNL A   1      48.478  26.296  37.022  1.00  0.00     0.124 S 
ATOM     72  O   UNL A   1      48.014  24.920  36.867  1.00  0.00    -0.237 OA
ATOM     73  O   UNL A   1      49.465  26.740  36.042  1.00  0.00    -0.237 OA
ATOM     74  O   UNL A   1      48.737  26.714  38.397  1.00  0.00    -0.744 OA
ENDBRANCH  70  71
ENDBRANCH  51  65
BRANCH  52  75
ATOM     75  C   UNL A   1      36.529  33.545  32.784  1.00  0.00    -0.014 A 
ATOM     76  C   UNL A   1      35.483  32.836  32.164  1.00  0.00     0.010 A 
ATOM     77  C   UNL A   1      36.383  34.930  32.990  1.00  0.00     0.010 A 
ATOM     78  C   UNL A   1      34.327  33.499  31.743  1.00  0.00     0.020 A 
ATOM     79  C   UNL A   1      35.215  35.592  32.598  1.00  0.00     0.020 A 
ATOM     80  C   UNL A   1      34.198  34.874  31.967  1.00  0.00     0.054 A 
BRANCH  80  81
ATOM     81  S   UNL A   1      32.666  35.702  31.458  1.00  0.00     0.124 S 
ATOM     82  O   UNL A   1      31.733  35.283  32.499  1.00  0.00    -0.237 OA
ATOM     83  O   UNL A   1      33.048  37.111  31.481  1.00  0.00    -0.237 OA
ATOM     84  O   UNL A   1      32.407  35.156  30.128  1.00  0.00    -0.744 OA
ENDBRANCH  80  81
ENDBRANCH  52  75
BRANCH  64  85
ATOM     85  C   UNL A   1      40.491  33.854  38.537  1.00  0.00    -0.014 A 
ATOM     86  C   UNL A   1      39.932  33.390  39.740  1.00  0.00     0.010 A 
ATOM     87  C   UNL A   1      41.120  35.115  38.514  1.00  0.00     0.010 A 
ATOM     88  C   UNL A   1      39.992  34.178  40.895  1.00  0.00     0.020 A 
ATOM     89  C   UNL A   1      41.206  35.891  39.672  1.00  0.00     0.020 A 
ATOM     90  C   UNL A   1      40.636  35.420  40.854  1.00  0.00     0.054 A 
BRANCH  90  91
ATOM     91  S   UNL A   1      40.771  36.387  42.385  1.00  0.00     0.124 S 
ATOM     92  O   UNL A   1      41.273  35.392  43.329  1.00  0.00    -0.237 OA
ATOM     93  O   UNL A   1      41.717  37.437  42.017  1.00  0.00    -0.237 OA
ATOM     94  O   UNL A   1      39.405  36.844  42.629  1.00  0.00    -0.744 OA
ENDBRANCH  90  91
ENDBRANCH  64  85
ENDBRANCH  38  39
ENDBRANCH  31  33
ENDBRANCH  30  31
ENDBRANCH  29  30
ENDBRANCH  28  29
ENDBRANCH  27  28
ENDBRANCH  26  27
ENDBRANCH   1  26
TORSDOF 24
ENDMDL
