MODEL 1
REMARK VINA RESULT:      -9.9      0.000      0.000
REMARK SMILES Nc1ccc(C(=O)NC[C@@H]2CC[C@@H](C(=O)OCCOCCOCCOC(=O)c3ccc(-c4c5nc(c(-c6ccc(S(=O)(=O)[O-])cc6)c6ccc([nH]6)c(-c6ccc(S(=O)(=O)[O-])cc6)c6nc(c(-c7ccc(S(=O)(=O)[O-])cc7)c7ccc4[nH]7)C=C6)C=C5)cc3)O2)cc1Cl
REMARK SMILES IDX 20 1 19 2 18 3 17 4 16 5 14 6 15 7 13 8 10 9 11 10 88 11
REMARK SMILES IDX 12 12 9 13 8 14 6 15 7 16 5 18 2 19 3 20 90 21 4 22 89 23
REMARK SMILES IDX 91 24 1 25 21 28 22 29 23 30 24 31 25 32 26 33 27 34 28 35
REMARK SMILES IDX 29 36 87 37 30 38 86 39 31 40 32 41 33 42 80 43 34 44 85 45
REMARK SMILES IDX 79 46 81 47 35 48 84 49 78 50 77 51 36 53 66 54 47 55 65 56
REMARK SMILES IDX 48 57 51 58 64 59 82 60 49 61 50 62 63 64 83 65 52 66 37 67
REMARK SMILES IDX 38 68 46 69 39 70 45 71 40 72 41 73 42 74 43 75 44 76 67 77
REMARK SMILES IDX 68 78 76 79 69 80 75 81 70 82 71 83 72 84 73 85 74 86 53 87
REMARK SMILES IDX 54 88 62 89 55 90 61 91 56 92 57 93 58 94 59 95 60 96
REMARK H PARENT 8 17 1 26 1 27 81 52 51 63
REMARK Flexibility Score: inf
ROOT
ATOM      1  C   UNL A   1      29.692  28.131  23.789  1.00  0.00     0.188 C 
ENDROOT
BRANCH   1   2
ATOM      2  O   UNL A   1      30.048  27.019  22.981  1.00  0.00    -0.376 OA
BRANCH   2   3
ATOM      3  C   UNL A   1      31.048  27.165  21.977  1.00  0.00     0.202 C 
BRANCH   3   4
ATOM      4  C   UNL A   1      31.846  25.950  21.475  1.00  0.00     0.261 C 
BRANCH   4   5
ATOM      5  O   UNL A   1      33.260  26.178  21.451  1.00  0.00    -0.461 OA
BRANCH   5   6
ATOM      6  C   UNL A   1      33.728  27.177  22.254  1.00  0.00     0.335 C 
ATOM      7  O   UNL A   1      33.818  28.354  21.935  1.00  0.00    -0.249 OA
BRANCH   6   8
ATOM      8  C   UNL A   1      34.039  26.627  23.649  1.00  0.00     0.228 C 
ATOM      9  C   UNL A   1      32.604  25.463  25.070  1.00  0.00     0.138 C 
ATOM     10  C   UNL A   1      33.830  24.589  24.847  1.00  0.00     0.037 C 
ATOM     11  O   UNL A   1      32.945  26.763  24.561  1.00  0.00    -0.361 OA
ATOM     12  C   UNL A   1      34.397  25.145  23.568  1.00  0.00     0.047 C 
BRANCH   9  13
ATOM     13  C   UNL A   1      32.106  25.600  26.520  1.00  0.00     0.148 C 
BRANCH  13  14
ATOM     14  N   UNL A   1      31.063  24.659  26.890  1.00  0.00    -0.349 N 
ATOM     15  C   UNL A   1      30.935  23.299  26.894  1.00  0.00     0.251 C 
ATOM     16  O   UNL A   1      29.850  22.868  27.293  1.00  0.00    -0.269 OA
ATOM     17  H   UNL A   1      30.252  25.111  27.216  1.00  0.00     0.163 HD
BRANCH  15  18
ATOM     18  C   UNL A   1      31.978  22.311  26.483  1.00  0.00     0.041 A 
ATOM     19  C   UNL A   1      33.811  20.377  25.469  1.00  0.00     0.050 A 
ATOM     20  C   UNL A   1      34.046  21.039  26.678  1.00  0.00     0.028 A 
ATOM     21  C   UNL A   1      32.633  20.686  24.776  1.00  0.00     0.064 A 
ATOM     22  C   UNL A   1      33.156  22.012  27.168  1.00  0.00     0.016 A 
ATOM     23  C   UNL A   1      31.739  21.641  25.267  1.00  0.00     0.036 A 
ATOM     24  Cl  UNL A   1      32.258  19.900  23.280  1.00  0.00    -0.082 Cl
BRANCH  19  25
ATOM     25  N   UNL A   1      34.664  19.358  25.058  1.00  0.00    -0.398 N 
ATOM     26  H   UNL A   1      34.463  18.422  25.291  1.00  0.00     0.156 HD
ATOM     27  H   UNL A   1      35.470  19.571  24.534  1.00  0.00     0.156 HD
ENDBRANCH  19  25
ENDBRANCH  15  18
ENDBRANCH  13  14
ENDBRANCH   9  13
ENDBRANCH   6   8
ENDBRANCH   5   6
ENDBRANCH   4   5
ENDBRANCH   3   4
ENDBRANCH   2   3
ENDBRANCH   1   2
BRANCH   1  28
ATOM     28  C   UNL A   1      30.549  29.413  23.735  1.00  0.00     0.188 C 
BRANCH  28  29
ATOM     29  O   UNL A   1      31.743  29.393  24.475  1.00  0.00    -0.376 OA
BRANCH  29  30
ATOM     30  C   UNL A   1      31.740  29.856  25.817  1.00  0.00     0.202 C 
BRANCH  30  31
ATOM     31  C   UNL A   1      32.427  29.170  27.021  1.00  0.00     0.261 C 
BRANCH  31  32
ATOM     32  O   UNL A   1      33.852  29.224  27.137  1.00  0.00    -0.460 OA
BRANCH  32  33
ATOM     33  C   UNL A   1      34.370  30.332  27.719  1.00  0.00     0.338 C 
ATOM     34  O   UNL A   1      33.768  31.358  28.012  1.00  0.00    -0.246 OA
BRANCH  33  35
ATOM     35  C   UNL A   1      35.754  30.041  28.140  1.00  0.00     0.060 A 
ATOM     36  C   UNL A   1      36.785  30.099  27.190  1.00  0.00     0.016 A 
ATOM     37  C   UNL A   1      36.035  29.704  29.464  1.00  0.00     0.016 A 
ATOM     38  C   UNL A   1      38.102  29.833  27.566  1.00  0.00     0.010 A 
ATOM     39  C   UNL A   1      37.353  29.410  29.832  1.00  0.00     0.010 A 
ATOM     40  C   UNL A   1      38.393  29.462  28.885  1.00  0.00    -0.014 A 
BRANCH  40  41
ATOM     41  C   UNL A   1      39.760  29.018  29.261  1.00  0.00     0.031 A 
ATOM     42  C   UNL A   1      40.693  30.002  29.913  1.00  0.00     0.074 A 
ATOM     43  C   UNL A   1      40.175  27.763  29.001  1.00  0.00     0.049 A 
ATOM     44  N   UNL A   1      41.954  29.862  30.225  1.00  0.00    -0.248 NA
ATOM     45  C   UNL A   1      40.130  31.319  30.256  1.00  0.00     0.031 C 
ATOM     46  C   UNL A   1      39.357  26.703  28.411  1.00  0.00     0.029 A 
ATOM     47  N   UNL A   1      41.404  27.173  29.183  1.00  0.00    -0.354 N 
ATOM     48  C   UNL A   1      42.345  31.076  30.776  1.00  0.00     0.074 A 
ATOM     49  C   UNL A   1      41.188  31.945  30.752  1.00  0.00     0.031 C 
ATOM     50  C   UNL A   1      40.115  25.602  28.255  1.00  0.00     0.029 A 
ATOM     51  C   UNL A   1      41.479  25.890  28.693  1.00  0.00     0.049 A 
ATOM     52  H   UNL A   1      42.159  27.628  29.622  1.00  0.00     0.167 HD
ATOM     53  C   UNL A   1      43.560  31.436  31.251  1.00  0.00     0.031 A 
ATOM     54  C   UNL A   1      42.535  25.059  28.573  1.00  0.00     0.031 A 
ATOM     55  C   UNL A   1      44.710  30.570  31.275  1.00  0.00     0.049 A 
ATOM     56  C   UNL A   1      43.895  25.516  29.045  1.00  0.00     0.074 A 
ATOM     57  C   UNL A   1      45.969  30.833  31.785  1.00  0.00     0.029 A 
ATOM     58  N   UNL A   1      44.749  29.285  30.756  1.00  0.00    -0.354 N 
ATOM     59  N   UNL A   1      44.234  26.646  29.620  1.00  0.00    -0.248 NA
ATOM     60  C   UNL A   1      45.016  24.584  28.849  1.00  0.00     0.031 C 
ATOM     61  C   UNL A   1      46.791  29.738  31.507  1.00  0.00     0.029 A 
ATOM     62  C   UNL A   1      46.025  28.763  30.890  1.00  0.00     0.049 A 
ATOM     63  H   UNL A   1      43.985  28.815  30.353  1.00  0.00     0.167 HD
ATOM     64  C   UNL A   1      45.598  26.547  29.877  1.00  0.00     0.074 A 
ATOM     65  C   UNL A   1      46.018  25.241  29.419  1.00  0.00     0.031 C 
ATOM     66  C   UNL A   1      46.432  27.459  30.437  1.00  0.00     0.031 A 
BRANCH  53  67
ATOM     67  C   UNL A   1      43.742  32.843  31.751  1.00  0.00    -0.014 A 
ATOM     68  C   UNL A   1      44.174  33.874  30.900  1.00  0.00     0.010 A 
ATOM     69  C   UNL A   1      43.365  33.156  33.071  1.00  0.00     0.010 A 
ATOM     70  C   UNL A   1      44.228  35.193  31.362  1.00  0.00     0.020 A 
ATOM     71  C   UNL A   1      43.393  34.475  33.528  1.00  0.00     0.020 A 
ATOM     72  C   UNL A   1      43.828  35.486  32.670  1.00  0.00     0.054 A 
BRANCH  72  73
ATOM     73  S   UNL A   1      43.829  37.217  33.214  1.00  0.00     0.124 S 
ATOM     74  O   UNL A   1      42.635  37.269  34.054  1.00  0.00    -0.237 OA
ATOM     75  O   UNL A   1      45.101  37.327  33.922  1.00  0.00    -0.237 OA
ATOM     76  O   UNL A   1      43.745  37.973  31.968  1.00  0.00    -0.744 OA
ENDBRANCH  72  73
ENDBRANCH  53  67
BRANCH  54  77
ATOM     77  C   UNL A   1      42.381  23.726  27.921  1.00  0.00    -0.014 A 
ATOM     78  C   UNL A   1      41.938  22.609  28.652  1.00  0.00     0.010 A 
ATOM     79  C   UNL A   1      42.742  23.555  26.571  1.00  0.00     0.010 A 
ATOM     80  C   UNL A   1      41.902  21.342  28.061  1.00  0.00     0.020 A 
ATOM     81  C   UNL A   1      42.673  22.296  25.966  1.00  0.00     0.020 A 
ATOM     82  C   UNL A   1      42.275  21.193  26.721  1.00  0.00     0.054 A 
BRANCH  82  83
ATOM     83  S   UNL A   1      42.218  19.541  25.973  1.00  0.00     0.124 S 
ATOM     84  O   UNL A   1      42.714  18.701  27.058  1.00  0.00    -0.237 OA
ATOM     85  O   UNL A   1      40.802  19.390  25.650  1.00  0.00    -0.237 OA
ATOM     86  O   UNL A   1      43.104  19.660  24.817  1.00  0.00    -0.744 OA
ENDBRANCH  82  83
ENDBRANCH  54  77
BRANCH  66  87
ATOM     87  C   UNL A   1      47.877  27.071  30.620  1.00  0.00    -0.014 A 
ATOM     88  C   UNL A   1      48.872  27.530  29.738  1.00  0.00     0.010 A 
ATOM     89  C   UNL A   1      48.254  26.289  31.728  1.00  0.00     0.010 A 
ATOM     90  C   UNL A   1      50.212  27.189  29.946  1.00  0.00     0.020 A 
ATOM     91  C   UNL A   1      49.596  25.975  31.958  1.00  0.00     0.020 A 
ATOM     92  C   UNL A   1      50.566  26.417  31.056  1.00  0.00     0.054 A 
BRANCH  92  93
ATOM     93  S   UNL A   1      52.318  26.033  31.328  1.00  0.00     0.124 S 
ATOM     94  O   UNL A   1      52.746  27.143  32.174  1.00  0.00    -0.237 OA
ATOM     95  O   UNL A   1      52.262  24.728  31.982  1.00  0.00    -0.237 OA
ATOM     96  O   UNL A   1      52.885  26.023  29.980  1.00  0.00    -0.744 OA
ENDBRANCH  92  93
ENDBRANCH  66  87
ENDBRANCH  40  41
ENDBRANCH  33  35
ENDBRANCH  32  33
ENDBRANCH  31  32
ENDBRANCH  30  31
ENDBRANCH  29  30
ENDBRANCH  28  29
ENDBRANCH   1  28
TORSDOF 24
ENDMDL
MODEL 2
REMARK VINA RESULT:      -8.8      2.600      3.927
REMARK SMILES Nc1ccc(C(=O)NC[C@@H]2CC[C@@H](C(=O)OCCOCCOCCOC(=O)c3ccc(-c4c5nc(c(-c6ccc(S(=O)(=O)[O-])cc6)c6ccc([nH]6)c(-c6ccc(S(=O)(=O)[O-])cc6)c6nc(c(-c7ccc(S(=O)(=O)[O-])cc7)c7ccc4[nH]7)C=C6)C=C5)cc3)O2)cc1Cl
REMARK SMILES IDX 20 1 19 2 18 3 17 4 16 5 14 6 15 7 13 8 10 9 11 10 88 11
REMARK SMILES IDX 12 12 9 13 8 14 6 15 7 16 5 18 2 19 3 20 90 21 4 22 89 23
REMARK SMILES IDX 91 24 1 25 21 28 22 29 23 30 24 31 25 32 26 33 27 34 28 35
REMARK SMILES IDX 29 36 87 37 30 38 86 39 31 40 32 41 33 42 80 43 34 44 85 45
REMARK SMILES IDX 79 46 81 47 35 48 84 49 78 50 77 51 36 53 66 54 47 55 65 56
REMARK SMILES IDX 48 57 51 58 64 59 82 60 49 61 50 62 63 64 83 65 52 66 37 67
REMARK SMILES IDX 38 68 46 69 39 70 45 71 40 72 41 73 42 74 43 75 44 76 67 77
REMARK SMILES IDX 68 78 76 79 69 80 75 81 70 82 71 83 72 84 73 85 74 86 53 87
REMARK SMILES IDX 54 88 62 89 55 90 61 91 56 92 57 93 58 94 59 95 60 96
REMARK H PARENT 8 17 1 26 1 27 81 52 51 63
REMARK Flexibility Score: inf
ROOT
ATOM      1  C   UNL A   1      30.885  27.343  24.854  1.00  0.00     0.188 C 
ENDROOT
BRANCH   1   2
ATOM      2  O   UNL A   1      31.662  26.767  25.893  1.00  0.00    -0.376 OA
BRANCH   2   3
ATOM      3  C   UNL A   1      31.187  25.608  26.572  1.00  0.00     0.202 C 
BRANCH   3   4
ATOM      4  C   UNL A   1      32.121  24.419  26.853  1.00  0.00     0.261 C 
BRANCH   4   5
ATOM      5  O   UNL A   1      31.482  23.361  27.577  1.00  0.00    -0.461 OA
BRANCH   5   6
ATOM      6  C   UNL A   1      30.287  22.925  27.086  1.00  0.00     0.335 C 
ATOM      7  O   UNL A   1      29.190  23.207  27.547  1.00  0.00    -0.249 OA
BRANCH   6   8
ATOM      8  C   UNL A   1      30.510  22.105  25.812  1.00  0.00     0.228 C 
ATOM      9  C   UNL A   1      31.930  22.602  24.032  1.00  0.00     0.138 C 
ATOM     10  C   UNL A   1      32.322  21.228  24.554  1.00  0.00     0.037 C 
ATOM     11  O   UNL A   1      30.668  22.915  24.644  1.00  0.00    -0.361 OA
ATOM     12  C   UNL A   1      31.760  21.238  25.951  1.00  0.00     0.047 C 
BRANCH   9  13
ATOM     13  C   UNL A   1      31.805  22.753  22.505  1.00  0.00     0.148 C 
BRANCH  13  14
ATOM     14  N   UNL A   1      32.459  23.931  21.961  1.00  0.00    -0.349 N 
ATOM     15  C   UNL A   1      33.549  24.683  22.297  1.00  0.00     0.251 C 
ATOM     16  O   UNL A   1      33.783  25.642  21.556  1.00  0.00    -0.269 OA
ATOM     17  H   UNL A   1      32.006  24.269  21.155  1.00  0.00     0.163 HD
BRANCH  15  18
ATOM     18  C   UNL A   1      34.471  24.439  23.447  1.00  0.00     0.041 A 
ATOM     19  C   UNL A   1      36.330  23.755  25.496  1.00  0.00     0.050 A 
ATOM     20  C   UNL A   1      35.464  24.843  25.635  1.00  0.00     0.028 A 
ATOM     21  C   UNL A   1      36.245  22.999  24.319  1.00  0.00     0.064 A 
ATOM     22  C   UNL A   1      34.562  25.198  24.615  1.00  0.00     0.016 A 
ATOM     23  C   UNL A   1      35.341  23.340  23.310  1.00  0.00     0.036 A 
ATOM     24  Cl  UNL A   1      37.272  21.627  24.076  1.00  0.00    -0.082 Cl
BRANCH  19  25
ATOM     25  N   UNL A   1      37.145  23.377  26.559  1.00  0.00    -0.398 N 
ATOM     26  H   UNL A   1      37.007  22.509  27.003  1.00  0.00     0.156 HD
ATOM     27  H   UNL A   1      37.861  23.978  26.868  1.00  0.00     0.156 HD
ENDBRANCH  19  25
ENDBRANCH  15  18
ENDBRANCH  13  14
ENDBRANCH   9  13
ENDBRANCH   6   8
ENDBRANCH   5   6
ENDBRANCH   4   5
ENDBRANCH   3   4
ENDBRANCH   2   3
ENDBRANCH   1   2
BRANCH   1  28
ATOM     28  C   UNL A   1      31.571  28.237  23.801  1.00  0.00     0.188 C 
BRANCH  28  29
ATOM     29  O   UNL A   1      32.314  29.322  24.297  1.00  0.00    -0.376 OA
BRANCH  29  30
ATOM     30  C   UNL A   1      31.825  30.051  25.412  1.00  0.00     0.202 C 
BRANCH  30  31
ATOM     31  C   UNL A   1      32.424  30.049  26.838  1.00  0.00     0.261 C 
BRANCH  31  32
ATOM     32  O   UNL A   1      33.846  30.086  26.998  1.00  0.00    -0.460 OA
BRANCH  32  33
ATOM     33  C   UNL A   1      34.360  31.192  27.589  1.00  0.00     0.338 C 
ATOM     34  O   UNL A   1      33.846  32.303  27.643  1.00  0.00    -0.246 OA
BRANCH  33  35
ATOM     35  C   UNL A   1      35.563  30.805  28.350  1.00  0.00     0.060 A 
ATOM     36  C   UNL A   1      36.777  31.456  28.086  1.00  0.00     0.016 A 
ATOM     37  C   UNL A   1      35.498  29.800  29.315  1.00  0.00     0.016 A 
ATOM     38  C   UNL A   1      37.928  31.110  28.796  1.00  0.00     0.010 A 
ATOM     39  C   UNL A   1      36.660  29.435  30.005  1.00  0.00     0.010 A 
ATOM     40  C   UNL A   1      37.884  30.080  29.744  1.00  0.00    -0.014 A 
BRANCH  40  41
ATOM     41  C   UNL A   1      39.130  29.591  30.388  1.00  0.00     0.031 A 
ATOM     42  C   UNL A   1      39.662  30.319  31.593  1.00  0.00     0.074 A 
ATOM     43  C   UNL A   1      39.794  28.530  29.892  1.00  0.00     0.049 A 
ATOM     44  N   UNL A   1      40.780  30.132  32.243  1.00  0.00    -0.248 NA
ATOM     45  C   UNL A   1      38.824  31.403  32.134  1.00  0.00     0.031 C 
ATOM     46  C   UNL A   1      39.364  27.714  28.756  1.00  0.00     0.029 A 
ATOM     47  N   UNL A   1      40.991  27.968  30.271  1.00  0.00    -0.354 N 
ATOM     48  C   UNL A   1      40.796  31.088  33.252  1.00  0.00     0.074 A 
ATOM     49  C   UNL A   1      39.577  31.857  33.127  1.00  0.00     0.031 C 
ATOM     50  C   UNL A   1      40.297  26.774  28.515  1.00  0.00     0.029 A 
ATOM     51  C   UNL A   1      41.407  26.947  29.449  1.00  0.00     0.049 A 
ATOM     52  H   UNL A   1      41.501  28.270  31.057  1.00  0.00     0.167 HD
ATOM     53  C   UNL A   1      41.744  31.308  34.192  1.00  0.00     0.031 A 
ATOM     54  C   UNL A   1      42.567  26.259  29.425  1.00  0.00     0.031 A 
ATOM     55  C   UNL A   1      42.956  30.541  34.316  1.00  0.00     0.049 A 
ATOM     56  C   UNL A   1      43.638  26.578  30.442  1.00  0.00     0.074 A 
ATOM     57  C   UNL A   1      43.950  30.660  35.271  1.00  0.00     0.029 A 
ATOM     58  N   UNL A   1      43.347  29.527  33.456  1.00  0.00    -0.354 N 
ATOM     59  N   UNL A   1      43.610  27.443  31.428  1.00  0.00    -0.248 NA
ATOM     60  C   UNL A   1      44.898  25.826  30.341  1.00  0.00     0.031 C 
ATOM     61  C   UNL A   1      44.979  29.772  34.945  1.00  0.00     0.029 A 
ATOM     62  C   UNL A   1      44.591  29.048  33.829  1.00  0.00     0.049 A 
ATOM     63  H   UNL A   1      42.820  29.198  32.694  1.00  0.00     0.167 HD
ATOM     64  C   UNL A   1      44.836  27.319  32.077  1.00  0.00     0.074 A 
ATOM     65  C   UNL A   1      45.571  26.280  31.390  1.00  0.00     0.031 C 
ATOM     66  C   UNL A   1      45.313  28.008  33.144  1.00  0.00     0.031 A 
BRANCH  53  67
ATOM     67  C   UNL A   1      41.547  32.452  35.149  1.00  0.00    -0.014 A 
ATOM     68  C   UNL A   1      40.967  32.259  36.414  1.00  0.00     0.010 A 
ATOM     69  C   UNL A   1      42.058  33.721  34.815  1.00  0.00     0.010 A 
ATOM     70  C   UNL A   1      40.898  33.316  37.327  1.00  0.00     0.020 A 
ATOM     71  C   UNL A   1      42.014  34.773  35.733  1.00  0.00     0.020 A 
ATOM     72  C   UNL A   1      41.431  34.563  36.984  1.00  0.00     0.054 A 
BRANCH  72  73
ATOM     73  S   UNL A   1      41.402  35.891  38.219  1.00  0.00     0.124 S 
ATOM     74  O   UNL A   1      42.812  36.265  38.293  1.00  0.00    -0.237 OA
ATOM     75  O   UNL A   1      40.522  36.880  37.603  1.00  0.00    -0.237 OA
ATOM     76  O   UNL A   1      40.868  35.244  39.414  1.00  0.00    -0.744 OA
ENDBRANCH  72  73
ENDBRANCH  53  67
BRANCH  54  77
ATOM     77  C   UNL A   1      42.824  25.239  28.367  1.00  0.00    -0.014 A 
ATOM     78  C   UNL A   1      42.559  23.877  28.595  1.00  0.00     0.010 A 
ATOM     79  C   UNL A   1      43.399  25.624  27.141  1.00  0.00     0.010 A 
ATOM     80  C   UNL A   1      42.905  22.917  27.639  1.00  0.00     0.020 A 
ATOM     81  C   UNL A   1      43.713  24.671  26.167  1.00  0.00     0.020 A 
ATOM     82  C   UNL A   1      43.484  23.320  26.432  1.00  0.00     0.054 A 
BRANCH  82  83
ATOM     83  S   UNL A   1      43.922  22.058  25.205  1.00  0.00     0.124 S 
ATOM     84  O   UNL A   1      43.777  22.791  23.952  1.00  0.00    -0.237 OA
ATOM     85  O   UNL A   1      45.289  21.712  25.582  1.00  0.00    -0.237 OA
ATOM     86  O   UNL A   1      42.935  21.004  25.432  1.00  0.00    -0.744 OA
ENDBRANCH  82  83
ENDBRANCH  54  77
BRANCH  66  87
ATOM     87  C   UNL A   1      46.681  27.644  33.660  1.00  0.00    -0.014 A 
ATOM     88  C   UNL A   1      47.834  28.310  33.205  1.00  0.00     0.010 A 
ATOM     89  C   UNL A   1      46.809  26.666  34.664  1.00  0.00     0.010 A 
ATOM     90  C   UNL A   1      49.090  27.983  33.724  1.00  0.00     0.020 A 
ATOM     91  C   UNL A   1      48.059  26.360  35.209  1.00  0.00     0.020 A 
ATOM     92  C   UNL A   1      49.195  27.013  34.725  1.00  0.00     0.054 A 
BRANCH  92  93
ATOM     93  S   UNL A   1      50.832  26.645  35.415  1.00  0.00     0.124 S 
ATOM     94  O   UNL A   1      51.601  26.318  34.218  1.00  0.00    -0.237 OA
ATOM     95  O   UNL A   1      51.192  27.899  36.070  1.00  0.00    -0.237 OA
ATOM     96  O   UNL A   1      50.584  25.525  36.320  1.00  0.00    -0.744 OA
ENDBRANCH  92  93
ENDBRANCH  66  87
ENDBRANCH  40  41
ENDBRANCH  33  35
ENDBRANCH  32  33
ENDBRANCH  31  32
ENDBRANCH  30  31
ENDBRANCH  29  30
ENDBRANCH  28  29
ENDBRANCH   1  28
TORSDOF 24
ENDMDL
MODEL 3
REMARK VINA RESULT:      -8.1      6.353     15.687
REMARK SMILES Nc1ccc(C(=O)NC[C@@H]2CC[C@@H](C(=O)OCCOCCOCCOC(=O)c3ccc(-c4c5nc(c(-c6ccc(S(=O)(=O)[O-])cc6)c6ccc([nH]6)c(-c6ccc(S(=O)(=O)[O-])cc6)c6nc(c(-c7ccc(S(=O)(=O)[O-])cc7)c7ccc4[nH]7)C=C6)C=C5)cc3)O2)cc1Cl
REMARK SMILES IDX 20 1 19 2 18 3 17 4 16 5 14 6 15 7 13 8 10 9 11 10 88 11
REMARK SMILES IDX 12 12 9 13 8 14 6 15 7 16 5 18 2 19 3 20 90 21 4 22 89 23
REMARK SMILES IDX 91 24 1 25 21 28 22 29 23 30 24 31 25 32 26 33 27 34 28 35
REMARK SMILES IDX 29 36 87 37 30 38 86 39 31 40 32 41 33 42 80 43 34 44 85 45
REMARK SMILES IDX 79 46 81 47 35 48 84 49 78 50 77 51 36 53 66 54 47 55 65 56
REMARK SMILES IDX 48 57 51 58 64 59 82 60 49 61 50 62 63 64 83 65 52 66 37 67
REMARK SMILES IDX 38 68 46 69 39 70 45 71 40 72 41 73 42 74 43 75 44 76 67 77
REMARK SMILES IDX 68 78 76 79 69 80 75 81 70 82 71 83 72 84 73 85 74 86 53 87
REMARK SMILES IDX 54 88 62 89 55 90 61 91 56 92 57 93 58 94 59 95 60 96
REMARK H PARENT 8 17 1 26 1 27 81 52 51 63
REMARK Flexibility Score: inf
ROOT
ATOM      1  C   UNL A   1      48.846  27.060  23.937  1.00  0.00     0.188 C 
ENDROOT
BRANCH   1   2
ATOM      2  O   UNL A   1      48.157  28.190  24.450  1.00  0.00    -0.376 OA
BRANCH   2   3
ATOM      3  C   UNL A   1      46.733  28.187  24.503  1.00  0.00     0.202 C 
BRANCH   3   4
ATOM      4  C   UNL A   1      45.981  29.016  25.558  1.00  0.00     0.261 C 
BRANCH   4   5
ATOM      5  O   UNL A   1      46.358  30.398  25.560  1.00  0.00    -0.461 OA
BRANCH   5   6
ATOM      6  C   UNL A   1      45.596  31.234  26.321  1.00  0.00     0.335 C 
ATOM      7  O   UNL A   1      44.406  31.084  26.560  1.00  0.00    -0.249 OA
BRANCH   6   8
ATOM      8  C   UNL A   1      46.468  32.343  26.916  1.00  0.00     0.228 C 
ATOM      9  C   UNL A   1      47.229  34.275  25.857  1.00  0.00     0.138 C 
ATOM     10  C   UNL A   1      46.461  34.710  27.097  1.00  0.00     0.037 C 
ATOM     11  O   UNL A   1      47.429  32.858  25.990  1.00  0.00    -0.361 OA
ATOM     12  C   UNL A   1      45.600  33.510  27.383  1.00  0.00     0.047 C 
BRANCH   9  13
ATOM     13  C   UNL A   1      48.586  34.958  25.608  1.00  0.00     0.148 C 
BRANCH  13  14
ATOM     14  N   UNL A   1      49.648  34.533  26.505  1.00  0.00    -0.349 N 
ATOM     15  C   UNL A   1      50.977  34.249  26.374  1.00  0.00     0.251 C 
ATOM     16  O   UNL A   1      51.552  33.906  27.411  1.00  0.00    -0.269 OA
ATOM     17  H   UNL A   1      49.331  34.423  27.430  1.00  0.00     0.163 HD
BRANCH  15  18
ATOM     18  C   UNL A   1      51.780  34.331  25.117  1.00  0.00     0.041 A 
ATOM     19  C   UNL A   1      53.363  34.758  22.785  1.00  0.00     0.050 A 
ATOM     20  C   UNL A   1      52.776  33.516  23.048  1.00  0.00     0.028 A 
ATOM     21  C   UNL A   1      53.136  35.794  23.701  1.00  0.00     0.064 A 
ATOM     22  C   UNL A   1      52.015  33.296  24.211  1.00  0.00     0.016 A 
ATOM     23  C   UNL A   1      52.368  35.582  24.850  1.00  0.00     0.036 A 
ATOM     24  Cl  UNL A   1      53.814  37.365  23.441  1.00  0.00    -0.082 Cl
BRANCH  19  25
ATOM     25  N   UNL A   1      54.033  34.968  21.584  1.00  0.00    -0.398 N 
ATOM     26  H   UNL A   1      54.169  34.220  20.958  1.00  0.00     0.156 HD
ATOM     27  H   UNL A   1      54.374  35.864  21.360  1.00  0.00     0.156 HD
ENDBRANCH  19  25
ENDBRANCH  15  18
ENDBRANCH  13  14
ENDBRANCH   9  13
ENDBRANCH   6   8
ENDBRANCH   5   6
ENDBRANCH   4   5
ENDBRANCH   3   4
ENDBRANCH   2   3
ENDBRANCH   1   2
BRANCH   1  28
ATOM     28  C   UNL A   1      50.178  26.626  24.585  1.00  0.00     0.188 C 
BRANCH  28  29
ATOM     29  O   UNL A   1      51.349  27.009  23.911  1.00  0.00    -0.376 OA
BRANCH  29  30
ATOM     30  C   UNL A   1      52.152  28.052  24.444  1.00  0.00     0.202 C 
BRANCH  30  31
ATOM     31  C   UNL A   1      53.095  27.945  25.664  1.00  0.00     0.261 C 
BRANCH  31  32
ATOM     32  O   UNL A   1      52.701  28.537  26.906  1.00  0.00    -0.460 OA
BRANCH  32  33
ATOM     33  C   UNL A   1      52.189  27.700  27.840  1.00  0.00     0.338 C 
ATOM     34  O   UNL A   1      52.765  26.767  28.387  1.00  0.00    -0.246 OA
BRANCH  33  35
ATOM     35  C   UNL A   1      50.869  28.210  28.259  1.00  0.00     0.060 A 
ATOM     36  C   UNL A   1      50.370  27.860  29.522  1.00  0.00     0.016 A 
ATOM     37  C   UNL A   1      50.122  29.024  27.408  1.00  0.00     0.016 A 
ATOM     38  C   UNL A   1      49.126  28.334  29.942  1.00  0.00     0.010 A 
ATOM     39  C   UNL A   1      48.863  29.475  27.820  1.00  0.00     0.010 A 
ATOM     40  C   UNL A   1      48.352  29.126  29.084  1.00  0.00    -0.014 A 
BRANCH  40  41
ATOM     41  C   UNL A   1      46.963  29.501  29.450  1.00  0.00     0.031 A 
ATOM     42  C   UNL A   1      45.845  28.536  29.157  1.00  0.00     0.074 A 
ATOM     43  C   UNL A   1      46.694  30.696  30.011  1.00  0.00     0.049 A 
ATOM     44  N   UNL A   1      44.556  28.701  29.294  1.00  0.00    -0.248 NA
ATOM     45  C   UNL A   1      46.233  27.214  28.639  1.00  0.00     0.031 C 
ATOM     46  C   UNL A   1      47.690  31.702  30.383  1.00  0.00     0.029 A 
ATOM     47  N   UNL A   1      45.493  31.274  30.349  1.00  0.00    -0.354 N 
ATOM     48  C   UNL A   1      43.975  27.517  28.856  1.00  0.00     0.074 A 
ATOM     49  C   UNL A   1      45.052  26.642  28.445  1.00  0.00     0.031 C 
ATOM     50  C   UNL A   1      47.055  32.784  30.871  1.00  0.00     0.029 A 
ATOM     51  C   UNL A   1      45.612  32.565  30.808  1.00  0.00     0.049 A 
ATOM     52  H   UNL A   1      44.630  30.808  30.268  1.00  0.00     0.167 HD
ATOM     53  C   UNL A   1      42.663  27.192  28.796  1.00  0.00     0.031 A 
ATOM     54  C   UNL A   1      44.666  33.481  31.104  1.00  0.00     0.031 A 
ATOM     55  C   UNL A   1      41.593  28.062  29.207  1.00  0.00     0.049 A 
ATOM     56  C   UNL A   1      43.208  33.113  30.956  1.00  0.00     0.074 A 
ATOM     57  C   UNL A   1      40.234  27.797  29.230  1.00  0.00     0.029 A 
ATOM     58  N   UNL A   1      41.753  29.365  29.651  1.00  0.00    -0.354 N 
ATOM     59  N   UNL A   1      42.677  31.967  30.599  1.00  0.00    -0.248 NA
ATOM     60  C   UNL A   1      42.222  34.164  31.251  1.00  0.00     0.031 C 
ATOM     61  C   UNL A   1      39.567  28.963  29.613  1.00  0.00     0.029 A 
ATOM     62  C   UNL A   1      40.515  29.932  29.901  1.00  0.00     0.049 A 
ATOM     63  H   UNL A   1      42.617  29.819  29.770  1.00  0.00     0.167 HD
ATOM     64  C   UNL A   1      41.298  32.155  30.653  1.00  0.00     0.074 A 
ATOM     65  C   UNL A   1      41.076  33.512  31.099  1.00  0.00     0.031 C 
ATOM     66  C   UNL A   1      40.304  31.283  30.353  1.00  0.00     0.031 A 
BRANCH  53  67
ATOM     67  C   UNL A   1      42.285  25.851  28.226  1.00  0.00    -0.014 A 
ATOM     68  C   UNL A   1      41.967  25.696  26.866  1.00  0.00     0.010 A 
ATOM     69  C   UNL A   1      42.362  24.710  29.047  1.00  0.00     0.010 A 
ATOM     70  C   UNL A   1      41.729  24.422  26.339  1.00  0.00     0.020 A 
ATOM     71  C   UNL A   1      42.150  23.435  28.519  1.00  0.00     0.020 A 
ATOM     72  C   UNL A   1      41.831  23.300  27.168  1.00  0.00     0.054 A 
BRANCH  72  73
ATOM     73  S   UNL A   1      41.600  21.655  26.437  1.00  0.00     0.124 S 
ATOM     74  O   UNL A   1      42.103  20.782  27.495  1.00  0.00    -0.237 OA
ATOM     75  O   UNL A   1      40.158  21.606  26.215  1.00  0.00    -0.237 OA
ATOM     76  O   UNL A   1      42.413  21.694  25.225  1.00  0.00    -0.744 OA
ENDBRANCH  72  73
ENDBRANCH  53  67
BRANCH  54  77
ATOM     77  C   UNL A   1      45.048  34.865  31.509  1.00  0.00    -0.014 A 
ATOM     78  C   UNL A   1      45.240  35.874  30.548  1.00  0.00     0.010 A 
ATOM     79  C   UNL A   1      45.286  35.163  32.864  1.00  0.00     0.010 A 
ATOM     80  C   UNL A   1      45.704  37.137  30.928  1.00  0.00     0.020 A 
ATOM     81  C   UNL A   1      45.715  36.435  33.252  1.00  0.00     0.020 A 
ATOM     82  C   UNL A   1      45.943  37.408  32.279  1.00  0.00     0.054 A 
BRANCH  82  83
ATOM     83  S   UNL A   1      46.543  39.054  32.750  1.00  0.00     0.124 S 
ATOM     84  O   UNL A   1      47.767  39.167  31.965  1.00  0.00    -0.237 OA
ATOM     85  O   UNL A   1      45.442  39.921  32.337  1.00  0.00    -0.237 OA
ATOM     86  O   UNL A   1      46.733  38.948  34.195  1.00  0.00    -0.744 OA
ENDBRANCH  82  83
ENDBRANCH  54  77
BRANCH  66  87
ATOM     87  C   UNL A   1      38.882  31.752  30.527  1.00  0.00    -0.014 A 
ATOM     88  C   UNL A   1      38.193  31.559  31.739  1.00  0.00     0.010 A 
ATOM     89  C   UNL A   1      38.248  32.455  29.486  1.00  0.00     0.010 A 
ATOM     90  C   UNL A   1      36.887  32.035  31.893  1.00  0.00     0.020 A 
ATOM     91  C   UNL A   1      36.955  32.960  29.648  1.00  0.00     0.020 A 
ATOM     92  C   UNL A   1      36.278  32.735  30.848  1.00  0.00     0.054 A 
BRANCH  92  93
ATOM     93  S   UNL A   1      34.602  33.384  31.095  1.00  0.00     0.124 S 
ATOM     94  O   UNL A   1      33.987  33.145  29.792  1.00  0.00    -0.237 OA
ATOM     95  O   UNL A   1      34.098  32.560  32.189  1.00  0.00    -0.237 OA
ATOM     96  O   UNL A   1      34.820  34.790  31.431  1.00  0.00    -0.744 OA
ENDBRANCH  92  93
ENDBRANCH  66  87
ENDBRANCH  40  41
ENDBRANCH  33  35
ENDBRANCH  32  33
ENDBRANCH  31  32
ENDBRANCH  30  31
ENDBRANCH  29  30
ENDBRANCH  28  29
ENDBRANCH   1  28
TORSDOF 24
ENDMDL
