MODEL 1
REMARK VINA RESULT:     -11.8      0.000      0.000
REMARK SMILES COc1ccc(NC(=O)c2nn(C)cc2C(=O)OCCOCCOCCOC(=O)c2ccc(-c3c4nc(c(-c5ccc(S(=O)(=O)[O-])cc5)c5ccc([nH]5)c(-c5ccc(S(=O)(=O)[O-])cc5)c5nc(c(-c6ccc(S(=O)(=O)[O-])cc6)c6ccc3[nH]6)C=C5)C=C4)cc2)c(C)c1
REMARK SMILES IDX 22 1 21 2 20 3 19 4 18 5 16 6 17 7 15 8 10 9 11 10 12 11
REMARK SMILES IDX 14 12 13 13 8 14 7 15 9 17 6 18 3 19 4 20 92 21 5 22 90 23
REMARK SMILES IDX 91 24 2 25 1 26 23 27 24 28 25 29 26 30 27 31 28 32 29 33
REMARK SMILES IDX 30 34 31 35 89 36 32 37 88 38 33 39 34 40 35 41 82 42 36 43
REMARK SMILES IDX 87 44 81 45 83 46 37 47 86 48 80 49 79 50 38 52 68 53 49 54
REMARK SMILES IDX 67 55 50 56 53 57 66 58 84 59 51 60 52 61 65 63 85 64 54 65
REMARK SMILES IDX 39 66 40 67 48 68 41 69 47 70 42 71 43 72 44 73 45 74 46 75
REMARK SMILES IDX 69 76 70 77 78 78 71 79 77 80 72 81 73 82 74 83 75 84 76 85
REMARK SMILES IDX 55 86 56 87 64 88 57 89 63 90 58 91 59 92 60 93 61 94 62 95
REMARK H PARENT 7 16 83 51 53 62
REMARK Flexibility Score: inf
ROOT
ATOM      1  C   UNL A   1      33.876  31.470  28.042  1.00  0.00     0.188 C 
ENDROOT
BRANCH   1   2
ATOM      2  O   UNL A   1      33.170  30.832  26.926  1.00  0.00    -0.376 OA
BRANCH   2   3
ATOM      3  C   UNL A   1      32.191  29.738  26.817  1.00  0.00     0.202 C 
BRANCH   3   4
ATOM      4  C   UNL A   1      32.155  27.871  26.988  1.00  0.00     0.261 C 
BRANCH   4   5
ATOM      5  O   UNL A   1      31.328  26.546  26.052  1.00  0.00    -0.460 OA
BRANCH   5   6
ATOM      6  C   UNL A   1      31.540  25.640  24.756  1.00  0.00     0.342 C 
ATOM      7  O   UNL A   1      31.167  24.480  24.624  1.00  0.00    -0.246 OA
BRANCH   6   8
ATOM      8  C   UNL A   1      32.163  26.143  23.525  1.00  0.00     0.111 A 
ATOM      9  C   UNL A   1      32.944  25.416  22.407  1.00  0.00     0.165 A 
ATOM     10  N   UNL A   1      33.636  26.385  21.748  1.00  0.00    -0.167 NA
ATOM     11  N   UNL A   1      33.489  27.503  22.488  1.00  0.00    -0.274 N 
ATOM     12  C   UNL A   1      32.503  27.467  23.418  1.00  0.00     0.125 A 
ATOM     13  C   UNL A   1      34.450  28.578  22.384  1.00  0.00     0.173 C 
BRANCH   9  14
ATOM     14  C   UNL A   1      33.366  23.913  22.111  1.00  0.00     0.277 C 
ATOM     15  N   UNL A   1      33.851  22.812  22.955  1.00  0.00    -0.320 N 
ATOM     16  H   UNL A   1      33.800  21.962  22.460  1.00  0.00     0.170 HD
ATOM     17  O   UNL A   1      33.280  23.570  20.919  1.00  0.00    -0.267 OA
BRANCH  15  18
ATOM     18  C   UNL A   1      34.382  22.579  24.289  1.00  0.00     0.044 A 
ATOM     19  C   UNL A   1      36.743  22.206  25.760  1.00  0.00     0.119 A 
ATOM     20  C   UNL A   1      35.913  23.317  26.008  1.00  0.00     0.048 A 
ATOM     21  C   UNL A   1      36.007  21.118  25.379  1.00  0.00     0.052 A 
ATOM     22  C   UNL A   1      34.745  23.542  25.200  1.00  0.00     0.030 A 
ATOM     23  C   UNL A   1      34.786  21.294  24.700  1.00  0.00    -0.024 A 
ATOM     24  C   UNL A   1      33.912  20.096  24.709  1.00  0.00     0.047 C 
BRANCH  19  25
ATOM     25  O   UNL A   1      38.092  21.958  25.744  1.00  0.00    -0.497 OA
ATOM     26  C   UNL A   1      39.437  22.209  26.349  1.00  0.00     0.278 C 
ENDBRANCH  19  25
ENDBRANCH  15  18
ENDBRANCH   9  14
ENDBRANCH   6   8
ENDBRANCH   5   6
ENDBRANCH   4   5
ENDBRANCH   3   4
ENDBRANCH   2   3
ENDBRANCH   1   2
BRANCH   1  27
ATOM     27  C   UNL A   1      34.234  33.064  28.392  1.00  0.00     0.188 C 
BRANCH  27  28
ATOM     28  O   UNL A   1      33.273  34.160  28.301  1.00  0.00    -0.376 OA
BRANCH  28  29
ATOM     29  C   UNL A   1      33.159  35.275  29.320  1.00  0.00     0.202 C 
BRANCH  29  30
ATOM     30  C   UNL A   1      33.432  35.272  31.114  1.00  0.00     0.261 C 
BRANCH  30  31
ATOM     31  O   UNL A   1      34.809  35.378  32.121  1.00  0.00    -0.460 OA
BRANCH  31  32
ATOM     32  C   UNL A   1      35.982  34.812  32.777  1.00  0.00     0.338 C 
ATOM     33  O   UNL A   1      35.926  34.675  34.003  1.00  0.00    -0.246 OA
BRANCH  32  34
ATOM     34  C   UNL A   1      37.292  34.162  32.115  1.00  0.00     0.060 A 
ATOM     35  C   UNL A   1      38.615  34.181  32.532  1.00  0.00     0.016 A 
ATOM     36  C   UNL A   1      37.269  33.863  30.812  1.00  0.00     0.016 A 
ATOM     37  C   UNL A   1      39.803  34.587  31.700  1.00  0.00     0.010 A 
ATOM     38  C   UNL A   1      38.348  34.425  30.053  1.00  0.00     0.010 A 
ATOM     39  C   UNL A   1      39.738  34.727  30.354  1.00  0.00    -0.014 A 
BRANCH  39  40
ATOM     40  C   UNL A   1      41.131  34.723  29.305  1.00  0.00     0.031 A 
ATOM     41  C   UNL A   1      42.437  33.483  29.140  1.00  0.00     0.074 A 
ATOM     42  C   UNL A   1      41.545  35.816  28.606  1.00  0.00     0.049 A 
ATOM     43  N   UNL A   1      43.400  33.499  28.244  1.00  0.00    -0.248 NA
ATOM     44  C   UNL A   1      42.734  32.212  29.998  1.00  0.00     0.031 C 
ATOM     45  C   UNL A   1      42.156  35.683  27.278  1.00  0.00     0.029 A 
ATOM     46  N   UNL A   1      41.598  37.197  28.854  1.00  0.00    -0.354 N 
ATOM     47  C   UNL A   1      44.092  32.285  28.316  1.00  0.00     0.074 A 
ATOM     48  C   UNL A   1      43.851  31.686  29.554  1.00  0.00     0.031 C 
ATOM     49  C   UNL A   1      42.720  36.838  26.923  1.00  0.00     0.029 A 
ATOM     50  C   UNL A   1      42.631  37.741  28.052  1.00  0.00     0.049 A 
ATOM     51  H   UNL A   1      41.022  37.697  29.475  1.00  0.00     0.167 HD
ATOM     52  C   UNL A   1      44.687  31.701  27.253  1.00  0.00     0.031 A 
ATOM     53  C   UNL A   1      43.612  38.627  28.383  1.00  0.00     0.031 A 
ATOM     54  C   UNL A   1      45.238  32.731  26.425  1.00  0.00     0.049 A 
ATOM     55  C   UNL A   1      45.028  38.175  27.991  1.00  0.00     0.074 A 
ATOM     56  C   UNL A   1      44.964  33.316  25.211  1.00  0.00     0.029 A 
ATOM     57  N   UNL A   1      46.087  33.592  27.087  1.00  0.00    -0.354 N 
ATOM     58  N   UNL A   1      45.330  37.146  27.241  1.00  0.00    -0.248 NA
ATOM     59  C   UNL A   1      46.228  38.797  28.569  1.00  0.00     0.031 C 
ATOM     60  C   UNL A   1      45.650  34.577  25.186  1.00  0.00     0.029 A 
ATOM     61  C   UNL A   1      46.384  34.707  26.355  1.00  0.00     0.049 A 
ATOM     62  H   UNL A   1      46.442  33.422  27.990  1.00  0.00     0.167 HD
ATOM     63  C   UNL A   1      46.664  36.849  27.411  1.00  0.00     0.074 A 
ATOM     64  C   UNL A   1      47.192  37.935  28.212  1.00  0.00     0.031 C 
ATOM     65  C   UNL A   1      47.241  35.680  27.006  1.00  0.00     0.031 A 
BRANCH  52  66
ATOM     66  C   UNL A   1      44.665  30.192  27.026  1.00  0.00    -0.014 A 
ATOM     67  C   UNL A   1      45.879  29.492  26.957  1.00  0.00     0.010 A 
ATOM     68  C   UNL A   1      43.509  29.429  26.699  1.00  0.00     0.010 A 
ATOM     69  C   UNL A   1      45.938  28.144  26.544  1.00  0.00     0.020 A 
ATOM     70  C   UNL A   1      43.546  28.077  26.331  1.00  0.00     0.020 A 
ATOM     71  C   UNL A   1      44.772  27.446  26.225  1.00  0.00     0.054 A 
BRANCH  71  72
ATOM     72  S   UNL A   1      44.867  25.750  25.591  1.00  0.00     0.124 S 
ATOM     73  O   UNL A   1      45.135  24.980  26.803  1.00  0.00    -0.237 OA
ATOM     74  O   UNL A   1      43.549  25.558  24.996  1.00  0.00    -0.237 OA
ATOM     75  O   UNL A   1      45.975  25.795  24.637  1.00  0.00    -0.744 OA
ENDBRANCH  71  72
ENDBRANCH  52  66
BRANCH  53  76
ATOM     76  C   UNL A   1      43.359  39.590  29.482  1.00  0.00    -0.014 A 
ATOM     77  C   UNL A   1      43.890  39.342  30.766  1.00  0.00     0.010 A 
ATOM     78  C   UNL A   1      42.715  40.811  29.243  1.00  0.00     0.010 A 
ATOM     79  C   UNL A   1      43.811  40.312  31.776  1.00  0.00     0.020 A 
ATOM     80  C   UNL A   1      42.646  41.790  30.242  1.00  0.00     0.020 A 
ATOM     81  C   UNL A   1      43.211  41.545  31.499  1.00  0.00     0.054 A 
BRANCH  81  82
ATOM     82  S   UNL A   1      43.499  42.961  32.624  1.00  0.00     0.124 S 
ATOM     83  O   UNL A   1      44.201  42.340  33.736  1.00  0.00    -0.237 OA
ATOM     84  O   UNL A   1      44.302  43.877  31.808  1.00  0.00    -0.237 OA
ATOM     85  O   UNL A   1      42.142  43.432  32.886  1.00  0.00    -0.744 OA
ENDBRANCH  81  82
ENDBRANCH  53  76
BRANCH  65  86
ATOM     86  C   UNL A   1      48.669  35.295  27.351  1.00  0.00    -0.014 A 
ATOM     87  C   UNL A   1      48.986  34.673  28.566  1.00  0.00     0.010 A 
ATOM     88  C   UNL A   1      49.756  35.660  26.518  1.00  0.00     0.010 A 
ATOM     89  C   UNL A   1      50.322  34.425  28.927  1.00  0.00     0.020 A 
ATOM     90  C   UNL A   1      51.088  35.440  26.877  1.00  0.00     0.020 A 
ATOM     91  C   UNL A   1      51.364  34.816  28.082  1.00  0.00     0.054 A 
BRANCH  91  92
ATOM     92  S   UNL A   1      53.084  34.583  28.601  1.00  0.00     0.124 S 
ATOM     93  O   UNL A   1      53.358  35.802  29.358  1.00  0.00    -0.237 OA
ATOM     94  O   UNL A   1      53.000  33.359  29.391  1.00  0.00    -0.237 OA
ATOM     95  O   UNL A   1      53.816  34.463  27.342  1.00  0.00    -0.744 OA
ENDBRANCH  91  92
ENDBRANCH  65  86
ENDBRANCH  39  40
ENDBRANCH  32  34
ENDBRANCH  31  32
ENDBRANCH  30  31
ENDBRANCH  29  30
ENDBRANCH  28  29
ENDBRANCH  27  28
ENDBRANCH   1  27
TORSDOF 23
ENDMDL
MODEL 2
REMARK VINA RESULT:     -11.0      1.539      3.649
REMARK SMILES COc1ccc(NC(=O)c2nn(C)cc2C(=O)OCCOCCOCCOC(=O)c2ccc(-c3c4nc(c(-c5ccc(S(=O)(=O)[O-])cc5)c5ccc([nH]5)c(-c5ccc(S(=O)(=O)[O-])cc5)c5nc(c(-c6ccc(S(=O)(=O)[O-])cc6)c6ccc3[nH]6)C=C5)C=C4)cc2)c(C)c1
REMARK SMILES IDX 22 1 21 2 20 3 19 4 18 5 16 6 17 7 15 8 10 9 11 10 12 11
REMARK SMILES IDX 14 12 13 13 8 14 7 15 9 17 6 18 3 19 4 20 92 21 5 22 90 23
REMARK SMILES IDX 91 24 2 25 1 26 23 27 24 28 25 29 26 30 27 31 28 32 29 33
REMARK SMILES IDX 30 34 31 35 89 36 32 37 88 38 33 39 34 40 35 41 82 42 36 43
REMARK SMILES IDX 87 44 81 45 83 46 37 47 86 48 80 49 79 50 38 52 68 53 49 54
REMARK SMILES IDX 67 55 50 56 53 57 66 58 84 59 51 60 52 61 65 63 85 64 54 65
REMARK SMILES IDX 39 66 40 67 48 68 41 69 47 70 42 71 43 72 44 73 45 74 46 75
REMARK SMILES IDX 69 76 70 77 78 78 71 79 77 80 72 81 73 82 74 83 75 84 76 85
REMARK SMILES IDX 55 86 56 87 64 88 57 89 63 90 58 91 59 92 60 93 61 94 62 95
REMARK H PARENT 7 16 83 51 53 62
REMARK Flexibility Score: inf
ROOT
ATOM      1  C   UNL A   1      33.395  32.594  28.156  1.00  0.00     0.188 C 
ENDROOT
BRANCH   1   2
ATOM      2  O   UNL A   1      32.601  31.983  27.084  1.00  0.00    -0.376 OA
BRANCH   2   3
ATOM      3  C   UNL A   1      32.114  30.621  26.811  1.00  0.00     0.202 C 
BRANCH   3   4
ATOM      4  C   UNL A   1      32.591  28.856  27.224  1.00  0.00     0.261 C 
BRANCH   4   5
ATOM      5  O   UNL A   1      32.803  27.351  26.221  1.00  0.00    -0.460 OA
BRANCH   5   6
ATOM      6  C   UNL A   1      32.593  25.772  26.315  1.00  0.00     0.342 C 
ATOM      7  O   UNL A   1      31.651  25.206  26.858  1.00  0.00    -0.246 OA
BRANCH   6   8
ATOM      8  C   UNL A   1      33.500  24.807  25.680  1.00  0.00     0.111 A 
ATOM      9  C   UNL A   1      33.718  24.437  24.195  1.00  0.00     0.165 A 
ATOM     10  N   UNL A   1      34.345  23.230  24.203  1.00  0.00    -0.167 NA
ATOM     11  N   UNL A   1      34.310  22.809  25.484  1.00  0.00    -0.274 N 
ATOM     12  C   UNL A   1      34.002  23.757  26.404  1.00  0.00     0.125 A 
ATOM     13  C   UNL A   1      34.426  21.403  25.794  1.00  0.00     0.173 C 
BRANCH   9  14
ATOM     14  C   UNL A   1      33.117  24.920  22.806  1.00  0.00     0.277 C 
ATOM     15  N   UNL A   1      32.261  26.046  22.409  1.00  0.00    -0.320 N 
ATOM     16  H   UNL A   1      32.274  26.149  21.430  1.00  0.00     0.170 HD
ATOM     17  O   UNL A   1      33.415  24.208  21.831  1.00  0.00    -0.267 OA
BRANCH  15  18
ATOM     18  C   UNL A   1      31.401  27.058  23.004  1.00  0.00     0.044 A 
ATOM     19  C   UNL A   1      29.352  28.899  22.465  1.00  0.00     0.119 A 
ATOM     20  C   UNL A   1      29.136  27.828  23.355  1.00  0.00     0.048 A 
ATOM     21  C   UNL A   1      30.649  29.330  22.521  1.00  0.00     0.052 A 
ATOM     22  C   UNL A   1      30.165  26.846  23.568  1.00  0.00     0.030 A 
ATOM     23  C   UNL A   1      31.678  28.431  22.857  1.00  0.00    -0.024 A 
ATOM     24  C   UNL A   1      32.941  29.087  23.276  1.00  0.00     0.047 C 
BRANCH  19  25
ATOM     25  O   UNL A   1      28.616  29.571  21.523  1.00  0.00    -0.497 OA
ATOM     26  C   UNL A   1      28.136  30.881  20.983  1.00  0.00     0.278 C 
ENDBRANCH  19  25
ENDBRANCH  15  18
ENDBRANCH   9  14
ENDBRANCH   6   8
ENDBRANCH   5   6
ENDBRANCH   4   5
ENDBRANCH   3   4
ENDBRANCH   2   3
ENDBRANCH   1   2
BRANCH   1  27
ATOM     27  C   UNL A   1      33.643  34.179  28.619  1.00  0.00     0.188 C 
BRANCH  27  28
ATOM     28  O   UNL A   1      32.613  35.033  29.205  1.00  0.00    -0.376 OA
BRANCH  28  29
ATOM     29  C   UNL A   1      32.707  35.650  30.585  1.00  0.00     0.202 C 
BRANCH  29  30
ATOM     30  C   UNL A   1      33.864  35.334  31.948  1.00  0.00     0.261 C 
BRANCH  30  31
ATOM     31  O   UNL A   1      35.565  35.229  32.081  1.00  0.00    -0.460 OA
BRANCH  31  32
ATOM     32  C   UNL A   1      36.789  34.751  32.712  1.00  0.00     0.338 C 
ATOM     33  O   UNL A   1      36.789  34.669  33.944  1.00  0.00    -0.246 OA
BRANCH  32  34
ATOM     34  C   UNL A   1      38.102  34.132  32.026  1.00  0.00     0.060 A 
ATOM     35  C   UNL A   1      39.413  34.077  32.477  1.00  0.00     0.016 A 
ATOM     36  C   UNL A   1      38.109  33.959  30.700  1.00  0.00     0.016 A 
ATOM     37  C   UNL A   1      40.633  34.529  31.719  1.00  0.00     0.010 A 
ATOM     38  C   UNL A   1      39.222  34.562  30.026  1.00  0.00     0.010 A 
ATOM     39  C   UNL A   1      40.610  34.797  30.391  1.00  0.00    -0.014 A 
BRANCH  39  40
ATOM     40  C   UNL A   1      42.032  34.857  29.384  1.00  0.00     0.031 A 
ATOM     41  C   UNL A   1      43.298  33.594  29.116  1.00  0.00     0.074 A 
ATOM     42  C   UNL A   1      42.504  36.003  28.820  1.00  0.00     0.049 A 
ATOM     43  N   UNL A   1      44.287  33.673  28.251  1.00  0.00    -0.248 NA
ATOM     44  C   UNL A   1      43.527  32.226  29.834  1.00  0.00     0.031 C 
ATOM     45  C   UNL A   1      43.148  35.994  27.501  1.00  0.00     0.029 A 
ATOM     46  N   UNL A   1      42.597  37.345  29.222  1.00  0.00    -0.354 N 
ATOM     47  C   UNL A   1      44.934  32.433  28.205  1.00  0.00     0.074 A 
ATOM     48  C   UNL A   1      44.637  31.711  29.363  1.00  0.00     0.031 C 
ATOM     49  C   UNL A   1      43.762  37.159  27.291  1.00  0.00     0.029 A 
ATOM     50  C   UNL A   1      43.671  37.935  28.511  1.00  0.00     0.049 A 
ATOM     51  H   UNL A   1      42.021  37.796  29.879  1.00  0.00     0.167 HD
ATOM     52  C   UNL A   1      45.540  31.947  27.100  1.00  0.00     0.031 A 
ATOM     53  C   UNL A   1      44.671  38.742  28.962  1.00  0.00     0.031 A 
ATOM     54  C   UNL A   1      46.150  33.040  26.404  1.00  0.00     0.049 A 
ATOM     55  C   UNL A   1      46.082  38.283  28.558  1.00  0.00     0.074 A 
ATOM     56  C   UNL A   1      45.931  33.764  25.256  1.00  0.00     0.029 A 
ATOM     57  N   UNL A   1      47.009  33.791  27.179  1.00  0.00    -0.354 N 
ATOM     58  N   UNL A   1      46.370  37.333  27.707  1.00  0.00    -0.248 NA
ATOM     59  C   UNL A   1      47.286  38.793  29.232  1.00  0.00     0.031 C 
ATOM     60  C   UNL A   1      46.661  34.995  25.389  1.00  0.00     0.029 A 
ATOM     61  C   UNL A   1      47.365  34.967  26.582  1.00  0.00     0.049 A 
ATOM     62  H   UNL A   1      47.331  33.509  28.066  1.00  0.00     0.167 HD
ATOM     63  C   UNL A   1      47.688  36.969  27.876  1.00  0.00     0.074 A 
ATOM     64  C   UNL A   1      48.229  37.940  28.805  1.00  0.00     0.031 C 
ATOM     65  C   UNL A   1      48.236  35.830  27.359  1.00  0.00     0.031 A 
BRANCH  52  66
ATOM     66  C   UNL A   1      45.473  30.474  26.707  1.00  0.00    -0.014 A 
ATOM     67  C   UNL A   1      44.241  29.806  26.764  1.00  0.00     0.010 A 
ATOM     68  C   UNL A   1      46.599  29.643  26.445  1.00  0.00     0.010 A 
ATOM     69  C   UNL A   1      44.147  28.405  26.618  1.00  0.00     0.020 A 
ATOM     70  C   UNL A   1      46.516  28.257  26.252  1.00  0.00     0.020 A 
ATOM     71  C   UNL A   1      45.287  27.637  26.372  1.00  0.00     0.054 A 
BRANCH  71  72
ATOM     72  S   UNL A   1      45.171  25.830  26.295  1.00  0.00     0.124 S 
ATOM     73  O   UNL A   1      43.770  25.593  26.637  1.00  0.00    -0.237 OA
ATOM     74  O   UNL A   1      45.543  25.545  24.913  1.00  0.00    -0.237 OA
ATOM     75  O   UNL A   1      46.131  25.375  27.301  1.00  0.00    -0.744 OA
ENDBRANCH  71  72
ENDBRANCH  52  66
BRANCH  53  76
ATOM     76  C   UNL A   1      44.421  39.588  30.154  1.00  0.00    -0.014 A 
ATOM     77  C   UNL A   1      44.648  40.979  30.086  1.00  0.00     0.010 A 
ATOM     78  C   UNL A   1      43.836  39.056  31.311  1.00  0.00     0.010 A 
ATOM     79  C   UNL A   1      44.262  41.824  31.137  1.00  0.00     0.020 A 
ATOM     80  C   UNL A   1      43.434  39.895  32.358  1.00  0.00     0.020 A 
ATOM     81  C   UNL A   1      43.631  41.278  32.260  1.00  0.00     0.054 A 
BRANCH  81  82
ATOM     82  S   UNL A   1      42.724  42.379  33.408  1.00  0.00     0.124 S 
ATOM     83  O   UNL A   1      43.778  42.841  34.297  1.00  0.00    -0.237 OA
ATOM     84  O   UNL A   1      42.162  43.399  32.518  1.00  0.00    -0.237 OA
ATOM     85  O   UNL A   1      41.730  41.478  33.984  1.00  0.00    -0.744 OA
ENDBRANCH  81  82
ENDBRANCH  53  76
BRANCH  65  86
ATOM     86  C   UNL A   1      49.639  35.357  27.695  1.00  0.00    -0.014 A 
ATOM     87  C   UNL A   1      49.913  34.664  28.882  1.00  0.00     0.010 A 
ATOM     88  C   UNL A   1      50.750  35.703  26.887  1.00  0.00     0.010 A 
ATOM     89  C   UNL A   1      51.231  34.331  29.239  1.00  0.00     0.020 A 
ATOM     90  C   UNL A   1      52.066  35.398  27.243  1.00  0.00     0.020 A 
ATOM     91  C   UNL A   1      52.299  34.706  28.420  1.00  0.00     0.054 A 
BRANCH  91  92
ATOM     92  S   UNL A   1      54.000  34.361  28.938  1.00  0.00     0.124 S 
ATOM     93  O   UNL A   1      53.826  33.289  29.916  1.00  0.00    -0.237 OA
ATOM     94  O   UNL A   1      54.627  33.967  27.680  1.00  0.00    -0.237 OA
ATOM     95  O   UNL A   1      54.461  35.631  29.495  1.00  0.00    -0.744 OA
ENDBRANCH  91  92
ENDBRANCH  65  86
ENDBRANCH  39  40
ENDBRANCH  32  34
ENDBRANCH  31  32
ENDBRANCH  30  31
ENDBRANCH  29  30
ENDBRANCH  28  29
ENDBRANCH  27  28
ENDBRANCH   1  27
TORSDOF 23
ENDMDL
MODEL 3
REMARK VINA RESULT:     -11.0      5.508     12.644
REMARK SMILES COc1ccc(NC(=O)c2nn(C)cc2C(=O)OCCOCCOCCOC(=O)c2ccc(-c3c4nc(c(-c5ccc(S(=O)(=O)[O-])cc5)c5ccc([nH]5)c(-c5ccc(S(=O)(=O)[O-])cc5)c5nc(c(-c6ccc(S(=O)(=O)[O-])cc6)c6ccc3[nH]6)C=C5)C=C4)cc2)c(C)c1
REMARK SMILES IDX 22 1 21 2 20 3 19 4 18 5 16 6 17 7 15 8 10 9 11 10 12 11
REMARK SMILES IDX 14 12 13 13 8 14 7 15 9 17 6 18 3 19 4 20 92 21 5 22 90 23
REMARK SMILES IDX 91 24 2 25 1 26 23 27 24 28 25 29 26 30 27 31 28 32 29 33
REMARK SMILES IDX 30 34 31 35 89 36 32 37 88 38 33 39 34 40 35 41 82 42 36 43
REMARK SMILES IDX 87 44 81 45 83 46 37 47 86 48 80 49 79 50 38 52 68 53 49 54
REMARK SMILES IDX 67 55 50 56 53 57 66 58 84 59 51 60 52 61 65 63 85 64 54 65
REMARK SMILES IDX 39 66 40 67 48 68 41 69 47 70 42 71 43 72 44 73 45 74 46 75
REMARK SMILES IDX 69 76 70 77 78 78 71 79 77 80 72 81 73 82 74 83 75 84 76 85
REMARK SMILES IDX 55 86 56 87 64 88 57 89 63 90 58 91 59 92 60 93 61 94 62 95
REMARK H PARENT 7 16 83 51 53 62
REMARK Flexibility Score: inf
ROOT
ATOM      1  C   UNL A   1      44.284  23.614  29.507  1.00  0.00     0.188 C 
ENDROOT
BRANCH   1   2
ATOM      2  O   UNL A   1      45.084  24.844  29.526  1.00  0.00    -0.376 OA
BRANCH   2   3
ATOM      3  C   UNL A   1      45.508  25.780  30.581  1.00  0.00     0.202 C 
BRANCH   3   4
ATOM      4  C   UNL A   1      45.622  25.821  32.452  1.00  0.00     0.261 C 
BRANCH   4   5
ATOM      5  O   UNL A   1      44.588  26.569  33.751  1.00  0.00    -0.460 OA
BRANCH   5   6
ATOM      6  C   UNL A   1      44.711  27.526  35.021  1.00  0.00     0.342 C 
ATOM      7  O   UNL A   1      45.758  27.952  35.498  1.00  0.00    -0.246 OA
BRANCH   6   8
ATOM      8  C   UNL A   1      43.544  28.068  35.729  1.00  0.00     0.111 A 
ATOM      9  C   UNL A   1      42.337  27.367  36.392  1.00  0.00     0.165 A 
ATOM     10  N   UNL A   1      41.378  28.323  36.520  1.00  0.00    -0.167 NA
ATOM     11  N   UNL A   1      41.834  29.390  35.832  1.00  0.00    -0.274 N 
ATOM     12  C   UNL A   1      43.151  29.364  35.513  1.00  0.00     0.125 A 
ATOM     13  C   UNL A   1      40.912  30.387  35.337  1.00  0.00     0.173 C 
BRANCH   9  14
ATOM     14  C   UNL A   1      41.876  25.861  36.602  1.00  0.00     0.277 C 
ATOM     15  N   UNL A   1      42.538  24.563  36.413  1.00  0.00    -0.320 N 
ATOM     16  H   UNL A   1      42.016  23.853  36.853  1.00  0.00     0.170 HD
ATOM     17  O   UNL A   1      40.709  25.723  37.008  1.00  0.00    -0.267 OA
BRANCH  15  18
ATOM     18  C   UNL A   1      43.719  23.993  35.784  1.00  0.00     0.044 A 
ATOM     19  C   UNL A   1      45.148  21.613  35.370  1.00  0.00     0.119 A 
ATOM     20  C   UNL A   1      44.594  22.314  34.281  1.00  0.00     0.048 A 
ATOM     21  C   UNL A   1      45.543  22.474  36.358  1.00  0.00     0.052 A 
ATOM     22  C   UNL A   1      43.799  23.490  34.507  1.00  0.00     0.030 A 
ATOM     23  C   UNL A   1      44.877  23.702  36.531  1.00  0.00    -0.024 A 
ATOM     24  C   UNL A   1      45.635  24.692  37.335  1.00  0.00     0.047 C 
BRANCH  19  25
ATOM     25  O   UNL A   1      45.336  20.299  35.715  1.00  0.00    -0.497 OA
ATOM     26  C   UNL A   1      45.876  18.954  35.346  1.00  0.00     0.278 C 
ENDBRANCH  19  25
ENDBRANCH  15  18
ENDBRANCH   9  14
ENDBRANCH   6   8
ENDBRANCH   5   6
ENDBRANCH   4   5
ENDBRANCH   3   4
ENDBRANCH   2   3
ENDBRANCH   1   2
BRANCH   1  27
ATOM     27  C   UNL A   1      43.910  22.527  28.295  1.00  0.00     0.188 C 
BRANCH  27  28
ATOM     28  O   UNL A   1      44.782  22.230  27.162  1.00  0.00    -0.376 OA
BRANCH  28  29
ATOM     29  C   UNL A   1      44.281  21.878  25.776  1.00  0.00     0.202 C 
BRANCH  29  30
ATOM     30  C   UNL A   1      42.650  21.312  25.214  1.00  0.00     0.261 C 
BRANCH  30  31
ATOM     31  O   UNL A   1      41.072  21.353  25.869  1.00  0.00    -0.460 OA
BRANCH  31  32
ATOM     32  C   UNL A   1      39.836  22.037  26.231  1.00  0.00     0.338 C 
ATOM     33  O   UNL A   1      38.778  21.503  25.884  1.00  0.00    -0.246 OA
BRANCH  32  34
ATOM     34  C   UNL A   1      39.631  23.311  27.185  1.00  0.00     0.060 A 
ATOM     35  C   UNL A   1      39.000  24.523  26.946  1.00  0.00     0.016 A 
ATOM     36  C   UNL A   1      40.453  23.468  28.228  1.00  0.00     0.016 A 
ATOM     37  C   UNL A   1      39.586  25.891  27.176  1.00  0.00     0.010 A 
ATOM     38  C   UNL A   1      41.103  24.743  28.289  1.00  0.00     0.010 A 
ATOM     39  C   UNL A   1      40.713  26.090  27.902  1.00  0.00    -0.014 A 
BRANCH  39  40
ATOM     40  C   UNL A   1      41.169  27.625  28.592  1.00  0.00     0.031 A 
ATOM     41  C   UNL A   1      40.228  29.165  28.680  1.00  0.00     0.074 A 
ATOM     42  C   UNL A   1      42.442  27.926  28.972  1.00  0.00     0.049 A 
ATOM     43  N   UNL A   1      40.599  30.254  29.319  1.00  0.00    -0.248 NA
ATOM     44  C   UNL A   1      38.866  29.554  28.022  1.00  0.00     0.031 C 
ATOM     45  C   UNL A   1      42.706  28.789  30.130  1.00  0.00     0.029 A 
ATOM     46  N   UNL A   1      43.724  27.646  28.473  1.00  0.00    -0.354 N 
ATOM     47  C   UNL A   1      39.529  31.157  29.314  1.00  0.00     0.074 A 
ATOM     48  C   UNL A   1      38.642  30.818  28.290  1.00  0.00     0.031 C 
ATOM     49  C   UNL A   1      43.988  29.158  30.134  1.00  0.00     0.029 A 
ATOM     50  C   UNL A   1      44.593  28.675  28.910  1.00  0.00     0.049 A 
ATOM     51  H   UNL A   1      43.974  26.873  27.918  1.00  0.00     0.167 HD
ATOM     52  C   UNL A   1      39.299  32.048  30.302  1.00  0.00     0.031 A 
ATOM     53  C   UNL A   1      45.533  29.371  28.213  1.00  0.00     0.031 A 
ATOM     54  C   UNL A   1      40.562  32.519  30.786  1.00  0.00     0.049 A 
ATOM     55  C   UNL A   1      45.418  30.899  28.351  1.00  0.00     0.074 A 
ATOM     56  C   UNL A   1      41.346  32.360  31.904  1.00  0.00     0.029 A 
ATOM     57  N   UNL A   1      41.384  33.032  29.805  1.00  0.00    -0.354 N 
ATOM     58  N   UNL A   1      44.643  31.541  29.187  1.00  0.00    -0.248 NA
ATOM     59  C   UNL A   1      46.086  31.814  27.415  1.00  0.00     0.031 C 
ATOM     60  C   UNL A   1      42.678  32.763  31.546  1.00  0.00     0.029 A 
ATOM     61  C   UNL A   1      42.666  33.223  30.239  1.00  0.00     0.049 A 
ATOM     62  H   UNL A   1      41.080  33.240  28.892  1.00  0.00     0.167 HD
ATOM     63  C   UNL A   1      44.540  32.852  28.777  1.00  0.00     0.074 A 
ATOM     64  C   UNL A   1      45.494  32.984  27.697  1.00  0.00     0.031 C 
ATOM     65  C   UNL A   1      43.599  33.724  29.246  1.00  0.00     0.031 A 
BRANCH  52  66
ATOM     66  C   UNL A   1      37.895  32.381  30.797  1.00  0.00    -0.014 A 
ATOM     67  C   UNL A   1      37.286  33.574  30.378  1.00  0.00     0.010 A 
ATOM     68  C   UNL A   1      37.188  31.665  31.804  1.00  0.00     0.010 A 
ATOM     69  C   UNL A   1      36.087  34.041  30.958  1.00  0.00     0.020 A 
ATOM     70  C   UNL A   1      35.973  32.092  32.357  1.00  0.00     0.020 A 
ATOM     71  C   UNL A   1      35.441  33.301  31.950  1.00  0.00     0.054 A 
BRANCH  71  72
ATOM     72  S   UNL A   1      33.962  33.961  32.764  1.00  0.00     0.124 S 
ATOM     73  O   UNL A   1      33.314  32.750  33.261  1.00  0.00    -0.237 OA
ATOM     74  O   UNL A   1      34.525  34.842  33.782  1.00  0.00    -0.237 OA
ATOM     75  O   UNL A   1      33.243  34.640  31.686  1.00  0.00    -0.744 OA
ENDBRANCH  71  72
ENDBRANCH  52  66
BRANCH  53  76
ATOM     76  C   UNL A   1      46.177  28.725  27.044  1.00  0.00    -0.014 A 
ATOM     77  C   UNL A   1      45.544  28.769  25.783  1.00  0.00     0.010 A 
ATOM     78  C   UNL A   1      47.465  28.181  27.133  1.00  0.00     0.010 A 
ATOM     79  C   UNL A   1      46.204  28.316  24.631  1.00  0.00     0.020 A 
ATOM     80  C   UNL A   1      48.136  27.741  25.985  1.00  0.00     0.020 A 
ATOM     81  C   UNL A   1      47.511  27.828  24.735  1.00  0.00     0.054 A 
BRANCH  81  82
ATOM     82  S   UNL A   1      48.536  27.667  23.226  1.00  0.00     0.124 S 
ATOM     83  O   UNL A   1      48.479  26.238  22.959  1.00  0.00    -0.237 OA
ATOM     84  O   UNL A   1      47.836  28.514  22.256  1.00  0.00    -0.237 OA
ATOM     85  O   UNL A   1      49.822  28.202  23.665  1.00  0.00    -0.744 OA
ENDBRANCH  81  82
ENDBRANCH  53  76
BRANCH  65  86
ATOM     86  C   UNL A   1      43.388  35.110  28.664  1.00  0.00    -0.014 A 
ATOM     87  C   UNL A   1      43.835  36.260  29.330  1.00  0.00     0.010 A 
ATOM     88  C   UNL A   1      42.621  35.310  27.490  1.00  0.00     0.010 A 
ATOM     89  C   UNL A   1      43.535  37.543  28.842  1.00  0.00     0.020 A 
ATOM     90  C   UNL A   1      42.296  36.581  27.009  1.00  0.00     0.020 A 
ATOM     91  C   UNL A   1      42.761  37.695  27.687  1.00  0.00     0.054 A 
BRANCH  91  92
ATOM     92  S   UNL A   1      42.295  39.352  27.124  1.00  0.00     0.124 S 
ATOM     93  O   UNL A   1      43.536  39.851  26.535  1.00  0.00    -0.237 OA
ATOM     94  O   UNL A   1      41.223  39.060  26.176  1.00  0.00    -0.237 OA
ATOM     95  O   UNL A   1      41.878  40.033  28.347  1.00  0.00    -0.744 OA
ENDBRANCH  91  92
ENDBRANCH  65  86
ENDBRANCH  39  40
ENDBRANCH  32  34
ENDBRANCH  31  32
ENDBRANCH  30  31
ENDBRANCH  29  30
ENDBRANCH  28  29
ENDBRANCH  27  28
ENDBRANCH   1  27
TORSDOF 23
ENDMDL
