MODEL 1
REMARK VINA RESULT:      -9.6      0.000      0.000
REMARK SMILES C[C@@H](C(=O)OCCOCCOCCOC(=O)c1ccc(-c2c3nc(c(-c4ccc(S(=O)(=O)[O-])cc4)c4ccc([nH]4)c(-c4ccc(S(=O)(=O)[O-])cc4)c4nc(c(-c5ccc(S(=O)(=O)[O-])cc5)c5ccc2[nH]5)C=C4)C=C3)cc1)c1ccc(=O)n(C(F)F)c1
REMARK SMILES IDX 10 1 9 2 8 3 7 4 6 5 5 6 3 7 4 8 2 9 1 10 77 11 78 12 86 13
REMARK SMILES IDX 79 14 82 15 80 16 81 17 83 18 84 19 85 20 11 21 12 22 13 23
REMARK SMILES IDX 14 24 15 25 16 26 17 27 18 28 76 29 19 30 75 31 20 32 21 33
REMARK SMILES IDX 22 34 69 35 23 36 74 37 68 38 70 39 24 40 73 41 67 42 66 43
REMARK SMILES IDX 25 45 55 46 36 47 54 48 37 49 40 50 53 51 71 52 38 53 39 54
REMARK SMILES IDX 52 56 72 57 41 58 26 59 27 60 35 61 28 62 34 63 29 64 30 65
REMARK SMILES IDX 31 66 32 67 33 68 56 69 57 70 65 71 58 72 64 73 59 74 60 75
REMARK SMILES IDX 61 76 62 77 63 78 42 79 43 80 51 81 44 82 50 83 45 84 46 85
REMARK SMILES IDX 47 86 48 87 49 88
REMARK H PARENT 70 44 40 55
REMARK Flexibility Score: inf
ROOT
ATOM      1  C   UNL A   1      34.279  21.958  25.060  1.00  0.00     0.188 C 
ENDROOT
BRANCH   1   2
ATOM      2  C   UNL A   1      33.079  21.320  24.343  1.00  0.00     0.188 C 
BRANCH   2   3
ATOM      3  O   UNL A   1      31.790  21.437  24.933  1.00  0.00    -0.376 OA
BRANCH   3   4
ATOM      4  C   UNL A   1      31.652  22.213  26.122  1.00  0.00     0.202 C 
BRANCH   4   5
ATOM      5  C   UNL A   1      31.015  23.614  26.037  1.00  0.00     0.261 C 
BRANCH   5   6
ATOM      6  O   UNL A   1      31.686  24.623  26.823  1.00  0.00    -0.463 OA
BRANCH   6   7
ATOM      7  C   UNL A   1      31.577  25.908  26.395  1.00  0.00     0.313 C 
ATOM      8  O   UNL A   1      31.011  26.793  27.030  1.00  0.00    -0.252 OA
BRANCH   7   9
ATOM      9  C   UNL A   1      32.350  26.195  25.084  1.00  0.00     0.127 C 
ATOM     10  C   UNL A   1      33.839  26.515  25.313  1.00  0.00     0.025 C 
BRANCH   9  11
ATOM     11  C   UNL A   1      31.601  27.157  24.149  1.00  0.00    -0.017 A 
ATOM     12  C   UNL A   1      32.367  28.063  23.302  1.00  0.00     0.012 A 
ATOM     13  C   UNL A   1      30.259  27.181  24.012  1.00  0.00     0.099 A 
ATOM     14  C   UNL A   1      31.764  28.925  22.474  1.00  0.00     0.072 A 
ATOM     15  N   UNL A   1      29.610  28.036  23.135  1.00  0.00    -0.258 N 
ATOM     16  C   UNL A   1      30.283  28.974  22.375  1.00  0.00     0.254 A 
ATOM     17  O   UNL A   1      29.789  29.815  21.635  1.00  0.00    -0.269 OA
BRANCH  15  18
ATOM     18  C   UNL A   1      28.163  28.026  23.092  1.00  0.00     0.451 C 
ATOM     19  F   UNL A   1      27.690  27.029  23.880  1.00  0.00    -0.185 F 
ATOM     20  F   UNL A   1      27.613  29.189  23.501  1.00  0.00    -0.185 F 
ENDBRANCH  15  18
ENDBRANCH   9  11
ENDBRANCH   7   9
ENDBRANCH   6   7
ENDBRANCH   5   6
ENDBRANCH   4   5
ENDBRANCH   3   4
ENDBRANCH   2   3
ENDBRANCH   1   2
BRANCH   1  21
ATOM     21  O   UNL A   1      35.133  21.044  25.706  1.00  0.00    -0.376 OA
BRANCH  21  22
ATOM     22  C   UNL A   1      36.365  20.699  25.101  1.00  0.00     0.202 C 
BRANCH  22  23
ATOM     23  C   UNL A   1      37.495  21.724  24.871  1.00  0.00     0.261 C 
BRANCH  23  24
ATOM     24  O   UNL A   1      37.835  22.608  25.948  1.00  0.00    -0.460 OA
BRANCH  24  25
ATOM     25  C   UNL A   1      39.135  22.659  26.322  1.00  0.00     0.338 C 
ATOM     26  O   UNL A   1      40.000  21.834  26.064  1.00  0.00    -0.246 OA
BRANCH  25  27
ATOM     27  C   UNL A   1      39.388  24.003  26.890  1.00  0.00     0.060 A 
ATOM     28  C   UNL A   1      40.094  24.947  26.129  1.00  0.00     0.016 A 
ATOM     29  C   UNL A   1      38.915  24.336  28.160  1.00  0.00     0.016 A 
ATOM     30  C   UNL A   1      40.347  26.219  26.647  1.00  0.00     0.010 A 
ATOM     31  C   UNL A   1      39.193  25.602  28.688  1.00  0.00     0.010 A 
ATOM     32  C   UNL A   1      39.934  26.540  27.947  1.00  0.00    -0.014 A 
BRANCH  32  33
ATOM     33  C   UNL A   1      40.417  27.784  28.599  1.00  0.00     0.031 A 
ATOM     34  C   UNL A   1      41.843  27.840  29.069  1.00  0.00     0.074 A 
ATOM     35  C   UNL A   1      39.614  28.848  28.774  1.00  0.00     0.049 A 
ATOM     36  N   UNL A   1      42.465  28.793  29.711  1.00  0.00    -0.248 NA
ATOM     37  C   UNL A   1      42.672  26.656  28.789  1.00  0.00     0.031 C 
ATOM     38  C   UNL A   1      38.230  28.927  28.326  1.00  0.00     0.029 A 
ATOM     39  N   UNL A   1      39.847  30.067  29.364  1.00  0.00    -0.354 N 
ATOM     40  C   UNL A   1      43.748  28.316  29.939  1.00  0.00     0.074 A 
ATOM     41  C   UNL A   1      43.812  26.983  29.378  1.00  0.00     0.031 C 
ATOM     42  C   UNL A   1      37.741  30.143  28.627  1.00  0.00     0.029 A 
ATOM     43  C   UNL A   1      38.759  30.910  29.336  1.00  0.00     0.049 A 
ATOM     44  H   UNL A   1      40.709  30.315  29.768  1.00  0.00     0.167 HD
ATOM     45  C   UNL A   1      44.777  28.931  30.568  1.00  0.00     0.031 A 
ATOM     46  C   UNL A   1      38.594  32.152  29.837  1.00  0.00     0.031 A 
ATOM     47  C   UNL A   1      44.701  30.251  31.138  1.00  0.00     0.049 A 
ATOM     48  C   UNL A   1      39.740  32.792  30.580  1.00  0.00     0.074 A 
ATOM     49  C   UNL A   1      45.693  30.960  31.791  1.00  0.00     0.029 A 
ATOM     50  N   UNL A   1      43.571  31.056  31.131  1.00  0.00    -0.354 N 
ATOM     51  N   UNL A   1      40.953  32.333  30.783  1.00  0.00    -0.248 NA
ATOM     52  C   UNL A   1      39.493  34.115  31.173  1.00  0.00     0.031 C 
ATOM     53  C   UNL A   1      45.144  32.165  32.240  1.00  0.00     0.029 A 
ATOM     54  C   UNL A   1      43.832  32.241  31.798  1.00  0.00     0.049 A 
ATOM     55  H   UNL A   1      42.710  30.820  30.716  1.00  0.00     0.167 HD
ATOM     56  C   UNL A   1      41.617  33.318  31.505  1.00  0.00     0.074 A 
ATOM     57  C   UNL A   1      40.680  34.407  31.686  1.00  0.00     0.031 C 
ATOM     58  C   UNL A   1      42.889  33.318  31.976  1.00  0.00     0.031 A 
BRANCH  45  59
ATOM     59  C   UNL A   1      46.055  28.152  30.724  1.00  0.00    -0.014 A 
ATOM     60  C   UNL A   1      46.256  27.278  31.807  1.00  0.00     0.010 A 
ATOM     61  C   UNL A   1      47.062  28.279  29.750  1.00  0.00     0.010 A 
ATOM     62  C   UNL A   1      47.458  26.575  31.933  1.00  0.00     0.020 A 
ATOM     63  C   UNL A   1      48.252  27.555  29.856  1.00  0.00     0.020 A 
ATOM     64  C   UNL A   1      48.447  26.719  30.957  1.00  0.00     0.054 A 
BRANCH  64  65
ATOM     65  S   UNL A   1      49.986  25.775  31.134  1.00  0.00     0.124 S 
ATOM     66  O   UNL A   1      49.653  24.857  32.220  1.00  0.00    -0.237 OA
ATOM     67  O   UNL A   1      50.137  25.162  29.818  1.00  0.00    -0.237 OA
ATOM     68  O   UNL A   1      50.982  26.792  31.462  1.00  0.00    -0.744 OA
ENDBRANCH  64  65
ENDBRANCH  45  59
BRANCH  46  69
ATOM     69  C   UNL A   1      37.291  32.866  29.689  1.00  0.00    -0.014 A 
ATOM     70  C   UNL A   1      36.451  33.074  30.800  1.00  0.00     0.010 A 
ATOM     71  C   UNL A   1      36.868  33.326  28.429  1.00  0.00     0.010 A 
ATOM     72  C   UNL A   1      35.210  33.704  30.649  1.00  0.00     0.020 A 
ATOM     73  C   UNL A   1      35.645  33.989  28.278  1.00  0.00     0.020 A 
ATOM     74  C   UNL A   1      34.816  34.161  29.388  1.00  0.00     0.054 A 
BRANCH  74  75
ATOM     75  S   UNL A   1      33.222  35.014  29.220  1.00  0.00     0.124 S 
ATOM     76  O   UNL A   1      33.630  36.342  28.772  1.00  0.00    -0.237 OA
ATOM     77  O   UNL A   1      32.528  34.197  28.226  1.00  0.00    -0.237 OA
ATOM     78  O   UNL A   1      32.656  34.954  30.566  1.00  0.00    -0.744 OA
ENDBRANCH  74  75
ENDBRANCH  46  69
BRANCH  58  79
ATOM     79  C   UNL A   1      43.362  34.550  32.707  1.00  0.00    -0.014 A 
ATOM     80  C   UNL A   1      43.248  34.667  34.104  1.00  0.00     0.010 A 
ATOM     81  C   UNL A   1      43.986  35.584  31.983  1.00  0.00     0.010 A 
ATOM     82  C   UNL A   1      43.721  35.808  34.759  1.00  0.00     0.020 A 
ATOM     83  C   UNL A   1      44.489  36.711  32.638  1.00  0.00     0.020 A 
ATOM     84  C   UNL A   1      44.341  36.822  34.022  1.00  0.00     0.054 A 
BRANCH  84  85
ATOM     85  S   UNL A   1      44.989  38.270  34.902  1.00  0.00     0.124 S 
ATOM     86  O   UNL A   1      44.109  38.338  36.066  1.00  0.00    -0.237 OA
ATOM     87  O   UNL A   1      46.370  37.884  35.180  1.00  0.00    -0.237 OA
ATOM     88  O   UNL A   1      44.834  39.359  33.941  1.00  0.00    -0.744 OA
ENDBRANCH  84  85
ENDBRANCH  58  79
ENDBRANCH  32  33
ENDBRANCH  25  27
ENDBRANCH  24  25
ENDBRANCH  23  24
ENDBRANCH  22  23
ENDBRANCH  21  22
ENDBRANCH   1  21
TORSDOF 22
ENDMDL
MODEL 2
REMARK VINA RESULT:      -9.3      5.622      8.070
REMARK SMILES C[C@@H](C(=O)OCCOCCOCCOC(=O)c1ccc(-c2c3nc(c(-c4ccc(S(=O)(=O)[O-])cc4)c4ccc([nH]4)c(-c4ccc(S(=O)(=O)[O-])cc4)c4nc(c(-c5ccc(S(=O)(=O)[O-])cc5)c5ccc2[nH]5)C=C4)C=C3)cc1)c1ccc(=O)n(C(F)F)c1
REMARK SMILES IDX 10 1 9 2 8 3 7 4 6 5 5 6 3 7 4 8 2 9 1 10 77 11 78 12 86 13
REMARK SMILES IDX 79 14 82 15 80 16 81 17 83 18 84 19 85 20 11 21 12 22 13 23
REMARK SMILES IDX 14 24 15 25 16 26 17 27 18 28 76 29 19 30 75 31 20 32 21 33
REMARK SMILES IDX 22 34 69 35 23 36 74 37 68 38 70 39 24 40 73 41 67 42 66 43
REMARK SMILES IDX 25 45 55 46 36 47 54 48 37 49 40 50 53 51 71 52 38 53 39 54
REMARK SMILES IDX 52 56 72 57 41 58 26 59 27 60 35 61 28 62 34 63 29 64 30 65
REMARK SMILES IDX 31 66 32 67 33 68 56 69 57 70 65 71 58 72 64 73 59 74 60 75
REMARK SMILES IDX 61 76 62 77 63 78 42 79 43 80 51 81 44 82 50 83 45 84 46 85
REMARK SMILES IDX 47 86 48 87 49 88
REMARK H PARENT 70 44 40 55
REMARK Flexibility Score: inf
ROOT
ATOM      1  C   UNL A   1      37.702  21.054  24.817  1.00  0.00     0.188 C 
ENDROOT
BRANCH   1   2
ATOM      2  C   UNL A   1      38.018  19.590  25.157  1.00  0.00     0.188 C 
BRANCH   2   3
ATOM      3  O   UNL A   1      39.380  19.196  25.280  1.00  0.00    -0.376 OA
BRANCH   3   4
ATOM      4  C   UNL A   1      40.226  19.932  26.161  1.00  0.00     0.202 C 
BRANCH   4   5
ATOM      5  C   UNL A   1      41.665  19.439  26.412  1.00  0.00     0.261 C 
BRANCH   5   6
ATOM      6  O   UNL A   1      42.402  19.117  25.213  1.00  0.00    -0.463 OA
BRANCH   6   7
ATOM      7  C   UNL A   1      43.755  19.044  25.325  1.00  0.00     0.313 C 
ATOM      8  O   UNL A   1      44.338  18.236  26.042  1.00  0.00    -0.252 OA
BRANCH   7   9
ATOM      9  C   UNL A   1      44.511  19.992  24.362  1.00  0.00     0.127 C 
ATOM     10  C   UNL A   1      45.623  19.286  23.563  1.00  0.00     0.025 C 
BRANCH   9  11
ATOM     11  C   UNL A   1      44.909  21.320  25.023  1.00  0.00    -0.017 A 
ATOM     12  C   UNL A   1      45.975  22.117  24.427  1.00  0.00     0.012 A 
ATOM     13  C   UNL A   1      44.290  21.839  26.103  1.00  0.00     0.099 A 
ATOM     14  C   UNL A   1      46.364  23.279  24.967  1.00  0.00     0.072 A 
ATOM     15  N   UNL A   1      44.646  23.057  26.660  1.00  0.00    -0.258 N 
ATOM     16  C   UNL A   1      45.706  23.809  26.187  1.00  0.00     0.254 A 
ATOM     17  O   UNL A   1      46.137  24.852  26.660  1.00  0.00    -0.269 OA
BRANCH  15  18
ATOM     18  C   UNL A   1      43.957  23.510  27.849  1.00  0.00     0.451 C 
ATOM     19  F   UNL A   1      42.618  23.473  27.643  1.00  0.00    -0.185 F 
ATOM     20  F   UNL A   1      44.241  22.767  28.940  1.00  0.00    -0.185 F 
ENDBRANCH  15  18
ENDBRANCH   9  11
ENDBRANCH   7   9
ENDBRANCH   6   7
ENDBRANCH   5   6
ENDBRANCH   4   5
ENDBRANCH   3   4
ENDBRANCH   2   3
ENDBRANCH   1   2
BRANCH   1  21
ATOM     21  O   UNL A   1      38.056  21.979  25.818  1.00  0.00    -0.376 OA
BRANCH  21  22
ATOM     22  C   UNL A   1      37.928  23.365  25.557  1.00  0.00     0.202 C 
BRANCH  22  23
ATOM     23  C   UNL A   1      38.249  24.444  26.611  1.00  0.00     0.261 C 
BRANCH  23  24
ATOM     24  O   UNL A   1      39.606  24.574  27.054  1.00  0.00    -0.460 OA
BRANCH  24  25
ATOM     25  C   UNL A   1      40.256  25.718  26.734  1.00  0.00     0.338 C 
ATOM     26  O   UNL A   1      40.710  26.015  25.639  1.00  0.00    -0.246 OA
BRANCH  25  27
ATOM     27  C   UNL A   1      40.111  26.652  27.874  1.00  0.00     0.060 A 
ATOM     28  C   UNL A   1      40.673  27.935  27.784  1.00  0.00     0.016 A 
ATOM     29  C   UNL A   1      39.407  26.272  29.018  1.00  0.00     0.016 A 
ATOM     30  C   UNL A   1      40.551  28.831  28.849  1.00  0.00     0.010 A 
ATOM     31  C   UNL A   1      39.310  27.161  30.093  1.00  0.00     0.010 A 
ATOM     32  C   UNL A   1      39.905  28.434  30.026  1.00  0.00    -0.014 A 
BRANCH  32  33
ATOM     33  C   UNL A   1      39.993  29.275  31.247  1.00  0.00     0.031 A 
ATOM     34  C   UNL A   1      41.164  29.082  32.168  1.00  0.00     0.074 A 
ATOM     35  C   UNL A   1      39.058  30.196  31.541  1.00  0.00     0.049 A 
ATOM     36  N   UNL A   1      41.420  29.658  33.312  1.00  0.00    -0.248 NA
ATOM     37  C   UNL A   1      42.173  28.096  31.747  1.00  0.00     0.031 C 
ATOM     38  C   UNL A   1      37.902  30.501  30.708  1.00  0.00     0.029 A 
ATOM     39  N   UNL A   1      38.936  31.048  32.611  1.00  0.00    -0.354 N 
ATOM     40  C   UNL A   1      42.601  29.086  33.765  1.00  0.00     0.074 A 
ATOM     41  C   UNL A   1      43.005  28.108  32.778  1.00  0.00     0.031 C 
ATOM     42  C   UNL A   1      37.202  31.496  31.279  1.00  0.00     0.029 A 
ATOM     43  C   UNL A   1      37.828  31.863  32.545  1.00  0.00     0.049 A 
ATOM     44  H   UNL A   1      39.579  31.076  33.355  1.00  0.00     0.167 HD
ATOM     45  C   UNL A   1      43.282  29.348  34.905  1.00  0.00     0.031 A 
ATOM     46  C   UNL A   1      37.360  32.787  33.409  1.00  0.00     0.031 A 
ATOM     47  C   UNL A   1      42.866  30.311  35.891  1.00  0.00     0.049 A 
ATOM     48  C   UNL A   1      38.110  33.019  34.697  1.00  0.00     0.074 A 
ATOM     49  C   UNL A   1      43.493  30.649  37.077  1.00  0.00     0.029 A 
ATOM     50  N   UNL A   1      41.716  31.083  35.812  1.00  0.00    -0.354 N 
ATOM     51  N   UNL A   1      39.232  32.477  35.110  1.00  0.00    -0.248 NA
ATOM     52  C   UNL A   1      37.525  33.981  35.643  1.00  0.00     0.031 C 
ATOM     53  C   UNL A   1      42.688  31.575  37.747  1.00  0.00     0.029 A 
ATOM     54  C   UNL A   1      41.599  31.872  36.944  1.00  0.00     0.049 A 
ATOM     55  H   UNL A   1      41.076  31.071  35.063  1.00  0.00     0.167 HD
ATOM     56  C   UNL A   1      39.497  33.047  36.350  1.00  0.00     0.074 A 
ATOM     57  C   UNL A   1      38.431  33.992  36.612  1.00  0.00     0.031 C 
ATOM     58  C   UNL A   1      40.530  32.808  37.196  1.00  0.00     0.031 A 
BRANCH  45  59
ATOM     59  C   UNL A   1      44.517  28.532  35.173  1.00  0.00    -0.014 A 
ATOM     60  C   UNL A   1      44.461  27.326  35.896  1.00  0.00     0.010 A 
ATOM     61  C   UNL A   1      45.755  28.969  34.666  1.00  0.00     0.010 A 
ATOM     62  C   UNL A   1      45.627  26.595  36.139  1.00  0.00     0.020 A 
ATOM     63  C   UNL A   1      46.917  28.225  34.881  1.00  0.00     0.020 A 
ATOM     64  C   UNL A   1      46.847  27.049  35.630  1.00  0.00     0.054 A 
BRANCH  64  65
ATOM     65  S   UNL A   1      48.338  26.065  35.941  1.00  0.00     0.124 S 
ATOM     66  O   UNL A   1      49.186  27.019  36.653  1.00  0.00    -0.237 OA
ATOM     67  O   UNL A   1      47.828  24.958  36.744  1.00  0.00    -0.237 OA
ATOM     68  O   UNL A   1      48.800  25.701  34.604  1.00  0.00    -0.744 OA
ENDBRANCH  64  65
ENDBRANCH  45  59
BRANCH  46  69
ATOM     69  C   UNL A   1      36.106  33.541  33.113  1.00  0.00    -0.014 A 
ATOM     70  C   UNL A   1      34.844  32.961  33.343  1.00  0.00     0.010 A 
ATOM     71  C   UNL A   1      36.164  34.841  32.578  1.00  0.00     0.010 A 
ATOM     72  C   UNL A   1      33.670  33.655  33.022  1.00  0.00     0.020 A 
ATOM     73  C   UNL A   1      34.994  35.553  32.290  1.00  0.00     0.020 A 
ATOM     74  C   UNL A   1      33.753  34.949  32.501  1.00  0.00     0.054 A 
BRANCH  74  75
ATOM     75  S   UNL A   1      32.220  35.849  32.131  1.00  0.00     0.124 S 
ATOM     76  O   UNL A   1      32.500  37.171  32.682  1.00  0.00    -0.237 OA
ATOM     77  O   UNL A   1      32.150  35.773  30.673  1.00  0.00    -0.237 OA
ATOM     78  O   UNL A   1      31.193  35.082  32.835  1.00  0.00    -0.744 OA
ENDBRANCH  74  75
ENDBRANCH  46  69
BRANCH  58  79
ATOM     79  C   UNL A   1      40.584  33.606  38.475  1.00  0.00    -0.014 A 
ATOM     80  C   UNL A   1      41.181  34.878  38.524  1.00  0.00     0.010 A 
ATOM     81  C   UNL A   1      39.970  33.093  39.633  1.00  0.00     0.010 A 
ATOM     82  C   UNL A   1      41.192  35.608  39.717  1.00  0.00     0.020 A 
ATOM     83  C   UNL A   1      39.950  33.834  40.818  1.00  0.00     0.020 A 
ATOM     84  C   UNL A   1      40.573  35.082  40.855  1.00  0.00     0.054 A 
BRANCH  84  85
ATOM     85  S   UNL A   1      40.559  36.071  42.376  1.00  0.00     0.124 S 
ATOM     86  O   UNL A   1      40.260  35.064  43.392  1.00  0.00    -0.237 OA
ATOM     87  O   UNL A   1      41.912  36.620  42.414  1.00  0.00    -0.237 OA
ATOM     88  O   UNL A   1      39.502  37.051  42.144  1.00  0.00    -0.744 OA
ENDBRANCH  84  85
ENDBRANCH  58  79
ENDBRANCH  32  33
ENDBRANCH  25  27
ENDBRANCH  24  25
ENDBRANCH  23  24
ENDBRANCH  22  23
ENDBRANCH  21  22
ENDBRANCH   1  21
TORSDOF 22
ENDMDL
MODEL 3
REMARK VINA RESULT:      -9.2      1.360      2.007
REMARK SMILES C[C@@H](C(=O)OCCOCCOCCOC(=O)c1ccc(-c2c3nc(c(-c4ccc(S(=O)(=O)[O-])cc4)c4ccc([nH]4)c(-c4ccc(S(=O)(=O)[O-])cc4)c4nc(c(-c5ccc(S(=O)(=O)[O-])cc5)c5ccc2[nH]5)C=C4)C=C3)cc1)c1ccc(=O)n(C(F)F)c1
REMARK SMILES IDX 10 1 9 2 8 3 7 4 6 5 5 6 3 7 4 8 2 9 1 10 77 11 78 12 86 13
REMARK SMILES IDX 79 14 82 15 80 16 81 17 83 18 84 19 85 20 11 21 12 22 13 23
REMARK SMILES IDX 14 24 15 25 16 26 17 27 18 28 76 29 19 30 75 31 20 32 21 33
REMARK SMILES IDX 22 34 69 35 23 36 74 37 68 38 70 39 24 40 73 41 67 42 66 43
REMARK SMILES IDX 25 45 55 46 36 47 54 48 37 49 40 50 53 51 71 52 38 53 39 54
REMARK SMILES IDX 52 56 72 57 41 58 26 59 27 60 35 61 28 62 34 63 29 64 30 65
REMARK SMILES IDX 31 66 32 67 33 68 56 69 57 70 65 71 58 72 64 73 59 74 60 75
REMARK SMILES IDX 61 76 62 77 63 78 42 79 43 80 51 81 44 82 50 83 45 84 46 85
REMARK SMILES IDX 47 86 48 87 49 88
REMARK H PARENT 70 44 40 55
REMARK Flexibility Score: inf
ROOT
ATOM      1  C   UNL A   1      34.184  22.310  23.832  1.00  0.00     0.188 C 
ENDROOT
BRANCH   1   2
ATOM      2  C   UNL A   1      33.602  23.414  24.728  1.00  0.00     0.188 C 
BRANCH   2   3
ATOM      3  O   UNL A   1      32.842  23.036  25.871  1.00  0.00    -0.376 OA
BRANCH   3   4
ATOM      4  C   UNL A   1      31.421  23.006  25.764  1.00  0.00     0.202 C 
BRANCH   4   5
ATOM      5  C   UNL A   1      30.655  24.318  25.503  1.00  0.00     0.261 C 
BRANCH   5   6
ATOM      6  O   UNL A   1      30.502  24.651  24.107  1.00  0.00    -0.463 OA
BRANCH   6   7
ATOM      7  C   UNL A   1      29.954  25.862  23.820  1.00  0.00     0.313 C 
ATOM      8  O   UNL A   1      28.833  26.205  24.183  1.00  0.00    -0.252 OA
BRANCH   7   9
ATOM      9  C   UNL A   1      30.925  26.831  23.103  1.00  0.00     0.127 C 
ATOM     10  C   UNL A   1      31.695  26.172  21.943  1.00  0.00     0.025 C 
BRANCH   9  11
ATOM     11  C   UNL A   1      31.776  27.655  24.081  1.00  0.00    -0.017 A 
ATOM     12  C   UNL A   1      33.090  27.159  24.469  1.00  0.00     0.012 A 
ATOM     13  C   UNL A   1      31.408  28.857  24.570  1.00  0.00     0.099 A 
ATOM     14  C   UNL A   1      33.869  27.835  25.324  1.00  0.00     0.072 A 
ATOM     15  N   UNL A   1      32.209  29.597  25.425  1.00  0.00    -0.258 N 
ATOM     16  C   UNL A   1      33.425  29.132  25.893  1.00  0.00     0.254 A 
ATOM     17  O   UNL A   1      34.160  29.680  26.705  1.00  0.00    -0.269 OA
BRANCH  15  18
ATOM     18  C   UNL A   1      31.710  30.855  25.939  1.00  0.00     0.451 C 
ATOM     19  F   UNL A   1      30.599  31.218  25.253  1.00  0.00    -0.185 F 
ATOM     20  F   UNL A   1      31.403  30.805  27.252  1.00  0.00    -0.185 F 
ENDBRANCH  15  18
ENDBRANCH   9  11
ENDBRANCH   7   9
ENDBRANCH   6   7
ENDBRANCH   5   6
ENDBRANCH   4   5
ENDBRANCH   3   4
ENDBRANCH   2   3
ENDBRANCH   1   2
BRANCH   1  21
ATOM     21  O   UNL A   1      34.820  21.264  24.526  1.00  0.00    -0.376 OA
BRANCH  21  22
ATOM     22  C   UNL A   1      35.839  21.571  25.461  1.00  0.00     0.202 C 
BRANCH  22  23
ATOM     23  C   UNL A   1      37.331  21.627  25.078  1.00  0.00     0.261 C 
BRANCH  23  24
ATOM     24  O   UNL A   1      38.063  22.822  25.384  1.00  0.00    -0.460 OA
BRANCH  24  25
ATOM     25  C   UNL A   1      39.109  22.707  26.236  1.00  0.00     0.338 C 
ATOM     26  O   UNL A   1      39.838  21.735  26.368  1.00  0.00    -0.246 OA
BRANCH  25  27
ATOM     27  C   UNL A   1      39.370  24.046  26.812  1.00  0.00     0.060 A 
ATOM     28  C   UNL A   1      40.088  24.988  26.058  1.00  0.00     0.016 A 
ATOM     29  C   UNL A   1      38.894  24.378  28.081  1.00  0.00     0.016 A 
ATOM     30  C   UNL A   1      40.349  26.256  26.582  1.00  0.00     0.010 A 
ATOM     31  C   UNL A   1      39.180  25.639  28.615  1.00  0.00     0.010 A 
ATOM     32  C   UNL A   1      39.932  26.574  27.881  1.00  0.00    -0.014 A 
BRANCH  32  33
ATOM     33  C   UNL A   1      40.423  27.812  28.540  1.00  0.00     0.031 A 
ATOM     34  C   UNL A   1      41.860  27.872  28.975  1.00  0.00     0.074 A 
ATOM     35  C   UNL A   1      39.617  28.867  28.753  1.00  0.00     0.049 A 
ATOM     36  N   UNL A   1      42.491  28.819  29.616  1.00  0.00    -0.248 NA
ATOM     37  C   UNL A   1      42.690  26.699  28.654  1.00  0.00     0.031 C 
ATOM     38  C   UNL A   1      38.221  28.942  28.343  1.00  0.00     0.029 A 
ATOM     39  N   UNL A   1      39.856  30.078  29.356  1.00  0.00    -0.354 N 
ATOM     40  C   UNL A   1      43.783  28.348  29.803  1.00  0.00     0.074 A 
ATOM     41  C   UNL A   1      43.843  27.025  29.220  1.00  0.00     0.031 C 
ATOM     42  C   UNL A   1      37.731  30.149  28.675  1.00  0.00     0.029 A 
ATOM     43  C   UNL A   1      38.761  30.913  29.370  1.00  0.00     0.049 A 
ATOM     44  H   UNL A   1      40.726  30.326  29.742  1.00  0.00     0.167 HD
ATOM     45  C   UNL A   1      44.823  28.962  30.416  1.00  0.00     0.031 A 
ATOM     46  C   UNL A   1      38.600  32.145  29.895  1.00  0.00     0.031 A 
ATOM     47  C   UNL A   1      44.752  30.272  31.009  1.00  0.00     0.049 A 
ATOM     48  C   UNL A   1      39.760  32.782  30.619  1.00  0.00     0.074 A 
ATOM     49  C   UNL A   1      45.756  30.979  31.648  1.00  0.00     0.029 A 
ATOM     50  N   UNL A   1      43.616  31.068  31.044  1.00  0.00    -0.354 N 
ATOM     51  N   UNL A   1      40.981  32.329  30.783  1.00  0.00    -0.248 NA
ATOM     52  C   UNL A   1      39.518  34.093  31.239  1.00  0.00     0.031 C 
ATOM     53  C   UNL A   1      45.209  32.172  32.129  1.00  0.00     0.029 A 
ATOM     54  C   UNL A   1      43.886  32.244  31.723  1.00  0.00     0.049 A 
ATOM     55  H   UNL A   1      42.747  30.831  30.646  1.00  0.00     0.167 HD
ATOM     56  C   UNL A   1      41.656  33.308  31.504  1.00  0.00     0.074 A 
ATOM     57  C   UNL A   1      40.716  34.387  31.726  1.00  0.00     0.031 C 
ATOM     58  C   UNL A   1      42.940  33.311  31.942  1.00  0.00     0.031 A 
BRANCH  45  59
ATOM     59  C   UNL A   1      46.110  28.191  30.527  1.00  0.00    -0.014 A 
ATOM     60  C   UNL A   1      46.332  27.275  31.572  1.00  0.00     0.010 A 
ATOM     61  C   UNL A   1      47.106  28.368  29.548  1.00  0.00     0.010 A 
ATOM     62  C   UNL A   1      47.542  26.581  31.656  1.00  0.00     0.020 A 
ATOM     63  C   UNL A   1      48.304  27.652  29.611  1.00  0.00     0.020 A 
ATOM     64  C   UNL A   1      48.520  26.774  30.675  1.00  0.00     0.054 A 
BRANCH  64  65
ATOM     65  S   UNL A   1      50.069  25.840  30.798  1.00  0.00     0.124 S 
ATOM     66  O   UNL A   1      51.066  26.909  30.796  1.00  0.00    -0.237 OA
ATOM     67  O   UNL A   1      49.914  25.129  32.063  1.00  0.00    -0.237 OA
ATOM     68  O   UNL A   1      50.062  24.995  29.606  1.00  0.00    -0.744 OA
ENDBRANCH  64  65
ENDBRANCH  45  59
BRANCH  46  69
ATOM     69  C   UNL A   1      37.288  32.851  29.792  1.00  0.00    -0.014 A 
ATOM     70  C   UNL A   1      36.921  33.525  28.612  1.00  0.00     0.010 A 
ATOM     71  C   UNL A   1      36.401  32.871  30.885  1.00  0.00     0.010 A 
ATOM     72  C   UNL A   1      35.709  34.222  28.536  1.00  0.00     0.020 A 
ATOM     73  C   UNL A   1      35.172  33.536  30.801  1.00  0.00     0.020 A 
ATOM     74  C   UNL A   1      34.840  34.220  29.630  1.00  0.00     0.054 A 
BRANCH  74  75
ATOM     75  S   UNL A   1      33.254  35.094  29.497  1.00  0.00     0.124 S 
ATOM     76  O   UNL A   1      32.695  34.919  30.833  1.00  0.00    -0.237 OA
ATOM     77  O   UNL A   1      33.668  36.454  29.157  1.00  0.00    -0.237 OA
ATOM     78  O   UNL A   1      32.557  34.381  28.428  1.00  0.00    -0.744 OA
ENDBRANCH  74  75
ENDBRANCH  46  69
BRANCH  58  79
ATOM     79  C   UNL A   1      43.422  34.535  32.680  1.00  0.00    -0.014 A 
ATOM     80  C   UNL A   1      43.325  35.820  32.117  1.00  0.00     0.010 A 
ATOM     81  C   UNL A   1      43.927  34.398  33.988  1.00  0.00     0.010 A 
ATOM     82  C   UNL A   1      43.753  36.940  32.836  1.00  0.00     0.020 A 
ATOM     83  C   UNL A   1      44.325  35.518  34.720  1.00  0.00     0.020 A 
ATOM     84  C   UNL A   1      44.248  36.782  34.134  1.00  0.00     0.054 A 
BRANCH  84  85
ATOM     85  S   UNL A   1      44.752  38.257  35.062  1.00  0.00     0.124 S 
ATOM     86  O   UNL A   1      43.772  38.286  36.145  1.00  0.00    -0.237 OA
ATOM     87  O   UNL A   1      46.119  37.934  35.461  1.00  0.00    -0.237 OA
ATOM     88  O   UNL A   1      44.633  39.339  34.088  1.00  0.00    -0.744 OA
ENDBRANCH  84  85
ENDBRANCH  58  79
ENDBRANCH  32  33
ENDBRANCH  25  27
ENDBRANCH  24  25
ENDBRANCH  23  24
ENDBRANCH  22  23
ENDBRANCH  21  22
ENDBRANCH   1  21
TORSDOF 22
ENDMDL
