MODEL 1
REMARK VINA RESULT:     -10.0      0.000      0.000
REMARK SMILES COc1ccc2c(c1)c(CC(=O)OCCOCCOCCOC(=O)c1ccc(-c3c4nc(c(-c5ccc(S(=O)(=O)[O-])cc5)c5ccc([nH]5)c(-c5ccc(S(=O)(=O)[O-])cc5)c5nc(c(-c6ccc(S(=O)(=O)[O-])cc6)c6ccc3[nH]6)C=C5)C=C4)cc1)c(C(F)(F)F)n2C(=O)c1ccc(Cl)cc1
REMARK SMILES IDX 17 1 16 2 15 3 14 4 13 5 11 6 12 7 10 8 9 9 3 10 4 11 8 12
REMARK SMILES IDX 5 13 7 14 6 15 90 16 85 17 2 18 1 19 91 20 92 21 93 22 94 23
REMARK SMILES IDX 99 24 95 25 98 26 96 27 97 28 86 29 87 30 88 31 89 32 18 33
REMARK SMILES IDX 19 34 20 35 21 36 22 37 23 38 24 39 25 40 26 41 84 42 27 43
REMARK SMILES IDX 83 44 28 45 29 46 30 47 77 48 31 49 82 50 76 51 78 52 32 53
REMARK SMILES IDX 81 54 75 55 74 56 33 58 63 59 44 60 62 61 45 62 48 63 61 64
REMARK SMILES IDX 79 65 46 66 47 67 60 69 80 70 49 71 34 72 35 73 43 74 36 75
REMARK SMILES IDX 42 76 37 77 38 78 39 79 40 80 41 81 64 82 65 83 73 84 66 85
REMARK SMILES IDX 72 86 67 87 68 88 69 89 70 90 71 91 50 92 51 93 59 94 52 95
REMARK SMILES IDX 58 96 53 97 54 98 55 99 56 100 57 101
REMARK H PARENT 78 57 48 68
REMARK Flexibility Score: inf
ROOT
ATOM      1  C   UNL A   1      33.809  30.664  27.436  1.00  0.00     0.188 C 
ENDROOT
BRANCH   1   2
ATOM      2  O   UNL A   1      34.407  29.678  26.625  1.00  0.00    -0.376 OA
BRANCH   2   3
ATOM      3  C   UNL A   1      33.538  28.770  25.964  1.00  0.00     0.202 C 
BRANCH   3   4
ATOM      4  C   UNL A   1      32.359  28.214  26.778  1.00  0.00     0.261 C 
BRANCH   4   5
ATOM      5  O   UNL A   1      31.548  27.310  25.979  1.00  0.00    -0.463 OA
BRANCH   5   6
ATOM      6  C   UNL A   1      31.373  26.066  26.500  1.00  0.00     0.310 C 
ATOM      7  O   UNL A   1      30.283  25.502  26.503  1.00  0.00    -0.252 OA
BRANCH   6   8
ATOM      8  C   UNL A   1      32.670  25.321  26.818  1.00  0.00     0.161 C 
BRANCH   8   9
ATOM      9  C   UNL A   1      33.364  24.358  25.885  1.00  0.00     0.002 A 
ATOM     10  C   UNL A   1      33.209  25.157  22.088  1.00  0.00     0.119 A 
ATOM     11  C   UNL A   1      33.327  23.857  21.660  1.00  0.00     0.048 A 
ATOM     12  C   UNL A   1      33.253  25.433  23.463  1.00  0.00     0.057 A 
ATOM     13  C   UNL A   1      33.551  22.845  22.598  1.00  0.00     0.031 A 
ATOM     14  C   UNL A   1      33.460  24.443  24.448  1.00  0.00     0.008 A 
ATOM     15  C   UNL A   1      33.694  23.157  23.977  1.00  0.00     0.057 A 
ATOM     16  N   UNL A   1      34.125  22.402  25.075  1.00  0.00    -0.271 N 
ATOM     17  C   UNL A   1      33.639  23.025  26.216  1.00  0.00     0.135 A 
BRANCH  10  18
ATOM     18  O   UNL A   1      33.103  26.226  21.242  1.00  0.00    -0.497 OA
ATOM     19  C   UNL A   1      33.334  27.503  21.840  1.00  0.00     0.278 C 
ENDBRANCH  10  18
BRANCH  16  20
ATOM     20  C   UNL A   1      34.985  21.273  24.984  1.00  0.00     0.262 C 
ATOM     21  O   UNL A   1      36.178  21.401  25.012  1.00  0.00    -0.268 OA
BRANCH  20  22
ATOM     22  C   UNL A   1      34.442  19.925  24.708  1.00  0.00     0.040 A 
ATOM     23  C   UNL A   1      33.052  19.751  24.731  1.00  0.00     0.015 A 
ATOM     24  C   UNL A   1      35.314  18.839  24.626  1.00  0.00     0.015 A 
ATOM     25  C   UNL A   1      32.529  18.461  24.739  1.00  0.00     0.021 A 
ATOM     26  C   UNL A   1      34.781  17.549  24.647  1.00  0.00     0.021 A 
ATOM     27  C   UNL A   1      33.395  17.367  24.717  1.00  0.00     0.041 A 
ATOM     28  Cl  UNL A   1      32.750  15.776  24.829  1.00  0.00    -0.084 Cl
ENDBRANCH  20  22
ENDBRANCH  16  20
BRANCH  17  29
ATOM     29  C   UNL A   1      33.356  22.363  27.527  1.00  0.00     0.432 C 
ATOM     30  F   UNL A   1      34.085  22.948  28.511  1.00  0.00    -0.165 F 
ATOM     31  F   UNL A   1      32.049  22.554  27.852  1.00  0.00    -0.165 F 
ATOM     32  F   UNL A   1      33.576  21.041  27.618  1.00  0.00    -0.165 F 
ENDBRANCH  17  29
ENDBRANCH   8   9
ENDBRANCH   6   8
ENDBRANCH   5   6
ENDBRANCH   4   5
ENDBRANCH   3   4
ENDBRANCH   2   3
ENDBRANCH   1   2
BRANCH   1  33
ATOM     33  C   UNL A   1      34.731  31.601  28.222  1.00  0.00     0.188 C 
BRANCH  33  34
ATOM     34  O   UNL A   1      34.602  33.001  28.130  1.00  0.00    -0.376 OA
BRANCH  34  35
ATOM     35  C   UNL A   1      33.279  33.488  27.979  1.00  0.00     0.202 C 
BRANCH  35  36
ATOM     36  C   UNL A   1      32.923  34.790  28.735  1.00  0.00     0.261 C 
BRANCH  36  37
ATOM     37  O   UNL A   1      33.962  35.198  29.670  1.00  0.00    -0.460 OA
BRANCH  37  38
ATOM     38  C   UNL A   1      33.726  34.918  30.988  1.00  0.00     0.338 C 
ATOM     39  O   UNL A   1      32.647  35.046  31.546  1.00  0.00    -0.246 OA
BRANCH  38  40
ATOM     40  C   UNL A   1      34.834  34.058  31.534  1.00  0.00     0.060 A 
ATOM     41  C   UNL A   1      34.748  32.702  31.847  1.00  0.00     0.016 A 
ATOM     42  C   UNL A   1      35.988  34.741  31.918  1.00  0.00     0.016 A 
ATOM     43  C   UNL A   1      35.759  32.091  32.636  1.00  0.00     0.010 A 
ATOM     44  C   UNL A   1      36.947  34.167  32.758  1.00  0.00     0.010 A 
ATOM     45  C   UNL A   1      36.832  32.838  33.159  1.00  0.00    -0.014 A 
BRANCH  45  46
ATOM     46  C   UNL A   1      38.018  32.242  33.814  1.00  0.00     0.031 A 
ATOM     47  C   UNL A   1      38.154  32.662  35.210  1.00  0.00     0.074 A 
ATOM     48  C   UNL A   1      38.996  31.416  33.376  1.00  0.00     0.049 A 
ATOM     49  N   UNL A   1      38.829  33.709  35.532  1.00  0.00    -0.248 NA
ATOM     50  C   UNL A   1      37.433  32.023  36.304  1.00  0.00     0.031 C 
ATOM     51  C   UNL A   1      39.258  31.003  32.015  1.00  0.00     0.029 A 
ATOM     52  N   UNL A   1      39.996  30.768  34.079  1.00  0.00    -0.354 N 
ATOM     53  C   UNL A   1      38.801  33.769  36.902  1.00  0.00     0.074 A 
ATOM     54  C   UNL A   1      37.791  32.820  37.318  1.00  0.00     0.031 C 
ATOM     55  C   UNL A   1      40.203  30.035  31.983  1.00  0.00     0.029 A 
ATOM     56  C   UNL A   1      40.728  29.837  33.331  1.00  0.00     0.049 A 
ATOM     57  H   UNL A   1      40.179  30.948  35.029  1.00  0.00     0.167 HD
ATOM     58  C   UNL A   1      39.755  34.470  37.572  1.00  0.00     0.031 A 
ATOM     59  C   UNL A   1      42.005  29.388  33.496  1.00  0.00     0.031 A 
ATOM     60  C   UNL A   1      40.612  35.214  36.673  1.00  0.00     0.049 A 
ATOM     61  C   UNL A   1      42.750  30.494  34.139  1.00  0.00     0.074 A 
ATOM     62  C   UNL A   1      40.405  36.231  35.761  1.00  0.00     0.029 A 
ATOM     63  N   UNL A   1      41.813  34.632  36.327  1.00  0.00    -0.354 N 
ATOM     64  N   UNL A   1      43.102  31.580  33.512  1.00  0.00    -0.248 NA
ATOM     65  C   UNL A   1      42.819  30.564  35.591  1.00  0.00     0.031 C 
ATOM     66  C   UNL A   1      41.275  35.950  34.667  1.00  0.00     0.029 A 
ATOM     67  C   UNL A   1      42.016  34.808  34.978  1.00  0.00     0.049 A 
ATOM     68  H   UNL A   1      42.424  34.167  36.944  1.00  0.00     0.167 HD
ATOM     69  C   UNL A   1      42.998  32.581  34.463  1.00  0.00     0.074 A 
ATOM     70  C   UNL A   1      42.946  31.884  35.743  1.00  0.00     0.031 C 
ATOM     71  C   UNL A   1      42.704  33.864  34.108  1.00  0.00     0.031 A 
BRANCH  58  72
ATOM     72  C   UNL A   1      40.070  34.267  39.016  1.00  0.00    -0.014 A 
ATOM     73  C   UNL A   1      39.562  35.099  40.033  1.00  0.00     0.010 A 
ATOM     74  C   UNL A   1      40.779  33.119  39.408  1.00  0.00     0.010 A 
ATOM     75  C   UNL A   1      39.821  34.853  41.379  1.00  0.00     0.020 A 
ATOM     76  C   UNL A   1      41.004  32.834  40.760  1.00  0.00     0.020 A 
ATOM     77  C   UNL A   1      40.542  33.718  41.735  1.00  0.00     0.054 A 
BRANCH  77  78
ATOM     78  S   UNL A   1      40.813  33.405  43.494  1.00  0.00     0.124 S 
ATOM     79  O   UNL A   1      42.253  33.168  43.536  1.00  0.00    -0.237 OA
ATOM     80  O   UNL A   1      40.360  34.651  44.105  1.00  0.00    -0.237 OA
ATOM     81  O   UNL A   1      39.978  32.238  43.765  1.00  0.00    -0.744 OA
ENDBRANCH  77  78
ENDBRANCH  58  72
BRANCH  59  82
ATOM     82  C   UNL A   1      42.364  27.963  33.767  1.00  0.00    -0.014 A 
ATOM     83  C   UNL A   1      41.649  27.182  34.692  1.00  0.00     0.010 A 
ATOM     84  C   UNL A   1      43.537  27.408  33.208  1.00  0.00     0.010 A 
ATOM     85  C   UNL A   1      42.162  25.961  35.154  1.00  0.00     0.020 A 
ATOM     86  C   UNL A   1      44.056  26.185  33.665  1.00  0.00     0.020 A 
ATOM     87  C   UNL A   1      43.390  25.498  34.679  1.00  0.00     0.054 A 
BRANCH  87  88
ATOM     88  S   UNL A   1      44.146  24.055  35.483  1.00  0.00     0.124 S 
ATOM     89  O   UNL A   1      43.399  22.953  34.883  1.00  0.00    -0.237 OA
ATOM     90  O   UNL A   1      45.546  24.155  35.079  1.00  0.00    -0.237 OA
ATOM     91  O   UNL A   1      43.896  24.277  36.905  1.00  0.00    -0.744 OA
ENDBRANCH  87  88
ENDBRANCH  59  82
BRANCH  71  92
ATOM     92  C   UNL A   1      42.859  34.267  32.651  1.00  0.00    -0.014 A 
ATOM     93  C   UNL A   1      43.974  35.055  32.310  1.00  0.00     0.010 A 
ATOM     94  C   UNL A   1      41.882  34.041  31.660  1.00  0.00     0.010 A 
ATOM     95  C   UNL A   1      44.083  35.646  31.048  1.00  0.00     0.020 A 
ATOM     96  C   UNL A   1      41.996  34.611  30.381  1.00  0.00     0.020 A 
ATOM     97  C   UNL A   1      43.082  35.439  30.096  1.00  0.00     0.054 A 
BRANCH  97  98
ATOM     98  S   UNL A   1      43.217  36.305  28.508  1.00  0.00     0.124 S 
ATOM     99  O   UNL A   1      41.885  36.889  28.363  1.00  0.00    -0.237 OA
ATOM    100  O   UNL A   1      44.292  37.265  28.752  1.00  0.00    -0.237 OA
ATOM    101  O   UNL A   1      43.536  35.249  27.550  1.00  0.00    -0.744 OA
ENDBRANCH  97  98
ENDBRANCH  71  92
ENDBRANCH  45  46
ENDBRANCH  38  40
ENDBRANCH  37  38
ENDBRANCH  36  37
ENDBRANCH  35  36
ENDBRANCH  34  35
ENDBRANCH  33  34
ENDBRANCH   1  33
TORSDOF 25
ENDMDL
MODEL 2
REMARK VINA RESULT:     -10.0      4.959      7.692
REMARK SMILES COc1ccc2c(c1)c(CC(=O)OCCOCCOCCOC(=O)c1ccc(-c3c4nc(c(-c5ccc(S(=O)(=O)[O-])cc5)c5ccc([nH]5)c(-c5ccc(S(=O)(=O)[O-])cc5)c5nc(c(-c6ccc(S(=O)(=O)[O-])cc6)c6ccc3[nH]6)C=C5)C=C4)cc1)c(C(F)(F)F)n2C(=O)c1ccc(Cl)cc1
REMARK SMILES IDX 17 1 16 2 15 3 14 4 13 5 11 6 12 7 10 8 9 9 3 10 4 11 8 12
REMARK SMILES IDX 5 13 7 14 6 15 90 16 85 17 2 18 1 19 91 20 92 21 93 22 94 23
REMARK SMILES IDX 99 24 95 25 98 26 96 27 97 28 86 29 87 30 88 31 89 32 18 33
REMARK SMILES IDX 19 34 20 35 21 36 22 37 23 38 24 39 25 40 26 41 84 42 27 43
REMARK SMILES IDX 83 44 28 45 29 46 30 47 77 48 31 49 82 50 76 51 78 52 32 53
REMARK SMILES IDX 81 54 75 55 74 56 33 58 63 59 44 60 62 61 45 62 48 63 61 64
REMARK SMILES IDX 79 65 46 66 47 67 60 69 80 70 49 71 34 72 35 73 43 74 36 75
REMARK SMILES IDX 42 76 37 77 38 78 39 79 40 80 41 81 64 82 65 83 73 84 66 85
REMARK SMILES IDX 72 86 67 87 68 88 69 89 70 90 71 91 50 92 51 93 59 94 52 95
REMARK SMILES IDX 58 96 53 97 54 98 55 99 56 100 57 101
REMARK H PARENT 78 57 48 68
REMARK Flexibility Score: inf
ROOT
ATOM      1  C   UNL A   1      35.253  32.484  28.190  1.00  0.00     0.188 C 
ENDROOT
BRANCH   1   2
ATOM      2  O   UNL A   1      35.451  31.157  28.622  1.00  0.00    -0.376 OA
BRANCH   2   3
ATOM      3  C   UNL A   1      35.420  30.143  27.628  1.00  0.00     0.202 C 
BRANCH   3   4
ATOM      4  C   UNL A   1      34.108  29.358  27.472  1.00  0.00     0.261 C 
BRANCH   4   5
ATOM      5  O   UNL A   1      32.954  30.231  27.620  1.00  0.00    -0.463 OA
BRANCH   5   6
ATOM      6  C   UNL A   1      32.279  30.507  26.472  1.00  0.00     0.310 C 
ATOM      7  O   UNL A   1      31.412  31.373  26.412  1.00  0.00    -0.252 OA
BRANCH   6   8
ATOM      8  C   UNL A   1      32.871  29.866  25.216  1.00  0.00     0.161 C 
BRANCH   8   9
ATOM      9  C   UNL A   1      32.106  28.994  24.250  1.00  0.00     0.002 A 
ATOM     10  C   UNL A   1      28.498  30.105  23.342  1.00  0.00     0.119 A 
ATOM     11  C   UNL A   1      28.024  28.847  23.060  1.00  0.00     0.048 A 
ATOM     12  C   UNL A   1      29.845  30.266  23.703  1.00  0.00     0.057 A 
ATOM     13  C   UNL A   1      28.907  27.764  23.076  1.00  0.00     0.031 A 
ATOM     14  C   UNL A   1      30.769  29.200  23.750  1.00  0.00     0.008 A 
ATOM     15  C   UNL A   1      30.288  27.961  23.344  1.00  0.00     0.057 A 
ATOM     16  N   UNL A   1      31.403  27.122  23.219  1.00  0.00    -0.271 N 
ATOM     17  C   UNL A   1      32.400  27.641  24.032  1.00  0.00     0.135 A 
BRANCH  10  18
ATOM     18  O   UNL A   1      27.741  31.239  23.240  1.00  0.00    -0.497 OA
ATOM     19  C   UNL A   1      28.425  32.385  22.729  1.00  0.00     0.278 C 
ENDBRANCH  10  18
BRANCH  16  20
ATOM     20  C   UNL A   1      31.478  26.016  22.327  1.00  0.00     0.262 C 
ATOM     21  O   UNL A   1      31.381  26.170  21.141  1.00  0.00    -0.268 OA
BRANCH  20  22
ATOM     22  C   UNL A   1      31.533  24.630  22.842  1.00  0.00     0.040 A 
ATOM     23  C   UNL A   1      30.727  24.295  23.938  1.00  0.00     0.015 A 
ATOM     24  C   UNL A   1      32.510  23.759  22.358  1.00  0.00     0.015 A 
ATOM     25  C   UNL A   1      30.950  23.092  24.602  1.00  0.00     0.021 A 
ATOM     26  C   UNL A   1      32.735  22.561  23.038  1.00  0.00     0.021 A 
ATOM     27  C   UNL A   1      31.965  22.241  24.162  1.00  0.00     0.041 A 
ATOM     28  Cl  UNL A   1      32.305  20.804  25.045  1.00  0.00    -0.084 Cl
ENDBRANCH  20  22
ENDBRANCH  16  20
BRANCH  17  29
ATOM     29  C   UNL A   1      33.519  26.869  24.654  1.00  0.00     0.432 C 
ATOM     30  F   UNL A   1      33.023  25.913  25.480  1.00  0.00    -0.165 F 
ATOM     31  F   UNL A   1      34.209  26.216  23.681  1.00  0.00    -0.165 F 
ATOM     32  F   UNL A   1      34.431  27.556  25.364  1.00  0.00    -0.165 F 
ENDBRANCH  17  29
ENDBRANCH   8   9
ENDBRANCH   6   8
ENDBRANCH   5   6
ENDBRANCH   4   5
ENDBRANCH   3   4
ENDBRANCH   2   3
ENDBRANCH   1   2
BRANCH   1  33
ATOM     33  C   UNL A   1      34.100  33.277  28.814  1.00  0.00     0.188 C 
BRANCH  33  34
ATOM     34  O   UNL A   1      34.297  34.078  29.956  1.00  0.00    -0.376 OA
BRANCH  34  35
ATOM     35  C   UNL A   1      34.776  33.402  31.107  1.00  0.00     0.202 C 
BRANCH  35  36
ATOM     36  C   UNL A   1      36.186  33.791  31.609  1.00  0.00     0.261 C 
BRANCH  36  37
ATOM     37  O   UNL A   1      37.196  32.797  31.274  1.00  0.00    -0.460 OA
BRANCH  37  38
ATOM     38  C   UNL A   1      38.047  33.127  30.256  1.00  0.00     0.338 C 
ATOM     39  O   UNL A   1      38.032  34.188  29.650  1.00  0.00    -0.246 OA
BRANCH  38  40
ATOM     40  C   UNL A   1      39.238  32.207  30.266  1.00  0.00     0.060 A 
ATOM     41  C   UNL A   1      40.568  32.581  30.450  1.00  0.00     0.016 A 
ATOM     42  C   UNL A   1      38.981  30.891  29.881  1.00  0.00     0.016 A 
ATOM     43  C   UNL A   1      41.611  31.671  30.130  1.00  0.00     0.010 A 
ATOM     44  C   UNL A   1      40.000  30.018  29.492  1.00  0.00     0.010 A 
ATOM     45  C   UNL A   1      41.336  30.404  29.580  1.00  0.00    -0.014 A 
BRANCH  45  46
ATOM     46  C   UNL A   1      42.346  29.335  29.411  1.00  0.00     0.031 A 
ATOM     47  C   UNL A   1      42.821  28.809  30.692  1.00  0.00     0.074 A 
ATOM     48  C   UNL A   1      42.921  28.775  28.322  1.00  0.00     0.049 A 
ATOM     49  N   UNL A   1      43.843  29.317  31.287  1.00  0.00    -0.248 NA
ATOM     50  C   UNL A   1      42.105  27.786  31.444  1.00  0.00     0.031 C 
ATOM     51  C   UNL A   1      42.823  29.214  26.949  1.00  0.00     0.029 A 
ATOM     52  N   UNL A   1      43.748  27.670  28.221  1.00  0.00    -0.354 N 
ATOM     53  C   UNL A   1      44.044  28.554  32.409  1.00  0.00     0.074 A 
ATOM     54  C   UNL A   1      42.854  27.743  32.553  1.00  0.00     0.031 C 
ATOM     55  C   UNL A   1      43.383  28.306  26.116  1.00  0.00     0.029 A 
ATOM     56  C   UNL A   1      44.012  27.254  26.910  1.00  0.00     0.049 A 
ATOM     57  H   UNL A   1      44.120  27.212  29.009  1.00  0.00     0.167 HD
ATOM     58  C   UNL A   1      45.265  28.534  33.008  1.00  0.00     0.031 A 
ATOM     59  C   UNL A   1      45.080  26.576  26.403  1.00  0.00     0.031 A 
ATOM     60  C   UNL A   1      46.172  29.499  32.423  1.00  0.00     0.049 A 
ATOM     61  C   UNL A   1      46.235  26.927  27.261  1.00  0.00     0.074 A 
ATOM     62  C   UNL A   1      46.174  30.875  32.305  1.00  0.00     0.029 A 
ATOM     63  N   UNL A   1      47.049  29.033  31.466  1.00  0.00    -0.354 N 
ATOM     64  N   UNL A   1      46.824  28.087  27.229  1.00  0.00    -0.248 NA
ATOM     65  C   UNL A   1      46.542  26.105  28.422  1.00  0.00     0.031 C 
ATOM     66  C   UNL A   1      46.728  31.150  31.021  1.00  0.00     0.029 A 
ATOM     67  C   UNL A   1      47.092  29.939  30.431  1.00  0.00     0.049 A 
ATOM     68  H   UNL A   1      47.559  28.193  31.515  1.00  0.00     0.167 HD
ATOM     69  C   UNL A   1      47.199  28.324  28.540  1.00  0.00     0.074 A 
ATOM     70  C   UNL A   1      47.116  27.026  29.198  1.00  0.00     0.031 C 
ATOM     71  C   UNL A   1      47.292  29.593  29.030  1.00  0.00     0.031 A 
BRANCH  58  72
ATOM     72  C   UNL A   1      45.710  27.459  33.943  1.00  0.00    -0.014 A 
ATOM     73  C   UNL A   1      45.462  27.500  35.328  1.00  0.00     0.010 A 
ATOM     74  C   UNL A   1      46.271  26.282  33.416  1.00  0.00     0.010 A 
ATOM     75  C   UNL A   1      45.835  26.455  36.170  1.00  0.00     0.020 A 
ATOM     76  C   UNL A   1      46.605  25.206  34.246  1.00  0.00     0.020 A 
ATOM     77  C   UNL A   1      46.405  25.312  35.622  1.00  0.00     0.054 A 
BRANCH  77  78
ATOM     78  S   UNL A   1      46.827  23.957  36.741  1.00  0.00     0.124 S 
ATOM     79  O   UNL A   1      45.602  23.824  37.524  1.00  0.00    -0.237 OA
ATOM     80  O   UNL A   1      47.104  22.863  35.814  1.00  0.00    -0.237 OA
ATOM     81  O   UNL A   1      47.986  24.464  37.470  1.00  0.00    -0.744 OA
ENDBRANCH  77  78
ENDBRANCH  58  72
BRANCH  59  82
ATOM     82  C   UNL A   1      44.989  25.235  25.751  1.00  0.00    -0.014 A 
ATOM     83  C   UNL A   1      43.778  24.522  25.689  1.00  0.00     0.010 A 
ATOM     84  C   UNL A   1      46.160  24.576  25.315  1.00  0.00     0.010 A 
ATOM     85  C   UNL A   1      43.758  23.161  25.348  1.00  0.00     0.020 A 
ATOM     86  C   UNL A   1      46.147  23.214  24.970  1.00  0.00     0.020 A 
ATOM     87  C   UNL A   1      44.951  22.503  25.046  1.00  0.00     0.054 A 
BRANCH  87  88
ATOM     88  S   UNL A   1      44.925  20.695  24.864  1.00  0.00     0.124 S 
ATOM     89  O   UNL A   1      44.629  20.542  23.443  1.00  0.00    -0.237 OA
ATOM     90  O   UNL A   1      46.274  20.309  25.267  1.00  0.00    -0.237 OA
ATOM     91  O   UNL A   1      43.863  20.269  25.772  1.00  0.00    -0.744 OA
ENDBRANCH  87  88
ENDBRANCH  59  82
BRANCH  71  92
ATOM     92  C   UNL A   1      47.348  30.749  28.044  1.00  0.00    -0.014 A 
ATOM     93  C   UNL A   1      48.559  31.458  27.942  1.00  0.00     0.010 A 
ATOM     94  C   UNL A   1      46.228  31.252  27.351  1.00  0.00     0.010 A 
ATOM     95  C   UNL A   1      48.638  32.656  27.228  1.00  0.00     0.020 A 
ATOM     96  C   UNL A   1      46.304  32.443  26.610  1.00  0.00     0.020 A 
ATOM     97  C   UNL A   1      47.504  33.155  26.582  1.00  0.00     0.054 A 
BRANCH  97  98
ATOM     98  S   UNL A   1      47.628  34.762  25.750  1.00  0.00     0.124 S 
ATOM     99  O   UNL A   1      48.925  34.663  25.083  1.00  0.00    -0.237 OA
ATOM    100  O   UNL A   1      46.470  34.756  24.859  1.00  0.00    -0.237 OA
ATOM    101  O   UNL A   1      47.566  35.735  26.839  1.00  0.00    -0.744 OA
ENDBRANCH  97  98
ENDBRANCH  71  92
ENDBRANCH  45  46
ENDBRANCH  38  40
ENDBRANCH  37  38
ENDBRANCH  36  37
ENDBRANCH  35  36
ENDBRANCH  34  35
ENDBRANCH  33  34
ENDBRANCH   1  33
TORSDOF 25
ENDMDL
MODEL 3
REMARK VINA RESULT:      -9.7      4.930      7.330
REMARK SMILES COc1ccc2c(c1)c(CC(=O)OCCOCCOCCOC(=O)c1ccc(-c3c4nc(c(-c5ccc(S(=O)(=O)[O-])cc5)c5ccc([nH]5)c(-c5ccc(S(=O)(=O)[O-])cc5)c5nc(c(-c6ccc(S(=O)(=O)[O-])cc6)c6ccc3[nH]6)C=C5)C=C4)cc1)c(C(F)(F)F)n2C(=O)c1ccc(Cl)cc1
REMARK SMILES IDX 17 1 16 2 15 3 14 4 13 5 11 6 12 7 10 8 9 9 3 10 4 11 8 12
REMARK SMILES IDX 5 13 7 14 6 15 90 16 85 17 2 18 1 19 91 20 92 21 93 22 94 23
REMARK SMILES IDX 99 24 95 25 98 26 96 27 97 28 86 29 87 30 88 31 89 32 18 33
REMARK SMILES IDX 19 34 20 35 21 36 22 37 23 38 24 39 25 40 26 41 84 42 27 43
REMARK SMILES IDX 83 44 28 45 29 46 30 47 77 48 31 49 82 50 76 51 78 52 32 53
REMARK SMILES IDX 81 54 75 55 74 56 33 58 63 59 44 60 62 61 45 62 48 63 61 64
REMARK SMILES IDX 79 65 46 66 47 67 60 69 80 70 49 71 34 72 35 73 43 74 36 75
REMARK SMILES IDX 42 76 37 77 38 78 39 79 40 80 41 81 64 82 65 83 73 84 66 85
REMARK SMILES IDX 72 86 67 87 68 88 69 89 70 90 71 91 50 92 51 93 59 94 52 95
REMARK SMILES IDX 58 96 53 97 54 98 55 99 56 100 57 101
REMARK H PARENT 78 57 48 68
REMARK Flexibility Score: inf
ROOT
ATOM      1  C   UNL A   1      34.800  24.413  25.708  1.00  0.00     0.188 C 
ENDROOT
BRANCH   1   2
ATOM      2  O   UNL A   1      35.701  23.344  25.533  1.00  0.00    -0.376 OA
BRANCH   2   3
ATOM      3  C   UNL A   1      37.022  23.524  26.023  1.00  0.00     0.202 C 
BRANCH   3   4
ATOM      4  C   UNL A   1      38.046  22.429  25.688  1.00  0.00     0.261 C 
BRANCH   4   5
ATOM      5  O   UNL A   1      39.195  22.493  26.577  1.00  0.00    -0.463 OA
BRANCH   5   6
ATOM      6  C   UNL A   1      39.951  21.364  26.639  1.00  0.00     0.310 C 
ATOM      7  O   UNL A   1      39.709  20.374  25.956  1.00  0.00    -0.252 OA
BRANCH   6   8
ATOM      8  C   UNL A   1      41.269  21.521  27.399  1.00  0.00     0.161 C 
BRANCH   8   9
ATOM      9  C   UNL A   1      42.539  22.092  26.816  1.00  0.00     0.002 A 
ATOM     10  C   UNL A   1      44.718  19.712  24.657  1.00  0.00     0.119 A 
ATOM     11  C   UNL A   1      45.913  20.342  24.906  1.00  0.00     0.048 A 
ATOM     12  C   UNL A   1      43.538  20.237  25.207  1.00  0.00     0.057 A 
ATOM     13  C   UNL A   1      45.921  21.526  25.648  1.00  0.00     0.031 A 
ATOM     14  C   UNL A   1      43.500  21.420  25.976  1.00  0.00     0.008 A 
ATOM     15  C   UNL A   1      44.705  22.097  26.110  1.00  0.00     0.057 A 
ATOM     16  N   UNL A   1      44.402  23.345  26.669  1.00  0.00    -0.271 N 
ATOM     17  C   UNL A   1      43.199  23.208  27.348  1.00  0.00     0.135 A 
BRANCH  10  18
ATOM     18  O   UNL A   1      44.594  18.615  23.850  1.00  0.00    -0.497 OA
ATOM     19  C   UNL A   1      44.883  18.840  22.468  1.00  0.00     0.278 C 
ENDBRANCH  10  18
BRANCH  16  20
ATOM     20  C   UNL A   1      45.168  24.525  26.461  1.00  0.00     0.262 C 
ATOM     21  O   UNL A   1      46.356  24.529  26.629  1.00  0.00    -0.268 OA
BRANCH  20  22
ATOM     22  C   UNL A   1      44.507  25.817  26.172  1.00  0.00     0.040 A 
ATOM     23  C   UNL A   1      44.795  26.911  26.998  1.00  0.00     0.015 A 
ATOM     24  C   UNL A   1      43.485  25.866  25.222  1.00  0.00     0.015 A 
ATOM     25  C   UNL A   1      44.000  28.051  26.917  1.00  0.00     0.021 A 
ATOM     26  C   UNL A   1      42.686  27.009  25.156  1.00  0.00     0.021 A 
ATOM     27  C   UNL A   1      42.939  28.087  26.012  1.00  0.00     0.041 A 
ATOM     28  Cl  UNL A   1      41.897  29.456  25.985  1.00  0.00    -0.084 Cl
ENDBRANCH  20  22
ENDBRANCH  16  20
BRANCH  17  29
ATOM     29  C   UNL A   1      42.745  24.033  28.509  1.00  0.00     0.432 C 
ATOM     30  F   UNL A   1      43.814  24.588  29.133  1.00  0.00    -0.165 F 
ATOM     31  F   UNL A   1      41.985  25.066  28.056  1.00  0.00    -0.165 F 
ATOM     32  F   UNL A   1      42.018  23.422  29.461  1.00  0.00    -0.165 F 
ENDBRANCH  17  29
ENDBRANCH   8   9
ENDBRANCH   6   8
ENDBRANCH   5   6
ENDBRANCH   4   5
ENDBRANCH   3   4
ENDBRANCH   2   3
ENDBRANCH   1   2
BRANCH   1  33
ATOM     33  C   UNL A   1      34.356  25.189  24.464  1.00  0.00     0.188 C 
BRANCH  33  34
ATOM     34  O   UNL A   1      33.518  26.317  24.565  1.00  0.00    -0.376 OA
BRANCH  34  35
ATOM     35  C   UNL A   1      33.448  26.918  25.847  1.00  0.00     0.202 C 
BRANCH  35  36
ATOM     36  C   UNL A   1      33.771  28.428  25.929  1.00  0.00     0.261 C 
BRANCH  36  37
ATOM     37  O   UNL A   1      34.817  28.727  26.897  1.00  0.00    -0.460 OA
BRANCH  37  38
ATOM     38  C   UNL A   1      34.881  30.022  27.330  1.00  0.00     0.338 C 
ATOM     39  O   UNL A   1      33.973  30.834  27.238  1.00  0.00    -0.246 OA
BRANCH  38  40
ATOM     40  C   UNL A   1      36.031  30.186  28.287  1.00  0.00     0.060 A 
ATOM     41  C   UNL A   1      37.102  31.068  28.147  1.00  0.00     0.016 A 
ATOM     42  C   UNL A   1      36.101  29.237  29.307  1.00  0.00     0.016 A 
ATOM     43  C   UNL A   1      38.264  30.905  28.948  1.00  0.00     0.010 A 
ATOM     44  C   UNL A   1      37.269  29.023  30.045  1.00  0.00     0.010 A 
ATOM     45  C   UNL A   1      38.385  29.836  29.856  1.00  0.00    -0.014 A 
BRANCH  45  46
ATOM     46  C   UNL A   1      39.466  29.715  30.859  1.00  0.00     0.031 A 
ATOM     47  C   UNL A   1      39.151  30.416  32.106  1.00  0.00     0.074 A 
ATOM     48  C   UNL A   1      40.678  29.114  30.841  1.00  0.00     0.049 A 
ATOM     49  N   UNL A   1      39.481  31.647  32.284  1.00  0.00    -0.248 NA
ATOM     50  C   UNL A   1      38.333  29.830  33.160  1.00  0.00     0.031 C 
ATOM     51  C   UNL A   1      41.357  28.533  29.705  1.00  0.00     0.029 A 
ATOM     52  N   UNL A   1      41.584  28.904  31.865  1.00  0.00    -0.354 N 
ATOM     53  C   UNL A   1      39.096  31.959  33.563  1.00  0.00     0.074 A 
ATOM     54  C   UNL A   1      38.243  30.872  33.995  1.00  0.00     0.031 C 
ATOM     55  C   UNL A   1      42.466  27.866  30.100  1.00  0.00     0.029 A 
ATOM     56  C   UNL A   1      42.664  28.077  31.532  1.00  0.00     0.049 A 
ATOM     57  H   UNL A   1      41.477  29.304  32.758  1.00  0.00     0.167 HD
ATOM     58  C   UNL A   1      39.675  33.004  34.212  1.00  0.00     0.031 A 
ATOM     59  C   UNL A   1      43.923  28.027  32.051  1.00  0.00     0.031 A 
ATOM     60  C   UNL A   1      40.550  33.764  33.344  1.00  0.00     0.049 A 
ATOM     61  C   UNL A   1      44.225  29.394  32.533  1.00  0.00     0.074 A 
ATOM     62  C   UNL A   1      40.365  34.495  32.185  1.00  0.00     0.029 A 
ATOM     63  N   UNL A   1      41.896  33.469  33.397  1.00  0.00    -0.354 N 
ATOM     64  N   UNL A   1      44.481  30.393  31.738  1.00  0.00    -0.248 NA
ATOM     65  C   UNL A   1      43.908  29.756  33.907  1.00  0.00     0.031 C 
ATOM     66  C   UNL A   1      41.522  34.253  31.389  1.00  0.00     0.029 A 
ATOM     67  C   UNL A   1      42.389  33.432  32.113  1.00  0.00     0.049 A 
ATOM     68  H   UNL A   1      42.416  33.312  34.217  1.00  0.00     0.167 HD
ATOM     69  C   UNL A   1      43.926  31.492  32.371  1.00  0.00     0.074 A 
ATOM     70  C   UNL A   1      43.705  31.065  33.747  1.00  0.00     0.031 C 
ATOM     71  C   UNL A   1      43.462  32.558  31.658  1.00  0.00     0.031 A 
BRANCH  58  72
ATOM     72  C   UNL A   1      39.651  33.174  35.694  1.00  0.00    -0.014 A 
ATOM     73  C   UNL A   1      38.538  33.687  36.387  1.00  0.00     0.010 A 
ATOM     74  C   UNL A   1      40.718  32.669  36.459  1.00  0.00     0.010 A 
ATOM     75  C   UNL A   1      38.517  33.779  37.776  1.00  0.00     0.020 A 
ATOM     76  C   UNL A   1      40.687  32.711  37.858  1.00  0.00     0.020 A 
ATOM     77  C   UNL A   1      39.595  33.288  38.505  1.00  0.00     0.054 A 
BRANCH  77  78
ATOM     78  S   UNL A   1      39.509  33.378  40.307  1.00  0.00     0.124 S 
ATOM     79  O   UNL A   1      38.373  34.273  40.508  1.00  0.00    -0.237 OA
ATOM     80  O   UNL A   1      39.286  31.984  40.678  1.00  0.00    -0.237 OA
ATOM     81  O   UNL A   1      40.810  33.922  40.685  1.00  0.00    -0.744 OA
ENDBRANCH  77  78
ENDBRANCH  58  72
BRANCH  59  82
ATOM     82  C   UNL A   1      44.502  26.829  32.732  1.00  0.00    -0.014 A 
ATOM     83  C   UNL A   1      44.538  25.569  32.109  1.00  0.00     0.010 A 
ATOM     84  C   UNL A   1      44.889  26.901  34.088  1.00  0.00     0.010 A 
ATOM     85  C   UNL A   1      44.805  24.406  32.848  1.00  0.00     0.020 A 
ATOM     86  C   UNL A   1      45.159  25.741  34.834  1.00  0.00     0.020 A 
ATOM     87  C   UNL A   1      45.058  24.496  34.217  1.00  0.00     0.054 A 
BRANCH  87  88
ATOM     88  S   UNL A   1      45.141  22.962  35.189  1.00  0.00     0.124 S 
ATOM     89  O   UNL A   1      45.610  23.453  36.481  1.00  0.00    -0.237 OA
ATOM     90  O   UNL A   1      43.760  22.487  35.163  1.00  0.00    -0.237 OA
ATOM     91  O   UNL A   1      46.093  22.134  34.453  1.00  0.00    -0.744 OA
ENDBRANCH  87  88
ENDBRANCH  59  82
BRANCH  71  92
ATOM     92  C   UNL A   1      43.888  32.701  30.206  1.00  0.00    -0.014 A 
ATOM     93  C   UNL A   1      43.487  31.694  29.309  1.00  0.00     0.010 A 
ATOM     94  C   UNL A   1      44.785  33.683  29.739  1.00  0.00     0.010 A 
ATOM     95  C   UNL A   1      44.006  31.631  28.013  1.00  0.00     0.020 A 
ATOM     96  C   UNL A   1      45.293  33.642  28.430  1.00  0.00     0.020 A 
ATOM     97  C   UNL A   1      44.924  32.593  27.586  1.00  0.00     0.054 A 
BRANCH  97  98
ATOM     98  S   UNL A   1      45.646  32.415  25.931  1.00  0.00     0.124 S 
ATOM     99  O   UNL A   1      46.897  33.159  26.060  1.00  0.00    -0.237 OA
ATOM    100  O   UNL A   1      45.795  30.968  25.797  1.00  0.00    -0.237 OA
ATOM    101  O   UNL A   1      44.656  33.020  25.042  1.00  0.00    -0.744 OA
ENDBRANCH  97  98
ENDBRANCH  71  92
ENDBRANCH  45  46
ENDBRANCH  38  40
ENDBRANCH  37  38
ENDBRANCH  36  37
ENDBRANCH  35  36
ENDBRANCH  34  35
ENDBRANCH  33  34
ENDBRANCH   1  33
TORSDOF 25
ENDMDL
