MODEL 1
REMARK VINA RESULT:      -9.8      0.000      0.000
REMARK SMILES Cc1cc2c(=O)c3ccccc3oc2c(C(=O)OCCOCCOCCOC(=O)c2ccc(-c3c4nc(c(-c5ccc(S(=O)(=O)[O-])cc5)c5ccc([nH]5)c(-c5ccc(S(=O)(=O)[O-])cc5)c5nc(c(-c6ccc(S(=O)(=O)[O-])cc6)c6ccc3[nH]6)C=C5)C=C4)cc2)c1C
REMARK SMILES IDX 24 1 23 2 22 3 21 4 20 5 19 6 18 7 16 8 17 9 15 10 1 11 2 12
REMARK SMILES IDX 3 13 90 14 4 15 91 16 5 17 14 18 6 19 7 20 13 21 8 22 12 23
REMARK SMILES IDX 9 24 11 25 10 26 25 27 26 28 27 29 28 30 29 31 30 32 31 33
REMARK SMILES IDX 89 34 32 35 88 36 33 37 34 38 35 39 82 40 36 41 87 42 81 43
REMARK SMILES IDX 83 44 37 45 86 46 80 47 79 48 38 50 68 51 49 52 67 53 50 54
REMARK SMILES IDX 53 55 66 56 84 57 51 58 52 59 65 61 85 62 54 63 39 64 40 65
REMARK SMILES IDX 48 66 41 67 47 68 42 69 43 70 44 71 45 72 46 73 69 74 70 75
REMARK SMILES IDX 78 76 71 77 77 78 72 79 73 80 74 81 75 82 76 83 55 84 56 85
REMARK SMILES IDX 64 86 57 87 63 88 58 89 59 90 60 91 61 92 62 93
REMARK H PARENT 83 49 53 60
REMARK Flexibility Score: inf
ROOT
ATOM      1  O   UNL A   1      42.475  19.286  26.823  1.00  0.00    -0.376 OA
ENDROOT
BRANCH   1   2
ATOM      2  C   UNL A   1      43.156  18.938  25.632  1.00  0.00     0.188 C 
BRANCH   2   3
ATOM      3  C   UNL A   1      44.643  18.516  25.652  1.00  0.00     0.188 C 
BRANCH   3   4
ATOM      4  O   UNL A   1      45.516  18.985  24.644  1.00  0.00    -0.376 OA
BRANCH   4   5
ATOM      5  C   UNL A   1      46.239  20.194  24.823  1.00  0.00     0.202 C 
BRANCH   5   6
ATOM      6  C   UNL A   1      45.630  21.579  24.568  1.00  0.00     0.261 C 
BRANCH   6   7
ATOM      7  O   UNL A   1      46.463  22.675  24.960  1.00  0.00    -0.460 OA
BRANCH   7   8
ATOM      8  C   UNL A   1      46.083  23.333  26.086  1.00  0.00     0.342 C 
ATOM      9  O   UNL A   1      45.948  22.845  27.195  1.00  0.00    -0.246 OA
BRANCH   8  10
ATOM     10  C   UNL A   1      45.904  24.783  25.807  1.00  0.00     0.106 A 
ATOM     11  C   UNL A   1      43.189  27.370  24.942  1.00  0.00     0.044 C 
ATOM     12  C   UNL A   1      44.498  26.715  25.293  1.00  0.00    -0.046 A 
ATOM     13  C   UNL A   1      45.613  27.542  25.480  1.00  0.00     0.019 A 
ATOM     14  C   UNL A   1      44.635  25.316  25.445  1.00  0.00    -0.030 A 
ATOM     15  C   UNL A   1      46.862  26.997  25.780  1.00  0.00     0.067 A 
ATOM     16  C   UNL A   1      43.469  24.405  25.140  1.00  0.00     0.046 C 
ATOM     17  C   UNL A   1      48.020  27.893  25.901  1.00  0.00     0.200 A 
ATOM     18  C   UNL A   1      47.028  25.625  25.944  1.00  0.00     0.153 A 
ATOM     19  O   UNL A   1      47.899  29.108  25.793  1.00  0.00    -0.288 OA
ATOM     20  C   UNL A   1      49.317  27.265  26.141  1.00  0.00     0.065 A 
ATOM     21  O   UNL A   1      48.263  25.060  26.187  1.00  0.00    -0.455 OA
ATOM     22  C   UNL A   1      50.474  28.047  26.238  1.00  0.00     0.016 A 
ATOM     23  C   UNL A   1      49.365  25.880  26.275  1.00  0.00     0.138 A 
ATOM     24  C   UNL A   1      51.695  27.433  26.489  1.00  0.00     0.001 A 
ATOM     25  C   UNL A   1      50.593  25.270  26.529  1.00  0.00     0.048 A 
ATOM     26  C   UNL A   1      51.749  26.050  26.648  1.00  0.00     0.004 A 
ENDBRANCH   8  10
ENDBRANCH   7   8
ENDBRANCH   6   7
ENDBRANCH   5   6
ENDBRANCH   4   5
ENDBRANCH   3   4
ENDBRANCH   2   3
ENDBRANCH   1   2
BRANCH   1  27
ATOM     27  C   UNL A   1      42.028  20.620  27.008  1.00  0.00     0.202 C 
BRANCH  27  28
ATOM     28  C   UNL A   1      40.549  20.999  26.879  1.00  0.00     0.261 C 
BRANCH  28  29
ATOM     29  O   UNL A   1      40.271  22.070  25.968  1.00  0.00    -0.460 OA
BRANCH  29  30
ATOM     30  C   UNL A   1      39.111  22.737  26.189  1.00  0.00     0.338 C 
ATOM     31  O   UNL A   1      37.975  22.306  26.070  1.00  0.00    -0.246 OA
BRANCH  30  32
ATOM     32  C   UNL A   1      39.429  24.043  26.796  1.00  0.00     0.060 A 
ATOM     33  C   UNL A   1      39.120  24.292  28.134  1.00  0.00     0.016 A 
ATOM     34  C   UNL A   1      40.041  25.029  26.008  1.00  0.00     0.016 A 
ATOM     35  C   UNL A   1      39.447  25.530  28.691  1.00  0.00     0.010 A 
ATOM     36  C   UNL A   1      40.343  26.275  26.561  1.00  0.00     0.010 A 
ATOM     37  C   UNL A   1      40.068  26.523  27.913  1.00  0.00    -0.014 A 
BRANCH  37  38
ATOM     38  C   UNL A   1      40.562  27.760  28.562  1.00  0.00     0.031 A 
ATOM     39  C   UNL A   1      42.009  27.948  28.895  1.00  0.00     0.074 A 
ATOM     40  C   UNL A   1      39.671  28.735  28.821  1.00  0.00     0.049 A 
ATOM     41  N   UNL A   1      42.591  28.957  29.491  1.00  0.00    -0.248 NA
ATOM     42  C   UNL A   1      42.923  26.861  28.519  1.00  0.00     0.031 C 
ATOM     43  C   UNL A   1      38.245  28.664  28.498  1.00  0.00     0.029 A 
ATOM     44  N   UNL A   1      39.831  29.982  29.366  1.00  0.00    -0.354 N 
ATOM     45  C   UNL A   1      43.930  28.605  29.623  1.00  0.00     0.074 A 
ATOM     46  C   UNL A   1      44.078  27.304  29.004  1.00  0.00     0.031 C 
ATOM     47  C   UNL A   1      37.675  29.843  28.785  1.00  0.00     0.029 A 
ATOM     48  C   UNL A   1      38.681  30.734  29.359  1.00  0.00     0.049 A 
ATOM     49  H   UNL A   1      40.686  30.307  29.730  1.00  0.00     0.167 HD
ATOM     50  C   UNL A   1      44.920  29.300  30.234  1.00  0.00     0.031 A 
ATOM     51  C   UNL A   1      38.462  32.007  29.745  1.00  0.00     0.031 A 
ATOM     52  C   UNL A   1      44.754  30.637  30.757  1.00  0.00     0.049 A 
ATOM     53  C   UNL A   1      39.610  32.816  30.277  1.00  0.00     0.074 A 
ATOM     54  C   UNL A   1      45.709  31.453  31.343  1.00  0.00     0.029 A 
ATOM     55  N   UNL A   1      43.580  31.375  30.713  1.00  0.00    -0.354 N 
ATOM     56  N   UNL A   1      40.857  32.451  30.451  1.00  0.00    -0.248 NA
ATOM     57  C   UNL A   1      39.334  34.211  30.646  1.00  0.00     0.031 C 
ATOM     58  C   UNL A   1      45.104  32.661  31.692  1.00  0.00     0.029 A 
ATOM     59  C   UNL A   1      43.791  32.635  31.249  1.00  0.00     0.049 A 
ATOM     60  H   UNL A   1      42.721  31.051  30.354  1.00  0.00     0.167 HD
ATOM     61  C   UNL A   1      41.519  33.573  30.935  1.00  0.00     0.074 A 
ATOM     62  C   UNL A   1      40.540  34.639  31.001  1.00  0.00     0.031 C 
ATOM     63  C   UNL A   1      42.818  33.700  31.299  1.00  0.00     0.031 A 
BRANCH  50  64
ATOM     64  C   UNL A   1      46.278  28.655  30.400  1.00  0.00    -0.014 A 
ATOM     65  C   UNL A   1      46.601  28.036  31.626  1.00  0.00     0.010 A 
ATOM     66  C   UNL A   1      47.281  28.777  29.424  1.00  0.00     0.010 A 
ATOM     67  C   UNL A   1      47.902  27.600  31.893  1.00  0.00     0.020 A 
ATOM     68  C   UNL A   1      48.576  28.301  29.668  1.00  0.00     0.020 A 
ATOM     69  C   UNL A   1      48.884  27.746  30.913  1.00  0.00     0.054 A 
BRANCH  69  70
ATOM     70  S   UNL A   1      50.581  27.218  31.284  1.00  0.00     0.124 S 
ATOM     71  O   UNL A   1      51.201  27.225  29.961  1.00  0.00    -0.237 OA
ATOM     72  O   UNL A   1      51.046  28.253  32.204  1.00  0.00    -0.237 OA
ATOM     73  O   UNL A   1      50.402  25.898  31.884  1.00  0.00    -0.744 OA
ENDBRANCH  69  70
ENDBRANCH  50  64
BRANCH  51  74
ATOM     74  C   UNL A   1      37.109  32.596  29.546  1.00  0.00    -0.014 A 
ATOM     75  C   UNL A   1      36.778  33.247  28.344  1.00  0.00     0.010 A 
ATOM     76  C   UNL A   1      36.184  32.606  30.606  1.00  0.00     0.010 A 
ATOM     77  C   UNL A   1      35.579  33.954  28.227  1.00  0.00     0.020 A 
ATOM     78  C   UNL A   1      34.967  33.282  30.481  1.00  0.00     0.020 A 
ATOM     79  C   UNL A   1      34.687  33.980  29.304  1.00  0.00     0.054 A 
BRANCH  79  80
ATOM     80  S   UNL A   1      33.170  34.961  29.154  1.00  0.00     0.124 S 
ATOM     81  O   UNL A   1      32.407  34.186  28.181  1.00  0.00    -0.237 OA
ATOM     82  O   UNL A   1      32.648  34.949  30.518  1.00  0.00    -0.237 OA
ATOM     83  O   UNL A   1      33.647  36.260  28.683  1.00  0.00    -0.744 OA
ENDBRANCH  79  80
ENDBRANCH  51  74
BRANCH  63  84
ATOM     84  C   UNL A   1      43.298  35.041  31.794  1.00  0.00    -0.014 A 
ATOM     85  C   UNL A   1      43.028  35.428  33.121  1.00  0.00     0.010 A 
ATOM     86  C   UNL A   1      43.882  35.974  30.917  1.00  0.00     0.010 A 
ATOM     87  C   UNL A   1      43.296  36.730  33.553  1.00  0.00     0.020 A 
ATOM     88  C   UNL A   1      44.181  37.268  31.354  1.00  0.00     0.020 A 
ATOM     89  C   UNL A   1      43.860  37.646  32.662  1.00  0.00     0.054 A 
BRANCH  89  90
ATOM     90  S   UNL A   1      44.155  39.345  33.226  1.00  0.00     0.124 S 
ATOM     91  O   UNL A   1      44.975  39.136  34.416  1.00  0.00    -0.237 OA
ATOM     92  O   UNL A   1      44.841  39.946  32.085  1.00  0.00    -0.237 OA
ATOM     93  O   UNL A   1      42.812  39.862  33.478  1.00  0.00    -0.744 OA
ENDBRANCH  89  90
ENDBRANCH  63  84
ENDBRANCH  37  38
ENDBRANCH  30  32
ENDBRANCH  29  30
ENDBRANCH  28  29
ENDBRANCH  27  28
ENDBRANCH   1  27
TORSDOF 20
ENDMDL
MODEL 2
REMARK VINA RESULT:      -9.5      4.194     11.851
REMARK SMILES Cc1cc2c(=O)c3ccccc3oc2c(C(=O)OCCOCCOCCOC(=O)c2ccc(-c3c4nc(c(-c5ccc(S(=O)(=O)[O-])cc5)c5ccc([nH]5)c(-c5ccc(S(=O)(=O)[O-])cc5)c5nc(c(-c6ccc(S(=O)(=O)[O-])cc6)c6ccc3[nH]6)C=C5)C=C4)cc2)c1C
REMARK SMILES IDX 24 1 23 2 22 3 21 4 20 5 19 6 18 7 16 8 17 9 15 10 1 11 2 12
REMARK SMILES IDX 3 13 90 14 4 15 91 16 5 17 14 18 6 19 7 20 13 21 8 22 12 23
REMARK SMILES IDX 9 24 11 25 10 26 25 27 26 28 27 29 28 30 29 31 30 32 31 33
REMARK SMILES IDX 89 34 32 35 88 36 33 37 34 38 35 39 82 40 36 41 87 42 81 43
REMARK SMILES IDX 83 44 37 45 86 46 80 47 79 48 38 50 68 51 49 52 67 53 50 54
REMARK SMILES IDX 53 55 66 56 84 57 51 58 52 59 65 61 85 62 54 63 39 64 40 65
REMARK SMILES IDX 48 66 41 67 47 68 42 69 43 70 44 71 45 72 46 73 69 74 70 75
REMARK SMILES IDX 78 76 71 77 77 78 72 79 73 80 74 81 75 82 76 83 55 84 56 85
REMARK SMILES IDX 64 86 57 87 63 88 58 89 59 90 60 91 61 92 62 93
REMARK H PARENT 83 49 53 60
REMARK Flexibility Score: inf
ROOT
ATOM      1  O   UNL A   1      31.642  27.846  26.683  1.00  0.00    -0.376 OA
ENDROOT
BRANCH   1   2
ATOM      2  C   UNL A   1      31.647  26.647  25.930  1.00  0.00     0.188 C 
BRANCH   2   3
ATOM      3  C   UNL A   1      30.331  26.000  25.441  1.00  0.00     0.188 C 
BRANCH   3   4
ATOM      4  O   UNL A   1      30.305  25.319  24.203  1.00  0.00    -0.376 OA
BRANCH   4   5
ATOM      5  C   UNL A   1      31.476  25.228  23.406  1.00  0.00     0.202 C 
BRANCH   5   6
ATOM      6  C   UNL A   1      32.336  23.960  23.323  1.00  0.00     0.261 C 
BRANCH   6   7
ATOM      7  O   UNL A   1      31.948  22.919  24.227  1.00  0.00    -0.460 OA
BRANCH   7   8
ATOM      8  C   UNL A   1      32.537  22.951  25.450  1.00  0.00     0.342 C 
ATOM      9  O   UNL A   1      31.992  23.217  26.507  1.00  0.00    -0.246 OA
BRANCH   8  10
ATOM     10  C   UNL A   1      33.966  22.548  25.351  1.00  0.00     0.106 A 
ATOM     11  C   UNL A   1      37.526  23.965  25.708  1.00  0.00     0.044 C 
ATOM     12  C   UNL A   1      36.355  23.041  25.513  1.00  0.00    -0.046 A 
ATOM     13  C   UNL A   1      36.620  21.678  25.333  1.00  0.00     0.019 A 
ATOM     14  C   UNL A   1      35.016  23.496  25.514  1.00  0.00    -0.030 A 
ATOM     15  C   UNL A   1      35.582  20.771  25.120  1.00  0.00     0.067 A 
ATOM     16  C   UNL A   1      34.720  24.974  25.598  1.00  0.00     0.046 C 
ATOM     17  C   UNL A   1      35.907  19.361  24.866  1.00  0.00     0.200 A 
ATOM     18  C   UNL A   1      34.253  21.185  25.122  1.00  0.00     0.153 A 
ATOM     19  O   UNL A   1      37.065  18.961  24.889  1.00  0.00    -0.288 OA
ATOM     20  C   UNL A   1      34.787  18.468  24.575  1.00  0.00     0.065 A 
ATOM     21  O   UNL A   1      33.213  20.317  24.859  1.00  0.00    -0.455 OA
ATOM     22  C   UNL A   1      35.016  17.117  24.292  1.00  0.00     0.016 A 
ATOM     23  C   UNL A   1      33.500  18.998  24.592  1.00  0.00     0.138 A 
ATOM     24  C   UNL A   1      33.937  16.279  24.039  1.00  0.00     0.001 A 
ATOM     25  C   UNL A   1      32.421  18.151  24.339  1.00  0.00     0.048 A 
ATOM     26  C   UNL A   1      32.643  16.794  24.077  1.00  0.00     0.004 A 
ENDBRANCH   8  10
ENDBRANCH   7   8
ENDBRANCH   6   7
ENDBRANCH   5   6
ENDBRANCH   4   5
ENDBRANCH   3   4
ENDBRANCH   2   3
ENDBRANCH   1   2
BRANCH   1  27
ATOM     27  C   UNL A   1      31.702  29.094  26.010  1.00  0.00     0.202 C 
BRANCH  27  28
ATOM     28  C   UNL A   1      32.708  30.178  26.414  1.00  0.00     0.261 C 
BRANCH  28  29
ATOM     29  O   UNL A   1      33.637  29.796  27.435  1.00  0.00    -0.460 OA
BRANCH  29  30
ATOM     30  C   UNL A   1      34.414  30.796  27.920  1.00  0.00     0.338 C 
ATOM     31  O   UNL A   1      34.064  31.928  28.215  1.00  0.00    -0.246 OA
BRANCH  30  32
ATOM     32  C   UNL A   1      35.748  30.247  28.229  1.00  0.00     0.060 A 
ATOM     33  C   UNL A   1      36.764  30.289  27.275  1.00  0.00     0.016 A 
ATOM     34  C   UNL A   1      35.975  29.680  29.492  1.00  0.00     0.016 A 
ATOM     35  C   UNL A   1      38.023  29.779  27.596  1.00  0.00     0.010 A 
ATOM     36  C   UNL A   1      37.227  29.147  29.801  1.00  0.00     0.010 A 
ATOM     37  C   UNL A   1      38.266  29.215  28.862  1.00  0.00    -0.014 A 
BRANCH  37  38
ATOM     38  C   UNL A   1      39.647  28.839  29.244  1.00  0.00     0.031 A 
ATOM     39  C   UNL A   1      40.473  29.700  30.147  1.00  0.00     0.074 A 
ATOM     40  C   UNL A   1      40.135  27.675  28.778  1.00  0.00     0.049 A 
ATOM     41  N   UNL A   1      41.706  29.524  30.548  1.00  0.00    -0.248 NA
ATOM     42  C   UNL A   1      39.840  30.921  30.664  1.00  0.00     0.031 C 
ATOM     43  C   UNL A   1      39.393  26.746  27.923  1.00  0.00     0.029 A 
ATOM     44  N   UNL A   1      41.338  27.052  28.986  1.00  0.00    -0.354 N 
ATOM     45  C   UNL A   1      42.025  30.642  31.311  1.00  0.00     0.074 A 
ATOM     46  C   UNL A   1      40.836  31.468  31.351  1.00  0.00     0.031 C 
ATOM     47  C   UNL A   1      40.129  25.641  27.741  1.00  0.00     0.029 A 
ATOM     48  C   UNL A   1      41.413  25.803  28.419  1.00  0.00     0.049 A 
ATOM     49  H   UNL A   1      42.077  27.461  29.492  1.00  0.00     0.167 HD
ATOM     50  C   UNL A   1      43.212  30.947  31.890  1.00  0.00     0.031 A 
ATOM     51  C   UNL A   1      42.393  24.878  28.460  1.00  0.00     0.031 A 
ATOM     52  C   UNL A   1      44.348  30.053  31.908  1.00  0.00     0.049 A 
ATOM     53  C   UNL A   1      43.643  25.173  29.239  1.00  0.00     0.074 A 
ATOM     54  C   UNL A   1      45.577  30.242  32.518  1.00  0.00     0.029 A 
ATOM     55  N   UNL A   1      44.380  28.787  31.341  1.00  0.00    -0.354 N 
ATOM     56  N   UNL A   1      43.954  26.258  29.906  1.00  0.00    -0.248 NA
ATOM     57  C   UNL A   1      44.665  24.119  29.291  1.00  0.00     0.031 C 
ATOM     58  C   UNL A   1      46.365  29.114  32.282  1.00  0.00     0.029 A 
ATOM     59  C   UNL A   1      45.601  28.184  31.596  1.00  0.00     0.049 A 
ATOM     60  H   UNL A   1      43.643  28.377  30.830  1.00  0.00     0.167 HD
ATOM     61  C   UNL A   1      45.200  26.013  30.471  1.00  0.00     0.074 A 
ATOM     62  C   UNL A   1      45.574  24.667  30.089  1.00  0.00     0.031 C 
ATOM     63  C   UNL A   1      45.964  26.837  31.228  1.00  0.00     0.031 A 
BRANCH  50  64
ATOM     64  C   UNL A   1      43.385  32.299  32.548  1.00  0.00    -0.014 A 
ATOM     65  C   UNL A   1      43.908  33.370  31.792  1.00  0.00     0.010 A 
ATOM     66  C   UNL A   1      43.175  32.486  33.924  1.00  0.00     0.010 A 
ATOM     67  C   UNL A   1      44.264  34.575  32.403  1.00  0.00     0.020 A 
ATOM     68  C   UNL A   1      43.488  33.708  34.533  1.00  0.00     0.020 A 
ATOM     69  C   UNL A   1      44.061  34.732  33.774  1.00  0.00     0.054 A 
BRANCH  69  70
ATOM     70  S   UNL A   1      44.566  36.285  34.567  1.00  0.00     0.124 S 
ATOM     71  O   UNL A   1      45.746  35.873  35.324  1.00  0.00    -0.237 OA
ATOM     72  O   UNL A   1      44.823  37.160  33.425  1.00  0.00    -0.237 OA
ATOM     73  O   UNL A   1      43.402  36.650  35.371  1.00  0.00    -0.744 OA
ENDBRANCH  69  70
ENDBRANCH  50  64
BRANCH  51  74
ATOM     74  C   UNL A   1      42.164  23.560  27.807  1.00  0.00    -0.014 A 
ATOM     75  C   UNL A   1      41.593  22.492  28.523  1.00  0.00     0.010 A 
ATOM     76  C   UNL A   1      42.624  23.335  26.497  1.00  0.00     0.010 A 
ATOM     77  C   UNL A   1      41.546  21.211  27.969  1.00  0.00     0.020 A 
ATOM     78  C   UNL A   1      42.547  22.061  25.925  1.00  0.00     0.020 A 
ATOM     79  C   UNL A   1      42.039  21.000  26.678  1.00  0.00     0.054 A 
BRANCH  79  80
ATOM     80  S   UNL A   1      42.033  19.316  26.007  1.00  0.00     0.124 S 
ATOM     81  O   UNL A   1      42.995  19.427  24.913  1.00  0.00    -0.237 OA
ATOM     82  O   UNL A   1      42.467  18.517  27.149  1.00  0.00    -0.237 OA
ATOM     83  O   UNL A   1      40.644  19.114  25.600  1.00  0.00    -0.744 OA
ENDBRANCH  79  80
ENDBRANCH  51  74
BRANCH  63  84
ATOM     84  C   UNL A   1      47.292  26.326  31.730  1.00  0.00    -0.014 A 
ATOM     85  C   UNL A   1      48.354  26.147  30.821  1.00  0.00     0.010 A 
ATOM     86  C   UNL A   1      47.449  25.888  33.057  1.00  0.00     0.010 A 
ATOM     87  C   UNL A   1      49.531  25.507  31.218  1.00  0.00     0.020 A 
ATOM     88  C   UNL A   1      48.638  25.275  33.467  1.00  0.00     0.020 A 
ATOM     89  C   UNL A   1      49.660  25.064  32.536  1.00  0.00     0.054 A 
BRANCH  89  90
ATOM     90  S   UNL A   1      51.175  24.191  33.020  1.00  0.00     0.124 S 
ATOM     91  O   UNL A   1      51.346  23.241  31.925  1.00  0.00    -0.237 OA
ATOM     92  O   UNL A   1      52.160  25.268  33.079  1.00  0.00    -0.237 OA
ATOM     93  O   UNL A   1      50.834  23.599  34.311  1.00  0.00    -0.744 OA
ENDBRANCH  89  90
ENDBRANCH  63  84
ENDBRANCH  37  38
ENDBRANCH  30  32
ENDBRANCH  29  30
ENDBRANCH  28  29
ENDBRANCH  27  28
ENDBRANCH   1  27
TORSDOF 20
ENDMDL
MODEL 3
REMARK VINA RESULT:      -9.5      4.304     11.506
REMARK SMILES Cc1cc2c(=O)c3ccccc3oc2c(C(=O)OCCOCCOCCOC(=O)c2ccc(-c3c4nc(c(-c5ccc(S(=O)(=O)[O-])cc5)c5ccc([nH]5)c(-c5ccc(S(=O)(=O)[O-])cc5)c5nc(c(-c6ccc(S(=O)(=O)[O-])cc6)c6ccc3[nH]6)C=C5)C=C4)cc2)c1C
REMARK SMILES IDX 24 1 23 2 22 3 21 4 20 5 19 6 18 7 16 8 17 9 15 10 1 11 2 12
REMARK SMILES IDX 3 13 90 14 4 15 91 16 5 17 14 18 6 19 7 20 13 21 8 22 12 23
REMARK SMILES IDX 9 24 11 25 10 26 25 27 26 28 27 29 28 30 29 31 30 32 31 33
REMARK SMILES IDX 89 34 32 35 88 36 33 37 34 38 35 39 82 40 36 41 87 42 81 43
REMARK SMILES IDX 83 44 37 45 86 46 80 47 79 48 38 50 68 51 49 52 67 53 50 54
REMARK SMILES IDX 53 55 66 56 84 57 51 58 52 59 65 61 85 62 54 63 39 64 40 65
REMARK SMILES IDX 48 66 41 67 47 68 42 69 43 70 44 71 45 72 46 73 69 74 70 75
REMARK SMILES IDX 78 76 71 77 77 78 72 79 73 80 74 81 75 82 76 83 55 84 56 85
REMARK SMILES IDX 64 86 57 87 63 88 58 89 59 90 60 91 61 92 62 93
REMARK H PARENT 83 49 53 60
REMARK Flexibility Score: inf
ROOT
ATOM      1  O   UNL A   1      31.325  28.716  26.028  1.00  0.00    -0.376 OA
ENDROOT
BRANCH   1   2
ATOM      2  C   UNL A   1      31.431  27.375  25.587  1.00  0.00     0.188 C 
BRANCH   2   3
ATOM      3  C   UNL A   1      32.010  26.271  26.501  1.00  0.00     0.188 C 
BRANCH   3   4
ATOM      4  O   UNL A   1      31.194  25.184  26.887  1.00  0.00    -0.376 OA
BRANCH   4   5
ATOM      5  C   UNL A   1      31.284  23.939  26.210  1.00  0.00     0.202 C 
BRANCH   5   6
ATOM      6  C   UNL A   1      32.557  23.084  26.195  1.00  0.00     0.261 C 
BRANCH   6   7
ATOM      7  O   UNL A   1      32.384  21.770  25.655  1.00  0.00    -0.460 OA
BRANCH   7   8
ATOM      8  C   UNL A   1      32.977  21.544  24.454  1.00  0.00     0.342 C 
ATOM      9  O   UNL A   1      32.764  22.151  23.418  1.00  0.00    -0.246 OA
BRANCH   8  10
ATOM     10  C   UNL A   1      33.998  20.468  24.571  1.00  0.00     0.106 A 
ATOM     11  C   UNL A   1      34.458  16.683  24.054  1.00  0.00     0.044 C 
ATOM     12  C   UNL A   1      34.704  18.139  24.341  1.00  0.00    -0.046 A 
ATOM     13  C   UNL A   1      36.014  18.536  24.634  1.00  0.00     0.019 A 
ATOM     14  C   UNL A   1      33.672  19.107  24.316  1.00  0.00    -0.030 A 
ATOM     15  C   UNL A   1      36.306  19.867  24.936  1.00  0.00     0.067 A 
ATOM     16  C   UNL A   1      32.239  18.678  24.109  1.00  0.00     0.046 C 
ATOM     17  C   UNL A   1      37.681  20.229  25.306  1.00  0.00     0.200 A 
ATOM     18  C   UNL A   1      35.315  20.844  24.914  1.00  0.00     0.153 A 
ATOM     19  O   UNL A   1      38.581  19.397  25.305  1.00  0.00    -0.288 OA
ATOM     20  C   UNL A   1      37.916  21.620  25.686  1.00  0.00     0.065 A 
ATOM     21  O   UNL A   1      35.569  22.155  25.261  1.00  0.00    -0.455 OA
ATOM     22  C   UNL A   1      39.192  22.038  26.081  1.00  0.00     0.016 A 
ATOM     23  C   UNL A   1      36.845  22.508  25.638  1.00  0.00     0.138 A 
ATOM     24  C   UNL A   1      39.401  23.370  26.417  1.00  0.00     0.001 A 
ATOM     25  C   UNL A   1      37.062  23.844  25.974  1.00  0.00     0.048 A 
ATOM     26  C   UNL A   1      38.341  24.271  26.349  1.00  0.00     0.004 A 
ENDBRANCH   8  10
ENDBRANCH   7   8
ENDBRANCH   6   7
ENDBRANCH   5   6
ENDBRANCH   4   5
ENDBRANCH   3   4
ENDBRANCH   2   3
ENDBRANCH   1   2
BRANCH   1  27
ATOM     27  C   UNL A   1      32.214  29.694  25.512  1.00  0.00     0.202 C 
BRANCH  27  28
ATOM     28  C   UNL A   1      33.580  29.958  26.154  1.00  0.00     0.261 C 
BRANCH  28  29
ATOM     29  O   UNL A   1      33.539  30.364  27.528  1.00  0.00    -0.460 OA
BRANCH  29  30
ATOM     30  C   UNL A   1      34.298  31.444  27.840  1.00  0.00     0.338 C 
ATOM     31  O   UNL A   1      33.948  32.614  27.857  1.00  0.00    -0.246 OA
BRANCH  30  32
ATOM     32  C   UNL A   1      35.597  30.972  28.355  1.00  0.00     0.060 A 
ATOM     33  C   UNL A   1      36.735  31.769  28.231  1.00  0.00     0.016 A 
ATOM     34  C   UNL A   1      35.669  29.711  28.965  1.00  0.00     0.016 A 
ATOM     35  C   UNL A   1      37.949  31.309  28.742  1.00  0.00     0.010 A 
ATOM     36  C   UNL A   1      36.891  29.243  29.452  1.00  0.00     0.010 A 
ATOM     37  C   UNL A   1      38.034  30.050  29.363  1.00  0.00    -0.014 A 
BRANCH  37  38
ATOM     38  C   UNL A   1      39.285  29.654  30.051  1.00  0.00     0.031 A 
ATOM     39  C   UNL A   1      39.673  30.238  31.373  1.00  0.00     0.074 A 
ATOM     40  C   UNL A   1      40.059  28.722  29.464  1.00  0.00     0.049 A 
ATOM     41  N   UNL A   1      40.749  30.018  32.084  1.00  0.00    -0.248 NA
ATOM     42  C   UNL A   1      38.739  31.200  31.974  1.00  0.00     0.031 C 
ATOM     43  C   UNL A   1      39.747  28.064  28.194  1.00  0.00     0.029 A 
ATOM     44  N   UNL A   1      41.230  28.136  29.868  1.00  0.00    -0.354 N 
ATOM     45  C   UNL A   1      40.659  30.860  33.187  1.00  0.00     0.074 A 
ATOM     46  C   UNL A   1      39.398  31.563  33.069  1.00  0.00     0.031 C 
ATOM     47  C   UNL A   1      40.664  27.114  27.960  1.00  0.00     0.029 A 
ATOM     48  C   UNL A   1      41.655  27.131  29.033  1.00  0.00     0.049 A 
ATOM     49  H   UNL A   1      41.720  28.410  30.677  1.00  0.00     0.167 HD
ATOM     50  C   UNL A   1      41.566  31.039  34.178  1.00  0.00     0.031 A 
ATOM     51  C   UNL A   1      42.710  26.298  29.129  1.00  0.00     0.031 A 
ATOM     52  C   UNL A   1      42.770  30.251  34.313  1.00  0.00     0.049 A 
ATOM     53  C   UNL A   1      43.621  26.408  30.319  1.00  0.00     0.074 A 
ATOM     54  C   UNL A   1      43.727  30.311  35.313  1.00  0.00     0.029 A 
ATOM     55  N   UNL A   1      43.157  29.227  33.459  1.00  0.00    -0.354 N 
ATOM     56  N   UNL A   1      43.556  27.248  31.324  1.00  0.00    -0.248 NA
ATOM     57  C   UNL A   1      44.732  25.451  30.404  1.00  0.00     0.031 C 
ATOM     58  C   UNL A   1      44.711  29.360  35.042  1.00  0.00     0.029 A 
ATOM     59  C   UNL A   1      44.329  28.646  33.918  1.00  0.00     0.049 A 
ATOM     60  H   UNL A   1      42.672  28.954  32.646  1.00  0.00     0.167 HD
ATOM     61  C   UNL A   1      44.608  26.912  32.169  1.00  0.00     0.074 A 
ATOM     62  C   UNL A   1      45.277  25.775  31.571  1.00  0.00     0.031 C 
ATOM     63  C   UNL A   1      44.984  27.503  33.329  1.00  0.00     0.031 A 
BRANCH  50  64
ATOM     64  C   UNL A   1      41.333  32.127  35.203  1.00  0.00    -0.014 A 
ATOM     65  C   UNL A   1      40.537  31.847  36.334  1.00  0.00     0.010 A 
ATOM     66  C   UNL A   1      41.764  33.448  34.994  1.00  0.00     0.010 A 
ATOM     67  C   UNL A   1      40.136  32.866  37.202  1.00  0.00     0.020 A 
ATOM     68  C   UNL A   1      41.403  34.465  35.886  1.00  0.00     0.020 A 
ATOM     69  C   UNL A   1      40.564  34.172  36.965  1.00  0.00     0.054 A 
BRANCH  69  70
ATOM     70  S   UNL A   1      40.003  35.497  38.073  1.00  0.00     0.124 S 
ATOM     71  O   UNL A   1      39.854  36.622  37.155  1.00  0.00    -0.237 OA
ATOM     72  O   UNL A   1      38.759  34.956  38.616  1.00  0.00    -0.237 OA
ATOM     73  O   UNL A   1      41.093  35.616  39.039  1.00  0.00    -0.744 OA
ENDBRANCH  69  70
ENDBRANCH  50  64
BRANCH  51  74
ATOM     74  C   UNL A   1      42.884  25.236  28.100  1.00  0.00    -0.014 A 
ATOM     75  C   UNL A   1      42.442  23.923  28.340  1.00  0.00     0.010 A 
ATOM     76  C   UNL A   1      43.597  25.512  26.919  1.00  0.00     0.010 A 
ATOM     77  C   UNL A   1      42.767  22.892  27.455  1.00  0.00     0.020 A 
ATOM     78  C   UNL A   1      43.893  24.490  26.012  1.00  0.00     0.020 A 
ATOM     79  C   UNL A   1      43.504  23.181  26.303  1.00  0.00     0.054 A 
BRANCH  79  80
ATOM     80  S   UNL A   1      43.974  21.817  25.205  1.00  0.00     0.124 S 
ATOM     81  O   UNL A   1      43.891  22.449  23.891  1.00  0.00    -0.237 OA
ATOM     82  O   UNL A   1      45.322  21.490  25.662  1.00  0.00    -0.237 OA
ATOM     83  O   UNL A   1      42.963  20.797  25.473  1.00  0.00    -0.744 OA
ENDBRANCH  79  80
ENDBRANCH  51  74
BRANCH  63  84
ATOM     84  C   UNL A   1      46.172  26.939  34.069  1.00  0.00    -0.014 A 
ATOM     85  C   UNL A   1      47.474  27.280  33.653  1.00  0.00     0.010 A 
ATOM     86  C   UNL A   1      46.009  25.968  35.073  1.00  0.00     0.010 A 
ATOM     87  C   UNL A   1      48.587  26.635  34.198  1.00  0.00     0.020 A 
ATOM     88  C   UNL A   1      47.122  25.342  35.643  1.00  0.00     0.020 A 
ATOM     89  C   UNL A   1      48.403  25.661  35.181  1.00  0.00     0.054 A 
BRANCH  89  90
ATOM     90  S   UNL A   1      49.858  24.799  35.841  1.00  0.00     0.124 S 
ATOM     91  O   UNL A   1      50.815  25.890  36.001  1.00  0.00    -0.237 OA
ATOM     92  O   UNL A   1      49.350  24.220  37.082  1.00  0.00    -0.237 OA
ATOM     93  O   UNL A   1      50.186  23.830  34.798  1.00  0.00    -0.744 OA
ENDBRANCH  89  90
ENDBRANCH  63  84
ENDBRANCH  37  38
ENDBRANCH  30  32
ENDBRANCH  29  30
ENDBRANCH  28  29
ENDBRANCH  27  28
ENDBRANCH   1  27
TORSDOF 20
ENDMDL
