MODEL 1
REMARK VINA RESULT:     -10.2      0.000      0.000
REMARK SMILES O=C(COc1ccccc1/C=C1/SC(=S)N(c2ccc(F)c(Cl)c2)C1=O)OCCOCCOCCOC(=O)c1ccc(-c2c3nc(c(-c4ccc(S(=O)(=O)[O-])cc4)c4ccc([nH]4)c(-c4ccc(S(=O)(=O)[O-])cc4)c4nc(c(-c5ccc(S(=O)(=O)[O-])cc5)c5ccc2[nH]5)C=C4)C=C3)cc1
REMARK SMILES IDX 31 1 30 2 29 3 28 4 27 5 2 6 1 7 3 8 4 9 5 10 6 11 10 12
REMARK SMILES IDX 7 13 9 14 8 15 11 16 12 17 13 18 25 19 14 20 16 21 26 22
REMARK SMILES IDX 15 23 17 24 18 25 24 26 19 27 22 28 20 29 23 30 21 31 32 32
REMARK SMILES IDX 33 33 34 34 35 35 36 36 37 37 38 38 39 39 40 40 98 41 41 42
REMARK SMILES IDX 97 43 42 44 43 45 44 46 91 47 45 48 96 49 90 50 92 51 46 52
REMARK SMILES IDX 95 53 89 54 88 55 47 57 77 58 58 59 76 60 59 61 62 62 75 63
REMARK SMILES IDX 93 64 60 65 61 66 74 68 94 69 63 70 48 71 49 72 57 73 50 74
REMARK SMILES IDX 56 75 51 76 52 77 53 78 54 79 55 80 78 81 79 82 87 83 80 84
REMARK SMILES IDX 86 85 81 86 82 87 83 88 84 89 85 90 64 91 65 92 73 93 66 94
REMARK SMILES IDX 72 95 67 96 68 97 69 98 70 99 71 100
REMARK H PARENT 92 56 62 67
REMARK Flexibility Score: inf
ROOT
ATOM      1  C   UNL A   1      39.389  23.149  26.537  1.00  0.00     0.188 C 
ENDROOT
BRANCH   1   2
ATOM      2  O   UNL A   1      38.110  23.079  25.913  1.00  0.00    -0.376 OA
BRANCH   2   3
ATOM      3  C   UNL A   1      37.846  21.862  25.235  1.00  0.00     0.202 C 
BRANCH   3   4
ATOM      4  C   UNL A   1      36.631  21.149  25.800  1.00  0.00     0.261 C 
BRANCH   4   5
ATOM      5  O   UNL A   1      35.724  20.583  24.823  1.00  0.00    -0.461 OA
BRANCH   5   6
ATOM      6  C   UNL A   1      35.041  19.417  24.912  1.00  0.00     0.344 C 
ATOM      7  O   UNL A   1      35.627  18.346  24.762  1.00  0.00    -0.248 OA
BRANCH   6   8
ATOM      8  C   UNL A   1      33.573  19.487  25.218  1.00  0.00     0.351 C 
BRANCH   8   9
ATOM      9  O   UNL A   1      33.170  20.852  25.244  1.00  0.00    -0.481 OA
BRANCH   9  10
ATOM     10  C   UNL A   1      32.865  21.294  23.988  1.00  0.00     0.127 A 
ATOM     11  C   UNL A   1      32.336  20.315  23.141  1.00  0.00     0.047 A 
ATOM     12  C   UNL A   1      33.043  22.623  23.562  1.00  0.00     0.018 A 
ATOM     13  C   UNL A   1      31.919  20.659  21.864  1.00  0.00     0.004 A 
ATOM     14  C   UNL A   1      32.613  22.946  22.268  1.00  0.00     0.012 A 
ATOM     15  C   UNL A   1      32.053  21.975  21.429  1.00  0.00     0.001 A 
BRANCH  12  16
ATOM     16  C   UNL A   1      33.513  23.752  24.390  1.00  0.00     0.033 C 
ATOM     17  C   UNL A   1      32.970  24.963  24.597  1.00  0.00     0.081 C 
ATOM     18  S   UNL A   1      33.760  26.166  25.552  1.00  0.00    -0.054 SA
ATOM     19  C   UNL A   1      31.727  25.534  24.010  1.00  0.00     0.270 C 
ATOM     20  C   UNL A   1      32.688  27.455  25.002  1.00  0.00     0.152 C 
ATOM     21  N   UNL A   1      31.709  26.929  24.168  1.00  0.00    -0.261 N 
ATOM     22  O   UNL A   1      30.891  24.843  23.442  1.00  0.00    -0.268 OA
ATOM     23  S   UNL A   1      32.863  29.009  25.602  1.00  0.00    -0.051 S 
BRANCH  21  24
ATOM     24  C   UNL A   1      30.750  27.711  23.433  1.00  0.00     0.052 A 
ATOM     25  C   UNL A   1      31.175  28.732  22.567  1.00  0.00     0.030 A 
ATOM     26  C   UNL A   1      29.366  27.571  23.657  1.00  0.00     0.050 A 
ATOM     27  C   UNL A   1      30.259  29.601  21.965  1.00  0.00     0.043 A 
ATOM     28  C   UNL A   1      28.453  28.455  23.070  1.00  0.00     0.078 A 
ATOM     29  C   UNL A   1      28.904  29.466  22.231  1.00  0.00     0.141 A 
ATOM     30  Cl  UNL A   1      26.777  28.313  23.443  1.00  0.00    -0.081 Cl
ATOM     31  F   UNL A   1      28.048  30.338  21.677  1.00  0.00    -0.205 F 
ENDBRANCH  21  24
ENDBRANCH  12  16
ENDBRANCH   9  10
ENDBRANCH   8   9
ENDBRANCH   6   8
ENDBRANCH   5   6
ENDBRANCH   4   5
ENDBRANCH   3   4
ENDBRANCH   2   3
ENDBRANCH   1   2
BRANCH   1  32
ATOM     32  C   UNL A   1      40.334  22.000  26.135  1.00  0.00     0.188 C 
BRANCH  32  33
ATOM     33  O   UNL A   1      41.635  22.468  25.785  1.00  0.00    -0.376 OA
BRANCH  33  34
ATOM     34  C   UNL A   1      42.004  23.689  26.424  1.00  0.00     0.202 C 
BRANCH  34  35
ATOM     35  C   UNL A   1      42.410  24.807  25.454  1.00  0.00     0.261 C 
BRANCH  35  36
ATOM     36  O   UNL A   1      41.619  26.013  25.501  1.00  0.00    -0.460 OA
BRANCH  36  37
ATOM     37  C   UNL A   1      42.230  27.219  25.562  1.00  0.00     0.338 C 
ATOM     38  O   UNL A   1      42.656  27.869  24.623  1.00  0.00    -0.246 OA
BRANCH  37  39
ATOM     39  C   UNL A   1      42.062  27.734  26.952  1.00  0.00     0.060 A 
ATOM     40  C   UNL A   1      41.365  26.955  27.890  1.00  0.00     0.016 A 
ATOM     41  C   UNL A   1      42.703  28.907  27.367  1.00  0.00     0.016 A 
ATOM     42  C   UNL A   1      41.289  27.360  29.230  1.00  0.00     0.010 A 
ATOM     43  C   UNL A   1      42.617  29.315  28.702  1.00  0.00     0.010 A 
ATOM     44  C   UNL A   1      41.886  28.562  29.639  1.00  0.00    -0.014 A 
BRANCH  44  45
ATOM     45  C   UNL A   1      41.549  29.184  30.947  1.00  0.00     0.031 A 
ATOM     46  C   UNL A   1      40.357  30.108  30.984  1.00  0.00     0.074 A 
ATOM     47  C   UNL A   1      42.287  29.008  32.061  1.00  0.00     0.049 A 
ATOM     48  N   UNL A   1      39.923  30.866  31.955  1.00  0.00    -0.248 NA
ATOM     49  C   UNL A   1      39.560  30.191  29.748  1.00  0.00     0.031 C 
ATOM     50  C   UNL A   1      43.446  28.128  32.189  1.00  0.00     0.029 A 
ATOM     51  N   UNL A   1      42.174  29.594  33.302  1.00  0.00    -0.354 N 
ATOM     52  C   UNL A   1      38.815  31.530  31.443  1.00  0.00     0.074 A 
ATOM     53  C   UNL A   1      38.652  31.098  30.072  1.00  0.00     0.031 C 
ATOM     54  C   UNL A   1      43.952  28.250  33.431  1.00  0.00     0.029 A 
ATOM     55  C   UNL A   1      43.175  29.242  34.177  1.00  0.00     0.049 A 
ATOM     56  H   UNL A   1      41.443  30.208  33.541  1.00  0.00     0.167 HD
ATOM     57  C   UNL A   1      38.004  32.426  32.051  1.00  0.00     0.031 A 
ATOM     58  C   UNL A   1      43.452  29.690  35.421  1.00  0.00     0.031 A 
ATOM     59  C   UNL A   1      38.160  32.877  33.404  1.00  0.00     0.049 A 
ATOM     60  C   UNL A   1      42.576  30.748  36.054  1.00  0.00     0.074 A 
ATOM     61  C   UNL A   1      37.357  33.752  34.113  1.00  0.00     0.029 A 
ATOM     62  N   UNL A   1      39.195  32.505  34.246  1.00  0.00    -0.354 N 
ATOM     63  N   UNL A   1      41.495  31.319  35.577  1.00  0.00    -0.248 NA
ATOM     64  C   UNL A   1      42.961  31.224  37.394  1.00  0.00     0.031 C 
ATOM     65  C   UNL A   1      37.941  33.959  35.366  1.00  0.00     0.029 A 
ATOM     66  C   UNL A   1      39.075  33.167  35.455  1.00  0.00     0.049 A 
ATOM     67  H   UNL A   1      39.909  31.868  34.017  1.00  0.00     0.167 HD
ATOM     68  C   UNL A   1      41.063  32.201  36.566  1.00  0.00     0.074 A 
ATOM     69  C   UNL A   1      41.987  32.081  37.672  1.00  0.00     0.031 C 
ATOM     70  C   UNL A   1      39.995  33.036  36.555  1.00  0.00     0.031 A 
BRANCH  57  71
ATOM     71  C   UNL A   1      36.888  33.011  31.231  1.00  0.00    -0.014 A 
ATOM     72  C   UNL A   1      37.155  33.830  30.120  1.00  0.00     0.010 A 
ATOM     73  C   UNL A   1      35.555  32.708  31.562  1.00  0.00     0.010 A 
ATOM     74  C   UNL A   1      36.104  34.360  29.369  1.00  0.00     0.020 A 
ATOM     75  C   UNL A   1      34.503  33.217  30.799  1.00  0.00     0.020 A 
ATOM     76  C   UNL A   1      34.784  34.051  29.715  1.00  0.00     0.054 A 
BRANCH  76  77
ATOM     77  S   UNL A   1      33.440  34.727  28.704  1.00  0.00     0.124 S 
ATOM     78  O   UNL A   1      34.068  35.911  28.122  1.00  0.00    -0.237 OA
ATOM     79  O   UNL A   1      33.165  33.639  27.769  1.00  0.00    -0.237 OA
ATOM     80  O   UNL A   1      32.380  34.997  29.672  1.00  0.00    -0.744 OA
ENDBRANCH  76  77
ENDBRANCH  57  71
BRANCH  58  81
ATOM     81  C   UNL A   1      44.648  29.187  36.156  1.00  0.00    -0.014 A 
ATOM     82  C   UNL A   1      45.905  29.798  35.994  1.00  0.00     0.010 A 
ATOM     83  C   UNL A   1      44.544  28.057  36.989  1.00  0.00     0.010 A 
ATOM     84  C   UNL A   1      47.036  29.279  36.633  1.00  0.00     0.020 A 
ATOM     85  C   UNL A   1      45.668  27.551  37.651  1.00  0.00     0.020 A 
ATOM     86  C   UNL A   1      46.910  28.159  37.459  1.00  0.00     0.054 A 
BRANCH  86  87
ATOM     87  S   UNL A   1      48.379  27.528  38.319  1.00  0.00     0.124 S 
ATOM     88  O   UNL A   1      47.878  26.293  38.911  1.00  0.00    -0.237 OA
ATOM     89  O   UNL A   1      49.338  27.367  37.228  1.00  0.00    -0.237 OA
ATOM     90  O   UNL A   1      48.701  28.594  39.265  1.00  0.00    -0.744 OA
ENDBRANCH  86  87
ENDBRANCH  58  81
BRANCH  70  91
ATOM     91  C   UNL A   1      39.733  33.875  37.778  1.00  0.00    -0.014 A 
ATOM     92  C   UNL A   1      38.966  33.381  38.848  1.00  0.00     0.010 A 
ATOM     93  C   UNL A   1      40.353  35.133  37.903  1.00  0.00     0.010 A 
ATOM     94  C   UNL A   1      38.815  34.135  40.017  1.00  0.00     0.020 A 
ATOM     95  C   UNL A   1      40.224  35.878  39.080  1.00  0.00     0.020 A 
ATOM     96  C   UNL A   1      39.449  35.377  40.127  1.00  0.00     0.054 A 
BRANCH  96  97
ATOM     97  S   UNL A   1      39.300  36.300  41.683  1.00  0.00     0.124 S 
ATOM     98  O   UNL A   1      39.211  37.678  41.211  1.00  0.00    -0.237 OA
ATOM     99  O   UNL A   1      38.077  35.754  42.266  1.00  0.00    -0.237 OA
ATOM    100  O   UNL A   1      40.528  35.965  42.402  1.00  0.00    -0.744 OA
ENDBRANCH  96  97
ENDBRANCH  70  91
ENDBRANCH  44  45
ENDBRANCH  37  39
ENDBRANCH  36  37
ENDBRANCH  35  36
ENDBRANCH  34  35
ENDBRANCH  33  34
ENDBRANCH  32  33
ENDBRANCH   1  32
TORSDOF 24
ENDMDL
MODEL 2
REMARK VINA RESULT:      -9.0      1.771      2.446
REMARK SMILES O=C(COc1ccccc1/C=C1/SC(=S)N(c2ccc(F)c(Cl)c2)C1=O)OCCOCCOCCOC(=O)c1ccc(-c2c3nc(c(-c4ccc(S(=O)(=O)[O-])cc4)c4ccc([nH]4)c(-c4ccc(S(=O)(=O)[O-])cc4)c4nc(c(-c5ccc(S(=O)(=O)[O-])cc5)c5ccc2[nH]5)C=C4)C=C3)cc1
REMARK SMILES IDX 31 1 30 2 29 3 28 4 27 5 2 6 1 7 3 8 4 9 5 10 6 11 10 12
REMARK SMILES IDX 7 13 9 14 8 15 11 16 12 17 13 18 25 19 14 20 16 21 26 22
REMARK SMILES IDX 15 23 17 24 18 25 24 26 19 27 22 28 20 29 23 30 21 31 32 32
REMARK SMILES IDX 33 33 34 34 35 35 36 36 37 37 38 38 39 39 40 40 98 41 41 42
REMARK SMILES IDX 97 43 42 44 43 45 44 46 91 47 45 48 96 49 90 50 92 51 46 52
REMARK SMILES IDX 95 53 89 54 88 55 47 57 77 58 58 59 76 60 59 61 62 62 75 63
REMARK SMILES IDX 93 64 60 65 61 66 74 68 94 69 63 70 48 71 49 72 57 73 50 74
REMARK SMILES IDX 56 75 51 76 52 77 53 78 54 79 55 80 78 81 79 82 87 83 80 84
REMARK SMILES IDX 86 85 81 86 82 87 83 88 84 89 85 90 64 91 65 92 73 93 66 94
REMARK SMILES IDX 72 95 67 96 68 97 69 98 70 99 71 100
REMARK H PARENT 92 56 62 67
REMARK Flexibility Score: inf
ROOT
ATOM      1  C   UNL A   1      38.489  22.268  26.051  1.00  0.00     0.188 C 
ENDROOT
BRANCH   1   2
ATOM      2  O   UNL A   1      37.293  21.744  25.481  1.00  0.00    -0.376 OA
BRANCH   2   3
ATOM      3  C   UNL A   1      37.490  20.685  24.560  1.00  0.00     0.202 C 
BRANCH   3   4
ATOM      4  C   UNL A   1      36.766  19.419  24.985  1.00  0.00     0.261 C 
BRANCH   4   5
ATOM      5  O   UNL A   1      35.329  19.429  24.810  1.00  0.00    -0.461 OA
BRANCH   5   6
ATOM      6  C   UNL A   1      34.519  18.366  24.591  1.00  0.00     0.344 C 
ATOM      7  O   UNL A   1      34.946  17.378  23.996  1.00  0.00    -0.248 OA
BRANCH   6   8
ATOM      8  C   UNL A   1      33.114  18.437  25.116  1.00  0.00     0.351 C 
BRANCH   8   9
ATOM      9  O   UNL A   1      32.730  19.802  25.230  1.00  0.00    -0.481 OA
BRANCH   9  10
ATOM     10  C   UNL A   1      32.553  20.363  23.997  1.00  0.00     0.127 A 
ATOM     11  C   UNL A   1      32.135  19.469  23.007  1.00  0.00     0.047 A 
ATOM     12  C   UNL A   1      32.750  21.729  23.723  1.00  0.00     0.018 A 
ATOM     13  C   UNL A   1      31.850  19.933  21.732  1.00  0.00     0.004 A 
ATOM     14  C   UNL A   1      32.454  22.174  22.428  1.00  0.00     0.012 A 
ATOM     15  C   UNL A   1      32.005  21.287  21.444  1.00  0.00     0.001 A 
BRANCH  12  16
ATOM     16  C   UNL A   1      33.109  22.775  24.703  1.00  0.00     0.033 C 
ATOM     17  C   UNL A   1      32.530  23.960  24.959  1.00  0.00     0.081 C 
ATOM     18  S   UNL A   1      33.190  25.068  26.108  1.00  0.00    -0.054 SA
ATOM     19  C   UNL A   1      31.356  24.583  24.289  1.00  0.00     0.270 C 
ATOM     20  C   UNL A   1      32.173  26.402  25.562  1.00  0.00     0.152 C 
ATOM     21  N   UNL A   1      31.302  25.956  24.575  1.00  0.00    -0.261 N 
ATOM     22  O   UNL A   1      30.599  23.947  23.566  1.00  0.00    -0.268 OA
ATOM     23  S   UNL A   1      32.259  27.892  26.323  1.00  0.00    -0.051 S 
BRANCH  21  24
ATOM     24  C   UNL A   1      30.425  26.804  23.811  1.00  0.00     0.052 A 
ATOM     25  C   UNL A   1      30.946  27.719  22.882  1.00  0.00     0.030 A 
ATOM     26  C   UNL A   1      29.040  26.839  24.064  1.00  0.00     0.050 A 
ATOM     27  C   UNL A   1      30.124  28.654  22.246  1.00  0.00     0.043 A 
ATOM     28  C   UNL A   1      28.222  27.790  23.442  1.00  0.00     0.078 A 
ATOM     29  C   UNL A   1      28.768  28.694  22.540  1.00  0.00     0.141 A 
ATOM     30  Cl  UNL A   1      26.549  27.865  23.849  1.00  0.00    -0.081 Cl
ATOM     31  F   UNL A   1      28.007  29.627  21.950  1.00  0.00    -0.205 F 
ENDBRANCH  21  24
ENDBRANCH  12  16
ENDBRANCH   9  10
ENDBRANCH   8   9
ENDBRANCH   6   8
ENDBRANCH   5   6
ENDBRANCH   4   5
ENDBRANCH   3   4
ENDBRANCH   2   3
ENDBRANCH   1   2
BRANCH   1  32
ATOM     32  C   UNL A   1      39.639  21.246  26.117  1.00  0.00     0.188 C 
BRANCH  32  33
ATOM     33  O   UNL A   1      40.746  21.726  26.879  1.00  0.00    -0.376 OA
BRANCH  33  34
ATOM     34  C   UNL A   1      41.516  22.726  26.214  1.00  0.00     0.202 C 
BRANCH  34  35
ATOM     35  C   UNL A   1      42.959  22.848  26.723  1.00  0.00     0.261 C 
BRANCH  35  36
ATOM     36  O   UNL A   1      43.474  24.187  26.873  1.00  0.00    -0.460 OA
BRANCH  36  37
ATOM     37  C   UNL A   1      44.647  24.392  27.516  1.00  0.00     0.338 C 
ATOM     38  O   UNL A   1      45.762  24.133  27.097  1.00  0.00    -0.246 OA
BRANCH  37  39
ATOM     39  C   UNL A   1      44.357  25.226  28.718  1.00  0.00     0.060 A 
ATOM     40  C   UNL A   1      43.762  24.627  29.839  1.00  0.00     0.016 A 
ATOM     41  C   UNL A   1      44.794  26.553  28.794  1.00  0.00     0.016 A 
ATOM     42  C   UNL A   1      43.581  25.358  31.022  1.00  0.00     0.010 A 
ATOM     43  C   UNL A   1      44.604  27.285  29.972  1.00  0.00     0.010 A 
ATOM     44  C   UNL A   1      43.971  26.704  31.085  1.00  0.00    -0.014 A 
BRANCH  44  45
ATOM     45  C   UNL A   1      43.500  27.592  32.182  1.00  0.00     0.031 A 
ATOM     46  C   UNL A   1      42.256  28.405  31.924  1.00  0.00     0.074 A 
ATOM     47  C   UNL A   1      44.162  27.742  33.346  1.00  0.00     0.049 A 
ATOM     48  N   UNL A   1      41.706  29.337  32.655  1.00  0.00    -0.248 NA
ATOM     49  C   UNL A   1      41.550  28.131  30.660  1.00  0.00     0.031 C 
ATOM     50  C   UNL A   1      45.359  27.008  33.751  1.00  0.00     0.029 A 
ATOM     51  N   UNL A   1      43.921  28.596  34.399  1.00  0.00    -0.354 N 
ATOM     52  C   UNL A   1      40.602  29.774  31.934  1.00  0.00     0.074 A 
ATOM     53  C   UNL A   1      40.568  29.018  30.702  1.00  0.00     0.031 C 
ATOM     54  C   UNL A   1      45.762  27.460  34.953  1.00  0.00     0.029 A 
ATOM     55  C   UNL A   1      44.873  28.540  35.390  1.00  0.00     0.049 A 
ATOM     56  H   UNL A   1      43.139  29.192  34.439  1.00  0.00     0.167 HD
ATOM     57  C   UNL A   1      39.695  30.724  32.258  1.00  0.00     0.031 A 
ATOM     58  C   UNL A   1      45.030  29.290  36.503  1.00  0.00     0.031 A 
ATOM     59  C   UNL A   1      39.722  31.494  33.469  1.00  0.00     0.049 A 
ATOM     60  C   UNL A   1      44.046  30.398  36.809  1.00  0.00     0.074 A 
ATOM     61  C   UNL A   1      38.818  32.450  33.896  1.00  0.00     0.029 A 
ATOM     62  N   UNL A   1      40.711  31.413  34.434  1.00  0.00    -0.354 N 
ATOM     63  N   UNL A   1      42.973  30.755  36.145  1.00  0.00    -0.248 NA
ATOM     64  C   UNL A   1      44.301  31.207  38.013  1.00  0.00     0.031 C 
ATOM     65  C   UNL A   1      39.293  32.992  35.094  1.00  0.00     0.029 A 
ATOM     66  C   UNL A   1      40.462  32.332  35.438  1.00  0.00     0.049 A 
ATOM     67  H   UNL A   1      41.477  30.796  34.409  1.00  0.00     0.167 HD
ATOM     68  C   UNL A   1      42.415  31.812  36.863  1.00  0.00     0.074 A 
ATOM     69  C   UNL A   1      43.260  32.028  38.018  1.00  0.00     0.031 C 
ATOM     70  C   UNL A   1      41.303  32.537  36.588  1.00  0.00     0.031 A 
BRANCH  57  71
ATOM     71  C   UNL A   1      38.611  31.012  31.258  1.00  0.00    -0.014 A 
ATOM     72  C   UNL A   1      37.349  30.401  31.359  1.00  0.00     0.010 A 
ATOM     73  C   UNL A   1      38.853  31.932  30.222  1.00  0.00     0.010 A 
ATOM     74  C   UNL A   1      36.354  30.686  30.421  1.00  0.00     0.020 A 
ATOM     75  C   UNL A   1      37.852  32.237  29.298  1.00  0.00     0.020 A 
ATOM     76  C   UNL A   1      36.613  31.601  29.396  1.00  0.00     0.054 A 
BRANCH  76  77
ATOM     77  S   UNL A   1      35.292  31.976  28.212  1.00  0.00     0.124 S 
ATOM     78  O   UNL A   1      35.249  30.753  27.413  1.00  0.00    -0.237 OA
ATOM     79  O   UNL A   1      34.139  32.201  29.080  1.00  0.00    -0.237 OA
ATOM     80  O   UNL A   1      35.782  33.161  27.510  1.00  0.00    -0.744 OA
ENDBRANCH  76  77
ENDBRANCH  57  71
BRANCH  58  81
ATOM     81  C   UNL A   1      46.195  29.068  37.406  1.00  0.00    -0.014 A 
ATOM     82  C   UNL A   1      46.099  28.196  38.507  1.00  0.00     0.010 A 
ATOM     83  C   UNL A   1      47.398  29.769  37.197  1.00  0.00     0.010 A 
ATOM     84  C   UNL A   1      47.174  28.044  39.390  1.00  0.00     0.020 A 
ATOM     85  C   UNL A   1      48.484  29.598  38.062  1.00  0.00     0.020 A 
ATOM     86  C   UNL A   1      48.360  28.746  39.161  1.00  0.00     0.054 A 
BRANCH  86  87
ATOM     87  S   UNL A   1      49.761  28.499  40.289  1.00  0.00     0.124 S 
ATOM     88  O   UNL A   1      50.009  29.856  40.767  1.00  0.00    -0.237 OA
ATOM     89  O   UNL A   1      49.213  27.569  41.273  1.00  0.00    -0.237 OA
ATOM     90  O   UNL A   1      50.797  27.938  39.425  1.00  0.00    -0.744 OA
ENDBRANCH  86  87
ENDBRANCH  58  81
BRANCH  70  91
ATOM     91  C   UNL A   1      40.901  33.620  37.555  1.00  0.00    -0.014 A 
ATOM     92  C   UNL A   1      41.237  34.965  37.320  1.00  0.00     0.010 A 
ATOM     93  C   UNL A   1      40.086  33.300  38.657  1.00  0.00     0.010 A 
ATOM     94  C   UNL A   1      40.772  35.970  38.176  1.00  0.00     0.020 A 
ATOM     95  C   UNL A   1      39.600  34.304  39.500  1.00  0.00     0.020 A 
ATOM     96  C   UNL A   1      39.953  35.633  39.258  1.00  0.00     0.054 A 
BRANCH  96  97
ATOM     97  S   UNL A   1      39.300  36.962  40.308  1.00  0.00     0.124 S 
ATOM     98  O   UNL A   1      40.500  37.419  41.002  1.00  0.00    -0.237 OA
ATOM     99  O   UNL A   1      38.742  37.897  39.334  1.00  0.00    -0.237 OA
ATOM    100  O   UNL A   1      38.313  36.286  41.148  1.00  0.00    -0.744 OA
ENDBRANCH  96  97
ENDBRANCH  70  91
ENDBRANCH  44  45
ENDBRANCH  37  39
ENDBRANCH  36  37
ENDBRANCH  35  36
ENDBRANCH  34  35
ENDBRANCH  33  34
ENDBRANCH  32  33
ENDBRANCH   1  32
TORSDOF 24
ENDMDL
MODEL 3
REMARK VINA RESULT:      -8.9      6.668     11.216
REMARK SMILES O=C(COc1ccccc1/C=C1/SC(=S)N(c2ccc(F)c(Cl)c2)C1=O)OCCOCCOCCOC(=O)c1ccc(-c2c3nc(c(-c4ccc(S(=O)(=O)[O-])cc4)c4ccc([nH]4)c(-c4ccc(S(=O)(=O)[O-])cc4)c4nc(c(-c5ccc(S(=O)(=O)[O-])cc5)c5ccc2[nH]5)C=C4)C=C3)cc1
REMARK SMILES IDX 31 1 30 2 29 3 28 4 27 5 2 6 1 7 3 8 4 9 5 10 6 11 10 12
REMARK SMILES IDX 7 13 9 14 8 15 11 16 12 17 13 18 25 19 14 20 16 21 26 22
REMARK SMILES IDX 15 23 17 24 18 25 24 26 19 27 22 28 20 29 23 30 21 31 32 32
REMARK SMILES IDX 33 33 34 34 35 35 36 36 37 37 38 38 39 39 40 40 98 41 41 42
REMARK SMILES IDX 97 43 42 44 43 45 44 46 91 47 45 48 96 49 90 50 92 51 46 52
REMARK SMILES IDX 95 53 89 54 88 55 47 57 77 58 58 59 76 60 59 61 62 62 75 63
REMARK SMILES IDX 93 64 60 65 61 66 74 68 94 69 63 70 48 71 49 72 57 73 50 74
REMARK SMILES IDX 56 75 51 76 52 77 53 78 54 79 55 80 78 81 79 82 87 83 80 84
REMARK SMILES IDX 86 85 81 86 82 87 83 88 84 89 85 90 64 91 65 92 73 93 66 94
REMARK SMILES IDX 72 95 67 96 68 97 69 98 70 99 71 100
REMARK H PARENT 92 56 62 67
REMARK Flexibility Score: inf
ROOT
ATOM      1  C   UNL A   1      36.237  23.756  25.769  1.00  0.00     0.188 C 
ENDROOT
BRANCH   1   2
ATOM      2  O   UNL A   1      35.366  22.666  25.482  1.00  0.00    -0.376 OA
BRANCH   2   3
ATOM      3  C   UNL A   1      35.886  21.718  24.565  1.00  0.00     0.202 C 
BRANCH   3   4
ATOM      4  C   UNL A   1      35.525  20.295  24.953  1.00  0.00     0.261 C 
BRANCH   4   5
ATOM      5  O   UNL A   1      34.145  20.080  25.337  1.00  0.00    -0.461 OA
BRANCH   5   6
ATOM      6  C   UNL A   1      33.084  19.884  24.519  1.00  0.00     0.344 C 
ATOM      7  O   UNL A   1      32.995  18.848  23.862  1.00  0.00    -0.248 OA
BRANCH   6   8
ATOM      8  C   UNL A   1      32.032  20.955  24.468  1.00  0.00     0.351 C 
BRANCH   8   9
ATOM      9  O   UNL A   1      32.406  22.012  25.343  1.00  0.00    -0.481 OA
BRANCH   9  10
ATOM     10  C   UNL A   1      31.312  22.726  25.740  1.00  0.00     0.127 A 
ATOM     11  C   UNL A   1      30.602  22.159  26.802  1.00  0.00     0.047 A 
ATOM     12  C   UNL A   1      30.919  23.945  25.156  1.00  0.00     0.018 A 
ATOM     13  C   UNL A   1      29.514  22.828  27.343  1.00  0.00     0.004 A 
ATOM     14  C   UNL A   1      29.818  24.603  25.721  1.00  0.00     0.012 A 
ATOM     15  C   UNL A   1      29.125  24.052  26.805  1.00  0.00     0.001 A 
BRANCH  12  16
ATOM     16  C   UNL A   1      31.635  24.676  24.091  1.00  0.00     0.033 C 
ATOM     17  C   UNL A   1      32.453  25.739  24.165  1.00  0.00     0.081 C 
ATOM     18  S   UNL A   1      33.112  26.483  22.753  1.00  0.00    -0.054 SA
ATOM     19  C   UNL A   1      32.853  26.519  25.368  1.00  0.00     0.270 C 
ATOM     20  C   UNL A   1      33.656  27.912  23.633  1.00  0.00     0.152 C 
ATOM     21  N   UNL A   1      33.396  27.757  24.989  1.00  0.00    -0.261 N 
ATOM     22  O   UNL A   1      32.671  26.108  26.508  1.00  0.00    -0.268 OA
ATOM     23  S   UNL A   1      34.484  29.129  22.833  1.00  0.00    -0.051 S 
BRANCH  21  24
ATOM     24  C   UNL A   1      33.584  28.781  25.983  1.00  0.00     0.052 A 
ATOM     25  C   UNL A   1      32.631  29.798  26.151  1.00  0.00     0.030 A 
ATOM     26  C   UNL A   1      34.781  28.872  26.720  1.00  0.00     0.050 A 
ATOM     27  C   UNL A   1      32.869  30.883  27.000  1.00  0.00     0.043 A 
ATOM     28  C   UNL A   1      35.027  29.969  27.554  1.00  0.00     0.078 A 
ATOM     29  C   UNL A   1      34.072  30.970  27.687  1.00  0.00     0.141 A 
ATOM     30  Cl  UNL A   1      36.542  30.095  28.365  1.00  0.00    -0.081 Cl
ATOM     31  F   UNL A   1      34.296  32.041  28.462  1.00  0.00    -0.205 F 
ENDBRANCH  21  24
ENDBRANCH  12  16
ENDBRANCH   9  10
ENDBRANCH   8   9
ENDBRANCH   6   8
ENDBRANCH   5   6
ENDBRANCH   4   5
ENDBRANCH   3   4
ENDBRANCH   2   3
ENDBRANCH   1   2
BRANCH   1  32
ATOM     32  C   UNL A   1      37.731  23.404  25.634  1.00  0.00     0.188 C 
BRANCH  32  33
ATOM     33  O   UNL A   1      38.579  24.490  26.004  1.00  0.00    -0.376 OA
BRANCH  33  34
ATOM     34  C   UNL A   1      39.277  24.288  27.231  1.00  0.00     0.202 C 
BRANCH  34  35
ATOM     35  C   UNL A   1      38.960  25.329  28.312  1.00  0.00     0.261 C 
BRANCH  35  36
ATOM     36  O   UNL A   1      39.924  26.389  28.482  1.00  0.00    -0.460 OA
BRANCH  36  37
ATOM     37  C   UNL A   1      40.950  26.515  27.608  1.00  0.00     0.338 C 
ATOM     38  O   UNL A   1      40.877  26.881  26.447  1.00  0.00    -0.246 OA
BRANCH  37  39
ATOM     39  C   UNL A   1      42.216  26.377  28.384  1.00  0.00     0.060 A 
ATOM     40  C   UNL A   1      42.700  27.479  29.106  1.00  0.00     0.016 A 
ATOM     41  C   UNL A   1      42.847  25.135  28.513  1.00  0.00     0.016 A 
ATOM     42  C   UNL A   1      43.824  27.347  29.934  1.00  0.00     0.010 A 
ATOM     43  C   UNL A   1      43.975  25.006  29.332  1.00  0.00     0.010 A 
ATOM     44  C   UNL A   1      44.490  26.115  30.026  1.00  0.00    -0.014 A 
BRANCH  44  45
ATOM     45  C   UNL A   1      45.854  26.019  30.613  1.00  0.00     0.031 A 
ATOM     46  C   UNL A   1      47.007  26.471  29.753  1.00  0.00     0.074 A 
ATOM     47  C   UNL A   1      46.098  25.498  31.832  1.00  0.00     0.049 A 
ATOM     48  N   UNL A   1      48.292  26.381  29.972  1.00  0.00    -0.248 NA
ATOM     49  C   UNL A   1      46.655  27.095  28.467  1.00  0.00     0.031 C 
ATOM     50  C   UNL A   1      45.089  25.046  32.787  1.00  0.00     0.029 A 
ATOM     51  N   UNL A   1      47.294  25.239  32.462  1.00  0.00    -0.354 N 
ATOM     52  C   UNL A   1      48.901  26.919  28.846  1.00  0.00     0.074 A 
ATOM     53  C   UNL A   1      47.848  27.319  27.939  1.00  0.00     0.031 C 
ATOM     54  C   UNL A   1      45.708  24.544  33.872  1.00  0.00     0.029 A 
ATOM     55  C   UNL A   1      47.158  24.606  33.676  1.00  0.00     0.049 A 
ATOM     56  H   UNL A   1      48.167  25.486  32.080  1.00  0.00     0.167 HD
ATOM     57  C   UNL A   1      50.219  27.067  28.579  1.00  0.00     0.031 A 
ATOM     58  C   UNL A   1      48.091  24.105  34.515  1.00  0.00     0.031 A 
ATOM     59  C   UNL A   1      51.277  26.662  29.461  1.00  0.00     0.049 A 
ATOM     60  C   UNL A   1      49.558  24.213  34.162  1.00  0.00     0.074 A 
ATOM     61  C   UNL A   1      52.641  26.812  29.287  1.00  0.00     0.029 A 
ATOM     62  N   UNL A   1      51.093  26.013  30.670  1.00  0.00    -0.354 N 
ATOM     63  N   UNL A   1      50.117  24.781  33.120  1.00  0.00    -0.248 NA
ATOM     64  C   UNL A   1      50.519  23.606  35.099  1.00  0.00     0.031 C 
ATOM     65  C   UNL A   1      53.286  26.197  30.364  1.00  0.00     0.029 A 
ATOM     66  C   UNL A   1      52.321  25.717  31.235  1.00  0.00     0.049 A 
ATOM     67  H   UNL A   1      50.220  25.793  31.067  1.00  0.00     0.167 HD
ATOM     68  C   UNL A   1      51.491  24.619  33.290  1.00  0.00     0.074 A 
ATOM     69  C   UNL A   1      51.681  23.914  34.538  1.00  0.00     0.031 C 
ATOM     70  C   UNL A   1      52.503  25.020  32.481  1.00  0.00     0.031 A 
BRANCH  57  71
ATOM     71  C   UNL A   1      50.591  27.660  27.250  1.00  0.00    -0.014 A 
ATOM     72  C   UNL A   1      50.775  29.045  27.099  1.00  0.00     0.010 A 
ATOM     73  C   UNL A   1      50.791  26.812  26.146  1.00  0.00     0.010 A 
ATOM     74  C   UNL A   1      51.125  29.576  25.855  1.00  0.00     0.020 A 
ATOM     75  C   UNL A   1      51.164  27.337  24.908  1.00  0.00     0.020 A 
ATOM     76  C   UNL A   1      51.316  28.719  24.768  1.00  0.00     0.054 A 
BRANCH  76  77
ATOM     77  S   UNL A   1      51.801  29.432  23.173  1.00  0.00     0.124 S 
ATOM     78  O   UNL A   1      53.163  28.925  23.020  1.00  0.00    -0.237 OA
ATOM     79  O   UNL A   1      50.813  28.867  22.256  1.00  0.00    -0.237 OA
ATOM     80  O   UNL A   1      51.693  30.873  23.391  1.00  0.00    -0.744 OA
ENDBRANCH  76  77
ENDBRANCH  57  71
BRANCH  58  81
ATOM     81  C   UNL A   1      47.683  23.400  35.764  1.00  0.00    -0.014 A 
ATOM     82  C   UNL A   1      47.333  22.037  35.741  1.00  0.00     0.010 A 
ATOM     83  C   UNL A   1      47.595  24.104  36.979  1.00  0.00     0.010 A 
ATOM     84  C   UNL A   1      46.885  21.398  36.903  1.00  0.00     0.020 A 
ATOM     85  C   UNL A   1      47.174  23.463  38.149  1.00  0.00     0.020 A 
ATOM     86  C   UNL A   1      46.810  22.116  38.100  1.00  0.00     0.054 A 
BRANCH  86  87
ATOM     87  S   UNL A   1      46.274  21.259  39.609  1.00  0.00     0.124 S 
ATOM     88  O   UNL A   1      45.227  22.145  40.106  1.00  0.00    -0.237 OA
ATOM     89  O   UNL A   1      45.822  19.968  39.094  1.00  0.00    -0.237 OA
ATOM     90  O   UNL A   1      47.489  21.204  40.418  1.00  0.00    -0.744 OA
ENDBRANCH  86  87
ENDBRANCH  58  81
BRANCH  70  91
ATOM     91  C   UNL A   1      53.917  24.740  32.916  1.00  0.00    -0.014 A 
ATOM     92  C   UNL A   1      54.600  23.592  32.475  1.00  0.00     0.010 A 
ATOM     93  C   UNL A   1      54.607  25.691  33.692  1.00  0.00     0.010 A 
ATOM     94  C   UNL A   1      55.944  23.397  32.809  1.00  0.00     0.020 A 
ATOM     95  C   UNL A   1      55.957  25.511  34.007  1.00  0.00     0.020 A 
ATOM     96  C   UNL A   1      56.616  24.360  33.569  1.00  0.00     0.054 A 
BRANCH  96  97
ATOM     97  S   UNL A   1      58.380  24.120  33.924  1.00  0.00     0.124 S 
ATOM     98  O   UNL A   1      58.346  23.567  35.274  1.00  0.00    -0.237 OA
ATOM     99  O   UNL A   1      58.796  23.193  32.875  1.00  0.00    -0.237 OA
ATOM    100  O   UNL A   1      58.940  25.465  33.815  1.00  0.00    -0.744 OA
ENDBRANCH  96  97
ENDBRANCH  70  91
ENDBRANCH  44  45
ENDBRANCH  37  39
ENDBRANCH  36  37
ENDBRANCH  35  36
ENDBRANCH  34  35
ENDBRANCH  33  34
ENDBRANCH  32  33
ENDBRANCH   1  32
TORSDOF 24
ENDMDL
