MODEL 1
REMARK VINA RESULT:      -9.7      0.000      0.000
REMARK SMILES NS(=O)(=O)c1ccc(/N=N/c2ccc(O)c(C(=O)OCCOCCOCCOC(=O)c3ccc(-c4c5nc(c(-c6ccc(S(=O)(=O)[O-])cc6)c6ccc([nH]6)c(-c6ccc(S(=O)(=O)[O-])cc6)c6nc(c(-c7ccc(S(=O)(=O)[O-])cc7)c7ccc4[nH]7)C=C6)C=C5)cc3)c2)cc1
REMARK SMILES IDX 23 1 22 2 21 3 20 4 19 5 17 6 18 7 16 8 11 9 12 10 91 11
REMARK SMILES IDX 13 12 14 13 10 14 9 15 8 16 5 17 6 18 93 19 7 20 92 21 2 22
REMARK SMILES IDX 3 23 4 24 1 25 15 28 24 30 25 31 26 32 27 33 28 34 29 35
REMARK SMILES IDX 30 36 31 37 32 38 90 39 33 40 89 41 34 42 35 43 36 44 83 45
REMARK SMILES IDX 37 46 88 47 82 48 84 49 38 50 87 51 81 52 80 53 39 55 69 56
REMARK SMILES IDX 50 57 68 58 51 59 54 60 67 61 85 62 52 63 53 64 66 66 86 67
REMARK SMILES IDX 55 68 40 69 41 70 49 71 42 72 48 73 43 74 44 75 45 76 46 77
REMARK SMILES IDX 47 78 70 79 71 80 79 81 72 82 78 83 73 84 74 85 75 86 76 87
REMARK SMILES IDX 77 88 56 89 57 90 65 91 58 92 64 93 59 94 60 95 61 96 62 97
REMARK SMILES IDX 63 98
REMARK H PARENT 1 26 1 27 15 29 84 54 54 65
REMARK Flexibility Score: inf
ROOT
ATOM      1  C   UNL A   1      32.137  30.802  26.415  1.00  0.00     0.188 C 
ENDROOT
BRANCH   1   2
ATOM      2  O   UNL A   1      31.695  29.744  25.588  1.00  0.00    -0.376 OA
BRANCH   2   3
ATOM      3  C   UNL A   1      32.040  28.401  25.877  1.00  0.00     0.202 C 
BRANCH   3   4
ATOM      4  C   UNL A   1      31.406  27.578  27.012  1.00  0.00     0.261 C 
BRANCH   4   5
ATOM      5  O   UNL A   1      31.597  26.159  26.965  1.00  0.00    -0.460 OA
BRANCH   5   6
ATOM      6  C   UNL A   1      31.061  25.539  25.883  1.00  0.00     0.342 C 
ATOM      7  O   UNL A   1      29.898  25.582  25.515  1.00  0.00    -0.246 OA
BRANCH   6   8
ATOM      8  C   UNL A   1      32.126  24.992  25.019  1.00  0.00     0.104 A 
ATOM      9  C   UNL A   1      34.313  23.966  24.721  1.00  0.00     0.087 A 
ATOM     10  C   UNL A   1      34.173  24.138  23.335  1.00  0.00     0.034 A 
ATOM     11  C   UNL A   1      33.278  24.409  25.561  1.00  0.00     0.049 A 
ATOM     12  C   UNL A   1      33.032  24.731  22.791  1.00  0.00     0.049 A 
ATOM     13  C   UNL A   1      32.009  25.150  23.631  1.00  0.00     0.130 A 
BRANCH   9  14
ATOM     14  N   UNL A   1      35.524  23.406  25.179  1.00  0.00    -0.151 NA
ATOM     15  N   UNL A   1      36.318  24.254  25.630  1.00  0.00    -0.151 NA
BRANCH  15  16
ATOM     16  C   UNL A   1      37.535  23.697  26.082  1.00  0.00     0.086 A 
ATOM     17  C   UNL A   1      39.924  22.435  26.868  1.00  0.00     0.082 A 
ATOM     18  C   UNL A   1      39.037  21.772  26.018  1.00  0.00     0.024 A 
ATOM     19  C   UNL A   1      39.631  23.715  27.338  1.00  0.00     0.024 A 
ATOM     20  C   UNL A   1      37.851  22.405  25.634  1.00  0.00     0.031 A 
ATOM     21  C   UNL A   1      38.444  24.339  26.943  1.00  0.00     0.031 A 
BRANCH  17  22
ATOM     22  S   UNL A   1      41.422  21.641  27.365  1.00  0.00     0.238 S 
ATOM     23  O   UNL A   1      42.034  22.399  28.434  1.00  0.00    -0.207 OA
ATOM     24  O   UNL A   1      42.143  21.232  26.186  1.00  0.00    -0.207 OA
BRANCH  22  25
ATOM     25  N   UNL A   1      40.880  20.226  28.096  1.00  0.00    -0.225 NA
ATOM     26  H   UNL A   1      41.679  19.700  28.450  1.00  0.00     0.137 HD
ATOM     27  H   UNL A   1      40.378  19.660  27.411  1.00  0.00     0.137 HD
ENDBRANCH  22  25
ENDBRANCH  17  22
ENDBRANCH  15  16
ENDBRANCH   9  14
BRANCH  13  28
ATOM     28  O   UNL A   1      30.944  25.763  23.030  1.00  0.00    -0.507 OA
ATOM     29  H   UNL A   1      31.089  26.441  22.400  1.00  0.00     0.293 HD
ENDBRANCH  13  28
ENDBRANCH   6   8
ENDBRANCH   5   6
ENDBRANCH   4   5
ENDBRANCH   3   4
ENDBRANCH   2   3
ENDBRANCH   1   2
BRANCH   1  30
ATOM     30  C   UNL A   1      33.522  30.723  27.087  1.00  0.00     0.188 C 
BRANCH  30  31
ATOM     31  O   UNL A   1      34.005  31.876  27.731  1.00  0.00    -0.376 OA
BRANCH  31  32
ATOM     32  C   UNL A   1      35.331  31.913  28.230  1.00  0.00     0.202 C 
BRANCH  32  33
ATOM     33  C   UNL A   1      35.865  31.176  29.477  1.00  0.00     0.261 C 
BRANCH  33  34
ATOM     34  O   UNL A   1      37.254  30.851  29.544  1.00  0.00    -0.460 OA
BRANCH  34  35
ATOM     35  C   UNL A   1      37.547  29.638  30.079  1.00  0.00     0.338 C 
ATOM     36  O   UNL A   1      36.815  28.937  30.756  1.00  0.00    -0.246 OA
BRANCH  35  37
ATOM     37  C   UNL A   1      38.857  29.197  29.564  1.00  0.00     0.060 A 
ATOM     38  C   UNL A   1      39.760  28.586  30.444  1.00  0.00     0.016 A 
ATOM     39  C   UNL A   1      39.205  29.420  28.232  1.00  0.00     0.016 A 
ATOM     40  C   UNL A   1      41.027  28.211  29.996  1.00  0.00     0.010 A 
ATOM     41  C   UNL A   1      40.483  29.064  27.791  1.00  0.00     0.010 A 
ATOM     42  C   UNL A   1      41.410  28.484  28.676  1.00  0.00    -0.014 A 
BRANCH  42  43
ATOM     43  C   UNL A   1      42.826  28.317  28.262  1.00  0.00     0.031 A 
ATOM     44  C   UNL A   1      43.776  29.468  28.463  1.00  0.00     0.074 A 
ATOM     45  C   UNL A   1      43.265  27.166  27.722  1.00  0.00     0.049 A 
ATOM     46  N   UNL A   1      45.033  29.576  28.120  1.00  0.00    -0.248 NA
ATOM     47  C   UNL A   1      43.232  30.656  29.143  1.00  0.00     0.031 C 
ATOM     48  C   UNL A   1      42.461  25.962  27.522  1.00  0.00     0.029 A 
ATOM     49  N   UNL A   1      44.503  26.831  27.231  1.00  0.00    -0.354 N 
ATOM     50  C   UNL A   1      45.428  30.846  28.527  1.00  0.00     0.074 A 
ATOM     51  C   UNL A   1      44.269  31.480  29.117  1.00  0.00     0.031 C 
ATOM     52  C   UNL A   1      43.224  25.021  26.939  1.00  0.00     0.029 A 
ATOM     53  C   UNL A   1      44.557  25.568  26.689  1.00  0.00     0.049 A 
ATOM     54  H   UNL A   1      45.279  27.436  27.265  1.00  0.00     0.167 HD
ATOM     55  C   UNL A   1      46.645  31.430  28.424  1.00  0.00     0.031 A 
ATOM     56  C   UNL A   1      45.558  24.937  26.044  1.00  0.00     0.031 A 
ATOM     57  C   UNL A   1      47.791  30.802  27.821  1.00  0.00     0.049 A 
ATOM     58  C   UNL A   1      46.881  25.639  25.862  1.00  0.00     0.074 A 
ATOM     59  C   UNL A   1      49.073  31.306  27.679  1.00  0.00     0.029 A 
ATOM     60  N   UNL A   1      47.795  29.537  27.250  1.00  0.00    -0.354 N 
ATOM     61  N   UNL A   1      47.247  26.831  26.272  1.00  0.00    -0.248 NA
ATOM     62  C   UNL A   1      47.929  24.905  25.137  1.00  0.00     0.031 C 
ATOM     63  C   UNL A   1      49.832  30.375  26.963  1.00  0.00     0.029 A 
ATOM     64  C   UNL A   1      49.047  29.258  26.726  1.00  0.00     0.049 A 
ATOM     65  H   UNL A   1      47.021  28.929  27.221  1.00  0.00     0.167 HD
ATOM     66  C   UNL A   1      48.577  26.975  25.884  1.00  0.00     0.074 A 
ATOM     67  C   UNL A   1      48.953  25.744  25.219  1.00  0.00     0.031 C 
ATOM     68  C   UNL A   1      49.412  28.028  26.067  1.00  0.00     0.031 A 
BRANCH  55  69
ATOM     69  C   UNL A   1      46.790  32.837  28.941  1.00  0.00    -0.014 A 
ATOM     70  C   UNL A   1      46.859  33.936  28.066  1.00  0.00     0.010 A 
ATOM     71  C   UNL A   1      46.818  33.067  30.329  1.00  0.00     0.010 A 
ATOM     72  C   UNL A   1      46.994  35.233  28.568  1.00  0.00     0.020 A 
ATOM     73  C   UNL A   1      46.921  34.366  30.837  1.00  0.00     0.020 A 
ATOM     74  C   UNL A   1      47.024  35.440  29.950  1.00  0.00     0.054 A 
BRANCH  74  75
ATOM     75  S   UNL A   1      47.174  37.137  30.573  1.00  0.00     0.124 S 
ATOM     76  O   UNL A   1      48.598  37.214  30.896  1.00  0.00    -0.237 OA
ATOM     77  O   UNL A   1      46.746  37.935  29.427  1.00  0.00    -0.237 OA
ATOM     78  O   UNL A   1      46.274  37.168  31.722  1.00  0.00    -0.744 OA
ENDBRANCH  74  75
ENDBRANCH  55  69
BRANCH  56  79
ATOM     79  C   UNL A   1      45.348  23.565  25.499  1.00  0.00    -0.014 A 
ATOM     80  C   UNL A   1      45.724  22.431  26.241  1.00  0.00     0.010 A 
ATOM     81  C   UNL A   1      44.776  23.386  24.226  1.00  0.00     0.010 A 
ATOM     82  C   UNL A   1      45.549  21.147  25.714  1.00  0.00     0.020 A 
ATOM     83  C   UNL A   1      44.571  22.103  23.708  1.00  0.00     0.020 A 
ATOM     84  C   UNL A   1      44.969  20.992  24.452  1.00  0.00     0.054 A 
BRANCH  84  85
ATOM     85  S   UNL A   1      44.708  19.315  23.810  1.00  0.00     0.124 S 
ATOM     86  O   UNL A   1      45.969  18.660  24.146  1.00  0.00    -0.237 OA
ATOM     87  O   UNL A   1      43.541  18.867  24.566  1.00  0.00    -0.237 OA
ATOM     88  O   UNL A   1      44.475  19.526  22.383  1.00  0.00    -0.744 OA
ENDBRANCH  84  85
ENDBRANCH  56  79
BRANCH  68  89
ATOM     89  C   UNL A   1      50.835  27.889  25.585  1.00  0.00    -0.014 A 
ATOM     90  C   UNL A   1      51.833  27.314  26.392  1.00  0.00     0.010 A 
ATOM     91  C   UNL A   1      51.162  28.288  24.275  1.00  0.00     0.010 A 
ATOM     92  C   UNL A   1      53.138  27.174  25.908  1.00  0.00     0.020 A 
ATOM     93  C   UNL A   1      52.456  28.119  23.777  1.00  0.00     0.020 A 
ATOM     94  C   UNL A   1      53.441  27.575  24.603  1.00  0.00     0.054 A 
BRANCH  94  95
ATOM     95  S   UNL A   1      55.131  27.341  23.987  1.00  0.00     0.124 S 
ATOM     96  O   UNL A   1      54.949  27.467  22.544  1.00  0.00    -0.237 OA
ATOM     97  O   UNL A   1      55.858  28.436  24.626  1.00  0.00    -0.237 OA
ATOM     98  O   UNL A   1      55.490  26.005  24.455  1.00  0.00    -0.744 OA
ENDBRANCH  94  95
ENDBRANCH  68  89
ENDBRANCH  42  43
ENDBRANCH  35  37
ENDBRANCH  34  35
ENDBRANCH  33  34
ENDBRANCH  32  33
ENDBRANCH  31  32
ENDBRANCH  30  31
ENDBRANCH   1  30
TORSDOF 25
ENDMDL
MODEL 2
REMARK VINA RESULT:      -9.6      6.654     12.865
REMARK SMILES NS(=O)(=O)c1ccc(/N=N/c2ccc(O)c(C(=O)OCCOCCOCCOC(=O)c3ccc(-c4c5nc(c(-c6ccc(S(=O)(=O)[O-])cc6)c6ccc([nH]6)c(-c6ccc(S(=O)(=O)[O-])cc6)c6nc(c(-c7ccc(S(=O)(=O)[O-])cc7)c7ccc4[nH]7)C=C6)C=C5)cc3)c2)cc1
REMARK SMILES IDX 23 1 22 2 21 3 20 4 19 5 17 6 18 7 16 8 11 9 12 10 91 11
REMARK SMILES IDX 13 12 14 13 10 14 9 15 8 16 5 17 6 18 93 19 7 20 92 21 2 22
REMARK SMILES IDX 3 23 4 24 1 25 15 28 24 30 25 31 26 32 27 33 28 34 29 35
REMARK SMILES IDX 30 36 31 37 32 38 90 39 33 40 89 41 34 42 35 43 36 44 83 45
REMARK SMILES IDX 37 46 88 47 82 48 84 49 38 50 87 51 81 52 80 53 39 55 69 56
REMARK SMILES IDX 50 57 68 58 51 59 54 60 67 61 85 62 52 63 53 64 66 66 86 67
REMARK SMILES IDX 55 68 40 69 41 70 49 71 42 72 48 73 43 74 44 75 45 76 46 77
REMARK SMILES IDX 47 78 70 79 71 80 79 81 72 82 78 83 73 84 74 85 75 86 76 87
REMARK SMILES IDX 77 88 56 89 57 90 65 91 58 92 64 93 59 94 60 95 61 96 62 97
REMARK SMILES IDX 63 98
REMARK H PARENT 1 26 1 27 15 29 84 54 54 65
REMARK Flexibility Score: inf
ROOT
ATOM      1  C   UNL A   1      37.939  21.749  25.656  1.00  0.00     0.188 C 
ENDROOT
BRANCH   1   2
ATOM      2  O   UNL A   1      36.599  22.129  25.901  1.00  0.00    -0.376 OA
BRANCH   2   3
ATOM      3  C   UNL A   1      35.593  21.917  24.927  1.00  0.00     0.202 C 
BRANCH   3   4
ATOM      4  C   UNL A   1      34.409  20.951  25.113  1.00  0.00     0.261 C 
BRANCH   4   5
ATOM      5  O   UNL A   1      33.171  21.320  24.493  1.00  0.00    -0.460 OA
BRANCH   5   6
ATOM      6  C   UNL A   1      32.417  22.206  25.191  1.00  0.00     0.342 C 
ATOM      7  O   UNL A   1      31.963  22.057  26.314  1.00  0.00    -0.246 OA
BRANCH   6   8
ATOM      8  C   UNL A   1      32.413  23.523  24.523  1.00  0.00     0.104 A 
ATOM      9  C   UNL A   1      32.433  25.956  24.606  1.00  0.00     0.087 A 
ATOM     10  C   UNL A   1      32.226  25.976  23.219  1.00  0.00     0.034 A 
ATOM     11  C   UNL A   1      32.517  24.712  25.256  1.00  0.00     0.049 A 
ATOM     12  C   UNL A   1      32.109  24.792  22.487  1.00  0.00     0.049 A 
ATOM     13  C   UNL A   1      32.210  23.570  23.138  1.00  0.00     0.130 A 
BRANCH   9  14
ATOM     14  N   UNL A   1      32.484  27.201  25.267  1.00  0.00    -0.151 NA
ATOM     15  N   UNL A   1      33.646  27.587  25.500  1.00  0.00    -0.151 NA
BRANCH  15  16
ATOM     16  C   UNL A   1      33.700  28.830  26.169  1.00  0.00     0.086 A 
ATOM     17  C   UNL A   1      33.997  31.273  27.531  1.00  0.00     0.082 A 
ATOM     18  C   UNL A   1      35.075  30.392  27.447  1.00  0.00     0.024 A 
ATOM     19  C   UNL A   1      32.770  30.950  26.953  1.00  0.00     0.024 A 
ATOM     20  C   UNL A   1      34.919  29.179  26.770  1.00  0.00     0.031 A 
ATOM     21  C   UNL A   1      32.627  29.735  26.274  1.00  0.00     0.031 A 
BRANCH  17  22
ATOM     22  S   UNL A   1      34.182  32.806  28.390  1.00  0.00     0.238 S 
ATOM     23  O   UNL A   1      34.461  32.544  29.784  1.00  0.00    -0.207 OA
ATOM     24  O   UNL A   1      33.143  33.707  27.959  1.00  0.00    -0.207 OA
BRANCH  22  25
ATOM     25  N   UNL A   1      35.620  33.421  27.771  1.00  0.00    -0.225 NA
ATOM     26  H   UNL A   1      35.504  33.617  26.776  1.00  0.00     0.137 HD
ATOM     27  H   UNL A   1      36.366  32.737  27.899  1.00  0.00     0.137 HD
ENDBRANCH  22  25
ENDBRANCH  17  22
ENDBRANCH  15  16
ENDBRANCH   9  14
BRANCH  13  28
ATOM     28  O   UNL A   1      32.039  22.456  22.363  1.00  0.00    -0.507 OA
ATOM     29  H   UNL A   1      32.741  22.150  21.823  1.00  0.00     0.293 HD
ENDBRANCH  13  28
ENDBRANCH   6   8
ENDBRANCH   5   6
ENDBRANCH   4   5
ENDBRANCH   3   4
ENDBRANCH   2   3
ENDBRANCH   1   2
BRANCH   1  30
ATOM     30  C   UNL A   1      39.087  22.462  26.397  1.00  0.00     0.188 C 
BRANCH  30  31
ATOM     31  O   UNL A   1      40.405  22.090  26.077  1.00  0.00    -0.376 OA
BRANCH  31  32
ATOM     32  C   UNL A   1      41.501  22.805  26.623  1.00  0.00     0.202 C 
BRANCH  32  33
ATOM     33  C   UNL A   1      41.812  24.304  26.424  1.00  0.00     0.261 C 
BRANCH  33  34
ATOM     34  O   UNL A   1      40.782  25.261  26.678  1.00  0.00    -0.460 OA
BRANCH  34  35
ATOM     35  C   UNL A   1      41.092  26.548  26.378  1.00  0.00     0.338 C 
ATOM     36  O   UNL A   1      41.419  26.991  25.292  1.00  0.00    -0.246 OA
BRANCH  35  37
ATOM     37  C   UNL A   1      40.801  27.392  27.553  1.00  0.00     0.060 A 
ATOM     38  C   UNL A   1      41.256  28.717  27.564  1.00  0.00     0.016 A 
ATOM     39  C   UNL A   1      40.119  26.866  28.650  1.00  0.00     0.016 A 
ATOM     40  C   UNL A   1      41.044  29.518  28.686  1.00  0.00     0.010 A 
ATOM     41  C   UNL A   1      39.927  27.664  29.781  1.00  0.00     0.010 A 
ATOM     42  C   UNL A   1      40.412  28.984  29.817  1.00  0.00    -0.014 A 
BRANCH  42  43
ATOM     43  C   UNL A   1      40.403  29.742  31.093  1.00  0.00     0.031 A 
ATOM     44  C   UNL A   1      41.510  29.499  32.085  1.00  0.00     0.074 A 
ATOM     45  C   UNL A   1      39.434  30.634  31.369  1.00  0.00     0.049 A 
ATOM     46  N   UNL A   1      41.672  29.993  33.284  1.00  0.00    -0.248 NA
ATOM     47  C   UNL A   1      42.576  28.574  31.663  1.00  0.00     0.031 C 
ATOM     48  C   UNL A   1      38.337  30.999  30.474  1.00  0.00     0.029 A 
ATOM     49  N   UNL A   1      39.216  31.389  32.495  1.00  0.00    -0.354 N 
ATOM     50  C   UNL A   1      42.848  29.429  33.768  1.00  0.00     0.074 A 
ATOM     51  C   UNL A   1      43.342  28.535  32.743  1.00  0.00     0.031 C 
ATOM     52  C   UNL A   1      37.554  31.900  31.091  1.00  0.00     0.029 A 
ATOM     53  C   UNL A   1      38.070  32.148  32.437  1.00  0.00     0.049 A 
ATOM     54  H   UNL A   1      39.822  31.389  33.271  1.00  0.00     0.167 HD
ATOM     55  C   UNL A   1      43.464  29.640  34.956  1.00  0.00     0.031 A 
ATOM     56  C   UNL A   1      37.492  32.931  33.370  1.00  0.00     0.031 A 
ATOM     57  C   UNL A   1      42.961  30.517  35.980  1.00  0.00     0.049 A 
ATOM     58  C   UNL A   1      38.149  33.083  34.719  1.00  0.00     0.074 A 
ATOM     59  C   UNL A   1      43.518  30.808  37.214  1.00  0.00     0.029 A 
ATOM     60  N   UNL A   1      41.778  31.238  35.897  1.00  0.00    -0.354 N 
ATOM     61  N   UNL A   1      39.273  32.561  35.155  1.00  0.00    -0.248 NA
ATOM     62  C   UNL A   1      37.464  33.937  35.700  1.00  0.00     0.031 C 
ATOM     63  C   UNL A   1      42.639  31.650  37.903  1.00  0.00     0.029 A 
ATOM     64  C   UNL A   1      41.572  31.947  37.070  1.00  0.00     0.049 A 
ATOM     65  H   UNL A   1      41.174  31.244  35.120  1.00  0.00     0.167 HD
ATOM     66  C   UNL A   1      39.444  33.053  36.447  1.00  0.00     0.074 A 
ATOM     67  C   UNL A   1      38.317  33.921  36.716  1.00  0.00     0.031 C 
ATOM     68  C   UNL A   1      40.447  32.810  37.327  1.00  0.00     0.031 A 
BRANCH  55  69
ATOM     69  C   UNL A   1      44.734  28.876  35.228  1.00  0.00    -0.014 A 
ATOM     70  C   UNL A   1      45.994  29.412  34.908  1.00  0.00     0.010 A 
ATOM     71  C   UNL A   1      44.666  27.617  35.851  1.00  0.00     0.010 A 
ATOM     72  C   UNL A   1      47.159  28.686  35.169  1.00  0.00     0.020 A 
ATOM     73  C   UNL A   1      45.830  26.900  36.143  1.00  0.00     0.020 A 
ATOM     74  C   UNL A   1      47.069  27.434  35.785  1.00  0.00     0.054 A 
BRANCH  74  75
ATOM     75  S   UNL A   1      48.600  26.525  36.134  1.00  0.00     0.124 S 
ATOM     76  O   UNL A   1      48.717  26.676  37.583  1.00  0.00    -0.237 OA
ATOM     77  O   UNL A   1      48.283  25.177  35.668  1.00  0.00    -0.237 OA
ATOM     78  O   UNL A   1      49.611  27.231  35.352  1.00  0.00    -0.744 OA
ENDBRANCH  74  75
ENDBRANCH  55  69
BRANCH  56  79
ATOM     79  C   UNL A   1      36.205  33.621  33.072  1.00  0.00    -0.014 A 
ATOM     80  C   UNL A   1      36.192  34.936  32.575  1.00  0.00     0.010 A 
ATOM     81  C   UNL A   1      34.980  32.965  33.295  1.00  0.00     0.010 A 
ATOM     82  C   UNL A   1      34.980  35.588  32.323  1.00  0.00     0.020 A 
ATOM     83  C   UNL A   1      33.767  33.603  33.015  1.00  0.00     0.020 A 
ATOM     84  C   UNL A   1      33.775  34.915  32.541  1.00  0.00     0.054 A 
BRANCH  84  85
ATOM     85  S   UNL A   1      32.218  35.765  32.161  1.00  0.00     0.124 S 
ATOM     86  O   UNL A   1      32.477  37.113  32.658  1.00  0.00    -0.237 OA
ATOM     87  O   UNL A   1      32.133  35.631  30.709  1.00  0.00    -0.237 OA
ATOM     88  O   UNL A   1      31.220  35.005  32.910  1.00  0.00    -0.744 OA
ENDBRANCH  84  85
ENDBRANCH  56  79
BRANCH  68  89
ATOM     89  C   UNL A   1      40.404  33.527  38.654  1.00  0.00    -0.014 A 
ATOM     90  C   UNL A   1      40.953  34.812  38.816  1.00  0.00     0.010 A 
ATOM     91  C   UNL A   1      39.748  32.923  39.744  1.00  0.00     0.010 A 
ATOM     92  C   UNL A   1      40.876  35.463  40.051  1.00  0.00     0.020 A 
ATOM     93  C   UNL A   1      39.640  33.584  40.970  1.00  0.00     0.020 A 
ATOM     94  C   UNL A   1      40.218  34.846  41.120  1.00  0.00     0.054 A 
BRANCH  94  95
ATOM     95  S   UNL A   1      40.095  35.731  42.699  1.00  0.00     0.124 S 
ATOM     96  O   UNL A   1      41.497  35.982  43.018  1.00  0.00    -0.237 OA
ATOM     97  O   UNL A   1      39.310  36.912  42.342  1.00  0.00    -0.237 OA
ATOM     98  O   UNL A   1      39.416  34.782  43.578  1.00  0.00    -0.744 OA
ENDBRANCH  94  95
ENDBRANCH  68  89
ENDBRANCH  42  43
ENDBRANCH  35  37
ENDBRANCH  34  35
ENDBRANCH  33  34
ENDBRANCH  32  33
ENDBRANCH  31  32
ENDBRANCH  30  31
ENDBRANCH   1  30
TORSDOF 25
ENDMDL
MODEL 3
REMARK VINA RESULT:      -9.2      6.358     12.601
REMARK SMILES NS(=O)(=O)c1ccc(/N=N/c2ccc(O)c(C(=O)OCCOCCOCCOC(=O)c3ccc(-c4c5nc(c(-c6ccc(S(=O)(=O)[O-])cc6)c6ccc([nH]6)c(-c6ccc(S(=O)(=O)[O-])cc6)c6nc(c(-c7ccc(S(=O)(=O)[O-])cc7)c7ccc4[nH]7)C=C6)C=C5)cc3)c2)cc1
REMARK SMILES IDX 23 1 22 2 21 3 20 4 19 5 17 6 18 7 16 8 11 9 12 10 91 11
REMARK SMILES IDX 13 12 14 13 10 14 9 15 8 16 5 17 6 18 93 19 7 20 92 21 2 22
REMARK SMILES IDX 3 23 4 24 1 25 15 28 24 30 25 31 26 32 27 33 28 34 29 35
REMARK SMILES IDX 30 36 31 37 32 38 90 39 33 40 89 41 34 42 35 43 36 44 83 45
REMARK SMILES IDX 37 46 88 47 82 48 84 49 38 50 87 51 81 52 80 53 39 55 69 56
REMARK SMILES IDX 50 57 68 58 51 59 54 60 67 61 85 62 52 63 53 64 66 66 86 67
REMARK SMILES IDX 55 68 40 69 41 70 49 71 42 72 48 73 43 74 44 75 45 76 46 77
REMARK SMILES IDX 47 78 70 79 71 80 79 81 72 82 78 83 73 84 74 85 75 86 76 87
REMARK SMILES IDX 77 88 56 89 57 90 65 91 58 92 64 93 59 94 60 95 61 96 62 97
REMARK SMILES IDX 63 98
REMARK H PARENT 1 26 1 27 15 29 84 54 54 65
REMARK Flexibility Score: inf
ROOT
ATOM      1  C   UNL A   1      38.130  22.625  25.488  1.00  0.00     0.188 C 
ENDROOT
BRANCH   1   2
ATOM      2  O   UNL A   1      37.156  23.585  25.846  1.00  0.00    -0.376 OA
BRANCH   2   3
ATOM      3  C   UNL A   1      35.778  23.257  25.850  1.00  0.00     0.202 C 
BRANCH   3   4
ATOM      4  C   UNL A   1      35.014  22.777  27.097  1.00  0.00     0.261 C 
BRANCH   4   5
ATOM      5  O   UNL A   1      33.904  21.898  26.875  1.00  0.00    -0.460 OA
BRANCH   5   6
ATOM      6  C   UNL A   1      32.681  22.481  26.949  1.00  0.00     0.342 C 
ATOM      7  O   UNL A   1      32.120  22.880  27.957  1.00  0.00    -0.246 OA
BRANCH   6   8
ATOM      8  C   UNL A   1      32.189  22.826  25.601  1.00  0.00     0.104 A 
ATOM      9  C   UNL A   1      30.990  24.304  24.082  1.00  0.00     0.087 A 
ATOM     10  C   UNL A   1      31.134  23.338  23.075  1.00  0.00     0.034 A 
ATOM     11  C   UNL A   1      31.518  24.031  25.356  1.00  0.00     0.049 A 
ATOM     12  C   UNL A   1      31.790  22.129  23.320  1.00  0.00     0.049 A 
ATOM     13  C   UNL A   1      32.322  21.879  24.577  1.00  0.00     0.130 A 
BRANCH   9  14
ATOM     14  N   UNL A   1      30.265  25.468  23.756  1.00  0.00    -0.151 NA
ATOM     15  N   UNL A   1      30.993  26.437  23.467  1.00  0.00    -0.151 NA
BRANCH  15  16
ATOM     16  C   UNL A   1      30.270  27.608  23.148  1.00  0.00     0.086 A 
ATOM     17  C   UNL A   1      28.979  29.993  22.401  1.00  0.00     0.082 A 
ATOM     18  C   UNL A   1      30.285  29.750  21.976  1.00  0.00     0.024 A 
ATOM     19  C   UNL A   1      28.310  29.067  23.202  1.00  0.00     0.024 A 
ATOM     20  C   UNL A   1      30.921  28.563  22.353  1.00  0.00     0.031 A 
ATOM     21  C   UNL A   1      28.955  27.881  23.569  1.00  0.00     0.031 A 
BRANCH  17  22
ATOM     22  S   UNL A   1      28.169  31.493  21.936  1.00  0.00     0.238 S 
ATOM     23  O   UNL A   1      27.083  31.756  22.854  1.00  0.00    -0.207 OA
ATOM     24  O   UNL A   1      28.001  31.504  20.504  1.00  0.00    -0.207 OA
BRANCH  22  25
ATOM     25  N   UNL A   1      29.319  32.671  22.280  1.00  0.00    -0.225 NA
ATOM     26  H   UNL A   1      28.858  33.488  22.682  1.00  0.00     0.137 HD
ATOM     27  H   UNL A   1      29.799  32.939  21.421  1.00  0.00     0.137 HD
ENDBRANCH  22  25
ENDBRANCH  17  22
ENDBRANCH  15  16
ENDBRANCH   9  14
BRANCH  13  28
ATOM     28  O   UNL A   1      32.910  20.657  24.754  1.00  0.00    -0.507 OA
ATOM     29  H   UNL A   1      33.834  20.598  24.893  1.00  0.00     0.293 HD
ENDBRANCH  13  28
ENDBRANCH   6   8
ENDBRANCH   5   6
ENDBRANCH   4   5
ENDBRANCH   3   4
ENDBRANCH   2   3
ENDBRANCH   1   2
BRANCH   1  30
ATOM     30  C   UNL A   1      39.188  22.184  26.519  1.00  0.00     0.188 C 
BRANCH  30  31
ATOM     31  O   UNL A   1      40.082  21.164  26.146  1.00  0.00    -0.376 OA
BRANCH  31  32
ATOM     32  C   UNL A   1      41.460  21.272  26.461  1.00  0.00     0.202 C 
BRANCH  32  33
ATOM     33  C   UNL A   1      42.433  22.364  25.968  1.00  0.00     0.261 C 
BRANCH  33  34
ATOM     34  O   UNL A   1      41.951  23.699  25.814  1.00  0.00    -0.460 OA
BRANCH  34  35
ATOM     35  C   UNL A   1      42.886  24.677  25.929  1.00  0.00     0.338 C 
ATOM     36  O   UNL A   1      43.889  24.818  25.253  1.00  0.00    -0.246 OA
BRANCH  35  37
ATOM     37  C   UNL A   1      42.411  25.674  26.907  1.00  0.00     0.060 A 
ATOM     38  C   UNL A   1      43.037  26.927  26.955  1.00  0.00     0.016 A 
ATOM     39  C   UNL A   1      41.382  25.360  27.795  1.00  0.00     0.016 A 
ATOM     40  C   UNL A   1      42.645  27.867  27.909  1.00  0.00     0.010 A 
ATOM     41  C   UNL A   1      41.007  26.295  28.763  1.00  0.00     0.010 A 
ATOM     42  C   UNL A   1      41.654  27.542  28.844  1.00  0.00    -0.014 A 
BRANCH  42  43
ATOM     43  C   UNL A   1      41.405  28.432  30.006  1.00  0.00     0.031 A 
ATOM     44  C   UNL A   1      42.270  28.278  31.230  1.00  0.00     0.074 A 
ATOM     45  C   UNL A   1      40.435  29.363  29.978  1.00  0.00     0.049 A 
ATOM     46  N   UNL A   1      42.196  28.894  32.380  1.00  0.00    -0.248 NA
ATOM     47  C   UNL A   1      43.365  27.296  31.140  1.00  0.00     0.031 C 
ATOM     48  C   UNL A   1      39.564  29.647  28.839  1.00  0.00     0.029 A 
ATOM     49  N   UNL A   1      40.014  30.237  30.951  1.00  0.00    -0.354 N 
ATOM     50  C   UNL A   1      43.222  28.367  33.158  1.00  0.00     0.074 A 
ATOM     51  C   UNL A   1      43.885  27.361  32.356  1.00  0.00     0.031 C 
ATOM     52  C   UNL A   1      38.704  30.622  29.182  1.00  0.00     0.029 A 
ATOM     53  C   UNL A   1      38.936  31.003  30.574  1.00  0.00     0.049 A 
ATOM     54  H   UNL A   1      40.444  30.309  31.833  1.00  0.00     0.167 HD
ATOM     55  C   UNL A   1      43.582  28.693  34.422  1.00  0.00     0.031 A 
ATOM     56  C   UNL A   1      38.205  31.889  31.279  1.00  0.00     0.031 A 
ATOM     57  C   UNL A   1      42.909  29.682  35.222  1.00  0.00     0.049 A 
ATOM     58  C   UNL A   1      38.570  32.174  32.715  1.00  0.00     0.074 A 
ATOM     59  C   UNL A   1      43.205  30.093  36.510  1.00  0.00     0.029 A 
ATOM     60  N   UNL A   1      41.798  30.408  34.817  1.00  0.00    -0.354 N 
ATOM     61  N   UNL A   1      39.556  31.684  33.430  1.00  0.00    -0.248 NA
ATOM     62  C   UNL A   1      37.727  33.139  33.437  1.00  0.00     0.031 C 
ATOM     63  C   UNL A   1      42.234  31.017  36.908  1.00  0.00     0.029 A 
ATOM     64  C   UNL A   1      41.378  31.241  35.842  1.00  0.00     0.049 A 
ATOM     65  H   UNL A   1      41.371  30.340  33.933  1.00  0.00     0.167 HD
ATOM     66  C   UNL A   1      39.471  32.307  34.673  1.00  0.00     0.074 A 
ATOM     67  C   UNL A   1      38.346  33.217  34.607  1.00  0.00     0.031 C 
ATOM     68  C   UNL A   1      40.257  32.144  35.766  1.00  0.00     0.031 A 
BRANCH  55  69
ATOM     69  C   UNL A   1      44.737  27.942  35.033  1.00  0.00    -0.014 A 
ATOM     70  C   UNL A   1      44.606  26.603  35.443  1.00  0.00     0.010 A 
ATOM     71  C   UNL A   1      45.985  28.577  35.164  1.00  0.00     0.010 A 
ATOM     72  C   UNL A   1      45.690  25.927  36.008  1.00  0.00     0.020 A 
ATOM     73  C   UNL A   1      47.082  27.895  35.700  1.00  0.00     0.020 A 
ATOM     74  C   UNL A   1      46.921  26.577  36.133  1.00  0.00     0.054 A 
BRANCH  74  75
ATOM     75  S   UNL A   1      48.317  25.666  36.848  1.00  0.00     0.124 S 
ATOM     76  O   UNL A   1      49.298  26.730  37.054  1.00  0.00    -0.237 OA
ATOM     77  O   UNL A   1      47.739  25.101  38.064  1.00  0.00    -0.237 OA
ATOM     78  O   UNL A   1      48.664  24.693  35.815  1.00  0.00    -0.744 OA
ENDBRANCH  74  75
ENDBRANCH  55  69
BRANCH  56  79
ATOM     79  C   UNL A   1      37.036  32.564  30.647  1.00  0.00    -0.014 A 
ATOM     80  C   UNL A   1      37.221  33.561  29.672  1.00  0.00     0.010 A 
ATOM     81  C   UNL A   1      35.726  32.218  31.026  1.00  0.00     0.010 A 
ATOM     82  C   UNL A   1      36.121  34.210  29.102  1.00  0.00     0.020 A 
ATOM     83  C   UNL A   1      34.622  32.842  30.435  1.00  0.00     0.020 A 
ATOM     84  C   UNL A   1      34.828  33.843  29.485  1.00  0.00     0.054 A 
BRANCH  84  85
ATOM     85  S   UNL A   1      33.416  34.664  28.695  1.00  0.00     0.124 S 
ATOM     86  O   UNL A   1      32.515  34.875  29.824  1.00  0.00    -0.237 OA
ATOM     87  O   UNL A   1      34.025  35.870  28.138  1.00  0.00    -0.237 OA
ATOM     88  O   UNL A   1      32.960  33.691  27.706  1.00  0.00    -0.744 OA
ENDBRANCH  84  85
ENDBRANCH  56  79
BRANCH  68  89
ATOM     89  C   UNL A   1      39.964  32.999  36.975  1.00  0.00    -0.014 A 
ATOM     90  C   UNL A   1      38.915  32.689  37.859  1.00  0.00     0.010 A 
ATOM     91  C   UNL A   1      40.794  34.100  37.259  1.00  0.00     0.010 A 
ATOM     92  C   UNL A   1      38.683  33.484  38.986  1.00  0.00     0.020 A 
ATOM     93  C   UNL A   1      40.586  34.877  38.401  1.00  0.00     0.020 A 
ATOM     94  C   UNL A   1      39.521  34.572  39.251  1.00  0.00     0.054 A 
BRANCH  94  95
ATOM     95  S   UNL A   1      39.224  35.561  40.743  1.00  0.00     0.124 S 
ATOM     96  O   UNL A   1      38.755  36.825  40.182  1.00  0.00    -0.237 OA
ATOM     97  O   UNL A   1      38.215  34.775  41.451  1.00  0.00    -0.237 OA
ATOM     98  O   UNL A   1      40.532  35.615  41.391  1.00  0.00    -0.744 OA
ENDBRANCH  94  95
ENDBRANCH  68  89
ENDBRANCH  42  43
ENDBRANCH  35  37
ENDBRANCH  34  35
ENDBRANCH  33  34
ENDBRANCH  32  33
ENDBRANCH  31  32
ENDBRANCH  30  31
ENDBRANCH   1  30
TORSDOF 25
ENDMDL
