MODEL 1
REMARK VINA RESULT:     -10.8      0.000      0.000
REMARK SMILES Cc1ccc(C(F)(F)F)cc1/C=C/C(=O)OCCOCCOCCOC(=O)c1ccc(-c2c3nc(c(-c4ccc(S(=O)(=O)[O-])cc4)c4ccc([nH]4)c(-c4ccc(S(=O)(=O)[O-])cc4)c4nc(c(-c5ccc(S(=O)(=O)[O-])cc5)c5ccc2[nH]5)C=C4)C=C3)cc1
REMARK SMILES IDX 21 1 20 2 19 3 18 4 17 5 16 6 14 7 15 8 13 9 12 10 11 11
REMARK SMILES IDX 1 12 2 13 3 14 4 15 10 16 5 17 6 18 7 19 8 20 9 21 22 22
REMARK SMILES IDX 23 23 24 24 25 25 26 26 27 27 28 28 29 29 87 30 30 31 86 32
REMARK SMILES IDX 31 33 32 34 33 35 80 36 34 37 85 38 79 39 81 40 35 41 84 42
REMARK SMILES IDX 78 43 77 44 36 46 66 47 47 48 65 49 48 50 51 51 64 52 82 53
REMARK SMILES IDX 49 54 50 55 63 57 83 58 52 59 37 60 38 61 46 62 39 63 45 64
REMARK SMILES IDX 40 65 41 66 42 67 43 68 44 69 67 70 68 71 76 72 69 73 75 74
REMARK SMILES IDX 70 75 71 76 72 77 73 78 74 79 53 80 54 81 62 82 55 83 61 84
REMARK SMILES IDX 56 85 57 86 58 87 59 88 60 89
REMARK H PARENT 81 45 51 56
REMARK Flexibility Score: inf
ROOT
ATOM      1  C   UNL A   1      32.636  26.641  25.554  1.00  0.00     0.188 C 
ENDROOT
BRANCH   1   2
ATOM      2  C   UNL A   1      32.269  26.716  24.091  1.00  0.00     0.188 C 
BRANCH   2   3
ATOM      3  O   UNL A   1      32.161  25.560  23.264  1.00  0.00    -0.376 OA
BRANCH   3   4
ATOM      4  C   UNL A   1      33.057  24.490  23.010  1.00  0.00     0.202 C 
BRANCH   4   5
ATOM      5  C   UNL A   1      32.754  22.824  22.917  1.00  0.00     0.261 C 
BRANCH   5   6
ATOM      6  O   UNL A   1      33.072  21.416  23.775  1.00  0.00    -0.460 OA
BRANCH   6   7
ATOM      7  C   UNL A   1      33.967  20.838  24.674  1.00  0.00     0.330 C 
ATOM      8  O   UNL A   1      34.342  19.679  24.802  1.00  0.00    -0.247 OA
BRANCH   7   9
ATOM      9  C   UNL A   1      34.777  21.662  25.564  1.00  0.00     0.094 C 
ATOM     10  C   UNL A   1      35.831  22.219  24.914  1.00  0.00     0.016 C 
BRANCH  10  11
ATOM     11  C   UNL A   1      37.169  22.455  25.499  1.00  0.00    -0.022 A 
ATOM     12  C   UNL A   1      37.927  20.123  24.860  1.00  0.00     0.045 C 
ATOM     13  C   UNL A   1      38.145  21.449  25.531  1.00  0.00    -0.044 A 
ATOM     14  C   UNL A   1      39.381  21.709  26.139  1.00  0.00     0.004 A 
ATOM     15  C   UNL A   1      39.655  22.951  26.715  1.00  0.00     0.013 A 
ATOM     16  C   UNL A   1      37.458  23.718  26.077  1.00  0.00     0.021 A 
ATOM     17  C   UNL A   1      38.705  23.980  26.679  1.00  0.00     0.056 A 
BRANCH  17  18
ATOM     18  C   UNL A   1      39.059  25.318  27.289  1.00  0.00     0.416 C 
ATOM     19  F   UNL A   1      39.776  25.184  28.444  1.00  0.00    -0.166 F 
ATOM     20  F   UNL A   1      39.853  26.069  26.468  1.00  0.00    -0.166 F 
ATOM     21  F   UNL A   1      37.997  26.105  27.598  1.00  0.00    -0.166 F 
ENDBRANCH  17  18
ENDBRANCH  10  11
ENDBRANCH   7   9
ENDBRANCH   6   7
ENDBRANCH   5   6
ENDBRANCH   4   5
ENDBRANCH   3   4
ENDBRANCH   2   3
ENDBRANCH   1   2
BRANCH   1  22
ATOM     22  O   UNL A   1      32.494  27.913  26.154  1.00  0.00    -0.376 OA
BRANCH  22  23
ATOM     23  C   UNL A   1      33.519  28.827  25.813  1.00  0.00     0.202 C 
BRANCH  23  24
ATOM     24  C   UNL A   1      34.071  29.651  26.992  1.00  0.00     0.261 C 
BRANCH  24  25
ATOM     25  O   UNL A   1      35.342  29.161  27.477  1.00  0.00    -0.460 OA
BRANCH  25  26
ATOM     26  C   UNL A   1      35.966  29.845  28.516  1.00  0.00     0.338 C 
ATOM     27  O   UNL A   1      35.380  30.197  29.492  1.00  0.00    -0.246 OA
BRANCH  26  28
ATOM     28  C   UNL A   1      37.465  29.789  28.345  1.00  0.00     0.060 A 
ATOM     29  C   UNL A   1      38.236  29.716  27.185  1.00  0.00     0.016 A 
ATOM     30  C   UNL A   1      38.186  29.789  29.484  1.00  0.00     0.016 A 
ATOM     31  C   UNL A   1      39.665  29.371  27.199  1.00  0.00     0.010 A 
ATOM     32  C   UNL A   1      39.522  29.379  29.426  1.00  0.00     0.010 A 
ATOM     33  C   UNL A   1      40.379  29.065  28.354  1.00  0.00    -0.014 A 
BRANCH  33  34
ATOM     34  C   UNL A   1      41.881  28.332  28.440  1.00  0.00     0.031 A 
ATOM     35  C   UNL A   1      42.423  26.892  27.968  1.00  0.00     0.074 A 
ATOM     36  C   UNL A   1      42.896  28.992  29.036  1.00  0.00     0.049 A 
ATOM     37  N   UNL A   1      42.601  25.812  28.709  1.00  0.00    -0.248 NA
ATOM     38  C   UNL A   1      42.802  26.563  26.572  1.00  0.00     0.031 C 
ATOM     39  C   UNL A   1      44.305  28.605  29.113  1.00  0.00     0.029 A 
ATOM     40  N   UNL A   1      42.817  30.147  29.797  1.00  0.00    -0.354 N 
ATOM     41  C   UNL A   1      42.968  24.758  27.845  1.00  0.00     0.074 A 
ATOM     42  C   UNL A   1      42.740  25.233  26.513  1.00  0.00     0.031 C 
ATOM     43  C   UNL A   1      44.884  29.328  30.085  1.00  0.00     0.029 A 
ATOM     44  C   UNL A   1      43.840  30.104  30.739  1.00  0.00     0.049 A 
ATOM     45  H   UNL A   1      42.155  30.867  29.691  1.00  0.00     0.167 HD
ATOM     46  C   UNL A   1      43.927  23.796  28.048  1.00  0.00     0.031 A 
ATOM     47  C   UNL A   1      43.499  30.050  32.057  1.00  0.00     0.031 A 
ATOM     48  C   UNL A   1      44.845  24.256  29.056  1.00  0.00     0.049 A 
ATOM     49  C   UNL A   1      43.909  28.738  32.686  1.00  0.00     0.074 A 
ATOM     50  C   UNL A   1      46.004  25.008  28.948  1.00  0.00     0.029 A 
ATOM     51  N   UNL A   1      44.425  24.332  30.362  1.00  0.00    -0.354 N 
ATOM     52  N   UNL A   1      44.246  27.670  32.012  1.00  0.00    -0.248 NA
ATOM     53  C   UNL A   1      44.015  28.540  34.127  1.00  0.00     0.031 C 
ATOM     54  C   UNL A   1      46.205  25.655  30.194  1.00  0.00     0.029 A 
ATOM     55  C   UNL A   1      45.215  25.223  31.060  1.00  0.00     0.049 A 
ATOM     56  H   UNL A   1      43.672  23.826  30.744  1.00  0.00     0.167 HD
ATOM     57  C   UNL A   1      44.587  26.668  32.878  1.00  0.00     0.074 A 
ATOM     58  C   UNL A   1      44.453  27.270  34.191  1.00  0.00     0.031 C 
ATOM     59  C   UNL A   1      44.946  25.419  32.468  1.00  0.00     0.031 A 
BRANCH  46  60
ATOM     60  C   UNL A   1      44.277  22.768  26.958  1.00  0.00    -0.014 A 
ATOM     61  C   UNL A   1      43.332  21.857  26.443  1.00  0.00     0.010 A 
ATOM     62  C   UNL A   1      45.590  22.659  26.435  1.00  0.00     0.010 A 
ATOM     63  C   UNL A   1      43.699  20.818  25.559  1.00  0.00     0.020 A 
ATOM     64  C   UNL A   1      45.975  21.607  25.580  1.00  0.00     0.020 A 
ATOM     65  C   UNL A   1      45.028  20.678  25.157  1.00  0.00     0.054 A 
BRANCH  65  66
ATOM     66  S   UNL A   1      45.515  19.244  24.143  1.00  0.00     0.124 S 
ATOM     67  O   UNL A   1      46.883  19.575  23.750  1.00  0.00    -0.237 OA
ATOM     68  O   UNL A   1      45.382  18.133  25.079  1.00  0.00    -0.237 OA
ATOM     69  O   UNL A   1      44.548  19.252  23.045  1.00  0.00    -0.744 OA
ENDBRANCH  65  66
ENDBRANCH  46  60
BRANCH  47  70
ATOM     70  C   UNL A   1      42.328  30.930  32.408  1.00  0.00    -0.014 A 
ATOM     71  C   UNL A   1      42.536  32.325  32.273  1.00  0.00     0.010 A 
ATOM     72  C   UNL A   1      40.999  30.476  32.486  1.00  0.00     0.010 A 
ATOM     73  C   UNL A   1      41.476  33.211  32.051  1.00  0.00     0.020 A 
ATOM     74  C   UNL A   1      39.919  31.375  32.291  1.00  0.00     0.020 A 
ATOM     75  C   UNL A   1      40.175  32.724  32.011  1.00  0.00     0.054 A 
BRANCH  75  76
ATOM     76  S   UNL A   1      38.883  33.859  31.392  1.00  0.00     0.124 S 
ATOM     77  O   UNL A   1      37.800  32.948  31.041  1.00  0.00    -0.237 OA
ATOM     78  O   UNL A   1      38.636  34.698  32.567  1.00  0.00    -0.237 OA
ATOM     79  O   UNL A   1      39.528  34.528  30.267  1.00  0.00    -0.744 OA
ENDBRANCH  75  76
ENDBRANCH  47  70
BRANCH  59  80
ATOM     80  C   UNL A   1      45.086  24.216  33.361  1.00  0.00    -0.014 A 
ATOM     81  C   UNL A   1      44.102  23.226  33.464  1.00  0.00     0.010 A 
ATOM     82  C   UNL A   1      46.335  23.966  33.983  1.00  0.00     0.010 A 
ATOM     83  C   UNL A   1      44.323  22.070  34.218  1.00  0.00     0.020 A 
ATOM     84  C   UNL A   1      46.586  22.788  34.685  1.00  0.00     0.020 A 
ATOM     85  C   UNL A   1      45.561  21.862  34.828  1.00  0.00     0.054 A 
BRANCH  85  86
ATOM     86  S   UNL A   1      45.857  20.351  35.775  1.00  0.00     0.124 S 
ATOM     87  O   UNL A   1      45.680  20.822  37.146  1.00  0.00    -0.237 OA
ATOM     88  O   UNL A   1      44.822  19.442  35.288  1.00  0.00    -0.237 OA
ATOM     89  O   UNL A   1      47.222  19.984  35.406  1.00  0.00    -0.744 OA
ENDBRANCH  85  86
ENDBRANCH  59  80
ENDBRANCH  33  34
ENDBRANCH  26  28
ENDBRANCH  25  26
ENDBRANCH  24  25
ENDBRANCH  23  24
ENDBRANCH  22  23
ENDBRANCH   1  22
TORSDOF 22
ENDMDL
MODEL 2
REMARK VINA RESULT:      -9.9      4.348      6.697
REMARK SMILES Cc1ccc(C(F)(F)F)cc1/C=C/C(=O)OCCOCCOCCOC(=O)c1ccc(-c2c3nc(c(-c4ccc(S(=O)(=O)[O-])cc4)c4ccc([nH]4)c(-c4ccc(S(=O)(=O)[O-])cc4)c4nc(c(-c5ccc(S(=O)(=O)[O-])cc5)c5ccc2[nH]5)C=C4)C=C3)cc1
REMARK SMILES IDX 21 1 20 2 19 3 18 4 17 5 16 6 14 7 15 8 13 9 12 10 11 11
REMARK SMILES IDX 1 12 2 13 3 14 4 15 10 16 5 17 6 18 7 19 8 20 9 21 22 22
REMARK SMILES IDX 23 23 24 24 25 25 26 26 27 27 28 28 29 29 87 30 30 31 86 32
REMARK SMILES IDX 31 33 32 34 33 35 80 36 34 37 85 38 79 39 81 40 35 41 84 42
REMARK SMILES IDX 78 43 77 44 36 46 66 47 47 48 65 49 48 50 51 51 64 52 82 53
REMARK SMILES IDX 49 54 50 55 63 57 83 58 52 59 37 60 38 61 46 62 39 63 45 64
REMARK SMILES IDX 40 65 41 66 42 67 43 68 44 69 67 70 68 71 76 72 69 73 75 74
REMARK SMILES IDX 70 75 71 76 72 77 73 78 74 79 53 80 54 81 62 82 55 83 61 84
REMARK SMILES IDX 56 85 57 86 58 87 59 88 60 89
REMARK H PARENT 81 45 51 56
REMARK Flexibility Score: inf
ROOT
ATOM      1  C   UNL A   1      36.000  33.947  31.713  1.00  0.00     0.188 C 
ENDROOT
BRANCH   1   2
ATOM      2  C   UNL A   1      34.508  33.716  31.652  1.00  0.00     0.188 C 
BRANCH   2   3
ATOM      3  O   UNL A   1      33.639  34.511  30.849  1.00  0.00    -0.376 OA
BRANCH   3   4
ATOM      4  C   UNL A   1      33.708  34.913  29.490  1.00  0.00     0.202 C 
BRANCH   4   5
ATOM      5  C   UNL A   1      33.662  33.972  28.080  1.00  0.00     0.261 C 
BRANCH   5   6
ATOM      6  O   UNL A   1      32.965  32.554  27.510  1.00  0.00    -0.460 OA
BRANCH   6   7
ATOM      7  C   UNL A   1      33.199  31.191  27.333  1.00  0.00     0.330 C 
ATOM      8  O   UNL A   1      34.184  30.506  27.581  1.00  0.00    -0.247 OA
BRANCH   7   9
ATOM      9  C   UNL A   1      32.124  30.287  26.940  1.00  0.00     0.094 C 
ATOM     10  C   UNL A   1      32.208  29.944  25.628  1.00  0.00     0.016 C 
BRANCH  10  11
ATOM     11  C   UNL A   1      31.057  29.715  24.728  1.00  0.00    -0.022 A 
ATOM     12  C   UNL A   1      31.577  27.239  24.591  1.00  0.00     0.045 C 
ATOM     13  C   UNL A   1      30.788  28.451  24.187  1.00  0.00    -0.044 A 
ATOM     14  C   UNL A   1      29.711  28.297  23.301  1.00  0.00     0.004 A 
ATOM     15  C   UNL A   1      28.906  29.382  22.949  1.00  0.00     0.013 A 
ATOM     16  C   UNL A   1      30.228  30.810  24.374  1.00  0.00     0.021 A 
ATOM     17  C   UNL A   1      29.141  30.651  23.492  1.00  0.00     0.056 A 
BRANCH  17  18
ATOM     18  C   UNL A   1      28.222  31.789  23.105  1.00  0.00     0.416 C 
ATOM     19  F   UNL A   1      27.954  31.800  21.765  1.00  0.00    -0.166 F 
ATOM     20  F   UNL A   1      26.999  31.696  23.706  1.00  0.00    -0.166 F 
ATOM     21  F   UNL A   1      28.689  33.029  23.403  1.00  0.00    -0.166 F 
ENDBRANCH  17  18
ENDBRANCH  10  11
ENDBRANCH   7   9
ENDBRANCH   6   7
ENDBRANCH   5   6
ENDBRANCH   4   5
ENDBRANCH   3   4
ENDBRANCH   2   3
ENDBRANCH   1   2
BRANCH   1  22
ATOM     22  O   UNL A   1      36.485  33.628  33.001  1.00  0.00    -0.376 OA
BRANCH  22  23
ATOM     23  C   UNL A   1      37.880  33.397  33.048  1.00  0.00     0.202 C 
BRANCH  23  24
ATOM     24  C   UNL A   1      38.330  32.028  32.503  1.00  0.00     0.261 C 
BRANCH  24  25
ATOM     25  O   UNL A   1      37.463  30.945  32.912  1.00  0.00    -0.460 OA
BRANCH  25  26
ATOM     26  C   UNL A   1      36.775  30.236  31.931  1.00  0.00     0.338 C 
ATOM     27  O   UNL A   1      35.646  30.480  31.640  1.00  0.00    -0.246 OA
BRANCH  26  28
ATOM     28  C   UNL A   1      37.737  29.380  31.143  1.00  0.00     0.060 A 
ATOM     29  C   UNL A   1      38.550  28.325  31.557  1.00  0.00     0.016 A 
ATOM     30  C   UNL A   1      37.855  29.682  29.835  1.00  0.00     0.016 A 
ATOM     31  C   UNL A   1      39.644  27.790  30.732  1.00  0.00     0.010 A 
ATOM     32  C   UNL A   1      38.964  29.193  29.136  1.00  0.00     0.010 A 
ATOM     33  C   UNL A   1      39.988  28.291  29.480  1.00  0.00    -0.014 A 
BRANCH  33  34
ATOM     34  C   UNL A   1      41.403  27.998  28.636  1.00  0.00     0.031 A 
ATOM     35  C   UNL A   1      42.082  26.651  28.074  1.00  0.00     0.074 A 
ATOM     36  C   UNL A   1      42.220  29.034  28.352  1.00  0.00     0.049 A 
ATOM     37  N   UNL A   1      43.055  25.946  28.622  1.00  0.00    -0.248 NA
ATOM     38  C   UNL A   1      41.678  25.982  26.812  1.00  0.00     0.031 C 
ATOM     39  C   UNL A   1      43.429  29.033  27.527  1.00  0.00     0.029 A 
ATOM     40  N   UNL A   1      42.152  30.322  28.857  1.00  0.00    -0.354 N 
ATOM     41  C   UNL A   1      43.231  24.784  27.841  1.00  0.00     0.074 A 
ATOM     42  C   UNL A   1      42.116  24.730  26.944  1.00  0.00     0.031 C 
ATOM     43  C   UNL A   1      44.124  30.148  27.804  1.00  0.00     0.029 A 
ATOM     44  C   UNL A   1      43.447  30.829  28.898  1.00  0.00     0.049 A 
ATOM     45  H   UNL A   1      41.335  30.793  29.138  1.00  0.00     0.167 HD
ATOM     46  C   UNL A   1      44.412  24.192  27.464  1.00  0.00     0.031 A 
ATOM     47  C   UNL A   1      43.981  31.132  30.115  1.00  0.00     0.031 A 
ATOM     48  C   UNL A   1      45.474  25.158  27.572  1.00  0.00     0.049 A 
ATOM     49  C   UNL A   1      45.147  30.231  30.451  1.00  0.00     0.074 A 
ATOM     50  C   UNL A   1      45.954  26.081  26.657  1.00  0.00     0.029 A 
ATOM     51  N   UNL A   1      45.894  25.557  28.818  1.00  0.00    -0.354 N 
ATOM     52  N   UNL A   1      45.418  29.111  29.833  1.00  0.00    -0.248 NA
ATOM     53  C   UNL A   1      46.130  30.546  31.482  1.00  0.00     0.031 C 
ATOM     54  C   UNL A   1      46.565  27.127  27.394  1.00  0.00     0.029 A 
ATOM     55  C   UNL A   1      46.518  26.785  28.734  1.00  0.00     0.049 A 
ATOM     56  H   UNL A   1      45.769  25.042  29.648  1.00  0.00     0.167 HD
ATOM     57  C   UNL A   1      46.551  28.557  30.361  1.00  0.00     0.074 A 
ATOM     58  C   UNL A   1      46.976  29.506  31.372  1.00  0.00     0.031 C 
ATOM     59  C   UNL A   1      47.058  27.362  29.946  1.00  0.00     0.031 A 
BRANCH  46  60
ATOM     60  C   UNL A   1      44.436  22.976  26.522  1.00  0.00    -0.014 A 
ATOM     61  C   UNL A   1      43.367  22.061  26.436  1.00  0.00     0.010 A 
ATOM     62  C   UNL A   1      45.562  22.689  25.710  1.00  0.00     0.010 A 
ATOM     63  C   UNL A   1      43.462  20.867  25.688  1.00  0.00     0.020 A 
ATOM     64  C   UNL A   1      45.682  21.485  24.987  1.00  0.00     0.020 A 
ATOM     65  C   UNL A   1      44.633  20.569  24.992  1.00  0.00     0.054 A 
BRANCH  65  66
ATOM     66  S   UNL A   1      44.799  18.955  24.159  1.00  0.00     0.124 S 
ATOM     67  O   UNL A   1      46.172  18.568  24.474  1.00  0.00    -0.237 OA
ATOM     68  O   UNL A   1      43.759  18.158  24.802  1.00  0.00    -0.237 OA
ATOM     69  O   UNL A   1      44.563  19.267  22.750  1.00  0.00    -0.744 OA
ENDBRANCH  65  66
ENDBRANCH  46  60
BRANCH  47  70
ATOM     70  C   UNL A   1      42.998  31.779  31.055  1.00  0.00    -0.014 A 
ATOM     71  C   UNL A   1      42.511  30.962  32.106  1.00  0.00     0.010 A 
ATOM     72  C   UNL A   1      42.833  33.170  31.183  1.00  0.00     0.010 A 
ATOM     73  C   UNL A   1      42.041  31.507  33.306  1.00  0.00     0.020 A 
ATOM     74  C   UNL A   1      42.329  33.726  32.387  1.00  0.00     0.020 A 
ATOM     75  C   UNL A   1      41.999  32.887  33.461  1.00  0.00     0.054 A 
BRANCH  75  76
ATOM     76  S   UNL A   1      41.697  33.524  35.146  1.00  0.00     0.124 S 
ATOM     77  O   UNL A   1      41.294  34.904  34.898  1.00  0.00    -0.237 OA
ATOM     78  O   UNL A   1      40.628  32.638  35.613  1.00  0.00    -0.237 OA
ATOM     79  O   UNL A   1      42.986  33.357  35.810  1.00  0.00    -0.744 OA
ENDBRANCH  75  76
ENDBRANCH  47  70
BRANCH  59  80
ATOM     80  C   UNL A   1      48.140  26.586  30.645  1.00  0.00    -0.014 A 
ATOM     81  C   UNL A   1      49.480  26.612  30.240  1.00  0.00     0.010 A 
ATOM     82  C   UNL A   1      47.842  25.949  31.876  1.00  0.00     0.010 A 
ATOM     83  C   UNL A   1      50.470  25.967  30.987  1.00  0.00     0.020 A 
ATOM     84  C   UNL A   1      48.831  25.356  32.660  1.00  0.00     0.020 A 
ATOM     85  C   UNL A   1      50.138  25.338  32.188  1.00  0.00     0.054 A 
BRANCH  85  86
ATOM     86  S   UNL A   1      51.424  24.534  33.171  1.00  0.00     0.124 S 
ATOM     87  O   UNL A   1      50.968  23.146  33.173  1.00  0.00    -0.237 OA
ATOM     88  O   UNL A   1      52.641  24.790  32.404  1.00  0.00    -0.237 OA
ATOM     89  O   UNL A   1      51.348  25.224  34.456  1.00  0.00    -0.744 OA
ENDBRANCH  85  86
ENDBRANCH  59  80
ENDBRANCH  33  34
ENDBRANCH  26  28
ENDBRANCH  25  26
ENDBRANCH  24  25
ENDBRANCH  23  24
ENDBRANCH  22  23
ENDBRANCH   1  22
TORSDOF 22
ENDMDL
MODEL 3
REMARK VINA RESULT:      -9.8      3.134      4.420
REMARK SMILES Cc1ccc(C(F)(F)F)cc1/C=C/C(=O)OCCOCCOCCOC(=O)c1ccc(-c2c3nc(c(-c4ccc(S(=O)(=O)[O-])cc4)c4ccc([nH]4)c(-c4ccc(S(=O)(=O)[O-])cc4)c4nc(c(-c5ccc(S(=O)(=O)[O-])cc5)c5ccc2[nH]5)C=C4)C=C3)cc1
REMARK SMILES IDX 21 1 20 2 19 3 18 4 17 5 16 6 14 7 15 8 13 9 12 10 11 11
REMARK SMILES IDX 1 12 2 13 3 14 4 15 10 16 5 17 6 18 7 19 8 20 9 21 22 22
REMARK SMILES IDX 23 23 24 24 25 25 26 26 27 27 28 28 29 29 87 30 30 31 86 32
REMARK SMILES IDX 31 33 32 34 33 35 80 36 34 37 85 38 79 39 81 40 35 41 84 42
REMARK SMILES IDX 78 43 77 44 36 46 66 47 47 48 65 49 48 50 51 51 64 52 82 53
REMARK SMILES IDX 49 54 50 55 63 57 83 58 52 59 37 60 38 61 46 62 39 63 45 64
REMARK SMILES IDX 40 65 41 66 42 67 43 68 44 69 67 70 68 71 76 72 69 73 75 74
REMARK SMILES IDX 70 75 71 76 72 77 73 78 74 79 53 80 54 81 62 82 55 83 61 84
REMARK SMILES IDX 56 85 57 86 58 87 59 88 60 89
REMARK H PARENT 81 45 51 56
REMARK Flexibility Score: inf
ROOT
ATOM      1  C   UNL A   1      34.528  30.824  27.509  1.00  0.00     0.188 C 
ENDROOT
BRANCH   1   2
ATOM      2  C   UNL A   1      33.177  30.474  26.931  1.00  0.00     0.188 C 
BRANCH   2   3
ATOM      3  O   UNL A   1      33.003  29.465  25.938  1.00  0.00    -0.376 OA
BRANCH   3   4
ATOM      4  C   UNL A   1      32.468  28.153  26.005  1.00  0.00     0.202 C 
BRANCH   4   5
ATOM      5  C   UNL A   1      33.124  26.688  25.456  1.00  0.00     0.261 C 
BRANCH   5   6
ATOM      6  O   UNL A   1      34.318  25.584  25.875  1.00  0.00    -0.460 OA
BRANCH   6   7
ATOM      7  C   UNL A   1      34.935  24.402  25.465  1.00  0.00     0.330 C 
ATOM      8  O   UNL A   1      36.036  24.202  24.967  1.00  0.00    -0.247 OA
BRANCH   7   9
ATOM      9  C   UNL A   1      34.345  23.103  25.762  1.00  0.00     0.094 C 
ATOM     10  C   UNL A   1      34.824  22.131  24.943  1.00  0.00     0.016 C 
BRANCH  10  11
ATOM     11  C   UNL A   1      34.045  20.985  24.429  1.00  0.00    -0.022 A 
ATOM     12  C   UNL A   1      32.419  22.536  23.257  1.00  0.00     0.045 C 
ATOM     13  C   UNL A   1      32.873  21.168  23.682  1.00  0.00    -0.044 A 
ATOM     14  C   UNL A   1      32.145  20.047  23.257  1.00  0.00     0.004 A 
ATOM     15  C   UNL A   1      32.566  18.754  23.569  1.00  0.00     0.013 A 
ATOM     16  C   UNL A   1      34.472  19.667  24.732  1.00  0.00     0.021 A 
ATOM     17  C   UNL A   1      33.744  18.542  24.297  1.00  0.00     0.056 A 
BRANCH  17  18
ATOM     18  C   UNL A   1      34.175  17.120  24.583  1.00  0.00     0.416 C 
ATOM     19  F   UNL A   1      35.492  17.044  24.939  1.00  0.00    -0.166 F 
ATOM     20  F   UNL A   1      33.496  16.574  25.635  1.00  0.00    -0.166 F 
ATOM     21  F   UNL A   1      34.017  16.254  23.549  1.00  0.00    -0.166 F 
ENDBRANCH  17  18
ENDBRANCH  10  11
ENDBRANCH   7   9
ENDBRANCH   6   7
ENDBRANCH   5   6
ENDBRANCH   4   5
ENDBRANCH   3   4
ENDBRANCH   2   3
ENDBRANCH   1   2
BRANCH   1  22
ATOM     22  O   UNL A   1      34.762  32.212  27.384  1.00  0.00    -0.376 OA
BRANCH  22  23
ATOM     23  C   UNL A   1      33.908  33.013  28.178  1.00  0.00     0.202 C 
BRANCH  23  24
ATOM     24  C   UNL A   1      34.621  33.838  29.266  1.00  0.00     0.261 C 
BRANCH  24  25
ATOM     25  O   UNL A   1      35.863  33.241  29.705  1.00  0.00    -0.460 OA
BRANCH  25  26
ATOM     26  C   UNL A   1      35.825  32.318  30.748  1.00  0.00     0.338 C 
ATOM     27  O   UNL A   1      34.901  32.236  31.495  1.00  0.00    -0.246 OA
BRANCH  26  28
ATOM     28  C   UNL A   1      36.934  31.308  30.582  1.00  0.00     0.060 A 
ATOM     29  C   UNL A   1      37.257  30.191  31.353  1.00  0.00     0.016 A 
ATOM     30  C   UNL A   1      37.765  31.513  29.541  1.00  0.00     0.016 A 
ATOM     31  C   UNL A   1      38.539  29.481  31.231  1.00  0.00     0.010 A 
ATOM     32  C   UNL A   1      38.999  30.855  29.533  1.00  0.00     0.010 A 
ATOM     33  C   UNL A   1      39.556  29.860  30.359  1.00  0.00    -0.014 A 
BRANCH  33  34
ATOM     34  C   UNL A   1      41.149  29.350  30.395  1.00  0.00     0.031 A 
ATOM     35  C   UNL A   1      41.907  28.084  29.750  1.00  0.00     0.074 A 
ATOM     36  C   UNL A   1      42.046  30.062  31.108  1.00  0.00     0.049 A 
ATOM     37  N   UNL A   1      42.235  26.950  30.342  1.00  0.00    -0.248 NA
ATOM     38  C   UNL A   1      42.348  28.013  28.336  1.00  0.00     0.031 C 
ATOM     39  C   UNL A   1      43.496  29.878  31.179  1.00  0.00     0.029 A 
ATOM     40  N   UNL A   1      41.786  31.075  32.017  1.00  0.00    -0.354 N 
ATOM     41  C   UNL A   1      42.765  26.092  29.356  1.00  0.00     0.074 A 
ATOM     42  C   UNL A   1      42.486  26.709  28.094  1.00  0.00     0.031 C 
ATOM     43  C   UNL A   1      43.948  30.535  32.260  1.00  0.00     0.029 A 
ATOM     44  C   UNL A   1      42.791  31.051  32.977  1.00  0.00     0.049 A 
ATOM     45  H   UNL A   1      41.025  31.699  31.988  1.00  0.00     0.167 HD
ATOM     46  C   UNL A   1      43.855  25.261  29.458  1.00  0.00     0.031 A 
ATOM     47  C   UNL A   1      42.445  30.765  34.264  1.00  0.00     0.031 A 
ATOM     48  C   UNL A   1      44.681  25.706  30.550  1.00  0.00     0.049 A 
ATOM     49  C   UNL A   1      43.038  29.453  34.722  1.00  0.00     0.074 A 
ATOM     50  C   UNL A   1      45.716  26.627  30.584  1.00  0.00     0.029 A 
ATOM     51  N   UNL A   1      44.238  25.537  31.839  1.00  0.00    -0.354 N 
ATOM     52  N   UNL A   1      43.541  28.550  33.920  1.00  0.00    -0.248 NA
ATOM     53  C   UNL A   1      43.155  29.073  36.125  1.00  0.00     0.031 C 
ATOM     54  C   UNL A   1      45.802  27.116  31.913  1.00  0.00     0.029 A 
ATOM     55  C   UNL A   1      44.877  26.428  32.678  1.00  0.00     0.049 A 
ATOM     56  H   UNL A   1      43.564  24.878  32.123  1.00  0.00     0.167 HD
ATOM     57  C   UNL A   1      44.017  27.498  34.654  1.00  0.00     0.074 A 
ATOM     58  C   UNL A   1      43.777  27.885  36.031  1.00  0.00     0.031 C 
ATOM     59  C   UNL A   1      44.563  26.384  34.089  1.00  0.00     0.031 A 
BRANCH  46  60
ATOM     60  C   UNL A   1      44.368  24.458  28.251  1.00  0.00    -0.014 A 
ATOM     61  C   UNL A   1      45.653  24.651  27.702  1.00  0.00     0.010 A 
ATOM     62  C   UNL A   1      43.555  23.497  27.599  1.00  0.00     0.010 A 
ATOM     63  C   UNL A   1      46.055  24.023  26.502  1.00  0.00     0.020 A 
ATOM     64  C   UNL A   1      43.933  22.890  26.384  1.00  0.00     0.020 A 
ATOM     65  C   UNL A   1      45.180  23.170  25.831  1.00  0.00     0.054 A 
BRANCH  65  66
ATOM     66  S   UNL A   1      45.654  22.489  24.208  1.00  0.00     0.124 S 
ATOM     67  O   UNL A   1      46.198  21.177  24.553  1.00  0.00    -0.237 OA
ATOM     68  O   UNL A   1      44.385  22.472  23.487  1.00  0.00    -0.237 OA
ATOM     69  O   UNL A   1      46.643  23.444  23.707  1.00  0.00    -0.744 OA
ENDBRANCH  65  66
ENDBRANCH  46  60
BRANCH  47  70
ATOM     70  C   UNL A   1      41.152  31.406  34.692  1.00  0.00    -0.014 A 
ATOM     71  C   UNL A   1      40.048  30.532  34.855  1.00  0.00     0.010 A 
ATOM     72  C   UNL A   1      41.063  32.681  35.279  1.00  0.00     0.010 A 
ATOM     73  C   UNL A   1      38.981  30.841  35.706  1.00  0.00     0.020 A 
ATOM     74  C   UNL A   1      39.968  33.011  36.120  1.00  0.00     0.020 A 
ATOM     75  C   UNL A   1      38.971  32.060  36.375  1.00  0.00     0.054 A 
BRANCH  75  76
ATOM     76  S   UNL A   1      37.741  32.263  37.710  1.00  0.00     0.124 S 
ATOM     77  O   UNL A   1      38.512  32.927  38.756  1.00  0.00    -0.237 OA
ATOM     78  O   UNL A   1      36.728  33.097  37.059  1.00  0.00    -0.237 OA
ATOM     79  O   UNL A   1      37.331  30.894  38.007  1.00  0.00    -0.744 OA
ENDBRANCH  75  76
ENDBRANCH  47  70
BRANCH  59  80
ATOM     80  C   UNL A   1      44.870  25.102  34.815  1.00  0.00    -0.014 A 
ATOM     81  C   UNL A   1      44.008  23.999  34.809  1.00  0.00     0.010 A 
ATOM     82  C   UNL A   1      46.161  24.922  35.372  1.00  0.00     0.010 A 
ATOM     83  C   UNL A   1      44.385  22.790  35.401  1.00  0.00     0.020 A 
ATOM     84  C   UNL A   1      46.568  23.702  35.910  1.00  0.00     0.020 A 
ATOM     85  C   UNL A   1      45.660  22.652  35.952  1.00  0.00     0.054 A 
BRANCH  85  86
ATOM     86  S   UNL A   1      46.159  21.078  36.687  1.00  0.00     0.124 S 
ATOM     87  O   UNL A   1      45.455  20.120  35.838  1.00  0.00    -0.237 OA
ATOM     88  O   UNL A   1      47.613  21.087  36.546  1.00  0.00    -0.237 OA
ATOM     89  O   UNL A   1      45.672  21.177  38.061  1.00  0.00    -0.744 OA
ENDBRANCH  85  86
ENDBRANCH  59  80
ENDBRANCH  33  34
ENDBRANCH  26  28
ENDBRANCH  25  26
ENDBRANCH  24  25
ENDBRANCH  23  24
ENDBRANCH  22  23
ENDBRANCH   1  22
TORSDOF 22
ENDMDL
