MODEL 1
REMARK VINA RESULT:      -8.4      0.000      0.000
REMARK SMILES CC(C)(Br)[C@H](Br)C(=O)OCCOCCOCCOC(=O)c1ccc(-c2c3nc(c(-c4ccc(S(=O)(=O)[O-])cc4)c4ccc([nH]4)c(-c4ccc(S(=O)(=O)[O-])cc4)c4nc(c(-c5ccc(S(=O)(=O)[O-])cc5)c5ccc2[nH]5)C=C4)C=C3)cc1
REMARK SMILES IDX 14 1 13 2 12 3 11 4 10 5 9 6 7 7 8 8 5 9 6 10 2 11 1 12 3 13
REMARK SMILES IDX 4 14 15 15 16 16 17 17 18 18 19 19 20 20 21 21 22 22 80 23
REMARK SMILES IDX 23 24 79 25 24 26 25 27 26 28 73 29 27 30 78 31 72 32 74 33
REMARK SMILES IDX 28 34 77 35 71 36 70 37 29 39 59 40 40 41 58 42 41 43 44 44
REMARK SMILES IDX 57 45 75 46 42 47 43 48 56 50 76 51 45 52 30 53 31 54 39 55
REMARK SMILES IDX 32 56 38 57 33 58 34 59 35 60 36 61 37 62 60 63 61 64 69 65
REMARK SMILES IDX 62 66 68 67 63 68 64 69 65 70 66 71 67 72 46 73 47 74 55 75
REMARK SMILES IDX 48 76 54 77 49 78 50 79 51 80 52 81 53 82
REMARK H PARENT 74 38 44 49
REMARK Flexibility Score: inf
ROOT
ATOM      1  C   UNL A   1      34.233  21.256  25.706  1.00  0.00     0.188 C 
ENDROOT
BRANCH   1   2
ATOM      2  C   UNL A   1      33.600  22.651  25.585  1.00  0.00     0.188 C 
BRANCH   2   3
ATOM      3  O   UNL A   1      34.288  23.756  26.156  1.00  0.00    -0.376 OA
BRANCH   3   4
ATOM      4  C   UNL A   1      34.764  24.781  25.286  1.00  0.00     0.202 C 
BRANCH   4   5
ATOM      5  C   UNL A   1      33.854  25.991  25.025  1.00  0.00     0.261 C 
BRANCH   5   6
ATOM      6  O   UNL A   1      33.317  26.592  26.221  1.00  0.00    -0.462 OA
BRANCH   6   7
ATOM      7  C   UNL A   1      31.992  26.913  26.221  1.00  0.00     0.321 C 
ATOM      8  O   UNL A   1      31.132  26.163  26.669  1.00  0.00    -0.251 OA
BRANCH   7   9
ATOM      9  C   UNL A   1      31.698  28.349  25.767  1.00  0.00     0.183 C 
ATOM     10  Br  UNL A   1      33.212  29.524  26.263  1.00  0.00    -0.075 Br
BRANCH   9  11
ATOM     11  C   UNL A   1      31.315  28.508  24.276  1.00  0.00     0.043 C 
ATOM     12  C   UNL A   1      30.328  29.661  24.006  1.00  0.00     0.025 C 
ATOM     13  C   UNL A   1      30.669  27.232  23.704  1.00  0.00     0.025 C 
ATOM     14  Br  UNL A   1      32.932  28.894  23.193  1.00  0.00    -0.084 Br
ENDBRANCH   9  11
ENDBRANCH   7   9
ENDBRANCH   6   7
ENDBRANCH   5   6
ENDBRANCH   4   5
ENDBRANCH   3   4
ENDBRANCH   2   3
ENDBRANCH   1   2
BRANCH   1  15
ATOM     15  O   UNL A   1      35.610  21.273  26.023  1.00  0.00    -0.376 OA
BRANCH  15  16
ATOM     16  C   UNL A   1      36.509  20.789  25.034  1.00  0.00     0.202 C 
BRANCH  16  17
ATOM     17  C   UNL A   1      37.852  21.542  24.956  1.00  0.00     0.261 C 
BRANCH  17  18
ATOM     18  O   UNL A   1      38.134  22.435  26.052  1.00  0.00    -0.460 OA
BRANCH  18  19
ATOM     19  C   UNL A   1      39.441  22.642  26.345  1.00  0.00     0.338 C 
ATOM     20  O   UNL A   1      40.382  21.955  25.979  1.00  0.00    -0.246 OA
BRANCH  19  21
ATOM     21  C   UNL A   1      39.577  23.998  26.935  1.00  0.00     0.060 A 
ATOM     22  C   UNL A   1      40.228  24.987  26.183  1.00  0.00     0.016 A 
ATOM     23  C   UNL A   1      39.041  24.312  28.186  1.00  0.00     0.016 A 
ATOM     24  C   UNL A   1      40.390  26.273  26.700  1.00  0.00     0.010 A 
ATOM     25  C   UNL A   1      39.220  25.599  28.711  1.00  0.00     0.010 A 
ATOM     26  C   UNL A   1      39.931  26.576  27.989  1.00  0.00    -0.014 A 
BRANCH  26  27
ATOM     27  C   UNL A   1      40.372  27.838  28.644  1.00  0.00     0.031 A 
ATOM     28  C   UNL A   1      41.792  27.928  29.142  1.00  0.00     0.074 A 
ATOM     29  C   UNL A   1      39.561  28.908  28.746  1.00  0.00     0.049 A 
ATOM     30  N   UNL A   1      42.409  28.927  29.723  1.00  0.00    -0.248 NA
ATOM     31  C   UNL A   1      42.631  26.732  28.956  1.00  0.00     0.031 C 
ATOM     32  C   UNL A   1      38.178  28.974  28.279  1.00  0.00     0.029 A 
ATOM     33  N   UNL A   1      39.794  30.154  29.279  1.00  0.00    -0.354 N 
ATOM     34  C   UNL A   1      43.704  28.481  29.965  1.00  0.00     0.074 A 
ATOM     35  C   UNL A   1      43.772  27.109  29.513  1.00  0.00     0.031 C 
ATOM     36  C   UNL A   1      37.683  30.194  28.553  1.00  0.00     0.029 A 
ATOM     37  C   UNL A   1      38.702  30.989  29.238  1.00  0.00     0.049 A 
ATOM     38  H   UNL A   1      40.662  30.423  29.657  1.00  0.00     0.167 HD
ATOM     39  C   UNL A   1      44.751  29.155  30.499  1.00  0.00     0.031 A 
ATOM     40  C   UNL A   1      38.536  32.241  29.711  1.00  0.00     0.031 A 
ATOM     41  C   UNL A   1      44.686  30.512  30.972  1.00  0.00     0.049 A 
ATOM     42  C   UNL A   1      39.695  32.946  30.374  1.00  0.00     0.074 A 
ATOM     43  C   UNL A   1      45.695  31.275  31.535  1.00  0.00     0.029 A 
ATOM     44  N   UNL A   1      43.552  31.308  30.944  1.00  0.00    -0.354 N 
ATOM     45  N   UNL A   1      40.920  32.517  30.573  1.00  0.00    -0.248 NA
ATOM     46  C   UNL A   1      39.453  34.312  30.861  1.00  0.00     0.031 C 
ATOM     47  C   UNL A   1      45.155  32.513  31.900  1.00  0.00     0.029 A 
ATOM     48  C   UNL A   1      43.830  32.548  31.498  1.00  0.00     0.049 A 
ATOM     49  H   UNL A   1      42.678  31.033  30.584  1.00  0.00     0.167 HD
ATOM     50  C   UNL A   1      41.598  33.571  31.182  1.00  0.00     0.074 A 
ATOM     51  C   UNL A   1      40.656  34.664  31.293  1.00  0.00     0.031 C 
ATOM     52  C   UNL A   1      42.884  33.629  31.611  1.00  0.00     0.031 A 
BRANCH  39  53
ATOM     53  C   UNL A   1      46.062  28.419  30.613  1.00  0.00    -0.014 A 
ATOM     54  C   UNL A   1      47.010  28.461  29.574  1.00  0.00     0.010 A 
ATOM     55  C   UNL A   1      46.371  27.716  31.791  1.00  0.00     0.010 A 
ATOM     56  C   UNL A   1      48.227  27.785  29.698  1.00  0.00     0.020 A 
ATOM     57  C   UNL A   1      47.600  27.065  31.932  1.00  0.00     0.020 A 
ATOM     58  C   UNL A   1      48.514  27.093  30.877  1.00  0.00     0.054 A 
BRANCH  58  59
ATOM     59  S   UNL A   1      50.116  26.255  31.022  1.00  0.00     0.124 S 
ATOM     60  O   UNL A   1      49.715  24.898  31.386  1.00  0.00    -0.237 OA
ATOM     61  O   UNL A   1      50.676  26.406  29.681  1.00  0.00    -0.237 OA
ATOM     62  O   UNL A   1      50.806  27.002  32.070  1.00  0.00    -0.744 OA
ENDBRANCH  58  59
ENDBRANCH  39  53
BRANCH  40  63
ATOM     63  C   UNL A   1      37.207  32.912  29.607  1.00  0.00    -0.014 A 
ATOM     64  C   UNL A   1      36.789  33.521  28.409  1.00  0.00     0.010 A 
ATOM     65  C   UNL A   1      36.362  32.973  30.731  1.00  0.00     0.010 A 
ATOM     66  C   UNL A   1      35.567  34.198  28.346  1.00  0.00     0.020 A 
ATOM     67  C   UNL A   1      35.125  33.620  30.662  1.00  0.00     0.020 A 
ATOM     68  C   UNL A   1      34.742  34.242  29.473  1.00  0.00     0.054 A 
BRANCH  68  69
ATOM     69  S   UNL A   1      33.143  35.094  29.358  1.00  0.00     0.124 S 
ATOM     70  O   UNL A   1      32.450  34.304  28.346  1.00  0.00    -0.237 OA
ATOM     71  O   UNL A   1      32.627  34.975  30.718  1.00  0.00    -0.237 OA
ATOM     72  O   UNL A   1      33.508  36.450  28.951  1.00  0.00    -0.744 OA
ENDBRANCH  68  69
ENDBRANCH  40  63
BRANCH  52  73
ATOM     73  C   UNL A   1      43.363  34.932  32.205  1.00  0.00    -0.014 A 
ATOM     74  C   UNL A   1      43.222  35.211  33.577  1.00  0.00     0.010 A 
ATOM     75  C   UNL A   1      43.987  35.883  31.377  1.00  0.00     0.010 A 
ATOM     76  C   UNL A   1      43.646  36.438  34.098  1.00  0.00     0.020 A 
ATOM     77  C   UNL A   1      44.444  37.097  31.900  1.00  0.00     0.020 A 
ATOM     78  C   UNL A   1      44.249  37.376  33.254  1.00  0.00     0.054 A 
BRANCH  78  79
ATOM     79  S   UNL A   1      44.795  38.959  33.955  1.00  0.00     0.124 S 
ATOM     80  O   UNL A   1      44.777  39.830  32.783  1.00  0.00    -0.237 OA
ATOM     81  O   UNL A   1      43.772  39.234  34.960  1.00  0.00    -0.237 OA
ATOM     82  O   UNL A   1      46.122  38.662  34.489  1.00  0.00    -0.744 OA
ENDBRANCH  78  79
ENDBRANCH  52  73
ENDBRANCH  26  27
ENDBRANCH  19  21
ENDBRANCH  18  19
ENDBRANCH  17  18
ENDBRANCH  16  17
ENDBRANCH  15  16
ENDBRANCH   1  15
TORSDOF 21
ENDMDL
MODEL 2
REMARK VINA RESULT:      -8.3      4.338     10.098
REMARK SMILES CC(C)(Br)[C@H](Br)C(=O)OCCOCCOCCOC(=O)c1ccc(-c2c3nc(c(-c4ccc(S(=O)(=O)[O-])cc4)c4ccc([nH]4)c(-c4ccc(S(=O)(=O)[O-])cc4)c4nc(c(-c5ccc(S(=O)(=O)[O-])cc5)c5ccc2[nH]5)C=C4)C=C3)cc1
REMARK SMILES IDX 14 1 13 2 12 3 11 4 10 5 9 6 7 7 8 8 5 9 6 10 2 11 1 12 3 13
REMARK SMILES IDX 4 14 15 15 16 16 17 17 18 18 19 19 20 20 21 21 22 22 80 23
REMARK SMILES IDX 23 24 79 25 24 26 25 27 26 28 73 29 27 30 78 31 72 32 74 33
REMARK SMILES IDX 28 34 77 35 71 36 70 37 29 39 59 40 40 41 58 42 41 43 44 44
REMARK SMILES IDX 57 45 75 46 42 47 43 48 56 50 76 51 45 52 30 53 31 54 39 55
REMARK SMILES IDX 32 56 38 57 33 58 34 59 35 60 36 61 37 62 60 63 61 64 69 65
REMARK SMILES IDX 62 66 68 67 63 68 64 69 65 70 66 71 67 72 46 73 47 74 55 75
REMARK SMILES IDX 48 76 54 77 49 78 50 79 51 80 52 81 53 82
REMARK H PARENT 74 38 44 49
REMARK Flexibility Score: inf
ROOT
ATOM      1  C   UNL A   1      31.806  28.992  24.555  1.00  0.00     0.188 C 
ENDROOT
BRANCH   1   2
ATOM      2  C   UNL A   1      31.147  28.316  23.342  1.00  0.00     0.188 C 
BRANCH   2   3
ATOM      3  O   UNL A   1      31.725  27.118  22.840  1.00  0.00    -0.376 OA
BRANCH   3   4
ATOM      4  C   UNL A   1      33.136  26.947  22.956  1.00  0.00     0.202 C 
BRANCH   4   5
ATOM      5  C   UNL A   1      33.667  26.052  24.086  1.00  0.00     0.261 C 
BRANCH   5   6
ATOM      6  O   UNL A   1      32.898  24.850  24.296  1.00  0.00    -0.462 OA
BRANCH   6   7
ATOM      7  C   UNL A   1      33.492  23.663  23.984  1.00  0.00     0.321 C 
ATOM      8  O   UNL A   1      34.274  23.543  23.048  1.00  0.00    -0.251 OA
BRANCH   7   9
ATOM      9  C   UNL A   1      33.223  22.545  25.001  1.00  0.00     0.183 C 
ATOM     10  Br  UNL A   1      32.521  20.950  24.061  1.00  0.00    -0.075 Br
BRANCH   9  11
ATOM     11  C   UNL A   1      34.414  22.187  25.923  1.00  0.00     0.043 C 
ATOM     12  C   UNL A   1      33.996  21.531  27.254  1.00  0.00     0.025 C 
ATOM     13  C   UNL A   1      35.258  23.423  26.287  1.00  0.00     0.025 C 
ATOM     14  Br  UNL A   1      35.614  20.892  25.017  1.00  0.00    -0.084 Br
ENDBRANCH   9  11
ENDBRANCH   7   9
ENDBRANCH   6   7
ENDBRANCH   5   6
ENDBRANCH   4   5
ENDBRANCH   3   4
ENDBRANCH   2   3
ENDBRANCH   1   2
BRANCH   1  15
ATOM     15  O   UNL A   1      31.325  28.535  25.803  1.00  0.00    -0.376 OA
BRANCH  15  16
ATOM     16  C   UNL A   1      31.984  29.016  26.967  1.00  0.00     0.202 C 
BRANCH  16  17
ATOM     17  C   UNL A   1      32.392  30.502  26.912  1.00  0.00     0.261 C 
BRANCH  17  18
ATOM     18  O   UNL A   1      33.803  30.758  26.768  1.00  0.00    -0.460 OA
BRANCH  18  19
ATOM     19  C   UNL A   1      34.355  31.627  27.649  1.00  0.00     0.338 C 
ATOM     20  O   UNL A   1      33.797  32.578  28.175  1.00  0.00    -0.246 OA
BRANCH  19  21
ATOM     21  C   UNL A   1      35.655  31.070  28.101  1.00  0.00     0.060 A 
ATOM     22  C   UNL A   1      35.757  29.682  28.279  1.00  0.00     0.016 A 
ATOM     23  C   UNL A   1      36.772  31.883  28.307  1.00  0.00     0.016 A 
ATOM     24  C   UNL A   1      36.956  29.112  28.712  1.00  0.00     0.010 A 
ATOM     25  C   UNL A   1      37.969  31.311  28.758  1.00  0.00     0.010 A 
ATOM     26  C   UNL A   1      38.058  29.928  29.003  1.00  0.00    -0.014 A 
BRANCH  26  27
ATOM     27  C   UNL A   1      39.214  29.357  29.745  1.00  0.00     0.031 A 
ATOM     28  C   UNL A   1      39.442  29.802  31.167  1.00  0.00     0.074 A 
ATOM     29  C   UNL A   1      40.014  28.419  29.204  1.00  0.00     0.049 A 
ATOM     30  N   UNL A   1      40.366  29.430  32.017  1.00  0.00    -0.248 NA
ATOM     31  C   UNL A   1      38.500  30.799  31.704  1.00  0.00     0.031 C 
ATOM     32  C   UNL A   1      39.890  27.872  27.854  1.00  0.00     0.029 A 
ATOM     33  N   UNL A   1      41.096  27.757  29.735  1.00  0.00    -0.354 N 
ATOM     34  C   UNL A   1      40.112  30.140  33.186  1.00  0.00     0.074 A 
ATOM     35  C   UNL A   1      38.979  31.000  32.922  1.00  0.00     0.031 C 
ATOM     36  C   UNL A   1      40.863  26.963  27.661  1.00  0.00     0.029 A 
ATOM     37  C   UNL A   1      41.695  26.881  28.861  1.00  0.00     0.049 A 
ATOM     38  H   UNL A   1      41.413  27.899  30.656  1.00  0.00     0.167 HD
ATOM     39  C   UNL A   1      40.749  30.074  34.380  1.00  0.00     0.031 A 
ATOM     40  C   UNL A   1      42.796  26.114  29.003  1.00  0.00     0.031 A 
ATOM     41  C   UNL A   1      41.891  29.239  34.644  1.00  0.00     0.049 A 
ATOM     42  C   UNL A   1      43.538  26.115  30.318  1.00  0.00     0.074 A 
ATOM     43  C   UNL A   1      42.608  29.110  35.822  1.00  0.00     0.029 A 
ATOM     44  N   UNL A   1      42.487  28.395  33.721  1.00  0.00    -0.354 N 
ATOM     45  N   UNL A   1      43.269  26.775  31.420  1.00  0.00    -0.248 NA
ATOM     46  C   UNL A   1      44.725  25.251  30.413  1.00  0.00     0.031 C 
ATOM     47  C   UNL A   1      43.672  28.231  35.593  1.00  0.00     0.029 A 
ATOM     48  C   UNL A   1      43.575  27.757  34.295  1.00  0.00     0.049 A 
ATOM     49  H   UNL A   1      42.182  28.267  32.793  1.00  0.00     0.167 HD
ATOM     50  C   UNL A   1      44.236  26.384  32.344  1.00  0.00     0.074 A 
ATOM     51  C   UNL A   1      45.078  25.411  31.680  1.00  0.00     0.031 C 
ATOM     52  C   UNL A   1      44.412  26.794  33.626  1.00  0.00     0.031 A 
BRANCH  39  53
ATOM     53  C   UNL A   1      40.229  30.948  35.492  1.00  0.00    -0.014 A 
ATOM     54  C   UNL A   1      41.048  31.918  36.096  1.00  0.00     0.010 A 
ATOM     55  C   UNL A   1      38.890  30.829  35.909  1.00  0.00     0.010 A 
ATOM     56  C   UNL A   1      40.550  32.731  37.118  1.00  0.00     0.020 A 
ATOM     57  C   UNL A   1      38.378  31.661  36.908  1.00  0.00     0.020 A 
ATOM     58  C   UNL A   1      39.217  32.597  37.517  1.00  0.00     0.054 A 
BRANCH  58  59
ATOM     59  S   UNL A   1      38.589  33.690  38.821  1.00  0.00     0.124 S 
ATOM     60  O   UNL A   1      38.655  34.999  38.176  1.00  0.00    -0.237 OA
ATOM     61  O   UNL A   1      37.243  33.170  39.049  1.00  0.00    -0.237 OA
ATOM     62  O   UNL A   1      39.525  33.491  39.923  1.00  0.00    -0.744 OA
ENDBRANCH  58  59
ENDBRANCH  39  53
BRANCH  40  63
ATOM     63  C   UNL A   1      43.292  25.295  27.859  1.00  0.00    -0.014 A 
ATOM     64  C   UNL A   1      42.887  23.958  27.689  1.00  0.00     0.010 A 
ATOM     65  C   UNL A   1      44.209  25.848  26.945  1.00  0.00     0.010 A 
ATOM     66  C   UNL A   1      43.409  23.186  26.646  1.00  0.00     0.020 A 
ATOM     67  C   UNL A   1      44.706  25.091  25.882  1.00  0.00     0.020 A 
ATOM     68  C   UNL A   1      44.314  23.757  25.748  1.00  0.00     0.054 A 
BRANCH  68  69
ATOM     69  S   UNL A   1      44.949  22.748  24.380  1.00  0.00     0.124 S 
ATOM     70  O   UNL A   1      45.977  23.615  23.814  1.00  0.00    -0.237 OA
ATOM     71  O   UNL A   1      45.435  21.556  25.070  1.00  0.00    -0.237 OA
ATOM     72  O   UNL A   1      43.774  22.537  23.536  1.00  0.00    -0.744 OA
ENDBRANCH  68  69
ENDBRANCH  40  63
BRANCH  52  73
ATOM     73  C   UNL A   1      45.536  26.161  34.412  1.00  0.00    -0.014 A 
ATOM     74  C   UNL A   1      46.821  26.730  34.446  1.00  0.00     0.010 A 
ATOM     75  C   UNL A   1      45.290  24.988  35.149  1.00  0.00     0.010 A 
ATOM     76  C   UNL A   1      47.853  26.108  35.157  1.00  0.00     0.020 A 
ATOM     77  C   UNL A   1      46.310  24.382  35.889  1.00  0.00     0.020 A 
ATOM     78  C   UNL A   1      47.592  24.934  35.869  1.00  0.00     0.054 A 
BRANCH  78  79
ATOM     79  S   UNL A   1      48.946  24.149  36.788  1.00  0.00     0.124 S 
ATOM     80  O   UNL A   1      49.607  23.370  35.744  1.00  0.00    -0.237 OA
ATOM     81  O   UNL A   1      49.698  25.295  37.290  1.00  0.00    -0.237 OA
ATOM     82  O   UNL A   1      48.261  23.363  37.811  1.00  0.00    -0.744 OA
ENDBRANCH  78  79
ENDBRANCH  52  73
ENDBRANCH  26  27
ENDBRANCH  19  21
ENDBRANCH  18  19
ENDBRANCH  17  18
ENDBRANCH  16  17
ENDBRANCH  15  16
ENDBRANCH   1  15
TORSDOF 21
ENDMDL
MODEL 3
REMARK VINA RESULT:      -8.2      4.440     10.440
REMARK SMILES CC(C)(Br)[C@H](Br)C(=O)OCCOCCOCCOC(=O)c1ccc(-c2c3nc(c(-c4ccc(S(=O)(=O)[O-])cc4)c4ccc([nH]4)c(-c4ccc(S(=O)(=O)[O-])cc4)c4nc(c(-c5ccc(S(=O)(=O)[O-])cc5)c5ccc2[nH]5)C=C4)C=C3)cc1
REMARK SMILES IDX 14 1 13 2 12 3 11 4 10 5 9 6 7 7 8 8 5 9 6 10 2 11 1 12 3 13
REMARK SMILES IDX 4 14 15 15 16 16 17 17 18 18 19 19 20 20 21 21 22 22 80 23
REMARK SMILES IDX 23 24 79 25 24 26 25 27 26 28 73 29 27 30 78 31 72 32 74 33
REMARK SMILES IDX 28 34 77 35 71 36 70 37 29 39 59 40 40 41 58 42 41 43 44 44
REMARK SMILES IDX 57 45 75 46 42 47 43 48 56 50 76 51 45 52 30 53 31 54 39 55
REMARK SMILES IDX 32 56 38 57 33 58 34 59 35 60 36 61 37 62 60 63 61 64 69 65
REMARK SMILES IDX 62 66 68 67 63 68 64 69 65 70 66 71 67 72 46 73 47 74 55 75
REMARK SMILES IDX 48 76 54 77 49 78 50 79 51 80 52 81 53 82
REMARK H PARENT 74 38 44 49
REMARK Flexibility Score: inf
ROOT
ATOM      1  C   UNL A   1      33.512  28.632  25.104  1.00  0.00     0.188 C 
ENDROOT
BRANCH   1   2
ATOM      2  C   UNL A   1      33.692  28.997  23.622  1.00  0.00     0.188 C 
BRANCH   2   3
ATOM      3  O   UNL A   1      33.775  27.942  22.673  1.00  0.00    -0.376 OA
BRANCH   3   4
ATOM      4  C   UNL A   1      32.720  26.984  22.630  1.00  0.00     0.202 C 
BRANCH   4   5
ATOM      5  C   UNL A   1      33.068  25.537  22.248  1.00  0.00     0.261 C 
BRANCH   5   6
ATOM      6  O   UNL A   1      32.288  24.541  22.941  1.00  0.00    -0.462 OA
BRANCH   6   7
ATOM      7  C   UNL A   1      32.752  23.259  22.926  1.00  0.00     0.321 C 
ATOM      8  O   UNL A   1      32.938  22.638  21.886  1.00  0.00    -0.251 OA
BRANCH   7   9
ATOM      9  C   UNL A   1      33.171  22.730  24.304  1.00  0.00     0.183 C 
ATOM     10  Br  UNL A   1      32.848  20.779  24.390  1.00  0.00    -0.075 Br
BRANCH   9  11
ATOM     11  C   UNL A   1      34.610  23.092  24.744  1.00  0.00     0.043 C 
ATOM     12  C   UNL A   1      34.738  24.502  25.355  1.00  0.00     0.025 C 
ATOM     13  C   UNL A   1      35.608  23.028  23.573  1.00  0.00     0.025 C 
ATOM     14  Br  UNL A   1      35.239  21.824  26.134  1.00  0.00    -0.084 Br
ENDBRANCH   9  11
ENDBRANCH   7   9
ENDBRANCH   6   7
ENDBRANCH   5   6
ENDBRANCH   4   5
ENDBRANCH   3   4
ENDBRANCH   2   3
ENDBRANCH   1   2
BRANCH   1  15
ATOM     15  O   UNL A   1      33.247  29.739  25.943  1.00  0.00    -0.376 OA
BRANCH  15  16
ATOM     16  C   UNL A   1      33.606  29.613  27.313  1.00  0.00     0.202 C 
BRANCH  16  17
ATOM     17  C   UNL A   1      35.101  29.336  27.568  1.00  0.00     0.261 C 
BRANCH  17  18
ATOM     18  O   UNL A   1      35.782  30.295  28.402  1.00  0.00    -0.460 OA
BRANCH  18  19
ATOM     19  C   UNL A   1      36.411  29.807  29.498  1.00  0.00     0.338 C 
ATOM     20  O   UNL A   1      35.876  29.347  30.496  1.00  0.00    -0.246 OA
BRANCH  19  21
ATOM     21  C   UNL A   1      37.852  29.648  29.177  1.00  0.00     0.060 A 
ATOM     22  C   UNL A   1      38.224  29.540  27.828  1.00  0.00     0.016 A 
ATOM     23  C   UNL A   1      38.832  29.647  30.172  1.00  0.00     0.016 A 
ATOM     24  C   UNL A   1      39.565  29.378  27.476  1.00  0.00     0.010 A 
ATOM     25  C   UNL A   1      40.176  29.467  29.818  1.00  0.00     0.010 A 
ATOM     26  C   UNL A   1      40.547  29.291  28.472  1.00  0.00    -0.014 A 
BRANCH  26  27
ATOM     27  C   UNL A   1      41.911  28.819  28.113  1.00  0.00     0.031 A 
ATOM     28  C   UNL A   1      43.030  29.829  28.068  1.00  0.00     0.074 A 
ATOM     29  C   UNL A   1      42.179  27.519  27.889  1.00  0.00     0.049 A 
ATOM     30  N   UNL A   1      44.300  29.653  27.803  1.00  0.00    -0.248 NA
ATOM     31  C   UNL A   1      42.668  31.225  28.367  1.00  0.00     0.031 C 
ATOM     32  C   UNL A   1      41.204  26.431  27.931  1.00  0.00     0.029 A 
ATOM     33  N   UNL A   1      43.365  26.893  27.581  1.00  0.00    -0.354 N 
ATOM     34  C   UNL A   1      44.886  30.910  27.908  1.00  0.00     0.074 A 
ATOM     35  C   UNL A   1      43.827  31.846  28.214  1.00  0.00     0.031 C 
ATOM     36  C   UNL A   1      41.829  25.273  27.652  1.00  0.00     0.029 A 
ATOM     37  C   UNL A   1      43.243  25.537  27.386  1.00  0.00     0.049 A 
ATOM     38  H   UNL A   1      44.222  27.372  27.506  1.00  0.00     0.167 HD
ATOM     39  C   UNL A   1      46.190  31.257  27.781  1.00  0.00     0.031 A 
ATOM     40  C   UNL A   1      44.159  24.618  27.018  1.00  0.00     0.031 A 
ATOM     41  C   UNL A   1      47.246  30.336  27.455  1.00  0.00     0.049 A 
ATOM     42  C   UNL A   1      45.593  25.041  26.804  1.00  0.00     0.074 A 
ATOM     43  C   UNL A   1      48.596  30.596  27.298  1.00  0.00     0.029 A 
ATOM     44  N   UNL A   1      47.073  28.979  27.230  1.00  0.00    -0.354 N 
ATOM     45  N   UNL A   1      46.133  26.230  26.932  1.00  0.00    -0.248 NA
ATOM     46  C   UNL A   1      46.545  23.990  26.413  1.00  0.00     0.031 C 
ATOM     47  C   UNL A   1      49.231  29.408  26.921  1.00  0.00     0.029 A 
ATOM     48  C   UNL A   1      48.289  28.392  26.916  1.00  0.00     0.049 A 
ATOM     49  H   UNL A   1      46.214  28.502  27.285  1.00  0.00     0.167 HD
ATOM     50  C   UNL A   1      47.490  26.062  26.664  1.00  0.00     0.074 A 
ATOM     51  C   UNL A   1      47.692  24.655  26.395  1.00  0.00     0.031 C 
ATOM     52  C   UNL A   1      48.481  26.990  26.642  1.00  0.00     0.031 A 
BRANCH  39  53
ATOM     53  C   UNL A   1      46.543  32.708  27.983  1.00  0.00    -0.014 A 
ATOM     54  C   UNL A   1      46.902  33.198  29.252  1.00  0.00     0.010 A 
ATOM     55  C   UNL A   1      46.563  33.584  26.882  1.00  0.00     0.010 A 
ATOM     56  C   UNL A   1      47.241  34.543  29.422  1.00  0.00     0.020 A 
ATOM     57  C   UNL A   1      46.931  34.923  27.042  1.00  0.00     0.020 A 
ATOM     58  C   UNL A   1      47.254  35.396  28.316  1.00  0.00     0.054 A 
BRANCH  58  59
ATOM     59  S   UNL A   1      47.731  37.129  28.563  1.00  0.00     0.124 S 
ATOM     60  O   UNL A   1      48.412  37.072  29.854  1.00  0.00    -0.237 OA
ATOM     61  O   UNL A   1      48.590  37.389  27.411  1.00  0.00    -0.237 OA
ATOM     62  O   UNL A   1      46.458  37.844  28.561  1.00  0.00    -0.744 OA
ENDBRANCH  58  59
ENDBRANCH  39  53
BRANCH  40  63
ATOM     63  C   UNL A   1      43.751  23.200  26.795  1.00  0.00    -0.014 A 
ATOM     64  C   UNL A   1      44.004  22.552  25.572  1.00  0.00     0.010 A 
ATOM     65  C   UNL A   1      43.070  22.498  27.808  1.00  0.00     0.010 A 
ATOM     66  C   UNL A   1      43.561  21.243  25.358  1.00  0.00     0.020 A 
ATOM     67  C   UNL A   1      42.656  21.178  27.610  1.00  0.00     0.020 A 
ATOM     68  C   UNL A   1      42.892  20.563  26.379  1.00  0.00     0.054 A 
BRANCH  68  69
ATOM     69  S   UNL A   1      42.359  18.852  26.092  1.00  0.00     0.124 S 
ATOM     70  O   UNL A   1      42.587  18.241  27.397  1.00  0.00    -0.237 OA
ATOM     71  O   UNL A   1      40.961  19.020  25.706  1.00  0.00    -0.237 OA
ATOM     72  O   UNL A   1      43.244  18.393  25.023  1.00  0.00    -0.744 OA
ENDBRANCH  68  69
ENDBRANCH  40  63
BRANCH  52  73
ATOM     73  C   UNL A   1      49.882  26.508  26.355  1.00  0.00    -0.014 A 
ATOM     74  C   UNL A   1      50.701  25.980  27.369  1.00  0.00     0.010 A 
ATOM     75  C   UNL A   1      50.377  26.561  25.039  1.00  0.00     0.010 A 
ATOM     76  C   UNL A   1      52.007  25.567  27.084  1.00  0.00     0.020 A 
ATOM     77  C   UNL A   1      51.670  26.118  24.742  1.00  0.00     0.020 A 
ATOM     78  C   UNL A   1      52.485  25.645  25.772  1.00  0.00     0.054 A 
BRANCH  78  79
ATOM     79  S   UNL A   1      54.180  25.099  25.425  1.00  0.00     0.124 S 
ATOM     80  O   UNL A   1      54.571  25.996  24.341  1.00  0.00    -0.237 OA
ATOM     81  O   UNL A   1      54.855  25.322  26.701  1.00  0.00    -0.237 OA
ATOM     82  O   UNL A   1      54.023  23.697  25.047  1.00  0.00    -0.744 OA
ENDBRANCH  78  79
ENDBRANCH  52  73
ENDBRANCH  26  27
ENDBRANCH  19  21
ENDBRANCH  18  19
ENDBRANCH  17  18
ENDBRANCH  16  17
ENDBRANCH  15  16
ENDBRANCH   1  15
TORSDOF 21
ENDMDL
