MODEL 1
REMARK VINA RESULT:      -9.8      0.000      0.000
REMARK SMILES C[C@@H](C(=O)OCCOCCOCCOC(=O)c1ccc(-c2c3nc(c(-c4ccc(S(=O)(=O)[O-])cc4)c4ccc([nH]4)c(-c4ccc(S(=O)(=O)[O-])cc4)c4nc(c(-c5ccc(S(=O)(=O)[O-])cc5)c5ccc2[nH]5)C=C4)C=C3)cc1)c1ccccc1-c1ccn(C(F)F)c(=O)c1
REMARK SMILES IDX 9 1 8 2 7 3 6 4 5 5 3 6 4 7 2 8 1 9 77 10 78 11 82 12 79 13
REMARK SMILES IDX 81 14 80 15 83 16 84 17 92 18 85 19 90 20 86 21 91 22 87 23
REMARK SMILES IDX 88 24 89 25 10 26 11 27 12 28 13 29 14 30 15 31 16 32 17 33
REMARK SMILES IDX 18 34 76 35 19 36 75 37 20 38 21 39 22 40 69 41 23 42 74 43
REMARK SMILES IDX 68 44 70 45 24 46 73 47 67 48 66 49 25 51 55 52 36 53 54 54
REMARK SMILES IDX 37 55 40 56 53 57 71 58 38 59 39 60 52 62 72 63 41 64 26 65
REMARK SMILES IDX 27 66 35 67 28 68 34 69 29 70 30 71 31 72 32 73 33 74 56 75
REMARK SMILES IDX 57 76 65 77 58 78 64 79 59 80 60 81 61 82 62 83 63 84 42 85
REMARK SMILES IDX 43 86 51 87 44 88 50 89 45 90 46 91 47 92 48 93 49 94
REMARK H PARENT 70 50 40 61
REMARK Flexibility Score: inf
ROOT
ATOM      1  C   UNL A   1      30.742  27.975  22.865  1.00  0.00     0.188 C 
ENDROOT
BRANCH   1   2
ATOM      2  O   UNL A   1      30.060  26.791  23.270  1.00  0.00    -0.376 OA
BRANCH   2   3
ATOM      3  C   UNL A   1      29.492  26.751  24.577  1.00  0.00     0.202 C 
BRANCH   3   4
ATOM      4  C   UNL A   1      29.970  25.659  25.552  1.00  0.00     0.261 C 
BRANCH   4   5
ATOM      5  O   UNL A   1      31.176  26.009  26.263  1.00  0.00    -0.463 OA
BRANCH   5   6
ATOM      6  C   UNL A   1      32.065  25.014  26.533  1.00  0.00     0.313 C 
ATOM      7  O   UNL A   1      31.795  24.036  27.222  1.00  0.00    -0.252 OA
BRANCH   6   8
ATOM      8  C   UNL A   1      33.453  25.235  25.874  1.00  0.00     0.127 C 
ATOM      9  C   UNL A   1      33.911  26.681  26.121  1.00  0.00     0.025 C 
BRANCH   8  10
ATOM     10  C   UNL A   1      33.649  24.564  24.480  1.00  0.00    -0.026 A 
ATOM     11  C   UNL A   1      32.659  24.854  23.500  1.00  0.00     0.005 A 
ATOM     12  C   UNL A   1      34.627  23.591  24.108  1.00  0.00    -0.014 A 
ATOM     13  C   UNL A   1      32.623  24.249  22.240  1.00  0.00     0.000 A 
ATOM     14  C   UNL A   1      34.541  22.961  22.836  1.00  0.00     0.009 A 
ATOM     15  C   UNL A   1      33.559  23.289  21.909  1.00  0.00     0.001 A 
BRANCH  12  16
ATOM     16  C   UNL A   1      35.821  23.191  24.899  1.00  0.00    -0.011 A 
ATOM     17  C   UNL A   1      36.565  24.060  25.787  1.00  0.00     0.027 A 
ATOM     18  C   UNL A   1      36.229  21.913  24.792  1.00  0.00     0.080 A 
ATOM     19  C   UNL A   1      37.769  23.687  26.244  1.00  0.00     0.095 A 
ATOM     20  C   UNL A   1      37.532  21.457  25.336  1.00  0.00     0.255 A 
ATOM     21  N   UNL A   1      38.283  22.434  25.961  1.00  0.00    -0.258 N 
ATOM     22  O   UNL A   1      37.873  20.295  25.150  1.00  0.00    -0.269 OA
BRANCH  21  23
ATOM     23  C   UNL A   1      39.639  22.089  26.294  1.00  0.00     0.451 C 
ATOM     24  F   UNL A   1      40.531  22.866  25.639  1.00  0.00    -0.185 F 
ATOM     25  F   UNL A   1      39.857  22.225  27.626  1.00  0.00    -0.185 F 
ENDBRANCH  21  23
ENDBRANCH  12  16
ENDBRANCH   8  10
ENDBRANCH   6   8
ENDBRANCH   5   6
ENDBRANCH   4   5
ENDBRANCH   3   4
ENDBRANCH   2   3
ENDBRANCH   1   2
BRANCH   1  26
ATOM     26  C   UNL A   1      31.828  28.550  23.795  1.00  0.00     0.188 C 
BRANCH  26  27
ATOM     27  O   UNL A   1      31.393  29.617  24.610  1.00  0.00    -0.376 OA
BRANCH  27  28
ATOM     28  C   UNL A   1      31.637  29.509  26.003  1.00  0.00     0.202 C 
BRANCH  28  29
ATOM     29  C   UNL A   1      32.321  30.681  26.737  1.00  0.00     0.261 C 
BRANCH  29  30
ATOM     30  O   UNL A   1      33.754  30.626  26.871  1.00  0.00    -0.460 OA
BRANCH  30  31
ATOM     31  C   UNL A   1      34.328  31.546  27.681  1.00  0.00     0.338 C 
ATOM     32  O   UNL A   1      33.791  32.549  28.129  1.00  0.00    -0.246 OA
BRANCH  31  33
ATOM     33  C   UNL A   1      35.628  31.007  28.143  1.00  0.00     0.060 A 
ATOM     34  C   UNL A   1      35.694  29.660  28.517  1.00  0.00     0.016 A 
ATOM     35  C   UNL A   1      36.771  31.798  28.206  1.00  0.00     0.016 A 
ATOM     36  C   UNL A   1      36.887  29.094  28.969  1.00  0.00     0.010 A 
ATOM     37  C   UNL A   1      37.965  31.241  28.688  1.00  0.00     0.010 A 
ATOM     38  C   UNL A   1      38.025  29.892  29.096  1.00  0.00    -0.014 A 
BRANCH  38  39
ATOM     39  C   UNL A   1      39.214  29.383  29.828  1.00  0.00     0.031 A 
ATOM     40  C   UNL A   1      39.611  30.067  31.110  1.00  0.00     0.074 A 
ATOM     41  C   UNL A   1      39.922  28.324  29.390  1.00  0.00     0.049 A 
ATOM     42  N   UNL A   1      40.670  29.888  31.855  1.00  0.00    -0.248 NA
ATOM     43  C   UNL A   1      38.684  31.095  31.616  1.00  0.00     0.031 C 
ATOM     44  C   UNL A   1      39.600  27.509  28.219  1.00  0.00     0.029 A 
ATOM     45  N   UNL A   1      41.075  27.760  29.884  1.00  0.00    -0.354 N 
ATOM     46  C   UNL A   1      40.555  30.802  32.898  1.00  0.00     0.074 A 
ATOM     47  C   UNL A   1      39.332  31.541  32.681  1.00  0.00     0.031 C 
ATOM     48  C   UNL A   1      40.545  26.563  28.074  1.00  0.00     0.029 A 
ATOM     49  C   UNL A   1      41.563  26.733  29.110  1.00  0.00     0.049 A 
ATOM     50  H   UNL A   1      41.509  28.063  30.713  1.00  0.00     0.167 HD
ATOM     51  C   UNL A   1      41.395  31.009  33.940  1.00  0.00     0.031 A 
ATOM     52  C   UNL A   1      42.716  26.038  29.203  1.00  0.00     0.031 A 
ATOM     53  C   UNL A   1      42.612  30.272  34.155  1.00  0.00     0.049 A 
ATOM     54  C   UNL A   1      43.686  26.354  30.315  1.00  0.00     0.074 A 
ATOM     55  C   UNL A   1      43.523  30.401  35.190  1.00  0.00     0.029 A 
ATOM     56  N   UNL A   1      43.092  29.273  33.322  1.00  0.00    -0.354 N 
ATOM     57  N   UNL A   1      43.570  27.222  31.293  1.00  0.00    -0.248 NA
ATOM     58  C   UNL A   1      44.943  25.591  30.340  1.00  0.00     0.031 C 
ATOM     59  C   UNL A   1      44.588  29.530  34.944  1.00  0.00     0.029 A 
ATOM     60  C   UNL A   1      44.304  28.802  33.800  1.00  0.00     0.049 A 
ATOM     61  H   UNL A   1      42.640  28.948  32.511  1.00  0.00     0.167 HD
ATOM     62  C   UNL A   1      44.720  27.084  32.064  1.00  0.00     0.074 A 
ATOM     63  C   UNL A   1      45.514  26.041  31.449  1.00  0.00     0.031 C 
ATOM     64  C   UNL A   1      45.085  27.757  33.185  1.00  0.00     0.031 A 
BRANCH  51  65
ATOM     65  C   UNL A   1      41.055  32.119  34.902  1.00  0.00    -0.014 A 
ATOM     66  C   UNL A   1      40.197  31.911  35.996  1.00  0.00     0.010 A 
ATOM     67  C   UNL A   1      41.642  33.386  34.725  1.00  0.00     0.010 A 
ATOM     68  C   UNL A   1      39.906  32.959  36.875  1.00  0.00     0.020 A 
ATOM     69  C   UNL A   1      41.379  34.426  35.619  1.00  0.00     0.020 A 
ATOM     70  C   UNL A   1      40.499  34.209  36.681  1.00  0.00     0.054 A 
BRANCH  70  71
ATOM     71  S   UNL A   1      40.130  35.542  37.855  1.00  0.00     0.124 S 
ATOM     72  O   UNL A   1      41.416  35.718  38.525  1.00  0.00    -0.237 OA
ATOM     73  O   UNL A   1      39.723  36.637  36.978  1.00  0.00    -0.237 OA
ATOM     74  O   UNL A   1      39.066  34.987  38.689  1.00  0.00    -0.744 OA
ENDBRANCH  70  71
ENDBRANCH  51  65
BRANCH  52  75
ATOM     75  C   UNL A   1      43.044  24.990  28.193  1.00  0.00    -0.014 A 
ATOM     76  C   UNL A   1      42.852  23.627  28.486  1.00  0.00     0.010 A 
ATOM     77  C   UNL A   1      43.573  25.348  26.940  1.00  0.00     0.010 A 
ATOM     78  C   UNL A   1      43.198  22.645  27.552  1.00  0.00     0.020 A 
ATOM     79  C   UNL A   1      43.889  24.371  25.991  1.00  0.00     0.020 A 
ATOM     80  C   UNL A   1      43.710  23.024  26.307  1.00  0.00     0.054 A 
BRANCH  80  81
ATOM     81  S   UNL A   1      44.102  21.733  25.094  1.00  0.00     0.124 S 
ATOM     82  O   UNL A   1      43.980  22.455  23.831  1.00  0.00    -0.237 OA
ATOM     83  O   UNL A   1      45.458  21.348  25.475  1.00  0.00    -0.237 OA
ATOM     84  O   UNL A   1      43.082  20.715  25.335  1.00  0.00    -0.744 OA
ENDBRANCH  80  81
ENDBRANCH  52  75
BRANCH  64  85
ATOM     85  C   UNL A   1      46.374  27.357  33.858  1.00  0.00    -0.014 A 
ATOM     86  C   UNL A   1      46.421  26.317  34.805  1.00  0.00     0.010 A 
ATOM     87  C   UNL A   1      47.573  27.995  33.487  1.00  0.00     0.010 A 
ATOM     88  C   UNL A   1      47.637  25.949  35.389  1.00  0.00     0.020 A 
ATOM     89  C   UNL A   1      48.794  27.607  34.044  1.00  0.00     0.020 A 
ATOM     90  C   UNL A   1      48.816  26.594  35.004  1.00  0.00     0.054 A 
BRANCH  90  91
ATOM     91  S   UNL A   1      50.385  26.066  35.747  1.00  0.00     0.124 S 
ATOM     92  O   UNL A   1      50.728  27.214  36.582  1.00  0.00    -0.237 OA
ATOM     93  O   UNL A   1      50.004  24.855  36.469  1.00  0.00    -0.237 OA
ATOM     94  O   UNL A   1      51.259  25.851  34.596  1.00  0.00    -0.744 OA
ENDBRANCH  90  91
ENDBRANCH  64  85
ENDBRANCH  38  39
ENDBRANCH  31  33
ENDBRANCH  30  31
ENDBRANCH  29  30
ENDBRANCH  28  29
ENDBRANCH  27  28
ENDBRANCH  26  27
ENDBRANCH   1  26
TORSDOF 23
ENDMDL
MODEL 2
REMARK VINA RESULT:      -9.6      5.417      6.671
REMARK SMILES C[C@@H](C(=O)OCCOCCOCCOC(=O)c1ccc(-c2c3nc(c(-c4ccc(S(=O)(=O)[O-])cc4)c4ccc([nH]4)c(-c4ccc(S(=O)(=O)[O-])cc4)c4nc(c(-c5ccc(S(=O)(=O)[O-])cc5)c5ccc2[nH]5)C=C4)C=C3)cc1)c1ccccc1-c1ccn(C(F)F)c(=O)c1
REMARK SMILES IDX 9 1 8 2 7 3 6 4 5 5 3 6 4 7 2 8 1 9 77 10 78 11 82 12 79 13
REMARK SMILES IDX 81 14 80 15 83 16 84 17 92 18 85 19 90 20 86 21 91 22 87 23
REMARK SMILES IDX 88 24 89 25 10 26 11 27 12 28 13 29 14 30 15 31 16 32 17 33
REMARK SMILES IDX 18 34 76 35 19 36 75 37 20 38 21 39 22 40 69 41 23 42 74 43
REMARK SMILES IDX 68 44 70 45 24 46 73 47 67 48 66 49 25 51 55 52 36 53 54 54
REMARK SMILES IDX 37 55 40 56 53 57 71 58 38 59 39 60 52 62 72 63 41 64 26 65
REMARK SMILES IDX 27 66 35 67 28 68 34 69 29 70 30 71 31 72 32 73 33 74 56 75
REMARK SMILES IDX 57 76 65 77 58 78 64 79 59 80 60 81 61 82 62 83 63 84 42 85
REMARK SMILES IDX 43 86 51 87 44 88 50 89 45 90 46 91 47 92 48 93 49 94
REMARK H PARENT 70 50 40 61
REMARK Flexibility Score: inf
ROOT
ATOM      1  C   UNL A   1      31.975  27.582  25.138  1.00  0.00     0.188 C 
ENDROOT
BRANCH   1   2
ATOM      2  O   UNL A   1      32.429  26.296  25.550  1.00  0.00    -0.376 OA
BRANCH   2   3
ATOM      3  C   UNL A   1      31.791  25.679  26.666  1.00  0.00     0.202 C 
BRANCH   3   4
ATOM      4  C   UNL A   1      31.753  24.141  26.732  1.00  0.00     0.261 C 
BRANCH   4   5
ATOM      5  O   UNL A   1      33.018  23.519  26.426  1.00  0.00    -0.463 OA
BRANCH   5   6
ATOM      6  C   UNL A   1      33.253  22.277  26.930  1.00  0.00     0.313 C 
ATOM      7  O   UNL A   1      32.799  21.885  27.999  1.00  0.00    -0.252 OA
BRANCH   6   8
ATOM      8  C   UNL A   1      34.146  21.399  26.010  1.00  0.00     0.127 C 
ATOM      9  C   UNL A   1      35.433  22.167  25.667  1.00  0.00     0.025 C 
BRANCH   8  10
ATOM     10  C   UNL A   1      33.389  20.584  24.918  1.00  0.00    -0.026 A 
ATOM     11  C   UNL A   1      33.474  19.168  25.022  1.00  0.00     0.005 A 
ATOM     12  C   UNL A   1      32.734  21.085  23.752  1.00  0.00    -0.014 A 
ATOM     13  C   UNL A   1      32.949  18.294  24.065  1.00  0.00     0.000 A 
ATOM     14  C   UNL A   1      32.248  20.173  22.774  1.00  0.00     0.009 A 
ATOM     15  C   UNL A   1      32.345  18.796  22.930  1.00  0.00     0.001 A 
BRANCH  12  16
ATOM     16  C   UNL A   1      32.419  22.509  23.457  1.00  0.00    -0.011 A 
ATOM     17  C   UNL A   1      31.115  23.122  23.594  1.00  0.00     0.027 A 
ATOM     18  C   UNL A   1      33.436  23.290  23.047  1.00  0.00     0.080 A 
ATOM     19  C   UNL A   1      30.876  24.327  23.056  1.00  0.00     0.095 A 
ATOM     20  C   UNL A   1      33.209  24.649  22.498  1.00  0.00     0.255 A 
ATOM     21  N   UNL A   1      31.887  25.050  22.448  1.00  0.00    -0.258 N 
ATOM     22  O   UNL A   1      34.170  25.285  22.083  1.00  0.00    -0.269 OA
BRANCH  21  23
ATOM     23  C   UNL A   1      31.607  26.256  21.716  1.00  0.00     0.451 C 
ATOM     24  F   UNL A   1      31.495  26.024  20.389  1.00  0.00    -0.185 F 
ATOM     25  F   UNL A   1      30.452  26.823  22.146  1.00  0.00    -0.185 F 
ENDBRANCH  21  23
ENDBRANCH  12  16
ENDBRANCH   8  10
ENDBRANCH   6   8
ENDBRANCH   5   6
ENDBRANCH   4   5
ENDBRANCH   3   4
ENDBRANCH   2   3
ENDBRANCH   1   2
BRANCH   1  26
ATOM     26  C   UNL A   1      32.208  28.778  26.080  1.00  0.00     0.188 C 
BRANCH  26  27
ATOM     27  O   UNL A   1      33.552  28.959  26.472  1.00  0.00    -0.376 OA
BRANCH  27  28
ATOM     28  C   UNL A   1      33.849  30.101  27.260  1.00  0.00     0.202 C 
BRANCH  28  29
ATOM     29  C   UNL A   1      35.319  30.408  27.610  1.00  0.00     0.261 C 
BRANCH  29  30
ATOM     30  O   UNL A   1      36.047  29.398  28.333  1.00  0.00    -0.460 OA
BRANCH  30  31
ATOM     31  C   UNL A   1      36.905  29.828  29.288  1.00  0.00     0.338 C 
ATOM     32  O   UNL A   1      36.599  30.318  30.366  1.00  0.00    -0.246 OA
BRANCH  31  33
ATOM     33  C   UNL A   1      38.267  29.376  28.922  1.00  0.00     0.060 A 
ATOM     34  C   UNL A   1      39.126  28.960  29.945  1.00  0.00     0.016 A 
ATOM     35  C   UNL A   1      38.703  29.349  27.601  1.00  0.00     0.016 A 
ATOM     36  C   UNL A   1      40.425  28.529  29.667  1.00  0.00     0.010 A 
ATOM     37  C   UNL A   1      40.017  28.946  27.320  1.00  0.00     0.010 A 
ATOM     38  C   UNL A   1      40.894  28.557  28.353  1.00  0.00    -0.014 A 
BRANCH  38  39
ATOM     39  C   UNL A   1      42.343  28.370  28.075  1.00  0.00     0.031 A 
ATOM     40  C   UNL A   1      43.277  29.519  28.354  1.00  0.00     0.074 A 
ATOM     41  C   UNL A   1      42.836  27.207  27.609  1.00  0.00     0.049 A 
ATOM     42  N   UNL A   1      44.549  29.641  28.081  1.00  0.00    -0.248 NA
ATOM     43  C   UNL A   1      42.690  30.689  29.032  1.00  0.00     0.031 C 
ATOM     44  C   UNL A   1      42.066  25.985  27.382  1.00  0.00     0.029 A 
ATOM     45  N   UNL A   1      44.115  26.873  27.231  1.00  0.00    -0.354 N 
ATOM     46  C   UNL A   1      44.909  30.911  28.521  1.00  0.00     0.074 A 
ATOM     47  C   UNL A   1      43.717  31.524  29.066  1.00  0.00     0.031 C 
ATOM     48  C   UNL A   1      42.884  25.041  26.885  1.00  0.00     0.029 A 
ATOM     49  C   UNL A   1      44.223  25.603  26.712  1.00  0.00     0.049 A 
ATOM     50  H   UNL A   1      44.881  27.484  27.322  1.00  0.00     0.167 HD
ATOM     51  C   UNL A   1      46.120  31.515  28.472  1.00  0.00     0.031 A 
ATOM     52  C   UNL A   1      45.270  24.980  26.131  1.00  0.00     0.031 A 
ATOM     53  C   UNL A   1      47.305  30.904  27.930  1.00  0.00     0.049 A 
ATOM     54  C   UNL A   1      46.586  25.708  25.996  1.00  0.00     0.074 A 
ATOM     55  C   UNL A   1      48.583  31.431  27.848  1.00  0.00     0.029 A 
ATOM     56  N   UNL A   1      47.360  29.635  27.373  1.00  0.00    -0.354 N 
ATOM     57  N   UNL A   1      46.913  26.909  26.412  1.00  0.00    -0.248 NA
ATOM     58  C   UNL A   1      47.676  24.993  25.316  1.00  0.00     0.031 C 
ATOM     59  C   UNL A   1      49.393  30.509  27.179  1.00  0.00     0.029 A 
ATOM     60  C   UNL A   1      48.640  29.376  26.914  1.00  0.00     0.049 A 
ATOM     61  H   UNL A   1      46.601  29.012  27.312  1.00  0.00     0.167 HD
ATOM     62  C   UNL A   1      48.253  27.078  26.075  1.00  0.00     0.074 A 
ATOM     63  C   UNL A   1      48.679  25.852  25.433  1.00  0.00     0.031 C 
ATOM     64  C   UNL A   1      49.059  28.149  26.283  1.00  0.00     0.031 A 
BRANCH  51  65
ATOM     65  C   UNL A   1      46.215  32.934  28.970  1.00  0.00    -0.014 A 
ATOM     66  C   UNL A   1      45.977  34.032  28.123  1.00  0.00     0.010 A 
ATOM     67  C   UNL A   1      46.510  33.169  30.326  1.00  0.00     0.010 A 
ATOM     68  C   UNL A   1      46.065  35.337  28.615  1.00  0.00     0.020 A 
ATOM     69  C   UNL A   1      46.568  34.471  30.829  1.00  0.00     0.020 A 
ATOM     70  C   UNL A   1      46.360  35.548  29.966  1.00  0.00     0.054 A 
BRANCH  70  71
ATOM     71  S   UNL A   1      46.437  37.251  30.585  1.00  0.00     0.124 S 
ATOM     72  O   UNL A   1      47.185  37.086  31.829  1.00  0.00    -0.237 OA
ATOM     73  O   UNL A   1      47.145  37.949  29.515  1.00  0.00    -0.237 OA
ATOM     74  O   UNL A   1      45.034  37.626  30.748  1.00  0.00    -0.744 OA
ENDBRANCH  70  71
ENDBRANCH  51  65
BRANCH  52  75
ATOM     75  C   UNL A   1      45.117  23.597  25.595  1.00  0.00    -0.014 A 
ATOM     76  C   UNL A   1      45.582  22.489  26.326  1.00  0.00     0.010 A 
ATOM     77  C   UNL A   1      44.525  23.382  24.336  1.00  0.00     0.010 A 
ATOM     78  C   UNL A   1      45.473  21.196  25.802  1.00  0.00     0.020 A 
ATOM     79  C   UNL A   1      44.384  22.089  23.824  1.00  0.00     0.020 A 
ATOM     80  C   UNL A   1      44.869  21.004  24.555  1.00  0.00     0.054 A 
BRANCH  80  81
ATOM     81  S   UNL A   1      44.693  19.313  23.922  1.00  0.00     0.124 S 
ATOM     82  O   UNL A   1      45.944  18.695  24.351  1.00  0.00    -0.237 OA
ATOM     83  O   UNL A   1      43.489  18.847  24.606  1.00  0.00    -0.237 OA
ATOM     84  O   UNL A   1      44.549  19.501  22.480  1.00  0.00    -0.744 OA
ENDBRANCH  80  81
ENDBRANCH  52  75
BRANCH  64  85
ATOM     85  C   UNL A   1      50.504  28.035  25.863  1.00  0.00    -0.014 A 
ATOM     86  C   UNL A   1      51.489  27.538  26.735  1.00  0.00     0.010 A 
ATOM     87  C   UNL A   1      50.869  28.373  24.546  1.00  0.00     0.010 A 
ATOM     88  C   UNL A   1      52.815  27.414  26.308  1.00  0.00     0.020 A 
ATOM     89  C   UNL A   1      52.185  28.220  24.105  1.00  0.00     0.020 A 
ATOM     90  C   UNL A   1      53.154  27.754  24.995  1.00  0.00     0.054 A 
BRANCH  90  91
ATOM     91  S   UNL A   1      54.873  27.543  24.453  1.00  0.00     0.124 S 
ATOM     92  O   UNL A   1      54.967  26.094  24.293  1.00  0.00    -0.237 OA
ATOM     93  O   UNL A   1      54.915  28.317  23.215  1.00  0.00    -0.237 OA
ATOM     94  O   UNL A   1      55.655  28.098  25.556  1.00  0.00    -0.744 OA
ENDBRANCH  90  91
ENDBRANCH  64  85
ENDBRANCH  38  39
ENDBRANCH  31  33
ENDBRANCH  30  31
ENDBRANCH  29  30
ENDBRANCH  28  29
ENDBRANCH  27  28
ENDBRANCH  26  27
ENDBRANCH   1  26
TORSDOF 23
ENDMDL
MODEL 3
REMARK VINA RESULT:      -9.6      5.432      6.575
REMARK SMILES C[C@@H](C(=O)OCCOCCOCCOC(=O)c1ccc(-c2c3nc(c(-c4ccc(S(=O)(=O)[O-])cc4)c4ccc([nH]4)c(-c4ccc(S(=O)(=O)[O-])cc4)c4nc(c(-c5ccc(S(=O)(=O)[O-])cc5)c5ccc2[nH]5)C=C4)C=C3)cc1)c1ccccc1-c1ccn(C(F)F)c(=O)c1
REMARK SMILES IDX 9 1 8 2 7 3 6 4 5 5 3 6 4 7 2 8 1 9 77 10 78 11 82 12 79 13
REMARK SMILES IDX 81 14 80 15 83 16 84 17 92 18 85 19 90 20 86 21 91 22 87 23
REMARK SMILES IDX 88 24 89 25 10 26 11 27 12 28 13 29 14 30 15 31 16 32 17 33
REMARK SMILES IDX 18 34 76 35 19 36 75 37 20 38 21 39 22 40 69 41 23 42 74 43
REMARK SMILES IDX 68 44 70 45 24 46 73 47 67 48 66 49 25 51 55 52 36 53 54 54
REMARK SMILES IDX 37 55 40 56 53 57 71 58 38 59 39 60 52 62 72 63 41 64 26 65
REMARK SMILES IDX 27 66 35 67 28 68 34 69 29 70 30 71 31 72 32 73 33 74 56 75
REMARK SMILES IDX 57 76 65 77 58 78 64 79 59 80 60 81 61 82 62 83 63 84 42 85
REMARK SMILES IDX 43 86 51 87 44 88 50 89 45 90 46 91 47 92 48 93 49 94
REMARK H PARENT 70 50 40 61
REMARK Flexibility Score: inf
ROOT
ATOM      1  C   UNL A   1      32.306  28.182  27.634  1.00  0.00     0.188 C 
ENDROOT
BRANCH   1   2
ATOM      2  O   UNL A   1      31.093  27.478  27.379  1.00  0.00    -0.376 OA
BRANCH   2   3
ATOM      3  C   UNL A   1      30.932  26.842  26.113  1.00  0.00     0.202 C 
BRANCH   3   4
ATOM      4  C   UNL A   1      31.107  25.314  26.034  1.00  0.00     0.261 C 
BRANCH   4   5
ATOM      5  O   UNL A   1      32.365  24.849  26.565  1.00  0.00    -0.463 OA
BRANCH   5   6
ATOM      6  C   UNL A   1      32.503  23.514  26.794  1.00  0.00     0.313 C 
ATOM      7  O   UNL A   1      31.793  22.885  27.572  1.00  0.00    -0.252 OA
BRANCH   6   8
ATOM      8  C   UNL A   1      33.642  22.862  25.964  1.00  0.00     0.127 C 
ATOM      9  C   UNL A   1      35.001  23.304  26.531  1.00  0.00     0.025 C 
BRANCH   8  10
ATOM     10  C   UNL A   1      33.401  22.801  24.425  1.00  0.00    -0.026 A 
ATOM     11  C   UNL A   1      33.551  24.027  23.718  1.00  0.00     0.005 A 
ATOM     12  C   UNL A   1      32.921  21.695  23.660  1.00  0.00    -0.014 A 
ATOM     13  C   UNL A   1      33.262  24.170  22.357  1.00  0.00     0.000 A 
ATOM     14  C   UNL A   1      32.596  21.881  22.287  1.00  0.00     0.009 A 
ATOM     15  C   UNL A   1      32.771  23.098  21.640  1.00  0.00     0.001 A 
BRANCH  12  16
ATOM     16  C   UNL A   1      32.781  20.290  24.127  1.00  0.00    -0.011 A 
ATOM     17  C   UNL A   1      32.658  19.878  25.510  1.00  0.00     0.027 A 
ATOM     18  C   UNL A   1      32.748  19.330  23.185  1.00  0.00     0.080 A 
ATOM     19  C   UNL A   1      32.805  18.588  25.845  1.00  0.00     0.095 A 
ATOM     20  C   UNL A   1      32.852  17.890  23.528  1.00  0.00     0.255 A 
ATOM     21  N   UNL A   1      32.976  17.614  24.877  1.00  0.00    -0.258 N 
ATOM     22  O   UNL A   1      32.879  17.069  22.620  1.00  0.00    -0.269 OA
BRANCH  21  23
ATOM     23  C   UNL A   1      33.308  16.260  25.229  1.00  0.00     0.451 C 
ATOM     24  F   UNL A   1      32.286  15.410  24.980  1.00  0.00    -0.185 F 
ATOM     25  F   UNL A   1      34.392  15.834  24.534  1.00  0.00    -0.185 F 
ENDBRANCH  21  23
ENDBRANCH  12  16
ENDBRANCH   8  10
ENDBRANCH   6   8
ENDBRANCH   5   6
ENDBRANCH   4   5
ENDBRANCH   3   4
ENDBRANCH   2   3
ENDBRANCH   1   2
BRANCH   1  26
ATOM     26  C   UNL A   1      32.406  29.654  27.193  1.00  0.00     0.188 C 
BRANCH  26  27
ATOM     27  O   UNL A   1      33.705  30.067  26.828  1.00  0.00    -0.376 OA
BRANCH  27  28
ATOM     28  C   UNL A   1      34.231  31.209  27.485  1.00  0.00     0.202 C 
BRANCH  28  29
ATOM     29  C   UNL A   1      35.196  31.011  28.672  1.00  0.00     0.261 C 
BRANCH  29  30
ATOM     30  O   UNL A   1      36.449  30.357  28.398  1.00  0.00    -0.460 OA
BRANCH  30  31
ATOM     31  C   UNL A   1      36.988  29.624  29.401  1.00  0.00     0.338 C 
ATOM     32  O   UNL A   1      36.397  29.201  30.384  1.00  0.00    -0.246 OA
BRANCH  31  33
ATOM     33  C   UNL A   1      38.346  29.203  28.987  1.00  0.00     0.060 A 
ATOM     34  C   UNL A   1      39.180  28.613  29.943  1.00  0.00     0.016 A 
ATOM     35  C   UNL A   1      38.803  29.374  27.683  1.00  0.00     0.016 A 
ATOM     36  C   UNL A   1      40.474  28.202  29.618  1.00  0.00     0.010 A 
ATOM     37  C   UNL A   1      40.113  28.990  27.360  1.00  0.00     0.010 A 
ATOM     38  C   UNL A   1      40.965  28.425  28.330  1.00  0.00    -0.014 A 
BRANCH  38  39
ATOM     39  C   UNL A   1      42.414  28.250  28.046  1.00  0.00     0.031 A 
ATOM     40  C   UNL A   1      43.339  29.408  28.319  1.00  0.00     0.074 A 
ATOM     41  C   UNL A   1      42.916  27.091  27.579  1.00  0.00     0.049 A 
ATOM     42  N   UNL A   1      44.609  29.541  28.039  1.00  0.00    -0.248 NA
ATOM     43  C   UNL A   1      42.746  30.572  28.999  1.00  0.00     0.031 C 
ATOM     44  C   UNL A   1      42.155  25.862  27.356  1.00  0.00     0.029 A 
ATOM     45  N   UNL A   1      44.195  26.768  27.194  1.00  0.00    -0.354 N 
ATOM     46  C   UNL A   1      44.960  30.814  28.477  1.00  0.00     0.074 A 
ATOM     47  C   UNL A   1      43.765  31.417  29.027  1.00  0.00     0.031 C 
ATOM     48  C   UNL A   1      42.979  24.925  26.856  1.00  0.00     0.029 A 
ATOM     49  C   UNL A   1      44.312  25.499  26.676  1.00  0.00     0.049 A 
ATOM     50  H   UNL A   1      44.956  27.386  27.281  1.00  0.00     0.167 HD
ATOM     51  C   UNL A   1      46.165  31.429  28.422  1.00  0.00     0.031 A 
ATOM     52  C   UNL A   1      45.362  24.885  26.090  1.00  0.00     0.031 A 
ATOM     53  C   UNL A   1      47.353  30.828  27.874  1.00  0.00     0.049 A 
ATOM     54  C   UNL A   1      46.670  25.624  25.948  1.00  0.00     0.074 A 
ATOM     55  C   UNL A   1      48.625  31.366  27.786  1.00  0.00     0.029 A 
ATOM     56  N   UNL A   1      47.416  29.559  27.318  1.00  0.00    -0.354 N 
ATOM     57  N   UNL A   1      46.989  26.829  26.361  1.00  0.00    -0.248 NA
ATOM     58  C   UNL A   1      47.764  24.919  25.264  1.00  0.00     0.031 C 
ATOM     59  C   UNL A   1      49.440  30.451  27.113  1.00  0.00     0.029 A 
ATOM     60  C   UNL A   1      48.697  29.311  26.854  1.00  0.00     0.049 A 
ATOM     61  H   UNL A   1      46.662  28.929  27.262  1.00  0.00     0.167 HD
ATOM     62  C   UNL A   1      48.325  27.009  26.017  1.00  0.00     0.074 A 
ATOM     63  C   UNL A   1      48.760  25.786  25.375  1.00  0.00     0.031 C 
ATOM     64  C   UNL A   1      49.123  28.088  26.221  1.00  0.00     0.031 A 
BRANCH  51  65
ATOM     65  C   UNL A   1      46.249  32.849  28.918  1.00  0.00    -0.014 A 
ATOM     66  C   UNL A   1      45.988  33.944  28.074  1.00  0.00     0.010 A 
ATOM     67  C   UNL A   1      46.559  33.088  30.270  1.00  0.00     0.010 A 
ATOM     68  C   UNL A   1      46.068  35.250  28.565  1.00  0.00     0.020 A 
ATOM     69  C   UNL A   1      46.608  34.391  30.772  1.00  0.00     0.020 A 
ATOM     70  C   UNL A   1      46.377  35.465  29.911  1.00  0.00     0.054 A 
BRANCH  70  71
ATOM     71  S   UNL A   1      46.441  37.169  30.530  1.00  0.00     0.124 S 
ATOM     72  O   UNL A   1      45.624  37.878  29.548  1.00  0.00    -0.237 OA
ATOM     73  O   UNL A   1      45.856  37.047  31.863  1.00  0.00    -0.237 OA
ATOM     74  O   UNL A   1      47.865  37.496  30.505  1.00  0.00    -0.744 OA
ENDBRANCH  70  71
ENDBRANCH  51  65
BRANCH  52  75
ATOM     75  C   UNL A   1      45.219  23.500  25.555  1.00  0.00    -0.014 A 
ATOM     76  C   UNL A   1      44.938  23.282  24.194  1.00  0.00     0.010 A 
ATOM     77  C   UNL A   1      45.341  22.389  26.411  1.00  0.00     0.010 A 
ATOM     78  C   UNL A   1      44.765  21.983  23.704  1.00  0.00     0.020 A 
ATOM     79  C   UNL A   1      45.202  21.088  25.919  1.00  0.00     0.020 A 
ATOM     80  C   UNL A   1      44.904  20.893  24.570  1.00  0.00     0.054 A 
BRANCH  80  81
ATOM     81  S   UNL A   1      44.726  19.217  23.898  1.00  0.00     0.124 S 
ATOM     82  O   UNL A   1      43.574  18.713  24.639  1.00  0.00    -0.237 OA
ATOM     83  O   UNL A   1      44.504  19.471  22.477  1.00  0.00    -0.237 OA
ATOM     84  O   UNL A   1      46.003  18.583  24.219  1.00  0.00    -0.744 OA
ENDBRANCH  80  81
ENDBRANCH  52  75
BRANCH  64  85
ATOM     85  C   UNL A   1      50.567  27.986  25.794  1.00  0.00    -0.014 A 
ATOM     86  C   UNL A   1      51.559  27.489  26.658  1.00  0.00     0.010 A 
ATOM     87  C   UNL A   1      50.924  28.336  24.478  1.00  0.00     0.010 A 
ATOM     88  C   UNL A   1      52.884  27.377  26.224  1.00  0.00     0.020 A 
ATOM     89  C   UNL A   1      52.240  28.196  24.030  1.00  0.00     0.020 A 
ATOM     90  C   UNL A   1      53.215  27.729  24.912  1.00  0.00     0.054 A 
BRANCH  90  91
ATOM     91  S   UNL A   1      54.933  27.533  24.362  1.00  0.00     0.124 S 
ATOM     92  O   UNL A   1      54.826  27.795  22.929  1.00  0.00    -0.237 OA
ATOM     93  O   UNL A   1      55.634  28.553  25.137  1.00  0.00    -0.237 OA
ATOM     94  O   UNL A   1      55.258  26.154  24.719  1.00  0.00    -0.744 OA
ENDBRANCH  90  91
ENDBRANCH  64  85
ENDBRANCH  38  39
ENDBRANCH  31  33
ENDBRANCH  30  31
ENDBRANCH  29  30
ENDBRANCH  28  29
ENDBRANCH  27  28
ENDBRANCH  26  27
ENDBRANCH   1  26
TORSDOF 23
ENDMDL
