MODEL 1
REMARK VINA RESULT:     -10.2      0.000      0.000
REMARK SMILES O=C(C[C@@H]1C[N@@H+]([C@@H]2CCOc3ccccc32)CCO1)OCCOCCOCCOC(=O)c1ccc(-c2c3nc(c(-c4ccc(S(=O)(=O)[O-])cc4)c4ccc([nH]4)c(-c4ccc(S(=O)(=O)[O-])cc4)c4nc(c(-c5ccc(S(=O)(=O)[O-])cc5)c5ccc2[nH]5)C=C4)C=C3)cc1
REMARK SMILES IDX 25 1 24 2 23 3 22 4 21 5 20 6 2 7 1 8 3 9 4 10 5 11 19 12
REMARK SMILES IDX 6 13 18 14 17 15 7 17 8 18 16 19 9 20 11 21 15 22 10 23
REMARK SMILES IDX 12 24 14 25 13 26 26 27 27 28 28 29 29 30 30 31 31 32 32 33
REMARK SMILES IDX 33 34 91 35 34 36 90 37 35 38 36 39 37 40 84 41 38 42 89 43
REMARK SMILES IDX 83 44 85 45 39 46 88 47 82 48 81 49 40 51 70 52 51 53 69 54
REMARK SMILES IDX 52 55 55 56 68 57 86 58 53 59 54 60 67 62 87 63 56 64 41 65
REMARK SMILES IDX 42 66 50 67 43 68 49 69 44 70 45 71 46 72 47 73 48 74 71 75
REMARK SMILES IDX 72 76 80 77 73 78 79 79 74 80 75 81 76 82 77 83 78 84 57 85
REMARK SMILES IDX 58 86 66 87 59 88 65 89 60 90 61 91 62 92 63 93 64 94
REMARK H PARENT 6 16 85 50 55 61
REMARK Flexibility Score: inf
ROOT
ATOM      1  C   UNL A   1      37.136  21.242  24.425  1.00  0.00     0.188 C 
ENDROOT
BRANCH   1   2
ATOM      2  C   UNL A   1      36.074  20.621  25.339  1.00  0.00     0.188 C 
BRANCH   2   3
ATOM      3  O   UNL A   1      34.766  20.624  24.810  1.00  0.00    -0.376 OA
BRANCH   3   4
ATOM      4  C   UNL A   1      33.666  20.952  25.632  1.00  0.00     0.202 C 
BRANCH   4   5
ATOM      5  C   UNL A   1      32.344  21.295  24.959  1.00  0.00     0.261 C 
BRANCH   5   6
ATOM      6  O   UNL A   1      31.681  22.535  25.312  1.00  0.00    -0.463 OA
BRANCH   6   7
ATOM      7  C   UNL A   1      31.011  23.403  24.520  1.00  0.00     0.308 C 
ATOM      8  O   UNL A   1      31.070  23.281  23.296  1.00  0.00    -0.252 OA
BRANCH   7   9
ATOM      9  C   UNL A   1      30.341  24.600  25.129  1.00  0.00     0.160 C 
BRANCH   9  10
ATOM     10  C   UNL A   1      30.697  25.915  24.468  1.00  0.00     0.184 C 
ATOM     11  C   UNL A   1      31.377  26.839  25.498  1.00  0.00     0.295 C 
ATOM     12  O   UNL A   1      29.530  26.570  23.954  1.00  0.00    -0.366 OA
ATOM     13  N   UNL A   1      31.750  28.157  24.969  1.00  0.00    -0.324 N 
ATOM     14  C   UNL A   1      29.873  27.794  23.295  1.00  0.00     0.222 C 
ATOM     15  C   UNL A   1      30.643  28.754  24.220  1.00  0.00     0.291 C 
ATOM     16  H   UNL A   1      31.887  28.781  25.764  1.00  0.00     0.348 HD
BRANCH  13  17
ATOM     17  C   UNL A   1      33.101  28.243  24.380  1.00  0.00     0.222 C 
ATOM     18  C   UNL A   1      33.231  28.985  23.038  1.00  0.00     0.112 C 
ATOM     19  C   UNL A   1      33.727  26.863  24.336  1.00  0.00     0.051 A 
ATOM     20  C   UNL A   1      33.969  28.191  21.970  1.00  0.00     0.236 C 
ATOM     21  C   UNL A   1      33.878  26.209  23.109  1.00  0.00     0.128 A 
ATOM     22  C   UNL A   1      34.021  26.172  25.521  1.00  0.00     0.014 A 
ATOM     23  O   UNL A   1      33.547  26.828  21.932  1.00  0.00    -0.493 OA
ATOM     24  C   UNL A   1      34.287  24.883  23.055  1.00  0.00     0.047 A 
ATOM     25  C   UNL A   1      34.448  24.847  25.470  1.00  0.00     0.001 A 
ATOM     26  C   UNL A   1      34.579  24.209  24.240  1.00  0.00     0.004 A 
ENDBRANCH  13  17
ENDBRANCH   9  10
ENDBRANCH   7   9
ENDBRANCH   6   7
ENDBRANCH   5   6
ENDBRANCH   4   5
ENDBRANCH   3   4
ENDBRANCH   2   3
ENDBRANCH   1   2
BRANCH   1  27
ATOM     27  O   UNL A   1      37.893  22.352  24.882  1.00  0.00    -0.376 OA
BRANCH  27  28
ATOM     28  C   UNL A   1      37.487  23.055  26.050  1.00  0.00     0.202 C 
BRANCH  28  29
ATOM     29  C   UNL A   1      38.118  24.420  26.352  1.00  0.00     0.261 C 
BRANCH  29  30
ATOM     30  O   UNL A   1      39.452  24.380  26.896  1.00  0.00    -0.460 OA
BRANCH  30  31
ATOM     31  C   UNL A   1      40.193  25.502  26.717  1.00  0.00     0.338 C 
ATOM     32  O   UNL A   1      40.982  25.719  25.814  1.00  0.00    -0.246 OA
BRANCH  31  33
ATOM     33  C   UNL A   1      39.837  26.539  27.713  1.00  0.00     0.060 A 
ATOM     34  C   UNL A   1      40.240  27.862  27.473  1.00  0.00     0.016 A 
ATOM     35  C   UNL A   1      39.231  26.199  28.922  1.00  0.00     0.016 A 
ATOM     36  C   UNL A   1      40.091  28.837  28.465  1.00  0.00     0.010 A 
ATOM     37  C   UNL A   1      39.105  27.171  29.922  1.00  0.00     0.010 A 
ATOM     38  C   UNL A   1      39.575  28.483  29.717  1.00  0.00    -0.014 A 
BRANCH  38  39
ATOM     39  C   UNL A   1      39.749  29.380  30.889  1.00  0.00     0.031 A 
ATOM     40  C   UNL A   1      40.900  29.113  31.822  1.00  0.00     0.074 A 
ATOM     41  C   UNL A   1      38.910  30.399  31.151  1.00  0.00     0.049 A 
ATOM     42  N   UNL A   1      41.169  29.650  32.984  1.00  0.00    -0.248 NA
ATOM     43  C   UNL A   1      41.877  28.105  31.380  1.00  0.00     0.031 C 
ATOM     44  C   UNL A   1      37.814  30.840  30.294  1.00  0.00     0.029 A 
ATOM     45  N   UNL A   1      38.849  31.237  32.240  1.00  0.00    -0.354 N 
ATOM     46  C   UNL A   1      42.335  29.030  33.422  1.00  0.00     0.074 A 
ATOM     47  C   UNL A   1      42.710  28.069  32.408  1.00  0.00     0.031 C 
ATOM     48  C   UNL A   1      37.172  31.853  30.906  1.00  0.00     0.029 A 
ATOM     49  C   UNL A   1      37.769  32.085  32.219  1.00  0.00     0.049 A 
ATOM     50  H   UNL A   1      39.517  31.232  32.963  1.00  0.00     0.167 HD
ATOM     51  C   UNL A   1      43.030  29.238  34.567  1.00  0.00     0.031 A 
ATOM     52  C   UNL A   1      37.283  32.919  33.162  1.00  0.00     0.031 A 
ATOM     53  C   UNL A   1      42.648  30.176  35.587  1.00  0.00     0.049 A 
ATOM     54  C   UNL A   1      37.997  33.054  34.478  1.00  0.00     0.074 A 
ATOM     55  C   UNL A   1      43.290  30.457  36.780  1.00  0.00     0.029 A 
ATOM     56  N   UNL A   1      41.518  30.977  35.542  1.00  0.00    -0.354 N 
ATOM     57  N   UNL A   1      39.087  32.453  34.888  1.00  0.00    -0.248 NA
ATOM     58  C   UNL A   1      37.422  33.992  35.455  1.00  0.00     0.031 C 
ATOM     59  C   UNL A   1      42.518  31.388  37.482  1.00  0.00     0.029 A 
ATOM     60  C   UNL A   1      41.430  31.734  36.697  1.00  0.00     0.049 A 
ATOM     61  H   UNL A   1      40.873  31.003  34.799  1.00  0.00     0.167 HD
ATOM     62  C   UNL A   1      39.352  32.968  36.152  1.00  0.00     0.074 A 
ATOM     63  C   UNL A   1      38.303  33.922  36.445  1.00  0.00     0.031 C 
ATOM     64  C   UNL A   1      40.384  32.685  36.984  1.00  0.00     0.031 A 
BRANCH  51  65
ATOM     65  C   UNL A   1      44.245  28.381  34.793  1.00  0.00    -0.014 A 
ATOM     66  C   UNL A   1      44.153  27.132  35.435  1.00  0.00     0.010 A 
ATOM     67  C   UNL A   1      45.503  28.836  34.358  1.00  0.00     0.010 A 
ATOM     68  C   UNL A   1      45.305  26.381  35.685  1.00  0.00     0.020 A 
ATOM     69  C   UNL A   1      46.652  28.075  34.580  1.00  0.00     0.020 A 
ATOM     70  C   UNL A   1      46.548  26.862  35.264  1.00  0.00     0.054 A 
BRANCH  70  71
ATOM     71  S   UNL A   1      48.030  25.876  35.611  1.00  0.00     0.124 S 
ATOM     72  O   UNL A   1      49.060  26.616  34.885  1.00  0.00    -0.237 OA
ATOM     73  O   UNL A   1      48.123  25.937  37.067  1.00  0.00    -0.237 OA
ATOM     74  O   UNL A   1      47.707  24.561  35.066  1.00  0.00    -0.744 OA
ENDBRANCH  70  71
ENDBRANCH  51  65
BRANCH  52  75
ATOM     75  C   UNL A   1      36.018  33.661  32.911  1.00  0.00    -0.014 A 
ATOM     76  C   UNL A   1      34.770  33.061  33.150  1.00  0.00     0.010 A 
ATOM     77  C   UNL A   1      36.061  34.988  32.444  1.00  0.00     0.010 A 
ATOM     78  C   UNL A   1      33.588  33.779  32.940  1.00  0.00     0.020 A 
ATOM     79  C   UNL A   1      34.882  35.715  32.253  1.00  0.00     0.020 A 
ATOM     80  C   UNL A   1      33.652  35.106  32.505  1.00  0.00     0.054 A 
BRANCH  80  81
ATOM     81  S   UNL A   1      32.110  36.050  32.335  1.00  0.00     0.124 S 
ATOM     82  O   UNL A   1      32.337  37.167  33.247  1.00  0.00    -0.237 OA
ATOM     83  O   UNL A   1      32.101  36.386  30.914  1.00  0.00    -0.237 OA
ATOM     84  O   UNL A   1      31.080  35.102  32.752  1.00  0.00    -0.744 OA
ENDBRANCH  80  81
ENDBRANCH  52  75
BRANCH  64  85
ATOM     85  C   UNL A   1      40.477  33.452  38.275  1.00  0.00    -0.014 A 
ATOM     86  C   UNL A   1      41.339  34.555  38.417  1.00  0.00     0.010 A 
ATOM     87  C   UNL A   1      39.622  33.109  39.340  1.00  0.00     0.010 A 
ATOM     88  C   UNL A   1      41.352  35.291  39.606  1.00  0.00     0.020 A 
ATOM     89  C   UNL A   1      39.616  33.856  40.520  1.00  0.00     0.020 A 
ATOM     90  C   UNL A   1      40.488  34.939  40.649  1.00  0.00     0.054 A 
BRANCH  90  91
ATOM     91  S   UNL A   1      40.474  35.950  42.155  1.00  0.00     0.124 S 
ATOM     92  O   UNL A   1      41.727  36.689  42.037  1.00  0.00    -0.237 OA
ATOM     93  O   UNL A   1      39.258  36.745  41.996  1.00  0.00    -0.237 OA
ATOM     94  O   UNL A   1      40.429  34.966  43.234  1.00  0.00    -0.744 OA
ENDBRANCH  90  91
ENDBRANCH  64  85
ENDBRANCH  38  39
ENDBRANCH  31  33
ENDBRANCH  30  31
ENDBRANCH  29  30
ENDBRANCH  28  29
ENDBRANCH  27  28
ENDBRANCH   1  27
TORSDOF 22
ENDMDL
MODEL 2
REMARK VINA RESULT:     -10.0      2.116      8.319
REMARK SMILES O=C(C[C@@H]1C[N@@H+]([C@@H]2CCOc3ccccc32)CCO1)OCCOCCOCCOC(=O)c1ccc(-c2c3nc(c(-c4ccc(S(=O)(=O)[O-])cc4)c4ccc([nH]4)c(-c4ccc(S(=O)(=O)[O-])cc4)c4nc(c(-c5ccc(S(=O)(=O)[O-])cc5)c5ccc2[nH]5)C=C4)C=C3)cc1
REMARK SMILES IDX 25 1 24 2 23 3 22 4 21 5 20 6 2 7 1 8 3 9 4 10 5 11 19 12
REMARK SMILES IDX 6 13 18 14 17 15 7 17 8 18 16 19 9 20 11 21 15 22 10 23
REMARK SMILES IDX 12 24 14 25 13 26 26 27 27 28 28 29 29 30 30 31 31 32 32 33
REMARK SMILES IDX 33 34 91 35 34 36 90 37 35 38 36 39 37 40 84 41 38 42 89 43
REMARK SMILES IDX 83 44 85 45 39 46 88 47 82 48 81 49 40 51 70 52 51 53 69 54
REMARK SMILES IDX 52 55 55 56 68 57 86 58 53 59 54 60 67 62 87 63 56 64 41 65
REMARK SMILES IDX 42 66 50 67 43 68 49 69 44 70 45 71 46 72 47 73 48 74 71 75
REMARK SMILES IDX 72 76 80 77 73 78 79 79 74 80 75 81 76 82 77 83 78 84 57 85
REMARK SMILES IDX 58 86 66 87 59 88 65 89 60 90 61 91 62 92 63 93 64 94
REMARK H PARENT 6 16 85 50 55 61
REMARK Flexibility Score: inf
ROOT
ATOM      1  C   UNL A   1      42.233  21.035  26.033  1.00  0.00     0.188 C 
ENDROOT
BRANCH   1   2
ATOM      2  C   UNL A   1      40.938  20.968  26.849  1.00  0.00     0.188 C 
BRANCH   2   3
ATOM      3  O   UNL A   1      39.759  20.906  26.077  1.00  0.00    -0.376 OA
BRANCH   3   4
ATOM      4  C   UNL A   1      38.956  22.055  25.908  1.00  0.00     0.202 C 
BRANCH   4   5
ATOM      5  C   UNL A   1      37.525  21.867  25.426  1.00  0.00     0.261 C 
BRANCH   5   6
ATOM      6  O   UNL A   1      36.435  22.233  26.309  1.00  0.00    -0.463 OA
BRANCH   6   7
ATOM      7  C   UNL A   1      35.102  22.105  26.123  1.00  0.00     0.308 C 
ATOM      8  O   UNL A   1      34.678  21.600  25.083  1.00  0.00    -0.252 OA
BRANCH   7   9
ATOM      9  C   UNL A   1      34.150  22.725  27.104  1.00  0.00     0.160 C 
BRANCH   9  10
ATOM     10  C   UNL A   1      32.807  23.101  26.515  1.00  0.00     0.184 C 
ATOM     11  C   UNL A   1      32.822  24.590  26.116  1.00  0.00     0.295 C 
ATOM     12  O   UNL A   1      31.749  22.881  27.457  1.00  0.00    -0.366 OA
ATOM     13  N   UNL A   1      31.555  25.072  25.548  1.00  0.00    -0.324 N 
ATOM     14  C   UNL A   1      30.475  23.200  26.885  1.00  0.00     0.222 C 
ATOM     15  C   UNL A   1      30.418  24.649  26.368  1.00  0.00     0.291 C 
ATOM     16  H   UNL A   1      31.555  26.090  25.616  1.00  0.00     0.348 HD
BRANCH  13  17
ATOM     17  C   UNL A   1      31.429  24.944  24.083  1.00  0.00     0.222 C 
ATOM     18  C   UNL A   1      32.719  24.654  23.295  1.00  0.00     0.112 C 
ATOM     19  C   UNL A   1      30.675  26.136  23.529  1.00  0.00     0.051 A 
ATOM     20  C   UNL A   1      32.949  25.604  22.129  1.00  0.00     0.236 C 
ATOM     21  C   UNL A   1      31.358  27.108  22.791  1.00  0.00     0.128 A 
ATOM     22  C   UNL A   1      29.331  26.355  23.872  1.00  0.00     0.014 A 
ATOM     23  O   UNL A   1      32.685  26.960  22.486  1.00  0.00    -0.493 OA
ATOM     24  C   UNL A   1      30.732  28.291  22.420  1.00  0.00     0.047 A 
ATOM     25  C   UNL A   1      28.695  27.532  23.486  1.00  0.00     0.001 A 
ATOM     26  C   UNL A   1      29.396  28.494  22.764  1.00  0.00     0.004 A 
ENDBRANCH  13  17
ENDBRANCH   9  10
ENDBRANCH   7   9
ENDBRANCH   6   7
ENDBRANCH   5   6
ENDBRANCH   4   5
ENDBRANCH   3   4
ENDBRANCH   2   3
ENDBRANCH   1   2
BRANCH   1  27
ATOM     27  O   UNL A   1      43.155  22.090  26.265  1.00  0.00    -0.376 OA
BRANCH  27  28
ATOM     28  C   UNL A   1      43.028  23.312  25.547  1.00  0.00     0.202 C 
BRANCH  28  29
ATOM     29  C   UNL A   1      43.623  24.591  26.150  1.00  0.00     0.261 C 
BRANCH  29  30
ATOM     30  O   UNL A   1      43.156  25.826  25.569  1.00  0.00    -0.460 OA
BRANCH  30  31
ATOM     31  C   UNL A   1      41.941  26.252  25.997  1.00  0.00     0.338 C 
ATOM     32  O   UNL A   1      40.894  26.211  25.376  1.00  0.00    -0.246 OA
BRANCH  31  33
ATOM     33  C   UNL A   1      41.997  26.683  27.413  1.00  0.00     0.060 A 
ATOM     34  C   UNL A   1      41.064  26.145  28.313  1.00  0.00     0.016 A 
ATOM     35  C   UNL A   1      42.867  27.693  27.825  1.00  0.00     0.016 A 
ATOM     36  C   UNL A   1      40.957  26.655  29.610  1.00  0.00     0.010 A 
ATOM     37  C   UNL A   1      42.742  28.218  29.117  1.00  0.00     0.010 A 
ATOM     38  C   UNL A   1      41.758  27.736  30.000  1.00  0.00    -0.014 A 
BRANCH  38  39
ATOM     39  C   UNL A   1      41.419  28.530  31.210  1.00  0.00     0.031 A 
ATOM     40  C   UNL A   1      40.277  29.508  31.119  1.00  0.00     0.074 A 
ATOM     41  C   UNL A   1      42.104  28.422  32.363  1.00  0.00     0.049 A 
ATOM     42  N   UNL A   1      39.892  30.418  31.976  1.00  0.00    -0.248 NA
ATOM     43  C   UNL A   1      39.462  29.445  29.896  1.00  0.00     0.031 C 
ATOM     44  C   UNL A   1      43.166  27.457  32.633  1.00  0.00     0.029 A 
ATOM     45  N   UNL A   1      42.008  29.157  33.522  1.00  0.00    -0.354 N 
ATOM     46  C   UNL A   1      38.802  31.050  31.388  1.00  0.00     0.074 A 
ATOM     47  C   UNL A   1      38.599  30.430  30.096  1.00  0.00     0.031 C 
ATOM     48  C   UNL A   1      43.642  27.680  33.872  1.00  0.00     0.029 A 
ATOM     49  C   UNL A   1      42.967  28.839  34.452  1.00  0.00     0.049 A 
ATOM     50  H   UNL A   1      41.319  29.843  33.670  1.00  0.00     0.167 HD
ATOM     51  C   UNL A   1      38.041  32.060  31.874  1.00  0.00     0.031 A 
ATOM     52  C   UNL A   1      43.300  29.435  35.617  1.00  0.00     0.031 A 
ATOM     53  C   UNL A   1      38.253  32.694  33.146  1.00  0.00     0.049 A 
ATOM     54  C   UNL A   1      42.521  30.631  36.091  1.00  0.00     0.074 A 
ATOM     55  C   UNL A   1      37.531  33.723  33.724  1.00  0.00     0.029 A 
ATOM     56  N   UNL A   1      39.267  32.369  34.033  1.00  0.00    -0.354 N 
ATOM     57  N   UNL A   1      41.504  31.230  35.519  1.00  0.00    -0.248 NA
ATOM     58  C   UNL A   1      42.926  31.223  37.375  1.00  0.00     0.031 C 
ATOM     59  C   UNL A   1      38.144  34.058  34.936  1.00  0.00     0.029 A 
ATOM     60  C   UNL A   1      39.207  33.194  35.142  1.00  0.00     0.049 A 
ATOM     61  H   UNL A   1      39.932  31.657  33.894  1.00  0.00     0.167 HD
ATOM     62  C   UNL A   1      41.122  32.244  36.392  1.00  0.00     0.074 A 
ATOM     63  C   UNL A   1      42.023  32.184  37.524  1.00  0.00     0.031 C 
ATOM     64  C   UNL A   1      40.105  33.130  36.269  1.00  0.00     0.031 A 
BRANCH  51  65
ATOM     65  C   UNL A   1      36.941  32.576  30.985  1.00  0.00    -0.014 A 
ATOM     66  C   UNL A   1      37.216  33.419  29.893  1.00  0.00     0.010 A 
ATOM     67  C   UNL A   1      35.609  32.210  31.251  1.00  0.00     0.010 A 
ATOM     68  C   UNL A   1      36.172  33.931  29.118  1.00  0.00     0.020 A 
ATOM     69  C   UNL A   1      34.566  32.697  30.460  1.00  0.00     0.020 A 
ATOM     70  C   UNL A   1      34.853  33.574  29.412  1.00  0.00     0.054 A 
BRANCH  70  71
ATOM     71  S   UNL A   1      33.514  34.261  28.400  1.00  0.00     0.124 S 
ATOM     72  O   UNL A   1      32.597  34.767  29.419  1.00  0.00    -0.237 OA
ATOM     73  O   UNL A   1      34.199  35.280  27.610  1.00  0.00    -0.237 OA
ATOM     74  O   UNL A   1      33.029  33.112  27.641  1.00  0.00    -0.744 OA
ENDBRANCH  70  71
ENDBRANCH  51  65
BRANCH  52  75
ATOM     75  C   UNL A   1      44.463  28.936  36.397  1.00  0.00    -0.014 A 
ATOM     76  C   UNL A   1      45.735  29.514  36.245  1.00  0.00     0.010 A 
ATOM     77  C   UNL A   1      44.297  27.881  37.313  1.00  0.00     0.010 A 
ATOM     78  C   UNL A   1      46.815  29.058  37.007  1.00  0.00     0.020 A 
ATOM     79  C   UNL A   1      45.370  27.436  38.091  1.00  0.00     0.020 A 
ATOM     80  C   UNL A   1      46.623  28.029  37.934  1.00  0.00     0.054 A 
BRANCH  80  81
ATOM     81  S   UNL A   1      48.015  27.520  38.983  1.00  0.00     0.124 S 
ATOM     82  O   UNL A   1      47.387  27.428  40.297  1.00  0.00    -0.237 OA
ATOM     83  O   UNL A   1      48.415  26.250  38.382  1.00  0.00    -0.237 OA
ATOM     84  O   UNL A   1      48.979  28.607  38.825  1.00  0.00    -0.744 OA
ENDBRANCH  80  81
ENDBRANCH  52  75
BRANCH  64  85
ATOM     85  C   UNL A   1      39.858  34.081  37.409  1.00  0.00    -0.014 A 
ATOM     86  C   UNL A   1      39.017  33.742  38.483  1.00  0.00     0.010 A 
ATOM     87  C   UNL A   1      40.551  35.307  37.441  1.00  0.00     0.010 A 
ATOM     88  C   UNL A   1      38.863  34.619  39.562  1.00  0.00     0.020 A 
ATOM     89  C   UNL A   1      40.418  36.174  38.528  1.00  0.00     0.020 A 
ATOM     90  C   UNL A   1      39.567  35.827  39.579  1.00  0.00     0.054 A 
BRANCH  90  91
ATOM     91  S   UNL A   1      39.405  36.916  41.021  1.00  0.00     0.124 S 
ATOM     92  O   UNL A   1      40.792  37.297  41.273  1.00  0.00    -0.237 OA
ATOM     93  O   UNL A   1      38.541  37.984  40.522  1.00  0.00    -0.237 OA
ATOM     94  O   UNL A   1      38.799  36.059  42.037  1.00  0.00    -0.744 OA
ENDBRANCH  90  91
ENDBRANCH  64  85
ENDBRANCH  38  39
ENDBRANCH  31  33
ENDBRANCH  30  31
ENDBRANCH  29  30
ENDBRANCH  28  29
ENDBRANCH  27  28
ENDBRANCH   1  27
TORSDOF 22
ENDMDL
MODEL 3
REMARK VINA RESULT:      -9.8      1.878      2.792
REMARK SMILES O=C(C[C@@H]1C[N@@H+]([C@@H]2CCOc3ccccc32)CCO1)OCCOCCOCCOC(=O)c1ccc(-c2c3nc(c(-c4ccc(S(=O)(=O)[O-])cc4)c4ccc([nH]4)c(-c4ccc(S(=O)(=O)[O-])cc4)c4nc(c(-c5ccc(S(=O)(=O)[O-])cc5)c5ccc2[nH]5)C=C4)C=C3)cc1
REMARK SMILES IDX 25 1 24 2 23 3 22 4 21 5 20 6 2 7 1 8 3 9 4 10 5 11 19 12
REMARK SMILES IDX 6 13 18 14 17 15 7 17 8 18 16 19 9 20 11 21 15 22 10 23
REMARK SMILES IDX 12 24 14 25 13 26 26 27 27 28 28 29 29 30 30 31 31 32 32 33
REMARK SMILES IDX 33 34 91 35 34 36 90 37 35 38 36 39 37 40 84 41 38 42 89 43
REMARK SMILES IDX 83 44 85 45 39 46 88 47 82 48 81 49 40 51 70 52 51 53 69 54
REMARK SMILES IDX 52 55 55 56 68 57 86 58 53 59 54 60 67 62 87 63 56 64 41 65
REMARK SMILES IDX 42 66 50 67 43 68 49 69 44 70 45 71 46 72 47 73 48 74 71 75
REMARK SMILES IDX 72 76 80 77 73 78 79 79 74 80 75 81 76 82 77 83 78 84 57 85
REMARK SMILES IDX 58 86 66 87 59 88 65 89 60 90 61 91 62 92 63 93 64 94
REMARK H PARENT 6 16 85 50 55 61
REMARK Flexibility Score: inf
ROOT
ATOM      1  C   UNL A   1      38.063  21.652  25.372  1.00  0.00     0.188 C 
ENDROOT
BRANCH   1   2
ATOM      2  C   UNL A   1      36.656  21.200  25.779  1.00  0.00     0.188 C 
BRANCH   2   3
ATOM      3  O   UNL A   1      35.980  20.432  24.808  1.00  0.00    -0.376 OA
BRANCH   3   4
ATOM      4  C   UNL A   1      34.569  20.429  24.759  1.00  0.00     0.202 C 
BRANCH   4   5
ATOM      5  C   UNL A   1      33.842  21.759  24.897  1.00  0.00     0.261 C 
BRANCH   5   6
ATOM      6  O   UNL A   1      33.430  22.459  23.696  1.00  0.00    -0.463 OA
BRANCH   6   7
ATOM      7  C   UNL A   1      34.141  23.294  22.904  1.00  0.00     0.308 C 
ATOM      8  O   UNL A   1      35.359  23.388  23.059  1.00  0.00    -0.252 OA
BRANCH   7   9
ATOM      9  C   UNL A   1      33.424  24.217  21.963  1.00  0.00     0.160 C 
BRANCH   9  10
ATOM     10  C   UNL A   1      33.322  25.647  22.452  1.00  0.00     0.184 C 
ATOM     11  C   UNL A   1      31.874  25.933  22.898  1.00  0.00     0.295 C 
ATOM     12  O   UNL A   1      33.685  26.574  21.421  1.00  0.00    -0.366 OA
ATOM     13  N   UNL A   1      31.653  27.304  23.375  1.00  0.00    -0.324 N 
ATOM     14  C   UNL A   1      33.625  27.924  21.897  1.00  0.00     0.222 C 
ATOM     15  C   UNL A   1      32.235  28.281  22.453  1.00  0.00     0.291 C 
ATOM     16  H   UNL A   1      30.649  27.485  23.340  1.00  0.00     0.348 HD
BRANCH  13  17
ATOM     17  C   UNL A   1      31.868  27.513  24.820  1.00  0.00     0.222 C 
ATOM     18  C   UNL A   1      33.261  28.002  25.255  1.00  0.00     0.112 C 
ATOM     19  C   UNL A   1      31.429  26.280  25.585  1.00  0.00     0.051 A 
ATOM     20  C   UNL A   1      33.886  27.164  26.360  1.00  0.00     0.236 C 
ATOM     21  C   UNL A   1      32.390  25.445  26.165  1.00  0.00     0.128 A 
ATOM     22  C   UNL A   1      30.083  25.885  25.594  1.00  0.00     0.014 A 
ATOM     23  O   UNL A   1      33.721  25.766  26.127  1.00  0.00    -0.493 OA
ATOM     24  C   UNL A   1      32.029  24.224  26.721  1.00  0.00     0.047 A 
ATOM     25  C   UNL A   1      29.715  24.670  26.166  1.00  0.00     0.001 A 
ATOM     26  C   UNL A   1      30.687  23.845  26.725  1.00  0.00     0.004 A 
ENDBRANCH  13  17
ENDBRANCH   9  10
ENDBRANCH   7   9
ENDBRANCH   6   7
ENDBRANCH   5   6
ENDBRANCH   4   5
ENDBRANCH   3   4
ENDBRANCH   2   3
ENDBRANCH   1   2
BRANCH   1  27
ATOM     27  O   UNL A   1      39.197  20.991  25.914  1.00  0.00    -0.376 OA
BRANCH  27  28
ATOM     28  C   UNL A   1      40.113  21.711  26.729  1.00  0.00     0.202 C 
BRANCH  28  29
ATOM     29  C   UNL A   1      41.510  22.025  26.177  1.00  0.00     0.261 C 
BRANCH  29  30
ATOM     30  O   UNL A   1      41.816  23.425  26.023  1.00  0.00    -0.460 OA
BRANCH  30  31
ATOM     31  C   UNL A   1      42.723  23.926  26.899  1.00  0.00     0.338 C 
ATOM     32  O   UNL A   1      43.865  23.537  27.068  1.00  0.00    -0.246 OA
BRANCH  31  33
ATOM     33  C   UNL A   1      42.197  25.132  27.579  1.00  0.00     0.060 A 
ATOM     34  C   UNL A   1      42.885  26.344  27.418  1.00  0.00     0.016 A 
ATOM     35  C   UNL A   1      41.119  25.049  28.462  1.00  0.00     0.016 A 
ATOM     36  C   UNL A   1      42.536  27.463  28.182  1.00  0.00     0.010 A 
ATOM     37  C   UNL A   1      40.788  26.163  29.243  1.00  0.00     0.010 A 
ATOM     38  C   UNL A   1      41.522  27.360  29.142  1.00  0.00    -0.014 A 
BRANCH  38  39
ATOM     39  C   UNL A   1      41.382  28.387  30.207  1.00  0.00     0.031 A 
ATOM     40  C   UNL A   1      42.274  28.280  31.416  1.00  0.00     0.074 A 
ATOM     41  C   UNL A   1      40.483  29.385  30.137  1.00  0.00     0.049 A 
ATOM     42  N   UNL A   1      42.237  28.952  32.538  1.00  0.00    -0.248 NA
ATOM     43  C   UNL A   1      43.351  27.280  31.345  1.00  0.00     0.031 C 
ATOM     44  C   UNL A   1      39.622  29.676  28.995  1.00  0.00     0.029 A 
ATOM     45  N   UNL A   1      40.138  30.332  31.073  1.00  0.00    -0.354 N 
ATOM     46  C   UNL A   1      43.272  28.442  33.315  1.00  0.00     0.074 A 
ATOM     47  C   UNL A   1      43.906  27.396  32.542  1.00  0.00     0.031 C 
ATOM     48  C   UNL A   1      38.828  30.716  29.310  1.00  0.00     0.029 A 
ATOM     49  C   UNL A   1      39.078  31.118  30.692  1.00  0.00     0.049 A 
ATOM     50  H   UNL A   1      40.607  30.438  31.932  1.00  0.00     0.167 HD
ATOM     51  C   UNL A   1      43.658  28.807  34.561  1.00  0.00     0.031 A 
ATOM     52  C   UNL A   1      38.356  32.024  31.384  1.00  0.00     0.031 A 
ATOM     53  C   UNL A   1      43.016  29.829  35.341  1.00  0.00     0.049 A 
ATOM     54  C   UNL A   1      38.722  32.336  32.809  1.00  0.00     0.074 A 
ATOM     55  C   UNL A   1      43.339  30.269  36.613  1.00  0.00     0.029 A 
ATOM     56  N   UNL A   1      41.916  30.564  34.930  1.00  0.00    -0.354 N 
ATOM     57  N   UNL A   1      39.690  31.837  33.538  1.00  0.00    -0.248 NA
ATOM     58  C   UNL A   1      37.904  33.344  33.501  1.00  0.00     0.031 C 
ATOM     59  C   UNL A   1      42.398  31.231  36.993  1.00  0.00     0.029 A 
ATOM     60  C   UNL A   1      41.529  31.436  35.933  1.00  0.00     0.049 A 
ATOM     61  H   UNL A   1      41.474  30.478  34.055  1.00  0.00     0.167 HD
ATOM     62  C   UNL A   1      39.624  32.499  34.761  1.00  0.00     0.074 A 
ATOM     63  C   UNL A   1      38.515  33.426  34.676  1.00  0.00     0.031 C 
ATOM     64  C   UNL A   1      40.425  32.360  35.844  1.00  0.00     0.031 A 
BRANCH  51  65
ATOM     65  C   UNL A   1      44.799  28.041  35.174  1.00  0.00    -0.014 A 
ATOM     66  C   UNL A   1      46.133  28.460  35.018  1.00  0.00     0.010 A 
ATOM     67  C   UNL A   1      44.529  26.878  35.920  1.00  0.00     0.010 A 
ATOM     68  C   UNL A   1      47.178  27.700  35.549  1.00  0.00     0.020 A 
ATOM     69  C   UNL A   1      45.570  26.132  36.476  1.00  0.00     0.020 A 
ATOM     70  C   UNL A   1      46.890  26.535  36.267  1.00  0.00     0.054 A 
BRANCH  70  71
ATOM     71  S   UNL A   1      48.263  25.558  36.936  1.00  0.00     0.124 S 
ATOM     72  O   UNL A   1      48.007  25.624  38.373  1.00  0.00    -0.237 OA
ATOM     73  O   UNL A   1      48.056  24.249  36.321  1.00  0.00    -0.237 OA
ATOM     74  O   UNL A   1      49.451  26.274  36.482  1.00  0.00    -0.744 OA
ENDBRANCH  70  71
ENDBRANCH  51  65
BRANCH  52  75
ATOM     75  C   UNL A   1      37.177  32.671  30.750  1.00  0.00    -0.014 A 
ATOM     76  C   UNL A   1      37.332  33.780  29.902  1.00  0.00     0.010 A 
ATOM     77  C   UNL A   1      35.885  32.165  30.984  1.00  0.00     0.010 A 
ATOM     78  C   UNL A   1      36.219  34.362  29.286  1.00  0.00     0.020 A 
ATOM     79  C   UNL A   1      34.772  32.730  30.353  1.00  0.00     0.020 A 
ATOM     80  C   UNL A   1      34.947  33.825  29.506  1.00  0.00     0.054 A 
BRANCH  80  81
ATOM     81  S   UNL A   1      33.529  34.532  28.619  1.00  0.00     0.124 S 
ATOM     82  O   UNL A   1      34.138  35.664  27.927  1.00  0.00    -0.237 OA
ATOM     83  O   UNL A   1      33.105  33.423  27.768  1.00  0.00    -0.237 OA
ATOM     84  O   UNL A   1      32.596  34.881  29.688  1.00  0.00    -0.744 OA
ENDBRANCH  80  81
ENDBRANCH  52  75
BRANCH  64  85
ATOM     85  C   UNL A   1      40.181  33.266  37.021  1.00  0.00    -0.014 A 
ATOM     86  C   UNL A   1      40.854  34.493  37.159  1.00  0.00     0.010 A 
ATOM     87  C   UNL A   1      39.194  32.915  37.963  1.00  0.00     0.010 A 
ATOM     88  C   UNL A   1      40.554  35.345  38.226  1.00  0.00     0.020 A 
ATOM     89  C   UNL A   1      38.876  33.775  39.017  1.00  0.00     0.020 A 
ATOM     90  C   UNL A   1      39.564  34.983  39.146  1.00  0.00     0.054 A 
BRANCH  90  91
ATOM     91  S   UNL A   1      39.145  36.136  40.482  1.00  0.00     0.124 S 
ATOM     92  O   UNL A   1      38.690  37.309  39.741  1.00  0.00    -0.237 OA
ATOM     93  O   UNL A   1      38.107  35.414  41.215  1.00  0.00    -0.237 OA
ATOM     94  O   UNL A   1      40.404  36.304  41.204  1.00  0.00    -0.744 OA
ENDBRANCH  90  91
ENDBRANCH  64  85
ENDBRANCH  38  39
ENDBRANCH  31  33
ENDBRANCH  30  31
ENDBRANCH  29  30
ENDBRANCH  28  29
ENDBRANCH  27  28
ENDBRANCH   1  27
TORSDOF 22
ENDMDL
