MODEL 1
REMARK VINA RESULT:      -8.7      0.000      0.000
REMARK SMILES CN1C(=O)C[C@@H](C(=O)OCCOCCOCCOC(=O)c2ccc(-c3c4nc(c(-c5ccc(S(=O)(=O)[O-])cc5)c5ccc([nH]5)c(-c5ccc(S(=O)(=O)[O-])cc5)c5nc(c(-c6ccc(S(=O)(=O)[O-])cc6)c6ccc3[nH]6)C=C5)C=C4)cc2)C12CCN(c1ccc(Cl)cn1)CC2
REMARK SMILES IDX 14 1 13 2 12 3 11 4 10 5 9 6 7 7 8 8 6 9 1 10 2 11 3 12
REMARK SMILES IDX 81 13 4 14 5 15 82 16 93 17 83 18 92 19 84 20 85 21 86 22
REMARK SMILES IDX 91 23 87 24 90 25 88 26 89 27 15 28 16 29 17 30 18 31 19 32
REMARK SMILES IDX 20 33 21 34 22 35 80 36 23 37 79 38 24 39 25 40 26 41 73 42
REMARK SMILES IDX 27 43 78 44 72 45 74 46 28 47 77 48 71 49 70 50 29 52 59 53
REMARK SMILES IDX 40 54 58 55 41 56 44 57 57 58 75 59 42 60 43 61 56 63 76 64
REMARK SMILES IDX 45 65 30 66 31 67 39 68 32 69 38 70 33 71 34 72 35 73 36 74
REMARK SMILES IDX 37 75 60 76 61 77 69 78 62 79 68 80 63 81 64 82 65 83 66 84
REMARK SMILES IDX 67 85 46 86 47 87 55 88 48 89 54 90 49 91 50 92 51 93 52 94
REMARK SMILES IDX 53 95
REMARK H PARENT 74 51 44 62
REMARK Flexibility Score: inf
ROOT
ATOM      1  C   UNL A   1      34.805  33.546  28.401  1.00  0.00     0.188 C 
ENDROOT
BRANCH   1   2
ATOM      2  C   UNL A   1      34.310  34.660  29.311  1.00  0.00     0.188 C 
BRANCH   2   3
ATOM      3  O   UNL A   1      33.656  34.313  30.520  1.00  0.00    -0.376 OA
BRANCH   3   4
ATOM      4  C   UNL A   1      34.423  33.853  31.621  1.00  0.00     0.202 C 
BRANCH   4   5
ATOM      5  C   UNL A   1      35.061  34.912  32.541  1.00  0.00     0.261 C 
BRANCH   5   6
ATOM      6  O   UNL A   1      36.454  34.734  32.938  1.00  0.00    -0.463 OA
BRANCH   6   7
ATOM      7  C   UNL A   1      36.713  33.583  33.605  1.00  0.00     0.311 C 
ATOM      8  O   UNL A   1      36.241  33.342  34.715  1.00  0.00    -0.252 OA
BRANCH   7   9
ATOM      9  C   UNL A   1      37.723  32.596  33.008  1.00  0.00     0.134 C 
ATOM     10  C   UNL A   1      40.715  31.460  34.979  1.00  0.00     0.147 C 
ATOM     11  N   UNL A   1      39.457  31.625  34.269  1.00  0.00    -0.339 N 
ATOM     12  C   UNL A   1      38.325  30.892  34.582  1.00  0.00     0.223 C 
ATOM     13  C   UNL A   1      39.283  32.510  33.105  1.00  0.00     0.060 C 
ATOM     14  O   UNL A   1      38.206  30.089  35.481  1.00  0.00    -0.275 OA
ATOM     15  C   UNL A   1      37.267  31.229  33.566  1.00  0.00     0.118 C 
ATOM     16  C   UNL A   1      40.121  33.784  33.296  1.00  0.00     0.051 C 
ATOM     17  C   UNL A   1      39.816  31.763  31.813  1.00  0.00     0.051 C 
ATOM     18  C   UNL A   1      40.257  34.599  32.031  1.00  0.00     0.120 C 
ATOM     19  C   UNL A   1      40.036  32.660  30.576  1.00  0.00     0.120 C 
ATOM     20  N   UNL A   1      40.854  33.800  30.973  1.00  0.00    -0.356 N 
BRANCH  20  21
ATOM     21  C   UNL A   1      41.497  34.533  29.969  1.00  0.00     0.128 A 
ATOM     22  C   UNL A   1      42.861  34.827  30.099  1.00  0.00     0.048 A 
ATOM     23  N   UNL A   1      40.797  34.996  28.912  1.00  0.00    -0.238 NA
ATOM     24  C   UNL A   1      43.503  35.663  29.183  1.00  0.00     0.026 A 
ATOM     25  C   UNL A   1      41.445  35.803  28.020  1.00  0.00     0.134 A 
ATOM     26  C   UNL A   1      42.774  36.173  28.125  1.00  0.00     0.059 A 
ATOM     27  Cl  UNL A   1      43.516  37.230  26.998  1.00  0.00    -0.083 Cl
ENDBRANCH  20  21
ENDBRANCH   7   9
ENDBRANCH   6   7
ENDBRANCH   5   6
ENDBRANCH   4   5
ENDBRANCH   3   4
ENDBRANCH   2   3
ENDBRANCH   1   2
BRANCH   1  28
ATOM     28  O   UNL A   1      33.857  32.532  28.129  1.00  0.00    -0.376 OA
BRANCH  28  29
ATOM     29  C   UNL A   1      34.427  31.250  27.912  1.00  0.00     0.202 C 
BRANCH  29  30
ATOM     30  C   UNL A   1      35.852  31.221  28.478  1.00  0.00     0.261 C 
BRANCH  30  31
ATOM     31  O   UNL A   1      36.556  29.976  28.267  1.00  0.00    -0.460 OA
BRANCH  31  32
ATOM     32  C   UNL A   1      37.319  29.546  29.300  1.00  0.00     0.338 C 
ATOM     33  O   UNL A   1      36.939  29.360  30.443  1.00  0.00    -0.246 OA
BRANCH  32  34
ATOM     34  C   UNL A   1      38.652  29.147  28.797  1.00  0.00     0.060 A 
ATOM     35  C   UNL A   1      39.636  28.760  29.708  1.00  0.00     0.016 A 
ATOM     36  C   UNL A   1      38.975  29.259  27.450  1.00  0.00     0.016 A 
ATOM     37  C   UNL A   1      40.954  28.556  29.312  1.00  0.00     0.010 A 
ATOM     38  C   UNL A   1      40.298  29.028  27.042  1.00  0.00     0.010 A 
ATOM     39  C   UNL A   1      41.308  28.720  27.976  1.00  0.00    -0.014 A 
BRANCH  39  40
ATOM     40  C   UNL A   1      42.745  28.732  27.590  1.00  0.00     0.031 A 
ATOM     41  C   UNL A   1      43.366  27.469  27.047  1.00  0.00     0.074 A 
ATOM     42  C   UNL A   1      43.482  29.858  27.656  1.00  0.00     0.049 A 
ATOM     43  N   UNL A   1      44.612  27.220  26.740  1.00  0.00    -0.248 NA
ATOM     44  C   UNL A   1      42.453  26.342  26.802  1.00  0.00     0.031 C 
ATOM     45  C   UNL A   1      42.987  31.181  28.042  1.00  0.00     0.029 A 
ATOM     46  N   UNL A   1      44.817  30.064  27.404  1.00  0.00    -0.354 N 
ATOM     47  C   UNL A   1      44.634  25.905  26.286  1.00  0.00     0.074 A 
ATOM     48  C   UNL A   1      43.281  25.404  26.367  1.00  0.00     0.031 C 
ATOM     49  C   UNL A   1      44.006  32.056  28.011  1.00  0.00     0.029 A 
ATOM     50  C   UNL A   1      45.236  31.345  27.679  1.00  0.00     0.049 A 
ATOM     51  H   UNL A   1      45.414  29.363  27.058  1.00  0.00     0.167 HD
ATOM     52  C   UNL A   1      45.687  25.171  25.853  1.00  0.00     0.031 A 
ATOM     53  C   UNL A   1      46.477  31.872  27.713  1.00  0.00     0.031 A 
ATOM     54  C   UNL A   1      47.041  25.652  25.825  1.00  0.00     0.049 A 
ATOM     55  C   UNL A   1      47.657  30.991  27.396  1.00  0.00     0.074 A 
ATOM     56  C   UNL A   1      48.189  24.973  25.458  1.00  0.00     0.029 A 
ATOM     57  N   UNL A   1      47.432  26.930  26.197  1.00  0.00    -0.354 N 
ATOM     58  N   UNL A   1      47.670  29.739  27.006  1.00  0.00    -0.248 NA
ATOM     59  C   UNL A   1      48.990  31.594  27.534  1.00  0.00     0.031 C 
ATOM     60  C   UNL A   1      49.282  25.816  25.683  1.00  0.00     0.029 A 
ATOM     61  C   UNL A   1      48.808  27.046  26.109  1.00  0.00     0.049 A 
ATOM     62  H   UNL A   1      46.821  27.647  26.480  1.00  0.00     0.167 HD
ATOM     63  C   UNL A   1      49.011  29.413  26.819  1.00  0.00     0.074 A 
ATOM     64  C   UNL A   1      49.776  30.603  27.131  1.00  0.00     0.031 C 
ATOM     65  C   UNL A   1      49.557  28.237  26.422  1.00  0.00     0.031 A 
BRANCH  52  66
ATOM     66  C   UNL A   1      45.419  23.742  25.459  1.00  0.00    -0.014 A 
ATOM     67  C   UNL A   1      45.482  22.695  26.396  1.00  0.00     0.010 A 
ATOM     68  C   UNL A   1      45.085  23.447  24.125  1.00  0.00     0.010 A 
ATOM     69  C   UNL A   1      45.252  21.374  25.997  1.00  0.00     0.020 A 
ATOM     70  C   UNL A   1      44.827  22.133  23.727  1.00  0.00     0.020 A 
ATOM     71  C   UNL A   1      44.928  21.102  24.664  1.00  0.00     0.054 A 
BRANCH  71  72
ATOM     72  S   UNL A   1      44.623  19.382  24.174  1.00  0.00     0.124 S 
ATOM     73  O   UNL A   1      43.326  19.118  24.791  1.00  0.00    -0.237 OA
ATOM     74  O   UNL A   1      44.619  19.462  22.715  1.00  0.00    -0.237 OA
ATOM     75  O   UNL A   1      45.747  18.650  24.752  1.00  0.00    -0.744 OA
ENDBRANCH  71  72
ENDBRANCH  52  66
BRANCH  53  76
ATOM     76  C   UNL A   1      46.674  33.290  28.130  1.00  0.00    -0.014 A 
ATOM     77  C   UNL A   1      46.891  33.623  29.479  1.00  0.00     0.010 A 
ATOM     78  C   UNL A   1      46.637  34.321  27.173  1.00  0.00     0.010 A 
ATOM     79  C   UNL A   1      47.054  34.957  29.863  1.00  0.00     0.020 A 
ATOM     80  C   UNL A   1      46.833  35.654  27.547  1.00  0.00     0.020 A 
ATOM     81  C   UNL A   1      47.030  35.965  28.893  1.00  0.00     0.054 A 
BRANCH  81  82
ATOM     82  S   UNL A   1      47.295  37.684  29.408  1.00  0.00     0.124 S 
ATOM     83  O   UNL A   1      48.337  38.121  28.483  1.00  0.00    -0.237 OA
ATOM     84  O   UNL A   1      45.978  38.280  29.204  1.00  0.00    -0.237 OA
ATOM     85  O   UNL A   1      47.708  37.564  30.805  1.00  0.00    -0.744 OA
ENDBRANCH  81  82
ENDBRANCH  53  76
BRANCH  65  86
ATOM     86  C   UNL A   1      51.053  28.186  26.249  1.00  0.00    -0.014 A 
ATOM     87  C   UNL A   1      51.668  28.541  25.035  1.00  0.00     0.010 A 
ATOM     88  C   UNL A   1      51.860  27.835  27.348  1.00  0.00     0.010 A 
ATOM     89  C   UNL A   1      53.060  28.511  24.915  1.00  0.00     0.020 A 
ATOM     90  C   UNL A   1      53.252  27.837  27.241  1.00  0.00     0.020 A 
ATOM     91  C   UNL A   1      53.844  28.162  26.020  1.00  0.00     0.054 A 
BRANCH  91  92
ATOM     92  S   UNL A   1      55.648  28.177  25.851  1.00  0.00     0.124 S 
ATOM     93  O   UNL A   1      55.876  29.424  25.128  1.00  0.00    -0.237 OA
ATOM     94  O   UNL A   1      56.100  28.163  27.240  1.00  0.00    -0.237 OA
ATOM     95  O   UNL A   1      55.936  26.959  25.097  1.00  0.00    -0.744 OA
ENDBRANCH  91  92
ENDBRANCH  65  86
ENDBRANCH  39  40
ENDBRANCH  32  34
ENDBRANCH  31  32
ENDBRANCH  30  31
ENDBRANCH  29  30
ENDBRANCH  28  29
ENDBRANCH   1  28
TORSDOF 21
ENDMDL
MODEL 2
REMARK VINA RESULT:      -8.7      6.684     13.007
REMARK SMILES CN1C(=O)C[C@@H](C(=O)OCCOCCOCCOC(=O)c2ccc(-c3c4nc(c(-c5ccc(S(=O)(=O)[O-])cc5)c5ccc([nH]5)c(-c5ccc(S(=O)(=O)[O-])cc5)c5nc(c(-c6ccc(S(=O)(=O)[O-])cc6)c6ccc3[nH]6)C=C5)C=C4)cc2)C12CCN(c1ccc(Cl)cn1)CC2
REMARK SMILES IDX 14 1 13 2 12 3 11 4 10 5 9 6 7 7 8 8 6 9 1 10 2 11 3 12
REMARK SMILES IDX 81 13 4 14 5 15 82 16 93 17 83 18 92 19 84 20 85 21 86 22
REMARK SMILES IDX 91 23 87 24 90 25 88 26 89 27 15 28 16 29 17 30 18 31 19 32
REMARK SMILES IDX 20 33 21 34 22 35 80 36 23 37 79 38 24 39 25 40 26 41 73 42
REMARK SMILES IDX 27 43 78 44 72 45 74 46 28 47 77 48 71 49 70 50 29 52 59 53
REMARK SMILES IDX 40 54 58 55 41 56 44 57 57 58 75 59 42 60 43 61 56 63 76 64
REMARK SMILES IDX 45 65 30 66 31 67 39 68 32 69 38 70 33 71 34 72 35 73 36 74
REMARK SMILES IDX 37 75 60 76 61 77 69 78 62 79 68 80 63 81 64 82 65 83 66 84
REMARK SMILES IDX 67 85 46 86 47 87 55 88 48 89 54 90 49 91 50 92 51 93 52 94
REMARK SMILES IDX 53 95
REMARK H PARENT 74 51 44 62
REMARK Flexibility Score: inf
ROOT
ATOM      1  C   UNL A   1      33.411  34.084  28.768  1.00  0.00     0.188 C 
ENDROOT
BRANCH   1   2
ATOM      2  C   UNL A   1      32.985  33.052  27.734  1.00  0.00     0.188 C 
BRANCH   2   3
ATOM      3  O   UNL A   1      31.727  33.204  27.097  1.00  0.00    -0.376 OA
BRANCH   3   4
ATOM      4  C   UNL A   1      31.239  32.169  26.260  1.00  0.00     0.202 C 
BRANCH   4   5
ATOM      5  C   UNL A   1      31.845  30.762  26.434  1.00  0.00     0.261 C 
BRANCH   5   6
ATOM      6  O   UNL A   1      31.350  29.687  25.580  1.00  0.00    -0.463 OA
BRANCH   6   7
ATOM      7  C   UNL A   1      32.262  29.183  24.714  1.00  0.00     0.311 C 
ATOM      8  O   UNL A   1      33.428  29.573  24.679  1.00  0.00    -0.252 OA
BRANCH   7   9
ATOM      9  C   UNL A   1      31.798  28.171  23.660  1.00  0.00     0.134 C 
ATOM     10  C   UNL A   1      28.501  26.398  23.998  1.00  0.00     0.147 C 
ATOM     11  N   UNL A   1      29.638  27.235  23.652  1.00  0.00    -0.339 N 
ATOM     12  C   UNL A   1      29.493  28.490  23.086  1.00  0.00     0.223 C 
ATOM     13  C   UNL A   1      31.041  26.806  23.782  1.00  0.00     0.060 C 
ATOM     14  O   UNL A   1      28.453  29.069  22.860  1.00  0.00    -0.275 OA
ATOM     15  C   UNL A   1      30.867  28.999  22.746  1.00  0.00     0.118 C 
ATOM     16  C   UNL A   1      31.199  25.941  25.042  1.00  0.00     0.051 C 
ATOM     17  C   UNL A   1      31.421  25.917  22.527  1.00  0.00     0.051 C 
ATOM     18  C   UNL A   1      32.516  25.200  25.090  1.00  0.00     0.120 C 
ATOM     19  C   UNL A   1      32.723  25.100  22.667  1.00  0.00     0.120 C 
ATOM     20  N   UNL A   1      32.666  24.353  23.918  1.00  0.00    -0.356 N 
BRANCH  20  21
ATOM     21  C   UNL A   1      33.535  23.267  24.080  1.00  0.00     0.128 A 
ATOM     22  C   UNL A   1      33.009  21.972  24.166  1.00  0.00     0.048 A 
ATOM     23  N   UNL A   1      34.864  23.474  24.202  1.00  0.00    -0.238 NA
ATOM     24  C   UNL A   1      33.833  20.883  24.455  1.00  0.00     0.026 A 
ATOM     25  C   UNL A   1      35.656  22.394  24.473  1.00  0.00     0.134 A 
ATOM     26  C   UNL A   1      35.187  21.101  24.625  1.00  0.00     0.059 A 
ATOM     27  Cl  UNL A   1      36.227  19.796  25.014  1.00  0.00    -0.083 Cl
ENDBRANCH  20  21
ENDBRANCH   7   9
ENDBRANCH   6   7
ENDBRANCH   5   6
ENDBRANCH   4   5
ENDBRANCH   3   4
ENDBRANCH   2   3
ENDBRANCH   1   2
BRANCH   1  28
ATOM     28  O   UNL A   1      32.660  35.283  28.758  1.00  0.00    -0.376 OA
BRANCH  28  29
ATOM     29  C   UNL A   1      33.325  36.385  29.357  1.00  0.00     0.202 C 
BRANCH  29  30
ATOM     30  C   UNL A   1      32.500  36.898  30.543  1.00  0.00     0.261 C 
BRANCH  30  31
ATOM     31  O   UNL A   1      33.091  36.645  31.839  1.00  0.00    -0.460 OA
BRANCH  31  32
ATOM     32  C   UNL A   1      32.888  35.407  32.349  1.00  0.00     0.338 C 
ATOM     33  O   UNL A   1      31.808  34.912  32.621  1.00  0.00    -0.246 OA
BRANCH  32  34
ATOM     34  C   UNL A   1      34.164  34.659  32.353  1.00  0.00     0.060 A 
ATOM     35  C   UNL A   1      34.164  33.314  32.729  1.00  0.00     0.016 A 
ATOM     36  C   UNL A   1      35.372  35.297  32.101  1.00  0.00     0.016 A 
ATOM     37  C   UNL A   1      35.351  32.616  32.931  1.00  0.00     0.010 A 
ATOM     38  C   UNL A   1      36.571  34.588  32.277  1.00  0.00     0.010 A 
ATOM     39  C   UNL A   1      36.571  33.256  32.739  1.00  0.00    -0.014 A 
BRANCH  39  40
ATOM     40  C   UNL A   1      37.829  32.591  33.174  1.00  0.00     0.031 A 
ATOM     41  C   UNL A   1      38.328  32.818  34.580  1.00  0.00     0.074 A 
ATOM     42  C   UNL A   1      38.494  31.744  32.364  1.00  0.00     0.049 A 
ATOM     43  N   UNL A   1      39.440  32.423  35.143  1.00  0.00    -0.248 NA
ATOM     44  C   UNL A   1      37.443  33.580  35.475  1.00  0.00     0.031 C 
ATOM     45  C   UNL A   1      38.066  31.331  31.026  1.00  0.00     0.029 A 
ATOM     46  N   UNL A   1      39.683  31.082  32.551  1.00  0.00    -0.354 N 
ATOM     47  C   UNL A   1      39.396  32.905  36.447  1.00  0.00     0.074 A 
ATOM     48  C   UNL A   1      38.154  33.630  36.591  1.00  0.00     0.031 C 
ATOM     49  C   UNL A   1      38.984  30.496  30.511  1.00  0.00     0.029 A 
ATOM     50  C   UNL A   1      40.098  30.375  31.447  1.00  0.00     0.049 A 
ATOM     51  H   UNL A   1      40.188  31.110  33.395  1.00  0.00     0.167 HD
ATOM     52  C   UNL A   1      40.312  32.770  37.435  1.00  0.00     0.031 A 
ATOM     53  C   UNL A   1      41.265  29.748  31.194  1.00  0.00     0.031 A 
ATOM     54  C   UNL A   1      41.571  32.096  37.274  1.00  0.00     0.049 A 
ATOM     55  C   UNL A   1      42.344  29.758  32.246  1.00  0.00     0.074 A 
ATOM     56  C   UNL A   1      42.595  31.952  38.194  1.00  0.00     0.029 A 
ATOM     57  N   UNL A   1      41.988  31.471  36.109  1.00  0.00    -0.354 N 
ATOM     58  N   UNL A   1      42.307  30.250  33.461  1.00  0.00    -0.248 NA
ATOM     59  C   UNL A   1      43.626  29.136  31.886  1.00  0.00     0.031 C 
ATOM     60  C   UNL A   1      43.661  31.307  37.559  1.00  0.00     0.029 A 
ATOM     61  C   UNL A   1      43.270  30.975  36.271  1.00  0.00     0.049 A 
ATOM     62  H   UNL A   1      41.450  31.390  35.288  1.00  0.00     0.167 HD
ATOM     63  C   UNL A   1      43.549  29.967  34.023  1.00  0.00     0.074 A 
ATOM     64  C   UNL A   1      44.308  29.254  33.017  1.00  0.00     0.031 C 
ATOM     65  C   UNL A   1      44.015  30.266  35.261  1.00  0.00     0.031 A 
BRANCH  52  66
ATOM     66  C   UNL A   1      40.015  33.443  38.750  1.00  0.00    -0.014 A 
ATOM     67  C   UNL A   1      40.518  34.720  39.055  1.00  0.00     0.010 A 
ATOM     68  C   UNL A   1      39.204  32.785  39.692  1.00  0.00     0.010 A 
ATOM     69  C   UNL A   1      40.246  35.310  40.294  1.00  0.00     0.020 A 
ATOM     70  C   UNL A   1      38.906  33.382  40.920  1.00  0.00     0.020 A 
ATOM     71  C   UNL A   1      39.443  34.635  41.219  1.00  0.00     0.054 A 
BRANCH  71  72
ATOM     72  S   UNL A   1      39.095  35.427  42.814  1.00  0.00     0.124 S 
ATOM     73  O   UNL A   1      37.647  35.264  42.922  1.00  0.00    -0.237 OA
ATOM     74  O   UNL A   1      39.887  34.629  43.746  1.00  0.00    -0.237 OA
ATOM     75  O   UNL A   1      39.553  36.801  42.628  1.00  0.00    -0.744 OA
ENDBRANCH  71  72
ENDBRANCH  52  66
BRANCH  53  76
ATOM     76  C   UNL A   1      41.502  29.119  29.864  1.00  0.00    -0.014 A 
ATOM     77  C   UNL A   1      42.063  29.855  28.806  1.00  0.00     0.010 A 
ATOM     78  C   UNL A   1      41.157  27.771  29.647  1.00  0.00     0.010 A 
ATOM     79  C   UNL A   1      42.263  29.261  27.556  1.00  0.00     0.020 A 
ATOM     80  C   UNL A   1      41.385  27.163  28.409  1.00  0.00     0.020 A 
ATOM     81  C   UNL A   1      41.927  27.916  27.367  1.00  0.00     0.054 A 
BRANCH  81  82
ATOM     82  S   UNL A   1      42.243  27.153  25.752  1.00  0.00     0.124 S 
ATOM     83  O   UNL A   1      43.501  26.451  25.987  1.00  0.00    -0.237 OA
ATOM     84  O   UNL A   1      41.068  26.303  25.571  1.00  0.00    -0.237 OA
ATOM     85  O   UNL A   1      42.323  28.294  24.843  1.00  0.00    -0.744 OA
ENDBRANCH  81  82
ENDBRANCH  53  76
BRANCH  65  86
ATOM     86  C   UNL A   1      45.395  29.782  35.624  1.00  0.00    -0.014 A 
ATOM     87  C   UNL A   1      45.603  28.518  36.202  1.00  0.00     0.010 A 
ATOM     88  C   UNL A   1      46.507  30.588  35.318  1.00  0.00     0.010 A 
ATOM     89  C   UNL A   1      46.898  28.084  36.500  1.00  0.00     0.020 A 
ATOM     90  C   UNL A   1      47.804  30.144  35.584  1.00  0.00     0.020 A 
ATOM     91  C   UNL A   1      47.991  28.899  36.187  1.00  0.00     0.054 A 
BRANCH  91  92
ATOM     92  S   UNL A   1      49.663  28.294  36.541  1.00  0.00     0.124 S 
ATOM     93  O   UNL A   1      49.881  28.779  37.900  1.00  0.00    -0.237 OA
ATOM     94  O   UNL A   1      49.514  26.847  36.406  1.00  0.00    -0.237 OA
ATOM     95  O   UNL A   1      50.486  28.928  35.513  1.00  0.00    -0.744 OA
ENDBRANCH  91  92
ENDBRANCH  65  86
ENDBRANCH  39  40
ENDBRANCH  32  34
ENDBRANCH  31  32
ENDBRANCH  30  31
ENDBRANCH  29  30
ENDBRANCH  28  29
ENDBRANCH   1  28
TORSDOF 21
ENDMDL
MODEL 3
REMARK VINA RESULT:      -8.6      6.838     13.180
REMARK SMILES CN1C(=O)C[C@@H](C(=O)OCCOCCOCCOC(=O)c2ccc(-c3c4nc(c(-c5ccc(S(=O)(=O)[O-])cc5)c5ccc([nH]5)c(-c5ccc(S(=O)(=O)[O-])cc5)c5nc(c(-c6ccc(S(=O)(=O)[O-])cc6)c6ccc3[nH]6)C=C5)C=C4)cc2)C12CCN(c1ccc(Cl)cn1)CC2
REMARK SMILES IDX 14 1 13 2 12 3 11 4 10 5 9 6 7 7 8 8 6 9 1 10 2 11 3 12
REMARK SMILES IDX 81 13 4 14 5 15 82 16 93 17 83 18 92 19 84 20 85 21 86 22
REMARK SMILES IDX 91 23 87 24 90 25 88 26 89 27 15 28 16 29 17 30 18 31 19 32
REMARK SMILES IDX 20 33 21 34 22 35 80 36 23 37 79 38 24 39 25 40 26 41 73 42
REMARK SMILES IDX 27 43 78 44 72 45 74 46 28 47 77 48 71 49 70 50 29 52 59 53
REMARK SMILES IDX 40 54 58 55 41 56 44 57 57 58 75 59 42 60 43 61 56 63 76 64
REMARK SMILES IDX 45 65 30 66 31 67 39 68 32 69 38 70 33 71 34 72 35 73 36 74
REMARK SMILES IDX 37 75 60 76 61 77 69 78 62 79 68 80 63 81 64 82 65 83 66 84
REMARK SMILES IDX 67 85 46 86 47 87 55 88 48 89 54 90 49 91 50 92 51 93 52 94
REMARK SMILES IDX 53 95
REMARK H PARENT 74 51 44 62
REMARK Flexibility Score: inf
ROOT
ATOM      1  C   UNL A   1      35.072  32.723  28.023  1.00  0.00     0.188 C 
ENDROOT
BRANCH   1   2
ATOM      2  C   UNL A   1      34.617  31.273  27.942  1.00  0.00     0.188 C 
BRANCH   2   3
ATOM      3  O   UNL A   1      33.462  30.963  27.182  1.00  0.00    -0.376 OA
BRANCH   3   4
ATOM      4  C   UNL A   1      33.454  29.801  26.367  1.00  0.00     0.202 C 
BRANCH   4   5
ATOM      5  C   UNL A   1      33.923  28.478  27.002  1.00  0.00     0.261 C 
BRANCH   5   6
ATOM      6  O   UNL A   1      33.210  27.253  26.654  1.00  0.00    -0.463 OA
BRANCH   6   7
ATOM      7  C   UNL A   1      31.872  27.295  26.862  1.00  0.00     0.311 C 
ATOM      8  O   UNL A   1      31.378  27.662  27.927  1.00  0.00    -0.252 OA
BRANCH   7   9
ATOM      9  C   UNL A   1      30.939  26.757  25.771  1.00  0.00     0.134 C 
ATOM     10  C   UNL A   1      32.317  25.280  22.601  1.00  0.00     0.147 C 
ATOM     11  N   UNL A   1      31.720  25.569  23.894  1.00  0.00    -0.339 N 
ATOM     12  C   UNL A   1      31.696  24.646  24.925  1.00  0.00     0.223 C 
ATOM     13  C   UNL A   1      31.010  26.821  24.208  1.00  0.00     0.060 C 
ATOM     14  O   UNL A   1      32.194  23.541  24.922  1.00  0.00    -0.275 OA
ATOM     15  C   UNL A   1      30.892  25.238  26.051  1.00  0.00     0.118 C 
ATOM     16  C   UNL A   1      31.710  27.998  23.511  1.00  0.00     0.051 C 
ATOM     17  C   UNL A   1      29.533  26.725  23.643  1.00  0.00     0.051 C 
ATOM     18  C   UNL A   1      30.884  29.263  23.512  1.00  0.00     0.120 C 
ATOM     19  C   UNL A   1      28.766  28.063  23.570  1.00  0.00     0.120 C 
ATOM     20  N   UNL A   1      29.600  29.034  22.869  1.00  0.00    -0.356 N 
BRANCH  20  21
ATOM     21  C   UNL A   1      28.986  30.179  22.349  1.00  0.00     0.128 A 
ATOM     22  C   UNL A   1      28.291  30.094  21.135  1.00  0.00     0.048 A 
ATOM     23  N   UNL A   1      29.106  31.363  22.985  1.00  0.00    -0.238 NA
ATOM     24  C   UNL A   1      27.776  31.239  20.524  1.00  0.00     0.026 A 
ATOM     25  C   UNL A   1      28.586  32.471  22.378  1.00  0.00     0.134 A 
ATOM     26  C   UNL A   1      27.939  32.458  21.154  1.00  0.00     0.059 A 
ATOM     27  Cl  UNL A   1      27.352  33.892  20.421  1.00  0.00    -0.083 Cl
ENDBRANCH  20  21
ENDBRANCH   7   9
ENDBRANCH   6   7
ENDBRANCH   5   6
ENDBRANCH   4   5
ENDBRANCH   3   4
ENDBRANCH   2   3
ENDBRANCH   1   2
BRANCH   1  28
ATOM     28  O   UNL A   1      34.046  33.680  27.847  1.00  0.00    -0.376 OA
BRANCH  28  29
ATOM     29  C   UNL A   1      34.407  34.994  28.246  1.00  0.00     0.202 C 
BRANCH  29  30
ATOM     30  C   UNL A   1      33.301  35.584  29.127  1.00  0.00     0.261 C 
BRANCH  30  31
ATOM     31  O   UNL A   1      32.940  34.767  30.264  1.00  0.00    -0.460 OA
BRANCH  31  32
ATOM     32  C   UNL A   1      32.997  35.377  31.472  1.00  0.00     0.338 C 
ATOM     33  O   UNL A   1      32.185  36.173  31.912  1.00  0.00    -0.246 OA
BRANCH  32  34
ATOM     34  C   UNL A   1      34.097  34.792  32.269  1.00  0.00     0.060 A 
ATOM     35  C   UNL A   1      35.273  35.523  32.448  1.00  0.00     0.016 A 
ATOM     36  C   UNL A   1      34.024  33.489  32.746  1.00  0.00     0.016 A 
ATOM     37  C   UNL A   1      36.403  34.952  33.025  1.00  0.00     0.010 A 
ATOM     38  C   UNL A   1      35.153  32.918  33.353  1.00  0.00     0.010 A 
ATOM     39  C   UNL A   1      36.367  33.629  33.455  1.00  0.00    -0.014 A 
BRANCH  39  40
ATOM     40  C   UNL A   1      37.628  32.948  33.855  1.00  0.00     0.031 A 
ATOM     41  C   UNL A   1      38.141  33.128  35.263  1.00  0.00     0.074 A 
ATOM     42  C   UNL A   1      38.284  32.129  33.010  1.00  0.00     0.049 A 
ATOM     43  N   UNL A   1      39.258  32.714  35.801  1.00  0.00    -0.248 NA
ATOM     44  C   UNL A   1      37.265  33.860  36.191  1.00  0.00     0.031 C 
ATOM     45  C   UNL A   1      37.842  31.761  31.663  1.00  0.00     0.029 A 
ATOM     46  N   UNL A   1      39.474  31.460  33.164  1.00  0.00    -0.354 N 
ATOM     47  C   UNL A   1      39.227  33.152  37.121  1.00  0.00     0.074 A 
ATOM     48  C   UNL A   1      37.987  33.872  37.301  1.00  0.00     0.031 C 
ATOM     49  C   UNL A   1      38.755  30.944  31.112  1.00  0.00     0.029 A 
ATOM     50  C   UNL A   1      39.878  30.791  32.032  1.00  0.00     0.049 A 
ATOM     51  H   UNL A   1      39.988  31.460  34.003  1.00  0.00     0.167 HD
ATOM     52  C   UNL A   1      40.152  32.983  38.095  1.00  0.00     0.031 A 
ATOM     53  C   UNL A   1      41.042  30.172  31.747  1.00  0.00     0.031 A 
ATOM     54  C   UNL A   1      41.410  32.315  37.899  1.00  0.00     0.049 A 
ATOM     55  C   UNL A   1      42.131  30.145  32.788  1.00  0.00     0.074 A 
ATOM     56  C   UNL A   1      42.442  32.139  38.803  1.00  0.00     0.029 A 
ATOM     57  N   UNL A   1      41.814  31.728  36.709  1.00  0.00    -0.354 N 
ATOM     58  N   UNL A   1      42.106  30.596  34.019  1.00  0.00    -0.248 NA
ATOM     59  C   UNL A   1      43.409  29.535  32.395  1.00  0.00     0.031 C 
ATOM     60  C   UNL A   1      43.501  31.515  38.136  1.00  0.00     0.029 A 
ATOM     61  C   UNL A   1      43.097  31.227  36.842  1.00  0.00     0.049 A 
ATOM     62  H   UNL A   1      41.269  31.675  35.892  1.00  0.00     0.167 HD
ATOM     63  C   UNL A   1      43.353  30.294  34.559  1.00  0.00     0.074 A 
ATOM     64  C   UNL A   1      44.102  29.615  33.523  1.00  0.00     0.031 C 
ATOM     65  C   UNL A   1      43.832  30.552  35.802  1.00  0.00     0.031 A 
BRANCH  52  66
ATOM     66  C   UNL A   1      39.869  33.611  39.435  1.00  0.00    -0.014 A 
ATOM     67  C   UNL A   1      39.091  32.955  40.406  1.00  0.00     0.010 A 
ATOM     68  C   UNL A   1      40.404  34.878  39.729  1.00  0.00     0.010 A 
ATOM     69  C   UNL A   1      38.823  33.573  41.632  1.00  0.00     0.020 A 
ATOM     70  C   UNL A   1      40.162  35.487  40.963  1.00  0.00     0.020 A 
ATOM     71  C   UNL A   1      39.359  34.837  41.901  1.00  0.00     0.054 A 
BRANCH  71  72
ATOM     72  S   UNL A   1      39.007  35.611  43.504  1.00  0.00     0.124 S 
ATOM     73  O   UNL A   1      39.473  36.978  43.287  1.00  0.00    -0.237 OA
ATOM     74  O   UNL A   1      37.560  35.452  43.624  1.00  0.00    -0.237 OA
ATOM     75  O   UNL A   1      39.797  34.828  44.450  1.00  0.00    -0.744 OA
ENDBRANCH  71  72
ENDBRANCH  52  66
BRANCH  53  76
ATOM     76  C   UNL A   1      41.265  29.587  30.395  1.00  0.00    -0.014 A 
ATOM     77  C   UNL A   1      40.746  28.324  30.059  1.00  0.00     0.010 A 
ATOM     78  C   UNL A   1      42.012  30.293  29.432  1.00  0.00     0.010 A 
ATOM     79  C   UNL A   1      40.978  27.776  28.793  1.00  0.00     0.020 A 
ATOM     80  C   UNL A   1      42.219  29.764  28.156  1.00  0.00     0.020 A 
ATOM     81  C   UNL A   1      41.710  28.502  27.847  1.00  0.00     0.054 A 
BRANCH  81  82
ATOM     82  S   UNL A   1      41.954  27.792  26.196  1.00  0.00     0.124 S 
ATOM     83  O   UNL A   1      41.904  28.976  25.345  1.00  0.00    -0.237 OA
ATOM     84  O   UNL A   1      43.263  27.155  26.319  1.00  0.00    -0.237 OA
ATOM     85  O   UNL A   1      40.831  26.868  26.050  1.00  0.00    -0.744 OA
ENDBRANCH  81  82
ENDBRANCH  53  76
BRANCH  65  86
ATOM     86  C   UNL A   1      45.214  30.054  36.134  1.00  0.00    -0.014 A 
ATOM     87  C   UNL A   1      46.348  30.872  35.982  1.00  0.00     0.010 A 
ATOM     88  C   UNL A   1      45.369  28.762  36.669  1.00  0.00     0.010 A 
ATOM     89  C   UNL A   1      47.614  30.392  36.326  1.00  0.00     0.020 A 
ATOM     90  C   UNL A   1      46.628  28.291  37.046  1.00  0.00     0.020 A 
ATOM     91  C   UNL A   1      47.747  29.105  36.859  1.00  0.00     0.054 A 
BRANCH  91  92
ATOM     92  S   UNL A   1      49.395  28.524  37.341  1.00  0.00     0.124 S 
ATOM     93  O   UNL A   1      49.227  27.074  37.310  1.00  0.00    -0.237 OA
ATOM     94  O   UNL A   1      50.249  29.080  36.294  1.00  0.00    -0.237 OA
ATOM     95  O   UNL A   1      49.591  29.100  38.669  1.00  0.00    -0.744 OA
ENDBRANCH  91  92
ENDBRANCH  65  86
ENDBRANCH  39  40
ENDBRANCH  32  34
ENDBRANCH  31  32
ENDBRANCH  30  31
ENDBRANCH  29  30
ENDBRANCH  28  29
ENDBRANCH   1  28
TORSDOF 21
ENDMDL
