MODEL 1
REMARK VINA RESULT:     -10.6      0.000      0.000
REMARK SMILES Cc1ccc([S@TB4](=O)(=O)n2cc(C(=O)C(=O)NCC(=O)N[C@@H](Cc3c[nH]c4ccccc34)C(=O)OCCOCCOCCOC(=O)c3ccc(-c4c5nc(c(-c6ccc(S(=O)(=O)[O-])cc6)c6ccc([nH]6)c(-c6ccc(S(=O)(=O)[O-])cc6)c6nc(c(-c7ccc(S(=O)(=O)[O-])cc7)c7ccc4[nH]7)C=C6)C=C5)cc3)c3ccccc32)cc1
REMARK SMILES IDX 36 1 35 2 34 3 32 4 33 5 21 6 20 7 18 8 19 9 17 11 16 12
REMARK SMILES IDX 14 13 15 14 12 16 13 17 11 18 9 19 10 20 111 21 106 22
REMARK SMILES IDX 110 23 107 24 109 25 108 26 6 27 7 28 8 29 5 30 1 31 2 32
REMARK SMILES IDX 3 33 113 34 4 35 112 36 22 37 23 38 24 39 31 40 25 41 26 42
REMARK SMILES IDX 30 43 27 45 29 46 28 47 37 48 38 49 39 50 40 51 41 52 42 53
REMARK SMILES IDX 43 54 44 55 45 56 46 57 47 58 105 59 48 60 104 61 49 62
REMARK SMILES IDX 50 63 51 64 98 65 52 66 103 67 97 68 99 69 53 70 102 71
REMARK SMILES IDX 96 72 95 73 54 75 84 76 65 77 83 78 66 79 69 80 82 81 100 82
REMARK SMILES IDX 67 83 68 84 81 86 101 87 70 88 55 89 56 90 64 91 57 92 63 93
REMARK SMILES IDX 58 94 59 95 60 96 61 97 62 98 85 99 86 100 94 101 87 102
REMARK SMILES IDX 93 103 88 104 89 105 90 106 91 107 92 108 71 109 72 110
REMARK SMILES IDX 80 111 73 112 79 113 74 114 75 115 76 116 77 117 78 118
REMARK H PARENT 20 10 16 15 25 44 99 74 69 85
REMARK Flexibility Score: inf
ROOT
ATOM      1  C   UNL A   1      44.891  22.804  25.615  1.00  0.00     0.202 C 
ENDROOT
BRANCH   1   2
ATOM      2  C   UNL A   1      44.033  21.510  25.680  1.00  0.00     0.261 C 
BRANCH   2   3
ATOM      3  O   UNL A   1      42.247  21.160  25.341  1.00  0.00    -0.462 OA
BRANCH   3   4
ATOM      4  C   UNL A   1      40.771  20.981  26.139  1.00  0.00     0.329 C 
ATOM      5  O   UNL A   1      40.680  20.211  27.104  1.00  0.00    -0.250 OA
BRANCH   4   6
ATOM      6  C   UNL A   1      39.147  21.757  25.851  1.00  0.00     0.196 C 
BRANCH   6   7
ATOM      7  N   UNL A   1      37.759  21.227  25.479  1.00  0.00    -0.341 N 
ATOM      8  C   UNL A   1      36.452  21.585  25.621  1.00  0.00     0.240 C 
ATOM      9  O   UNL A   1      35.609  20.811  25.147  1.00  0.00    -0.273 OA
ATOM     10  H   UNL A   1      37.833  20.374  24.995  1.00  0.00     0.164 HD
BRANCH   8  11
ATOM     11  C   UNL A   1      36.006  22.871  26.298  1.00  0.00     0.216 C 
BRANCH  11  12
ATOM     12  N   UNL A   1      34.910  22.548  27.200  1.00  0.00    -0.340 N 
ATOM     13  C   UNL A   1      33.591  22.948  27.146  1.00  0.00     0.292 C 
ATOM     14  O   UNL A   1      32.864  22.761  28.116  1.00  0.00    -0.265 OA
ATOM     15  H   UNL A   1      35.144  21.963  27.957  1.00  0.00     0.164 HD
BRANCH  13  16
ATOM     16  C   UNL A   1      33.036  23.579  25.861  1.00  0.00     0.252 C 
ATOM     17  O   UNL A   1      32.718  22.794  24.970  1.00  0.00    -0.283 OA
BRANCH  16  18
ATOM     18  C   UNL A   1      32.882  25.028  25.672  1.00  0.00     0.055 A 
ATOM     19  N   UNL A   1      33.247  27.196  25.317  1.00  0.00    -0.218 N 
ATOM     20  C   UNL A   1      33.814  26.065  25.851  1.00  0.00     0.126 A 
ATOM     21  C   UNL A   1      32.003  26.891  24.762  1.00  0.00     0.072 A 
ATOM     22  C   UNL A   1      31.652  25.648  25.239  1.00  0.00     0.013 A 
ATOM     23  C   UNL A   1      31.115  27.714  24.000  1.00  0.00     0.029 A 
ATOM     24  C   UNL A   1      30.303  25.272  25.042  1.00  0.00     0.011 A 
ATOM     25  C   UNL A   1      29.809  27.333  23.824  1.00  0.00     0.002 A 
ATOM     26  C   UNL A   1      29.397  26.139  24.379  1.00  0.00     0.001 A 
BRANCH  19  27
ATOM     27  S   UNL A   1      33.246  28.802  25.709  1.00  0.00     0.083 S 
ATOM     28  O   UNL A   1      33.401  29.340  24.356  1.00  0.00    -0.149 OA
ATOM     29  O   UNL A   1      34.327  28.605  26.680  1.00  0.00    -0.149 OA
BRANCH  27  30
ATOM     30  C   UNL A   1      32.849  30.285  26.442  1.00  0.00     0.111 A 
ATOM     31  C   UNL A   1      33.057  34.074  28.384  1.00  0.00     0.044 C 
ATOM     32  C   UNL A   1      32.962  32.756  27.693  1.00  0.00    -0.051 A 
ATOM     33  C   UNL A   1      34.089  31.961  27.753  1.00  0.00     0.005 A 
ATOM     34  C   UNL A   1      31.801  32.316  27.002  1.00  0.00     0.005 A 
ATOM     35  C   UNL A   1      34.027  30.757  27.120  1.00  0.00     0.030 A 
ATOM     36  C   UNL A   1      31.731  31.066  26.360  1.00  0.00     0.030 A 
ENDBRANCH  27  30
ENDBRANCH  19  27
ENDBRANCH  16  18
ENDBRANCH  13  16
ENDBRANCH  11  12
ENDBRANCH   8  11
ENDBRANCH   6   7
BRANCH   6  37
ATOM     37  C   UNL A   1      38.878  23.226  26.635  1.00  0.00     0.074 C 
BRANCH  37  38
ATOM     38  C   UNL A   1      40.088  24.451  26.965  1.00  0.00    -0.020 A 
ATOM     39  C   UNL A   1      40.682  26.283  26.190  1.00  0.00     0.087 A 
ATOM     40  C   UNL A   1      41.498  24.064  28.207  1.00  0.00     0.003 A 
ATOM     41  N   UNL A   1      42.252  26.614  27.010  1.00  0.00    -0.361 N 
ATOM     42  C   UNL A   1      42.661  25.281  28.119  1.00  0.00     0.046 A 
ATOM     43  C   UNL A   1      41.857  22.867  28.838  1.00  0.00     0.010 A 
ATOM     44  H   UNL A   1      42.804  27.416  26.865  1.00  0.00     0.166 HD
ATOM     45  C   UNL A   1      43.962  24.949  28.515  1.00  0.00     0.026 A 
ATOM     46  C   UNL A   1      43.172  22.750  29.321  1.00  0.00     0.001 A 
ATOM     47  C   UNL A   1      44.173  23.727  29.145  1.00  0.00     0.002 A 
ENDBRANCH  37  38
ENDBRANCH   6  37
ENDBRANCH   4   6
ENDBRANCH   3   4
ENDBRANCH   2   3
ENDBRANCH   1   2
BRANCH   1  48
ATOM     48  O   UNL A   1      44.337  23.972  25.068  1.00  0.00    -0.376 OA
BRANCH  48  49
ATOM     49  C   UNL A   1      45.284  25.000  25.143  1.00  0.00     0.188 C 
BRANCH  49  50
ATOM     50  C   UNL A   1      46.726  24.558  25.052  1.00  0.00     0.188 C 
BRANCH  50  51
ATOM     51  O   UNL A   1      47.630  25.171  25.948  1.00  0.00    -0.376 OA
BRANCH  51  52
ATOM     52  C   UNL A   1      48.797  25.857  25.632  1.00  0.00     0.202 C 
BRANCH  52  53
ATOM     53  C   UNL A   1      49.081  26.742  26.794  1.00  0.00     0.261 C 
BRANCH  53  54
ATOM     54  O   UNL A   1      48.574  28.126  26.654  1.00  0.00    -0.460 OA
BRANCH  54  55
ATOM     55  C   UNL A   1      47.719  28.854  27.441  1.00  0.00     0.338 C 
ATOM     56  O   UNL A   1      46.995  28.299  28.263  1.00  0.00    -0.246 OA
BRANCH  55  57
ATOM     57  C   UNL A   1      47.745  30.352  27.407  1.00  0.00     0.060 A 
ATOM     58  C   UNL A   1      48.348  30.974  28.471  1.00  0.00     0.016 A 
ATOM     59  C   UNL A   1      46.965  31.128  26.544  1.00  0.00     0.016 A 
ATOM     60  C   UNL A   1      47.828  32.213  28.863  1.00  0.00     0.010 A 
ATOM     61  C   UNL A   1      46.407  32.365  26.974  1.00  0.00     0.010 A 
ATOM     62  C   UNL A   1      46.751  32.963  28.207  1.00  0.00    -0.014 A 
BRANCH  62  63
ATOM     63  C   UNL A   1      45.728  34.359  28.767  1.00  0.00     0.031 A 
ATOM     64  C   UNL A   1      46.607  35.438  28.664  1.00  0.00     0.074 A 
ATOM     65  C   UNL A   1      44.464  34.695  29.488  1.00  0.00     0.049 A 
ATOM     66  N   UNL A   1      46.283  36.845  29.013  1.00  0.00    -0.248 NA
ATOM     67  C   UNL A   1      48.312  35.071  27.739  1.00  0.00     0.031 C 
ATOM     68  C   UNL A   1      43.435  35.761  29.379  1.00  0.00     0.029 A 
ATOM     69  N   UNL A   1      43.609  33.800  30.191  1.00  0.00    -0.354 N 
ATOM     70  C   UNL A   1      47.523  37.997  28.277  1.00  0.00     0.074 A 
ATOM     71  C   UNL A   1      48.908  36.502  27.455  1.00  0.00     0.031 C 
ATOM     72  C   UNL A   1      42.322  35.501  30.145  1.00  0.00     0.029 A 
ATOM     73  C   UNL A   1      42.480  34.224  30.818  1.00  0.00     0.049 A 
ATOM     74  H   UNL A   1      43.842  32.844  30.224  1.00  0.00     0.167 HD
ATOM     75  C   UNL A   1      46.781  39.239  28.066  1.00  0.00     0.031 A 
ATOM     76  C   UNL A   1      42.287  33.790  32.100  1.00  0.00     0.031 A 
ATOM     77  C   UNL A   1      45.527  39.186  28.925  1.00  0.00     0.049 A 
ATOM     78  C   UNL A   1      42.915  35.046  32.822  1.00  0.00     0.074 A 
ATOM     79  C   UNL A   1      44.178  39.019  28.620  1.00  0.00     0.029 A 
ATOM     80  N   UNL A   1      45.612  38.906  30.298  1.00  0.00    -0.354 N 
ATOM     81  N   UNL A   1      43.830  35.838  32.281  1.00  0.00    -0.248 NA
ATOM     82  C   UNL A   1      42.307  35.665  33.997  1.00  0.00     0.031 C 
ATOM     83  C   UNL A   1      43.468  38.702  29.827  1.00  0.00     0.029 A 
ATOM     84  C   UNL A   1      44.390  38.502  30.850  1.00  0.00     0.049 A 
ATOM     85  H   UNL A   1      46.444  38.986  30.819  1.00  0.00     0.167 HD
ATOM     86  C   UNL A   1      43.745  37.095  32.824  1.00  0.00     0.074 A 
ATOM     87  C   UNL A   1      42.845  36.899  33.963  1.00  0.00     0.031 C 
ATOM     88  C   UNL A   1      44.249  38.269  32.303  1.00  0.00     0.031 A 
BRANCH  75  89
ATOM     89  C   UNL A   1      46.788  40.332  26.897  1.00  0.00    -0.014 A 
ATOM     90  C   UNL A   1      47.258  41.651  27.086  1.00  0.00     0.010 A 
ATOM     91  C   UNL A   1      46.295  40.157  25.594  1.00  0.00     0.010 A 
ATOM     92  C   UNL A   1      47.222  42.645  26.055  1.00  0.00     0.020 A 
ATOM     93  C   UNL A   1      46.178  41.105  24.584  1.00  0.00     0.020 A 
ATOM     94  C   UNL A   1      46.684  42.353  24.801  1.00  0.00     0.054 A 
BRANCH  94  95
ATOM     95  S   UNL A   1      46.703  43.501  23.409  1.00  0.00     0.124 S 
ATOM     96  O   UNL A   1      46.215  42.674  22.311  1.00  0.00    -0.237 OA
ATOM     97  O   UNL A   1      45.810  44.558  23.869  1.00  0.00    -0.237 OA
ATOM     98  O   UNL A   1      48.111  43.892  23.299  1.00  0.00    -0.744 OA
ENDBRANCH  94  95
ENDBRANCH  75  89
BRANCH  76  99
ATOM     99  C   UNL A   1      42.667  32.257  32.256  1.00  0.00    -0.014 A 
ATOM    100  C   UNL A   1      42.030  31.119  31.692  1.00  0.00     0.010 A 
ATOM    101  C   UNL A   1      43.962  31.971  32.649  1.00  0.00     0.010 A 
ATOM    102  C   UNL A   1      42.704  29.833  31.519  1.00  0.00     0.020 A 
ATOM    103  C   UNL A   1      44.698  30.802  32.329  1.00  0.00     0.020 A 
ATOM    104  C   UNL A   1      44.067  29.693  31.814  1.00  0.00     0.054 A 
BRANCH 104 105
ATOM    105  S   UNL A   1      45.119  28.225  31.415  1.00  0.00     0.124 S 
ATOM    106  O   UNL A   1      44.630  27.790  30.114  1.00  0.00    -0.237 OA
ATOM    107  O   UNL A   1      46.477  28.757  31.404  1.00  0.00    -0.237 OA
ATOM    108  O   UNL A   1      44.849  27.316  32.529  1.00  0.00    -0.744 OA
ENDBRANCH 104 105
ENDBRANCH  76  99
BRANCH  88 109
ATOM    109  C   UNL A   1      44.552  39.458  33.186  1.00  0.00    -0.014 A 
ATOM    110  C   UNL A   1      43.570  40.353  33.625  1.00  0.00     0.010 A 
ATOM    111  C   UNL A   1      45.852  39.616  33.729  1.00  0.00     0.010 A 
ATOM    112  C   UNL A   1      43.896  41.431  34.443  1.00  0.00     0.020 A 
ATOM    113  C   UNL A   1      46.164  40.619  34.637  1.00  0.00     0.020 A 
ATOM    114  C   UNL A   1      45.191  41.555  34.943  1.00  0.00     0.054 A 
BRANCH 114 115
ATOM    115  S   UNL A   1      45.575  42.955  36.003  1.00  0.00     0.124 S 
ATOM    116  O   UNL A   1      46.926  42.624  36.449  1.00  0.00    -0.237 OA
ATOM    117  O   UNL A   1      45.477  44.082  35.077  1.00  0.00    -0.237 OA
ATOM    118  O   UNL A   1      44.543  42.907  37.034  1.00  0.00    -0.744 OA
ENDBRANCH 114 115
ENDBRANCH  88 109
ENDBRANCH  62  63
ENDBRANCH  55  57
ENDBRANCH  54  55
ENDBRANCH  53  54
ENDBRANCH  52  53
ENDBRANCH  51  52
ENDBRANCH  50  51
ENDBRANCH  49  50
ENDBRANCH  48  49
ENDBRANCH   1  48
TORSDOF 29
ENDMDL
MODEL 2
REMARK VINA RESULT:     -10.4      7.034      9.770
REMARK SMILES Cc1ccc([S@TB4](=O)(=O)n2cc(C(=O)C(=O)NCC(=O)N[C@@H](Cc3c[nH]c4ccccc34)C(=O)OCCOCCOCCOC(=O)c3ccc(-c4c5nc(c(-c6ccc(S(=O)(=O)[O-])cc6)c6ccc([nH]6)c(-c6ccc(S(=O)(=O)[O-])cc6)c6nc(c(-c7ccc(S(=O)(=O)[O-])cc7)c7ccc4[nH]7)C=C6)C=C5)cc3)c3ccccc32)cc1
REMARK SMILES IDX 36 1 35 2 34 3 32 4 33 5 21 6 20 7 18 8 19 9 17 11 16 12
REMARK SMILES IDX 14 13 15 14 12 16 13 17 11 18 9 19 10 20 111 21 106 22
REMARK SMILES IDX 110 23 107 24 109 25 108 26 6 27 7 28 8 29 5 30 1 31 2 32
REMARK SMILES IDX 3 33 113 34 4 35 112 36 22 37 23 38 24 39 31 40 25 41 26 42
REMARK SMILES IDX 30 43 27 45 29 46 28 47 37 48 38 49 39 50 40 51 41 52 42 53
REMARK SMILES IDX 43 54 44 55 45 56 46 57 47 58 105 59 48 60 104 61 49 62
REMARK SMILES IDX 50 63 51 64 98 65 52 66 103 67 97 68 99 69 53 70 102 71
REMARK SMILES IDX 96 72 95 73 54 75 84 76 65 77 83 78 66 79 69 80 82 81 100 82
REMARK SMILES IDX 67 83 68 84 81 86 101 87 70 88 55 89 56 90 64 91 57 92 63 93
REMARK SMILES IDX 58 94 59 95 60 96 61 97 62 98 85 99 86 100 94 101 87 102
REMARK SMILES IDX 93 103 88 104 89 105 90 106 91 107 92 108 71 109 72 110
REMARK SMILES IDX 80 111 73 112 79 113 74 114 75 115 76 116 77 117 78 118
REMARK H PARENT 20 10 16 15 25 44 99 74 69 85
REMARK Flexibility Score: inf
ROOT
ATOM      1  C   UNL A   1      45.636  23.606  26.096  1.00  0.00     0.202 C 
ENDROOT
BRANCH   1   2
ATOM      2  C   UNL A   1      44.832  22.279  26.005  1.00  0.00     0.261 C 
BRANCH   2   3
ATOM      3  O   UNL A   1      43.097  21.885  25.490  1.00  0.00    -0.462 OA
BRANCH   3   4
ATOM      4  C   UNL A   1      41.628  21.359  26.130  1.00  0.00     0.329 C 
ATOM      5  O   UNL A   1      41.602  20.394  26.906  1.00  0.00    -0.250 OA
BRANCH   4   6
ATOM      6  C   UNL A   1      39.927  21.971  25.898  1.00  0.00     0.196 C 
BRANCH   6   7
ATOM      7  N   UNL A   1      38.651  21.380  25.293  1.00  0.00    -0.341 N 
ATOM      8  C   UNL A   1      37.303  21.584  25.338  1.00  0.00     0.240 C 
ATOM      9  O   UNL A   1      36.603  20.823  24.657  1.00  0.00    -0.273 OA
ATOM     10  H   UNL A   1      38.867  20.630  24.694  1.00  0.00     0.164 HD
BRANCH   8  11
ATOM     11  C   UNL A   1      36.652  22.691  26.151  1.00  0.00     0.216 C 
BRANCH  11  12
ATOM     12  N   UNL A   1      35.546  22.110  26.898  1.00  0.00    -0.340 N 
ATOM     13  C   UNL A   1      34.190  22.316  26.748  1.00  0.00     0.292 C 
ATOM     14  O   UNL A   1      33.420  21.915  27.613  1.00  0.00    -0.265 OA
ATOM     15  H   UNL A   1      35.802  21.481  27.612  1.00  0.00     0.164 HD
BRANCH  13  16
ATOM     16  C   UNL A   1      33.657  23.004  25.482  1.00  0.00     0.252 C 
ATOM     17  O   UNL A   1      33.525  22.285  24.495  1.00  0.00    -0.283 OA
BRANCH  16  18
ATOM     18  C   UNL A   1      33.318  24.432  25.419  1.00  0.00     0.055 A 
ATOM     19  N   UNL A   1      33.314  26.620  25.005  1.00  0.00    -0.218 N 
ATOM     20  C   UNL A   1      34.147  25.548  25.212  1.00  0.00     0.126 A 
ATOM     21  C   UNL A   1      31.983  26.202  25.027  1.00  0.00     0.072 A 
ATOM     22  C   UNL A   1      31.974  24.938  25.573  1.00  0.00     0.013 A 
ATOM     23  C   UNL A   1      30.789  26.937  24.742  1.00  0.00     0.029 A 
ATOM     24  C   UNL A   1      30.707  24.443  25.961  1.00  0.00     0.011 A 
ATOM     25  C   UNL A   1      29.569  26.442  25.131  1.00  0.00     0.002 A 
ATOM     26  C   UNL A   1      29.536  25.221  25.774  1.00  0.00     0.001 A 
BRANCH  19  27
ATOM     27  S   UNL A   1      33.348  28.223  25.406  1.00  0.00     0.083 S 
ATOM     28  O   UNL A   1      33.424  28.769  24.050  1.00  0.00    -0.149 OA
ATOM     29  O   UNL A   1      34.484  28.013  26.308  1.00  0.00    -0.149 OA
BRANCH  27  30
ATOM     30  C   UNL A   1      33.006  29.704  26.170  1.00  0.00     0.111 A 
ATOM     31  C   UNL A   1      33.342  33.391  28.284  1.00  0.00     0.044 C 
ATOM     32  C   UNL A   1      33.205  32.111  27.531  1.00  0.00    -0.051 A 
ATOM     33  C   UNL A   1      34.261  31.230  27.642  1.00  0.00     0.005 A 
ATOM     34  C   UNL A   1      32.071  31.788  26.737  1.00  0.00     0.005 A 
ATOM     35  C   UNL A   1      34.159  30.058  26.954  1.00  0.00     0.030 A 
ATOM     36  C   UNL A   1      31.959  30.572  26.038  1.00  0.00     0.030 A 
ENDBRANCH  27  30
ENDBRANCH  19  27
ENDBRANCH  16  18
ENDBRANCH  13  16
ENDBRANCH  11  12
ENDBRANCH   8  11
ENDBRANCH   6   7
BRANCH   6  37
ATOM     37  C   UNL A   1      39.410  23.154  26.984  1.00  0.00     0.074 C 
BRANCH  37  38
ATOM     38  C   UNL A   1      40.335  24.553  27.496  1.00  0.00    -0.020 A 
ATOM     39  C   UNL A   1      40.452  26.576  27.047  1.00  0.00     0.087 A 
ATOM     40  C   UNL A   1      41.875  24.299  28.612  1.00  0.00     0.003 A 
ATOM     41  N   UNL A   1      41.959  27.119  27.872  1.00  0.00    -0.361 N 
ATOM     42  C   UNL A   1      42.728  25.750  28.714  1.00  0.00     0.046 A 
ATOM     43  C   UNL A   1      42.534  23.130  29.010  1.00  0.00     0.010 A 
ATOM     44  H   UNL A   1      42.307  28.039  27.859  1.00  0.00     0.166 HD
ATOM     45  C   UNL A   1      44.094  25.667  29.010  1.00  0.00     0.026 A 
ATOM     46  C   UNL A   1      43.870  23.241  29.430  1.00  0.00     0.001 A 
ATOM     47  C   UNL A   1      44.614  24.438  29.406  1.00  0.00     0.002 A 
ENDBRANCH  37  38
ENDBRANCH   6  37
ENDBRANCH   4   6
ENDBRANCH   3   4
ENDBRANCH   2   3
ENDBRANCH   1   2
BRANCH   1  48
ATOM     48  O   UNL A   1      45.152  24.752  25.444  1.00  0.00    -0.376 OA
BRANCH  48  49
ATOM     49  C   UNL A   1      46.221  25.627  25.216  1.00  0.00     0.188 C 
BRANCH  49  50
ATOM     50  C   UNL A   1      47.323  25.086  24.337  1.00  0.00     0.188 C 
BRANCH  50  51
ATOM     51  O   UNL A   1      48.635  25.153  24.857  1.00  0.00    -0.376 OA
BRANCH  51  52
ATOM     52  C   UNL A   1      49.567  26.167  24.670  1.00  0.00     0.202 C 
BRANCH  52  53
ATOM     53  C   UNL A   1      50.489  26.099  25.836  1.00  0.00     0.261 C 
BRANCH  53  54
ATOM     54  O   UNL A   1      49.873  26.461  27.132  1.00  0.00    -0.460 OA
BRANCH  54  55
ATOM     55  C   UNL A   1      49.645  25.714  28.260  1.00  0.00     0.338 C 
ATOM     56  O   UNL A   1      49.815  24.497  28.252  1.00  0.00    -0.246 OA
BRANCH  55  57
ATOM     57  C   UNL A   1      49.313  26.382  29.559  1.00  0.00     0.060 A 
ATOM     58  C   UNL A   1      50.106  26.057  30.631  1.00  0.00     0.016 A 
ATOM     59  C   UNL A   1      48.114  27.057  29.806  1.00  0.00     0.016 A 
ATOM     60  C   UNL A   1      49.498  26.039  31.891  1.00  0.00     0.010 A 
ATOM     61  C   UNL A   1      47.486  26.992  31.082  1.00  0.00     0.010 A 
ATOM     62  C   UNL A   1      48.114  26.410  32.207  1.00  0.00    -0.014 A 
BRANCH  62  63
ATOM     63  C   UNL A   1      47.079  26.106  33.672  1.00  0.00     0.031 A 
ATOM     64  C   UNL A   1      46.750  27.399  34.082  1.00  0.00     0.074 A 
ATOM     65  C   UNL A   1      46.700  25.057  34.665  1.00  0.00     0.049 A 
ATOM     66  N   UNL A   1      45.913  27.737  35.262  1.00  0.00    -0.248 NA
ATOM     67  C   UNL A   1      47.235  28.846  32.831  1.00  0.00     0.031 C 
ATOM     68  C   UNL A   1      45.465  24.704  35.412  1.00  0.00     0.029 A 
ATOM     69  N   UNL A   1      47.287  23.770  34.826  1.00  0.00    -0.354 N 
ATOM     70  C   UNL A   1      45.326  29.483  35.159  1.00  0.00     0.074 A 
ATOM     71  C   UNL A   1      46.438  30.096  33.365  1.00  0.00     0.031 C 
ATOM     72  C   UNL A   1      45.565  23.491  36.054  1.00  0.00     0.029 A 
ATOM     73  C   UNL A   1      46.860  22.897  35.775  1.00  0.00     0.049 A 
ATOM     74  H   UNL A   1      48.026  23.505  34.232  1.00  0.00     0.167 HD
ATOM     75  C   UNL A   1      44.055  29.480  35.882  1.00  0.00     0.031 A 
ATOM     76  C   UNL A   1      47.822  22.302  36.543  1.00  0.00     0.031 A 
ATOM     77  C   UNL A   1      44.012  28.230  36.745  1.00  0.00     0.049 A 
ATOM     78  C   UNL A   1      47.762  23.322  37.747  1.00  0.00     0.074 A 
ATOM     79  C   UNL A   1      43.289  27.041  36.655  1.00  0.00     0.029 A 
ATOM     80  N   UNL A   1      45.064  27.932  37.626  1.00  0.00    -0.354 N 
ATOM     81  N   UNL A   1      47.368  24.583  37.637  1.00  0.00    -0.248 NA
ATOM     82  C   UNL A   1      47.792  22.896  39.143  1.00  0.00     0.031 C 
ATOM     83  C   UNL A   1      43.884  26.072  37.530  1.00  0.00     0.029 A 
ATOM     84  C   UNL A   1      45.073  26.592  38.034  1.00  0.00     0.049 A 
ATOM     85  H   UNL A   1      45.727  28.596  37.927  1.00  0.00     0.167 HD
ATOM     86  C   UNL A   1      46.858  25.021  38.834  1.00  0.00     0.074 A 
ATOM     87  C   UNL A   1      47.244  23.957  39.763  1.00  0.00     0.031 C 
ATOM     88  C   UNL A   1      46.036  26.108  39.046  1.00  0.00     0.031 A 
BRANCH  75  89
ATOM     89  C   UNL A   1      42.654  30.213  35.634  1.00  0.00    -0.014 A 
ATOM     90  C   UNL A   1      42.257  31.366  36.347  1.00  0.00     0.010 A 
ATOM     91  C   UNL A   1      41.644  29.797  34.752  1.00  0.00     0.010 A 
ATOM     92  C   UNL A   1      40.985  31.997  36.161  1.00  0.00     0.020 A 
ATOM     93  C   UNL A   1      40.372  30.334  34.585  1.00  0.00     0.020 A 
ATOM     94  C   UNL A   1      40.052  31.471  35.266  1.00  0.00     0.054 A 
BRANCH  94  95
ATOM     95  S   UNL A   1      38.476  32.260  34.880  1.00  0.00     0.124 S 
ATOM     96  O   UNL A   1      37.551  31.577  35.778  1.00  0.00    -0.237 OA
ATOM     97  O   UNL A   1      38.751  33.661  35.177  1.00  0.00    -0.237 OA
ATOM     98  O   UNL A   1      38.277  31.962  33.459  1.00  0.00    -0.744 OA
ENDBRANCH  94  95
ENDBRANCH  75  89
BRANCH  76  99
ATOM     99  C   UNL A   1      49.072  21.863  35.669  1.00  0.00    -0.014 A 
ATOM    100  C   UNL A   1      49.284  22.021  34.273  1.00  0.00     0.010 A 
ATOM    101  C   UNL A   1      50.263  21.655  36.342  1.00  0.00     0.010 A 
ATOM    102  C   UNL A   1      50.611  22.008  33.661  1.00  0.00     0.020 A 
ATOM    103  C   UNL A   1      51.567  21.820  35.811  1.00  0.00     0.020 A 
ATOM    104  C   UNL A   1      51.765  21.939  34.455  1.00  0.00     0.054 A 
BRANCH 104 105
ATOM    105  S   UNL A   1      53.503  22.167  33.866  1.00  0.00     0.124 S 
ATOM    106  O   UNL A   1      54.173  22.799  34.994  1.00  0.00    -0.237 OA
ATOM    107  O   UNL A   1      53.957  20.812  33.573  1.00  0.00    -0.237 OA
ATOM    108  O   UNL A   1      53.339  23.005  32.677  1.00  0.00    -0.744 OA
ENDBRANCH 104 105
ENDBRANCH  76  99
BRANCH  88 109
ATOM    109  C   UNL A   1      45.961  26.790  40.394  1.00  0.00    -0.014 A 
ATOM    110  C   UNL A   1      44.766  26.943  41.106  1.00  0.00     0.010 A 
ATOM    111  C   UNL A   1      47.155  27.168  41.057  1.00  0.00     0.010 A 
ATOM    112  C   UNL A   1      44.748  27.572  42.348  1.00  0.00     0.020 A 
ATOM    113  C   UNL A   1      47.161  27.690  42.343  1.00  0.00     0.020 A 
ATOM    114  C   UNL A   1      45.946  27.941  42.956  1.00  0.00     0.054 A 
BRANCH 114 115
ATOM    115  S   UNL A   1      45.885  28.743  44.563  1.00  0.00     0.124 S 
ATOM    116  O   UNL A   1      47.304  28.850  44.893  1.00  0.00    -0.237 OA
ATOM    117  O   UNL A   1      45.214  30.004  44.256  1.00  0.00    -0.237 OA
ATOM    118  O   UNL A   1      45.116  27.817  45.389  1.00  0.00    -0.744 OA
ENDBRANCH 114 115
ENDBRANCH  88 109
ENDBRANCH  62  63
ENDBRANCH  55  57
ENDBRANCH  54  55
ENDBRANCH  53  54
ENDBRANCH  52  53
ENDBRANCH  51  52
ENDBRANCH  50  51
ENDBRANCH  49  50
ENDBRANCH  48  49
ENDBRANCH   1  48
TORSDOF 29
ENDMDL
MODEL 3
REMARK VINA RESULT:      -9.9      6.304     12.946
REMARK SMILES Cc1ccc([S@TB4](=O)(=O)n2cc(C(=O)C(=O)NCC(=O)N[C@@H](Cc3c[nH]c4ccccc34)C(=O)OCCOCCOCCOC(=O)c3ccc(-c4c5nc(c(-c6ccc(S(=O)(=O)[O-])cc6)c6ccc([nH]6)c(-c6ccc(S(=O)(=O)[O-])cc6)c6nc(c(-c7ccc(S(=O)(=O)[O-])cc7)c7ccc4[nH]7)C=C6)C=C5)cc3)c3ccccc32)cc1
REMARK SMILES IDX 36 1 35 2 34 3 32 4 33 5 21 6 20 7 18 8 19 9 17 11 16 12
REMARK SMILES IDX 14 13 15 14 12 16 13 17 11 18 9 19 10 20 111 21 106 22
REMARK SMILES IDX 110 23 107 24 109 25 108 26 6 27 7 28 8 29 5 30 1 31 2 32
REMARK SMILES IDX 3 33 113 34 4 35 112 36 22 37 23 38 24 39 31 40 25 41 26 42
REMARK SMILES IDX 30 43 27 45 29 46 28 47 37 48 38 49 39 50 40 51 41 52 42 53
REMARK SMILES IDX 43 54 44 55 45 56 46 57 47 58 105 59 48 60 104 61 49 62
REMARK SMILES IDX 50 63 51 64 98 65 52 66 103 67 97 68 99 69 53 70 102 71
REMARK SMILES IDX 96 72 95 73 54 75 84 76 65 77 83 78 66 79 69 80 82 81 100 82
REMARK SMILES IDX 67 83 68 84 81 86 101 87 70 88 55 89 56 90 64 91 57 92 63 93
REMARK SMILES IDX 58 94 59 95 60 96 61 97 62 98 85 99 86 100 94 101 87 102
REMARK SMILES IDX 93 103 88 104 89 105 90 106 91 107 92 108 71 109 72 110
REMARK SMILES IDX 80 111 73 112 79 113 74 114 75 115 76 116 77 117 78 118
REMARK H PARENT 20 10 16 15 25 44 99 74 69 85
REMARK Flexibility Score: inf
ROOT
ATOM      1  C   UNL A   1      50.345  30.814  28.435  1.00  0.00     0.202 C 
ENDROOT
BRANCH   1   2
ATOM      2  C   UNL A   1      49.053  29.976  28.234  1.00  0.00     0.261 C 
BRANCH   2   3
ATOM      3  O   UNL A   1      47.298  30.430  27.854  1.00  0.00    -0.462 OA
BRANCH   3   4
ATOM      4  C   UNL A   1      46.206  30.483  26.570  1.00  0.00     0.329 C 
ATOM      5  O   UNL A   1      46.474  29.908  25.506  1.00  0.00    -0.250 OA
BRANCH   4   6
ATOM      6  C   UNL A   1      44.572  31.275  26.413  1.00  0.00     0.196 C 
BRANCH   6   7
ATOM      7  N   UNL A   1      44.008  32.399  25.538  1.00  0.00    -0.341 N 
ATOM      8  C   UNL A   1      43.965  33.761  25.518  1.00  0.00     0.240 C 
ATOM      9  O   UNL A   1      43.360  34.284  24.573  1.00  0.00    -0.273 OA
ATOM     10  H   UNL A   1      43.535  32.027  24.760  1.00  0.00     0.164 HD
BRANCH   8  11
ATOM     11  C   UNL A   1      44.632  34.634  26.569  1.00  0.00     0.216 C 
BRANCH  11  12
ATOM     12  N   UNL A   1      44.644  33.897  27.825  1.00  0.00    -0.340 N 
ATOM     13  C   UNL A   1      44.039  34.211  29.024  1.00  0.00     0.292 C 
ATOM     14  O   UNL A   1      44.343  33.588  30.034  1.00  0.00    -0.265 OA
ATOM     15  H   UNL A   1      45.157  33.057  27.817  1.00  0.00     0.164 HD
BRANCH  13  16
ATOM     16  C   UNL A   1      42.960  35.304  29.072  1.00  0.00     0.252 C 
ATOM     17  O   UNL A   1      41.819  34.945  28.788  1.00  0.00    -0.283 OA
BRANCH  16  18
ATOM     18  C   UNL A   1      43.239  36.701  29.430  1.00  0.00     0.055 A 
ATOM     19  N   UNL A   1      44.094  38.561  30.305  1.00  0.00    -0.218 N 
ATOM     20  C   UNL A   1      43.875  37.231  30.565  1.00  0.00     0.126 A 
ATOM     21  C   UNL A   1      43.658  38.874  29.016  1.00  0.00     0.072 A 
ATOM     22  C   UNL A   1      42.871  37.824  28.600  1.00  0.00     0.013 A 
ATOM     23  C   UNL A   1      43.790  40.091  28.277  1.00  0.00     0.029 A 
ATOM     24  C   UNL A   1      42.088  38.061  27.446  1.00  0.00     0.011 A 
ATOM     25  C   UNL A   1      43.018  40.304  27.162  1.00  0.00     0.002 A 
ATOM     26  C   UNL A   1      42.143  39.310  26.776  1.00  0.00     0.001 A 
BRANCH  19  27
ATOM     27  S   UNL A   1      44.063  39.950  31.201  1.00  0.00     0.083 S 
ATOM     28  O   UNL A   1      45.478  40.304  31.074  1.00  0.00    -0.149 OA
ATOM     29  O   UNL A   1      43.456  39.250  32.337  1.00  0.00    -0.149 OA
BRANCH  27  30
ATOM     30  C   UNL A   1      43.568  41.443  31.849  1.00  0.00     0.111 A 
ATOM     31  C   UNL A   1      43.517  45.400  33.434  1.00  0.00     0.044 C 
ATOM     32  C   UNL A   1      43.511  44.020  32.870  1.00  0.00    -0.051 A 
ATOM     33  C   UNL A   1      44.726  43.365  32.867  1.00  0.00     0.005 A 
ATOM     34  C   UNL A   1      42.346  43.389  32.355  1.00  0.00     0.005 A 
ATOM     35  C   UNL A   1      44.744  42.106  32.347  1.00  0.00     0.030 A 
ATOM     36  C   UNL A   1      42.362  42.084  31.830  1.00  0.00     0.030 A 
ENDBRANCH  27  30
ENDBRANCH  19  27
ENDBRANCH  16  18
ENDBRANCH  13  16
ENDBRANCH  11  12
ENDBRANCH   8  11
ENDBRANCH   6   7
BRANCH   6  37
ATOM     37  C   UNL A   1      43.244  30.331  26.853  1.00  0.00     0.074 C 
BRANCH  37  38
ATOM     38  C   UNL A   1      43.306  28.837  27.768  1.00  0.00    -0.020 A 
ATOM     39  C   UNL A   1      43.368  28.245  29.757  1.00  0.00     0.087 A 
ATOM     40  C   UNL A   1      43.648  27.189  26.847  1.00  0.00     0.003 A 
ATOM     41  N   UNL A   1      43.759  26.489  29.676  1.00  0.00    -0.361 N 
ATOM     42  C   UNL A   1      43.936  25.973  27.980  1.00  0.00     0.046 A 
ATOM     43  C   UNL A   1      44.024  26.943  25.522  1.00  0.00     0.010 A 
ATOM     44  H   UNL A   1      43.860  25.898  30.457  1.00  0.00     0.166 HD
ATOM     45  C   UNL A   1      44.699  24.877  27.559  1.00  0.00     0.026 A 
ATOM     46  C   UNL A   1      44.648  25.717  25.234  1.00  0.00     0.001 A 
ATOM     47  C   UNL A   1      44.988  24.752  26.204  1.00  0.00     0.002 A 
ENDBRANCH  37  38
ENDBRANCH   6  37
ENDBRANCH   4   6
ENDBRANCH   3   4
ENDBRANCH   2   3
ENDBRANCH   1   2
BRANCH   1  48
ATOM     48  O   UNL A   1      50.981  31.380  27.318  1.00  0.00    -0.376 OA
BRANCH  48  49
ATOM     49  C   UNL A   1      51.884  30.448  26.792  1.00  0.00     0.188 C 
BRANCH  49  50
ATOM     50  C   UNL A   1      52.781  29.775  27.803  1.00  0.00     0.188 C 
BRANCH  50  51
ATOM     51  O   UNL A   1      53.174  28.449  27.513  1.00  0.00    -0.376 OA
BRANCH  51  52
ATOM     52  C   UNL A   1      52.467  27.498  26.785  1.00  0.00     0.202 C 
BRANCH  52  53
ATOM     53  C   UNL A   1      52.708  26.197  27.463  1.00  0.00     0.261 C 
BRANCH  53  54
ATOM     54  O   UNL A   1      51.481  25.480  27.879  1.00  0.00    -0.460 OA
BRANCH  54  55
ATOM     55  C   UNL A   1      50.161  25.717  27.593  1.00  0.00     0.338 C 
ATOM     56  O   UNL A   1      49.645  25.258  26.578  1.00  0.00    -0.246 OA
BRANCH  55  57
ATOM     57  C   UNL A   1      49.288  26.431  28.580  1.00  0.00     0.060 A 
ATOM     58  C   UNL A   1      49.898  26.865  29.730  1.00  0.00     0.016 A 
ATOM     59  C   UNL A   1      47.890  26.419  28.539  1.00  0.00     0.016 A 
ATOM     60  C   UNL A   1      49.128  26.868  30.899  1.00  0.00     0.010 A 
ATOM     61  C   UNL A   1      47.123  26.377  29.737  1.00  0.00     0.010 A 
ATOM     62  C   UNL A   1      47.704  26.532  31.016  1.00  0.00    -0.014 A 
BRANCH  62  63
ATOM     63  C   UNL A   1      46.665  26.135  32.455  1.00  0.00     0.031 A 
ATOM     64  C   UNL A   1      46.171  27.387  32.824  1.00  0.00     0.074 A 
ATOM     65  C   UNL A   1      46.381  25.068  33.460  1.00  0.00     0.049 A 
ATOM     66  N   UNL A   1      45.262  27.645  33.970  1.00  0.00    -0.248 NA
ATOM     67  C   UNL A   1      46.522  28.857  31.556  1.00  0.00     0.031 C 
ATOM     68  C   UNL A   1      45.173  24.584  34.177  1.00  0.00     0.029 A 
ATOM     69  N   UNL A   1      47.111  23.864  33.669  1.00  0.00    -0.354 N 
ATOM     70  C   UNL A   1      44.475  29.307  33.809  1.00  0.00     0.074 A 
ATOM     71  C   UNL A   1      45.565  30.013  32.036  1.00  0.00     0.031 C 
ATOM     72  C   UNL A   1      45.394  23.404  34.849  1.00  0.00     0.029 A 
ATOM     73  C   UNL A   1      46.759  22.964  34.624  1.00  0.00     0.049 A 
ATOM     74  H   UNL A   1      47.896  23.677  33.104  1.00  0.00     0.167 HD
ATOM     75  C   UNL A   1      43.190  29.165  34.492  1.00  0.00     0.031 A 
ATOM     76  C   UNL A   1      47.760  22.503  35.435  1.00  0.00     0.031 A 
ATOM     77  C   UNL A   1      43.267  27.936  35.383  1.00  0.00     0.049 A 
ATOM     78  C   UNL A   1      47.539  23.532  36.613  1.00  0.00     0.074 A 
ATOM     79  C   UNL A   1      42.694  26.668  35.298  1.00  0.00     0.029 A 
ATOM     80  N   UNL A   1      44.318  27.783  36.302  1.00  0.00    -0.354 N 
ATOM     81  N   UNL A   1      47.001  24.734  36.462  1.00  0.00    -0.248 NA
ATOM     82  C   UNL A   1      47.573  23.139  38.018  1.00  0.00     0.031 C 
ATOM     83  C   UNL A   1      43.371  25.794  36.213  1.00  0.00     0.029 A 
ATOM     84  C   UNL A   1      44.472  26.462  36.741  1.00  0.00     0.049 A 
ATOM     85  H   UNL A   1      44.886  28.527  36.607  1.00  0.00     0.167 HD
ATOM     86  C   UNL A   1      46.403  25.131  37.631  1.00  0.00     0.074 A 
ATOM     87  C   UNL A   1      46.882  24.140  38.597  1.00  0.00     0.031 C 
ATOM     88  C   UNL A   1      45.452  26.117  37.793  1.00  0.00     0.031 A 
BRANCH  75  89
ATOM     89  C   UNL A   1      41.721  29.720  34.184  1.00  0.00    -0.014 A 
ATOM     90  C   UNL A   1      40.751  29.916  35.192  1.00  0.00     0.010 A 
ATOM     91  C   UNL A   1      41.196  30.022  32.918  1.00  0.00     0.010 A 
ATOM     92  C   UNL A   1      39.420  30.368  34.915  1.00  0.00     0.020 A 
ATOM     93  C   UNL A   1      39.897  30.399  32.592  1.00  0.00     0.020 A 
ATOM     94  C   UNL A   1      39.009  30.614  33.604  1.00  0.00     0.054 A 
BRANCH  94  95
ATOM     95  S   UNL A   1      37.396  31.295  33.169  1.00  0.00     0.124 S 
ATOM     96  O   UNL A   1      36.659  30.113  32.738  1.00  0.00    -0.237 OA
ATOM     97  O   UNL A   1      36.969  31.903  34.423  1.00  0.00    -0.237 OA
ATOM     98  O   UNL A   1      37.698  32.248  32.097  1.00  0.00    -0.744 OA
ENDBRANCH  94  95
ENDBRANCH  75  89
BRANCH  76  99
ATOM     99  C   UNL A   1      49.081  22.200  34.610  1.00  0.00    -0.014 A 
ATOM    100  C   UNL A   1      50.258  22.987  34.490  1.00  0.00     0.010 A 
ATOM    101  C   UNL A   1      49.317  20.880  34.272  1.00  0.00     0.010 A 
ATOM    102  C   UNL A   1      51.553  22.430  34.102  1.00  0.00     0.020 A 
ATOM    103  C   UNL A   1      50.585  20.277  34.074  1.00  0.00     0.020 A 
ATOM    104  C   UNL A   1      51.715  21.049  33.926  1.00  0.00     0.054 A 
BRANCH 104 105
ATOM    105  S   UNL A   1      53.322  20.166  33.689  1.00  0.00     0.124 S 
ATOM    106  O   UNL A   1      53.764  20.596  32.370  1.00  0.00    -0.237 OA
ATOM    107  O   UNL A   1      54.152  20.642  34.791  1.00  0.00    -0.237 OA
ATOM    108  O   UNL A   1      52.942  18.757  33.801  1.00  0.00    -0.744 OA
ENDBRANCH 104 105
ENDBRANCH  76  99
BRANCH  88 109
ATOM    109  C   UNL A   1      45.251  26.811  39.122  1.00  0.00    -0.014 A 
ATOM    110  C   UNL A   1      44.572  26.223  40.195  1.00  0.00     0.010 A 
ATOM    111  C   UNL A   1      45.895  28.049  39.371  1.00  0.00     0.010 A 
ATOM    112  C   UNL A   1      44.418  26.899  41.402  1.00  0.00     0.020 A 
ATOM    113  C   UNL A   1      45.846  28.678  40.607  1.00  0.00     0.020 A 
ATOM    114  C   UNL A   1      45.058  28.122  41.599  1.00  0.00     0.054 A 
BRANCH 114 115
ATOM    115  S   UNL A   1      44.844  28.962  43.173  1.00  0.00     0.124 S 
ATOM    116  O   UNL A   1      43.514  29.545  43.016  1.00  0.00    -0.237 OA
ATOM    117  O   UNL A   1      44.939  27.861  44.129  1.00  0.00    -0.237 OA
ATOM    118  O   UNL A   1      45.947  29.917  43.214  1.00  0.00    -0.744 OA
ENDBRANCH 114 115
ENDBRANCH  88 109
ENDBRANCH  62  63
ENDBRANCH  55  57
ENDBRANCH  54  55
ENDBRANCH  53  54
ENDBRANCH  52  53
ENDBRANCH  51  52
ENDBRANCH  50  51
ENDBRANCH  49  50
ENDBRANCH  48  49
ENDBRANCH   1  48
TORSDOF 29
ENDMDL
