MODEL 1
REMARK VINA RESULT:     -10.0      0.000      0.000
REMARK SMILES O=C(OCCOCCOCCOC(=O)[C@@H]1[C@@H](C(=O)Nc2cccc([N+](=O)[O-])c2)[C@@H]2C=C[C@H]1O2)c1ccc(-c2c3nc(c(-c4ccc(S(=O)(=O)[O-])cc4)c4ccc([nH]4)c(-c4ccc(S(=O)(=O)[O-])cc4)c4nc(c(-c5ccc(S(=O)(=O)[O-])cc5)c5ccc2[nH]5)C=C4)C=C3)cc1
REMARK SMILES IDX 7 1 6 2 5 3 4 4 3 5 2 6 1 7 34 8 35 9 93 10 36 11 92 12
REMARK SMILES IDX 37 13 38 14 39 15 86 16 40 17 91 18 85 19 87 20 41 21 90 22
REMARK SMILES IDX 84 23 83 24 42 26 72 27 53 28 71 29 54 30 57 31 70 32 88 33
REMARK SMILES IDX 55 34 56 35 69 37 89 38 58 39 43 40 44 41 52 42 45 43 51 44
REMARK SMILES IDX 46 45 47 46 48 47 49 48 50 49 73 50 74 51 82 52 75 53 81 54
REMARK SMILES IDX 76 55 77 56 78 57 79 58 80 59 59 60 60 61 68 62 61 63 67 64
REMARK SMILES IDX 62 65 63 66 64 67 65 68 66 69 8 70 9 71 10 72 11 73 12 74
REMARK SMILES IDX 13 75 14 76 15 77 16 78 32 79 29 80 31 81 33 82 30 83 17 84
REMARK SMILES IDX 18 85 19 86 20 88 21 89 28 90 22 91 24 92 23 93 25 94 26 95
REMARK SMILES IDX 27 96
REMARK H PARENT 87 25 57 36 19 87
REMARK Flexibility Score: inf
ROOT
ATOM      1  C   UNL A   1      32.905  30.044  27.296  1.00  0.00     0.188 C 
ENDROOT
BRANCH   1   2
ATOM      2  O   UNL A   1      33.626  31.270  27.153  1.00  0.00    -0.376 OA
BRANCH   2   3
ATOM      3  C   UNL A   1      34.282  31.718  28.346  1.00  0.00     0.202 C 
BRANCH   3   4
ATOM      4  C   UNL A   1      35.766  31.337  28.511  1.00  0.00     0.261 C 
BRANCH   4   5
ATOM      5  O   UNL A   1      35.994  29.945  28.796  1.00  0.00    -0.460 OA
BRANCH   5   6
ATOM      6  C   UNL A   1      36.950  29.386  29.582  1.00  0.00     0.338 C 
ATOM      7  O   UNL A   1      36.682  29.167  30.763  1.00  0.00    -0.246 OA
BRANCH   6   8
ATOM      8  C   UNL A   1      38.316  29.033  29.092  1.00  0.00     0.060 A 
ATOM      9  C   UNL A   1      39.285  28.385  29.853  1.00  0.00     0.016 A 
ATOM     10  C   UNL A   1      38.625  29.327  27.753  1.00  0.00     0.016 A 
ATOM     11  C   UNL A   1      40.561  28.160  29.369  1.00  0.00     0.010 A 
ATOM     12  C   UNL A   1      39.894  29.051  27.231  1.00  0.00     0.010 A 
ATOM     13  C   UNL A   1      40.881  28.513  28.063  1.00  0.00    -0.014 A 
BRANCH  13  14
ATOM     14  C   UNL A   1      42.306  28.457  27.689  1.00  0.00     0.031 A 
ATOM     15  C   UNL A   1      43.187  29.584  28.129  1.00  0.00     0.074 A 
ATOM     16  C   UNL A   1      42.810  27.328  27.161  1.00  0.00     0.049 A 
ATOM     17  N   UNL A   1      44.472  29.734  27.966  1.00  0.00    -0.248 NA
ATOM     18  C   UNL A   1      42.537  30.687  28.859  1.00  0.00     0.031 C 
ATOM     19  C   UNL A   1      42.016  26.147  26.827  1.00  0.00     0.029 A 
ATOM     20  N   UNL A   1      44.093  26.954  26.875  1.00  0.00    -0.354 N 
ATOM     21  C   UNL A   1      44.774  30.969  28.523  1.00  0.00     0.074 A 
ATOM     22  C   UNL A   1      43.545  31.526  29.036  1.00  0.00     0.031 C 
ATOM     23  C   UNL A   1      42.838  25.151  26.461  1.00  0.00     0.029 A 
ATOM     24  C   UNL A   1      44.202  25.655  26.430  1.00  0.00     0.049 A 
ATOM     25  H   UNL A   1      44.867  27.556  26.977  1.00  0.00     0.167 HD
ATOM     26  C   UNL A   1      45.977  31.583  28.574  1.00  0.00     0.031 A 
ATOM     27  C   UNL A   1      45.282  24.970  26.012  1.00  0.00     0.031 A 
ATOM     28  C   UNL A   1      47.171  30.995  28.034  1.00  0.00     0.049 A 
ATOM     29  C   UNL A   1      46.591  25.711  25.996  1.00  0.00     0.074 A 
ATOM     30  C   UNL A   1      48.439  31.535  27.947  1.00  0.00     0.029 A 
ATOM     31  N   UNL A   1      47.235  29.719  27.482  1.00  0.00    -0.354 N 
ATOM     32  N   UNL A   1      46.857  26.917  26.445  1.00  0.00    -0.248 NA
ATOM     33  C   UNL A   1      47.736  25.021  25.394  1.00  0.00     0.031 C 
ATOM     34  C   UNL A   1      49.255  30.609  27.288  1.00  0.00     0.029 A 
ATOM     35  C   UNL A   1      48.516  29.462  27.033  1.00  0.00     0.049 A 
ATOM     36  H   UNL A   1      46.479  29.093  27.421  1.00  0.00     0.167 HD
ATOM     37  C   UNL A   1      48.203  27.130  26.188  1.00  0.00     0.074 A 
ATOM     38  C   UNL A   1      48.701  25.913  25.572  1.00  0.00     0.031 C 
ATOM     39  C   UNL A   1      48.961  28.230  26.426  1.00  0.00     0.031 A 
BRANCH  26  40
ATOM     40  C   UNL A   1      46.003  32.983  29.125  1.00  0.00    -0.014 A 
ATOM     41  C   UNL A   1      46.236  33.245  30.488  1.00  0.00     0.010 A 
ATOM     42  C   UNL A   1      45.729  34.058  28.261  1.00  0.00     0.010 A 
ATOM     43  C   UNL A   1      46.138  34.548  30.984  1.00  0.00     0.020 A 
ATOM     44  C   UNL A   1      45.661  35.366  28.746  1.00  0.00     0.020 A 
ATOM     45  C   UNL A   1      45.844  35.600  30.110  1.00  0.00     0.054 A 
BRANCH  45  46
ATOM     46  S   UNL A   1      45.713  37.280  30.780  1.00  0.00     0.124 S 
ATOM     47  O   UNL A   1      46.117  38.093  29.637  1.00  0.00    -0.237 OA
ATOM     48  O   UNL A   1      44.301  37.369  31.145  1.00  0.00    -0.237 OA
ATOM     49  O   UNL A   1      46.645  37.280  31.905  1.00  0.00    -0.744 OA
ENDBRANCH  45  46
ENDBRANCH  26  40
BRANCH  27  50
ATOM     50  C   UNL A   1      45.161  23.567  25.513  1.00  0.00    -0.014 A 
ATOM     51  C   UNL A   1      44.799  23.293  24.182  1.00  0.00     0.010 A 
ATOM     52  C   UNL A   1      45.406  22.483  26.378  1.00  0.00     0.010 A 
ATOM     53  C   UNL A   1      44.670  21.971  23.734  1.00  0.00     0.020 A 
ATOM     54  C   UNL A   1      45.315  21.163  25.928  1.00  0.00     0.020 A 
ATOM     55  C   UNL A   1      44.932  20.914  24.611  1.00  0.00     0.054 A 
BRANCH  55  56
ATOM     56  S   UNL A   1      44.795  19.208  24.005  1.00  0.00     0.124 S 
ATOM     57  O   UNL A   1      46.140  18.693  24.241  1.00  0.00    -0.237 OA
ATOM     58  O   UNL A   1      43.745  18.653  24.855  1.00  0.00    -0.237 OA
ATOM     59  O   UNL A   1      44.425  19.371  22.601  1.00  0.00    -0.744 OA
ENDBRANCH  55  56
ENDBRANCH  27  50
BRANCH  39  60
ATOM     60  C   UNL A   1      50.415  28.137  26.060  1.00  0.00    -0.014 A 
ATOM     61  C   UNL A   1      51.393  27.827  27.020  1.00  0.00     0.010 A 
ATOM     62  C   UNL A   1      50.792  28.311  24.717  1.00  0.00     0.010 A 
ATOM     63  C   UNL A   1      52.734  27.730  26.646  1.00  0.00     0.020 A 
ATOM     64  C   UNL A   1      52.126  28.180  24.334  1.00  0.00     0.020 A 
ATOM     65  C   UNL A   1      53.091  27.905  25.305  1.00  0.00     0.054 A 
BRANCH  65  66
ATOM     66  S   UNL A   1      54.832  27.731  24.837  1.00  0.00     0.124 S 
ATOM     67  O   UNL A   1      54.820  26.478  24.089  1.00  0.00    -0.237 OA
ATOM     68  O   UNL A   1      55.072  28.936  24.046  1.00  0.00    -0.237 OA
ATOM     69  O   UNL A   1      55.533  27.686  26.119  1.00  0.00    -0.744 OA
ENDBRANCH  65  66
ENDBRANCH  39  60
ENDBRANCH  13  14
ENDBRANCH   6   8
ENDBRANCH   5   6
ENDBRANCH   4   5
ENDBRANCH   3   4
ENDBRANCH   2   3
ENDBRANCH   1   2
BRANCH   1  70
ATOM     70  C   UNL A   1      32.266  29.557  25.998  1.00  0.00     0.188 C 
BRANCH  70  71
ATOM     71  O   UNL A   1      31.575  28.311  26.033  1.00  0.00    -0.376 OA
BRANCH  71  72
ATOM     72  C   UNL A   1      32.276  27.171  26.512  1.00  0.00     0.202 C 
BRANCH  72  73
ATOM     73  C   UNL A   1      33.501  26.671  25.732  1.00  0.00     0.261 C 
BRANCH  73  74
ATOM     74  O   UNL A   1      33.293  25.499  24.935  1.00  0.00    -0.463 OA
BRANCH  74  75
ATOM     75  C   UNL A   1      34.313  24.597  24.992  1.00  0.00     0.312 C 
ATOM     76  O   UNL A   1      35.228  24.643  25.800  1.00  0.00    -0.252 OA
BRANCH  75  77
ATOM     77  C   UNL A   1      34.112  23.479  24.001  1.00  0.00     0.147 C 
ATOM     78  C   UNL A   1      32.818  23.716  23.171  1.00  0.00     0.129 C 
ATOM     79  C   UNL A   1      33.783  22.156  24.696  1.00  0.00     0.157 C 
ATOM     80  C   UNL A   1      32.003  22.455  23.486  1.00  0.00     0.155 C 
ATOM     81  C   UNL A   1      32.641  22.296  25.660  1.00  0.00     0.004 C 
ATOM     82  O   UNL A   1      33.079  21.492  23.612  1.00  0.00    -0.365 OA
ATOM     83  C   UNL A   1      31.547  22.500  24.915  1.00  0.00     0.004 C 
BRANCH  78  84
ATOM     84  C   UNL A   1      33.012  23.851  21.664  1.00  0.00     0.231 C 
ATOM     85  O   UNL A   1      33.335  22.905  20.946  1.00  0.00    -0.274 OA
ATOM     86  N   UNL A   1      32.741  25.074  21.078  1.00  0.00    -0.325 N 
ATOM     87  H   UNL A   1      32.687  25.086  20.095  1.00  0.00     0.169 HD
BRANCH  86  88
ATOM     88  C   UNL A   1      32.535  26.300  21.730  1.00  0.00     0.048 A 
ATOM     89  C   UNL A   1      33.638  27.102  22.021  1.00  0.00     0.026 A 
ATOM     90  C   UNL A   1      31.250  26.762  22.024  1.00  0.00     0.111 A 
ATOM     91  C   UNL A   1      33.446  28.422  22.441  1.00  0.00     0.009 A 
ATOM     92  C   UNL A   1      31.058  28.092  22.403  1.00  0.00     0.271 A 
ATOM     93  C   UNL A   1      32.155  28.934  22.599  1.00  0.00     0.086 A 
BRANCH  92  94
ATOM     94  N   UNL A   1      29.692  28.610  22.537  1.00  0.00     0.062 N 
ATOM     95  O   UNL A   1      29.028  28.240  23.515  1.00  0.00    -0.258 OA
ATOM     96  O   UNL A   1      29.276  29.376  21.657  1.00  0.00    -0.258 OA
ENDBRANCH  92  94
ENDBRANCH  86  88
ENDBRANCH  78  84
ENDBRANCH  75  77
ENDBRANCH  74  75
ENDBRANCH  73  74
ENDBRANCH  72  73
ENDBRANCH  71  72
ENDBRANCH  70  71
ENDBRANCH   1  70
TORSDOF 23
ENDMDL
MODEL 2
REMARK VINA RESULT:      -9.8      1.610      3.392
REMARK SMILES O=C(OCCOCCOCCOC(=O)[C@@H]1[C@@H](C(=O)Nc2cccc([N+](=O)[O-])c2)[C@@H]2C=C[C@H]1O2)c1ccc(-c2c3nc(c(-c4ccc(S(=O)(=O)[O-])cc4)c4ccc([nH]4)c(-c4ccc(S(=O)(=O)[O-])cc4)c4nc(c(-c5ccc(S(=O)(=O)[O-])cc5)c5ccc2[nH]5)C=C4)C=C3)cc1
REMARK SMILES IDX 7 1 6 2 5 3 4 4 3 5 2 6 1 7 34 8 35 9 93 10 36 11 92 12
REMARK SMILES IDX 37 13 38 14 39 15 86 16 40 17 91 18 85 19 87 20 41 21 90 22
REMARK SMILES IDX 84 23 83 24 42 26 72 27 53 28 71 29 54 30 57 31 70 32 88 33
REMARK SMILES IDX 55 34 56 35 69 37 89 38 58 39 43 40 44 41 52 42 45 43 51 44
REMARK SMILES IDX 46 45 47 46 48 47 49 48 50 49 73 50 74 51 82 52 75 53 81 54
REMARK SMILES IDX 76 55 77 56 78 57 79 58 80 59 59 60 60 61 68 62 61 63 67 64
REMARK SMILES IDX 62 65 63 66 64 67 65 68 66 69 8 70 9 71 10 72 11 73 12 74
REMARK SMILES IDX 13 75 14 76 15 77 16 78 32 79 29 80 31 81 33 82 30 83 17 84
REMARK SMILES IDX 18 85 19 86 20 88 21 89 28 90 22 91 24 92 23 93 25 94 26 95
REMARK SMILES IDX 27 96
REMARK H PARENT 87 25 57 36 19 87
REMARK Flexibility Score: inf
ROOT
ATOM      1  C   UNL A   1      32.512  29.156  25.641  1.00  0.00     0.188 C 
ENDROOT
BRANCH   1   2
ATOM      2  O   UNL A   1      32.946  30.310  26.365  1.00  0.00    -0.376 OA
BRANCH   2   3
ATOM      3  C   UNL A   1      33.658  30.021  27.574  1.00  0.00     0.202 C 
BRANCH   3   4
ATOM      4  C   UNL A   1      35.178  30.272  27.566  1.00  0.00     0.261 C 
BRANCH   4   5
ATOM      5  O   UNL A   1      35.915  29.491  28.524  1.00  0.00    -0.460 OA
BRANCH   5   6
ATOM      6  C   UNL A   1      37.046  29.822  29.198  1.00  0.00     0.338 C 
ATOM      7  O   UNL A   1      36.943  30.512  30.211  1.00  0.00    -0.246 OA
BRANCH   6   8
ATOM      8  C   UNL A   1      38.414  29.404  28.766  1.00  0.00     0.060 A 
ATOM      9  C   UNL A   1      39.365  28.830  29.605  1.00  0.00     0.016 A 
ATOM     10  C   UNL A   1      38.742  29.549  27.407  1.00  0.00     0.016 A 
ATOM     11  C   UNL A   1      40.643  28.539  29.164  1.00  0.00     0.010 A 
ATOM     12  C   UNL A   1      40.013  29.203  26.935  1.00  0.00     0.010 A 
ATOM     13  C   UNL A   1      40.983  28.747  27.831  1.00  0.00    -0.014 A 
BRANCH  13  14
ATOM     14  C   UNL A   1      42.411  28.635  27.484  1.00  0.00     0.031 A 
ATOM     15  C   UNL A   1      43.321  29.744  27.908  1.00  0.00     0.074 A 
ATOM     16  C   UNL A   1      42.887  27.475  26.996  1.00  0.00     0.049 A 
ATOM     17  N   UNL A   1      44.613  29.848  27.763  1.00  0.00    -0.248 NA
ATOM     18  C   UNL A   1      42.696  30.888  28.596  1.00  0.00     0.031 C 
ATOM     19  C   UNL A   1      42.061  26.312  26.681  1.00  0.00     0.029 A 
ATOM     20  N   UNL A   1      44.162  27.053  26.742  1.00  0.00    -0.354 N 
ATOM     21  C   UNL A   1      44.946  31.088  28.290  1.00  0.00     0.074 A 
ATOM     22  C   UNL A   1      43.727  31.699  28.767  1.00  0.00     0.031 C 
ATOM     23  C   UNL A   1      42.856  25.280  26.357  1.00  0.00     0.029 A 
ATOM     24  C   UNL A   1      44.236  25.739  26.336  1.00  0.00     0.049 A 
ATOM     25  H   UNL A   1      44.953  27.632  26.841  1.00  0.00     0.167 HD
ATOM     26  C   UNL A   1      46.167  31.665  28.346  1.00  0.00     0.031 A 
ATOM     27  C   UNL A   1      45.300  25.008  25.956  1.00  0.00     0.031 A 
ATOM     28  C   UNL A   1      47.350  31.024  27.843  1.00  0.00     0.049 A 
ATOM     29  C   UNL A   1      46.632  25.706  25.942  1.00  0.00     0.074 A 
ATOM     30  C   UNL A   1      48.636  31.521  27.763  1.00  0.00     0.029 A 
ATOM     31  N   UNL A   1      47.381  29.732  27.328  1.00  0.00    -0.354 N 
ATOM     32  N   UNL A   1      46.930  26.915  26.362  1.00  0.00    -0.248 NA
ATOM     33  C   UNL A   1      47.764  24.963  25.379  1.00  0.00     0.031 C 
ATOM     34  C   UNL A   1      49.433  30.551  27.144  1.00  0.00     0.029 A 
ATOM     35  C   UNL A   1      48.661  29.421  26.908  1.00  0.00     0.049 A 
ATOM     36  H   UNL A   1      46.607  29.129  27.271  1.00  0.00     0.167 HD
ATOM     37  C   UNL A   1      48.286  27.078  26.122  1.00  0.00     0.074 A 
ATOM     38  C   UNL A   1      48.754  25.829  25.549  1.00  0.00     0.031 C 
ATOM     39  C   UNL A   1      49.076  28.159  26.343  1.00  0.00     0.031 A 
BRANCH  26  40
ATOM     40  C   UNL A   1      46.230  33.078  28.858  1.00  0.00    -0.014 A 
ATOM     41  C   UNL A   1      46.451  33.371  30.217  1.00  0.00     0.010 A 
ATOM     42  C   UNL A   1      46.001  34.137  27.961  1.00  0.00     0.010 A 
ATOM     43  C   UNL A   1      46.387  34.690  30.675  1.00  0.00     0.020 A 
ATOM     44  C   UNL A   1      45.968  35.460  28.409  1.00  0.00     0.020 A 
ATOM     45  C   UNL A   1      46.139  35.726  29.768  1.00  0.00     0.054 A 
BRANCH  45  46
ATOM     46  S   UNL A   1      46.052  37.427  30.390  1.00  0.00     0.124 S 
ATOM     47  O   UNL A   1      45.769  37.216  31.807  1.00  0.00    -0.237 OA
ATOM     48  O   UNL A   1      47.382  37.947  30.086  1.00  0.00    -0.237 OA
ATOM     49  O   UNL A   1      44.962  38.023  29.620  1.00  0.00    -0.744 OA
ENDBRANCH  45  46
ENDBRANCH  26  40
BRANCH  27  50
ATOM     50  C   UNL A   1      45.141  23.597  25.493  1.00  0.00    -0.014 A 
ATOM     51  C   UNL A   1      44.612  23.297  24.225  1.00  0.00     0.010 A 
ATOM     52  C   UNL A   1      45.521  22.529  26.331  1.00  0.00     0.010 A 
ATOM     53  C   UNL A   1      44.450  21.967  23.814  1.00  0.00     0.020 A 
ATOM     54  C   UNL A   1      45.397  21.202  25.912  1.00  0.00     0.020 A 
ATOM     55  C   UNL A   1      44.848  20.927  24.661  1.00  0.00     0.054 A 
BRANCH  55  56
ATOM     56  S   UNL A   1      44.666  19.211  24.098  1.00  0.00     0.124 S 
ATOM     57  O   UNL A   1      44.752  19.354  22.649  1.00  0.00    -0.237 OA
ATOM     58  O   UNL A   1      45.798  18.546  24.738  1.00  0.00    -0.237 OA
ATOM     59  O   UNL A   1      43.355  18.818  24.612  1.00  0.00    -0.744 OA
ENDBRANCH  55  56
ENDBRANCH  27  50
BRANCH  39  60
ATOM     60  C   UNL A   1      50.532  28.009  26.005  1.00  0.00    -0.014 A 
ATOM     61  C   UNL A   1      51.473  27.628  26.976  1.00  0.00     0.010 A 
ATOM     62  C   UNL A   1      50.946  28.204  24.675  1.00  0.00     0.010 A 
ATOM     63  C   UNL A   1      52.816  27.480  26.628  1.00  0.00     0.020 A 
ATOM     64  C   UNL A   1      52.280  28.022  24.318  1.00  0.00     0.020 A 
ATOM     65  C   UNL A   1      53.210  27.676  25.300  1.00  0.00     0.054 A 
BRANCH  65  66
ATOM     66  S   UNL A   1      54.952  27.434  24.864  1.00  0.00     0.124 S 
ATOM     67  O   UNL A   1      54.863  26.432  23.807  1.00  0.00    -0.237 OA
ATOM     68  O   UNL A   1      55.361  28.770  24.434  1.00  0.00    -0.237 OA
ATOM     69  O   UNL A   1      55.561  26.974  26.110  1.00  0.00    -0.744 OA
ENDBRANCH  65  66
ENDBRANCH  39  60
ENDBRANCH  13  14
ENDBRANCH   6   8
ENDBRANCH   5   6
ENDBRANCH   4   5
ENDBRANCH   3   4
ENDBRANCH   2   3
ENDBRANCH   1   2
BRANCH   1  70
ATOM     70  C   UNL A   1      31.564  29.480  24.488  1.00  0.00     0.188 C 
BRANCH  70  71
ATOM     71  O   UNL A   1      31.772  28.796  23.255  1.00  0.00    -0.376 OA
BRANCH  71  72
ATOM     72  C   UNL A   1      33.100  28.708  22.755  1.00  0.00     0.202 C 
BRANCH  72  73
ATOM     73  C   UNL A   1      33.833  27.361  22.831  1.00  0.00     0.261 C 
BRANCH  73  74
ATOM     74  O   UNL A   1      34.010  26.825  24.149  1.00  0.00    -0.463 OA
BRANCH  74  75
ATOM     75  C   UNL A   1      33.694  25.504  24.260  1.00  0.00     0.312 C 
ATOM     76  O   UNL A   1      34.413  24.590  23.886  1.00  0.00    -0.252 OA
BRANCH  75  77
ATOM     77  C   UNL A   1      32.393  25.312  24.999  1.00  0.00     0.147 C 
ATOM     78  C   UNL A   1      32.161  23.805  25.306  1.00  0.00     0.129 C 
ATOM     79  C   UNL A   1      31.186  25.627  24.114  1.00  0.00     0.157 C 
ATOM     80  C   UNL A   1      30.827  23.539  24.597  1.00  0.00     0.155 C 
ATOM     81  C   UNL A   1      31.234  24.883  22.812  1.00  0.00     0.004 C 
ATOM     82  O   UNL A   1      30.184  24.823  24.793  1.00  0.00    -0.365 OA
ATOM     83  C   UNL A   1      31.032  23.593  23.111  1.00  0.00     0.004 C 
BRANCH  78  84
ATOM     84  C   UNL A   1      32.052  23.438  26.782  1.00  0.00     0.231 C 
ATOM     85  O   UNL A   1      31.312  24.035  27.564  1.00  0.00    -0.274 OA
ATOM     86  N   UNL A   1      32.763  22.343  27.237  1.00  0.00    -0.325 N 
ATOM     87  H   UNL A   1      32.531  22.012  28.135  1.00  0.00     0.169 HD
BRANCH  86  88
ATOM     88  C   UNL A   1      33.779  21.650  26.560  1.00  0.00     0.048 A 
ATOM     89  C   UNL A   1      33.455  20.476  25.880  1.00  0.00     0.026 A 
ATOM     90  C   UNL A   1      35.081  22.149  26.492  1.00  0.00     0.111 A 
ATOM     91  C   UNL A   1      34.381  19.904  25.001  1.00  0.00     0.009 A 
ATOM     92  C   UNL A   1      35.990  21.603  25.584  1.00  0.00     0.271 A 
ATOM     93  C   UNL A   1      35.639  20.485  24.823  1.00  0.00     0.086 A 
BRANCH  92  94
ATOM     94  N   UNL A   1      37.295  22.247  25.398  1.00  0.00     0.062 N 
ATOM     95  O   UNL A   1      37.308  23.414  24.984  1.00  0.00    -0.258 OA
ATOM     96  O   UNL A   1      38.309  21.582  25.651  1.00  0.00    -0.258 OA
ENDBRANCH  92  94
ENDBRANCH  86  88
ENDBRANCH  78  84
ENDBRANCH  75  77
ENDBRANCH  74  75
ENDBRANCH  73  74
ENDBRANCH  72  73
ENDBRANCH  71  72
ENDBRANCH  70  71
ENDBRANCH   1  70
TORSDOF 23
ENDMDL
MODEL 3
REMARK VINA RESULT:      -9.7      2.031      8.171
REMARK SMILES O=C(OCCOCCOCCOC(=O)[C@@H]1[C@@H](C(=O)Nc2cccc([N+](=O)[O-])c2)[C@@H]2C=C[C@H]1O2)c1ccc(-c2c3nc(c(-c4ccc(S(=O)(=O)[O-])cc4)c4ccc([nH]4)c(-c4ccc(S(=O)(=O)[O-])cc4)c4nc(c(-c5ccc(S(=O)(=O)[O-])cc5)c5ccc2[nH]5)C=C4)C=C3)cc1
REMARK SMILES IDX 7 1 6 2 5 3 4 4 3 5 2 6 1 7 34 8 35 9 93 10 36 11 92 12
REMARK SMILES IDX 37 13 38 14 39 15 86 16 40 17 91 18 85 19 87 20 41 21 90 22
REMARK SMILES IDX 84 23 83 24 42 26 72 27 53 28 71 29 54 30 57 31 70 32 88 33
REMARK SMILES IDX 55 34 56 35 69 37 89 38 58 39 43 40 44 41 52 42 45 43 51 44
REMARK SMILES IDX 46 45 47 46 48 47 49 48 50 49 73 50 74 51 82 52 75 53 81 54
REMARK SMILES IDX 76 55 77 56 78 57 79 58 80 59 59 60 60 61 68 62 61 63 67 64
REMARK SMILES IDX 62 65 63 66 64 67 65 68 66 69 8 70 9 71 10 72 11 73 12 74
REMARK SMILES IDX 13 75 14 76 15 77 16 78 32 79 29 80 31 81 33 82 30 83 17 84
REMARK SMILES IDX 18 85 19 86 20 88 21 89 28 90 22 91 24 92 23 93 25 94 26 95
REMARK SMILES IDX 27 96
REMARK H PARENT 87 25 57 36 19 87
REMARK Flexibility Score: inf
ROOT
ATOM      1  C   UNL A   1      39.829  19.938  26.128  1.00  0.00     0.188 C 
ENDROOT
BRANCH   1   2
ATOM      2  O   UNL A   1      40.919  19.168  25.616  1.00  0.00    -0.376 OA
BRANCH   2   3
ATOM      3  C   UNL A   1      42.154  19.339  26.323  1.00  0.00     0.202 C 
BRANCH   3   4
ATOM      4  C   UNL A   1      43.385  18.599  25.767  1.00  0.00     0.261 C 
BRANCH   4   5
ATOM      5  O   UNL A   1      43.910  19.151  24.545  1.00  0.00    -0.460 OA
BRANCH   5   6
ATOM      6  C   UNL A   1      44.984  19.964  24.375  1.00  0.00     0.338 C 
ATOM      7  O   UNL A   1      45.997  19.496  23.858  1.00  0.00    -0.246 OA
BRANCH   6   8
ATOM      8  C   UNL A   1      45.004  21.398  24.794  1.00  0.00     0.060 A 
ATOM      9  C   UNL A   1      44.746  22.472  23.947  1.00  0.00     0.016 A 
ATOM     10  C   UNL A   1      45.248  21.678  26.150  1.00  0.00     0.016 A 
ATOM     11  C   UNL A   1      44.862  23.782  24.376  1.00  0.00     0.010 A 
ATOM     12  C   UNL A   1      45.309  22.998  26.610  1.00  0.00     0.010 A 
ATOM     13  C   UNL A   1      45.168  24.054  25.705  1.00  0.00    -0.014 A 
BRANCH  13  14
ATOM     14  C   UNL A   1      45.499  25.451  26.038  1.00  0.00     0.031 A 
ATOM     15  C   UNL A   1      44.437  26.284  26.684  1.00  0.00     0.074 A 
ATOM     16  C   UNL A   1      46.774  25.870  25.951  1.00  0.00     0.049 A 
ATOM     17  N   UNL A   1      44.505  27.514  27.111  1.00  0.00    -0.248 NA
ATOM     18  C   UNL A   1      43.124  25.646  26.885  1.00  0.00     0.031 C 
ATOM     19  C   UNL A   1      47.878  25.056  25.446  1.00  0.00     0.029 A 
ATOM     20  N   UNL A   1      47.374  27.036  26.337  1.00  0.00    -0.354 N 
ATOM     21  C   UNL A   1      43.233  27.814  27.580  1.00  0.00     0.074 A 
ATOM     22  C   UNL A   1      42.414  26.638  27.395  1.00  0.00     0.031 C 
ATOM     23  C   UNL A   1      49.033  25.714  25.630  1.00  0.00     0.029 A 
ATOM     24  C   UNL A   1      48.740  27.035  26.164  1.00  0.00     0.049 A 
ATOM     25  H   UNL A   1      46.877  27.803  26.704  1.00  0.00     0.167 HD
ATOM     26  C   UNL A   1      42.795  28.982  28.098  1.00  0.00     0.031 A 
ATOM     27  C   UNL A   1      49.642  28.010  26.381  1.00  0.00     0.031 A 
ATOM     28  C   UNL A   1      43.644  30.131  28.248  1.00  0.00     0.049 A 
ATOM     29  C   UNL A   1      49.109  29.329  26.872  1.00  0.00     0.074 A 
ATOM     30  C   UNL A   1      43.315  31.399  28.684  1.00  0.00     0.029 A 
ATOM     31  N   UNL A   1      45.004  30.142  27.957  1.00  0.00    -0.354 N 
ATOM     32  N   UNL A   1      47.884  29.636  27.233  1.00  0.00    -0.248 NA
ATOM     33  C   UNL A   1      50.064  30.439  26.959  1.00  0.00     0.031 C 
ATOM     34  C   UNL A   1      44.465  32.193  28.599  1.00  0.00     0.029 A 
ATOM     35  C   UNL A   1      45.527  31.401  28.184  1.00  0.00     0.049 A 
ATOM     36  H   UNL A   1      45.518  29.366  27.637  1.00  0.00     0.167 HD
ATOM     37  C   UNL A   1      47.919  30.973  27.598  1.00  0.00     0.074 A 
ATOM     38  C   UNL A   1      49.296  31.405  27.443  1.00  0.00     0.031 C 
ATOM     39  C   UNL A   1      46.909  31.779  28.014  1.00  0.00     0.031 A 
BRANCH  26  40
ATOM     40  C   UNL A   1      41.327  29.078  28.414  1.00  0.00    -0.014 A 
ATOM     41  C   UNL A   1      40.354  29.221  27.407  1.00  0.00     0.010 A 
ATOM     42  C   UNL A   1      40.920  29.082  29.760  1.00  0.00     0.010 A 
ATOM     43  C   UNL A   1      39.012  29.423  27.744  1.00  0.00     0.020 A 
ATOM     44  C   UNL A   1      39.576  29.252  30.101  1.00  0.00     0.020 A 
ATOM     45  C   UNL A   1      38.633  29.444  29.090  1.00  0.00     0.054 A 
BRANCH  45  46
ATOM     46  S   UNL A   1      36.887  29.718  29.500  1.00  0.00     0.124 S 
ATOM     47  O   UNL A   1      36.741  28.940  30.727  1.00  0.00    -0.237 OA
ATOM     48  O   UNL A   1      36.822  31.168  29.665  1.00  0.00    -0.237 OA
ATOM     49  O   UNL A   1      36.171  29.192  28.340  1.00  0.00    -0.744 OA
ENDBRANCH  45  46
ENDBRANCH  26  40
BRANCH  27  50
ATOM     50  C   UNL A   1      51.088  27.808  26.068  1.00  0.00    -0.014 A 
ATOM     51  C   UNL A   1      51.978  27.287  27.023  1.00  0.00     0.010 A 
ATOM     52  C   UNL A   1      51.591  28.144  24.795  1.00  0.00     0.010 A 
ATOM     53  C   UNL A   1      53.337  27.123  26.720  1.00  0.00     0.020 A 
ATOM     54  C   UNL A   1      52.937  27.947  24.475  1.00  0.00     0.020 A 
ATOM     55  C   UNL A   1      53.807  27.452  25.444  1.00  0.00     0.054 A 
BRANCH  55  56
ATOM     56  S   UNL A   1      55.562  27.199  25.056  1.00  0.00     0.124 S 
ATOM     57  O   UNL A   1      55.743  25.786  25.374  1.00  0.00    -0.237 OA
ATOM     58  O   UNL A   1      55.626  27.544  23.639  1.00  0.00    -0.237 OA
ATOM     59  O   UNL A   1      56.249  28.134  25.946  1.00  0.00    -0.744 OA
ENDBRANCH  55  56
ENDBRANCH  27  50
BRANCH  39  60
ATOM     60  C   UNL A   1      47.279  33.191  28.372  1.00  0.00    -0.014 A 
ATOM     61  C   UNL A   1      47.170  34.235  27.438  1.00  0.00     0.010 A 
ATOM     62  C   UNL A   1      47.689  33.475  29.686  1.00  0.00     0.010 A 
ATOM     63  C   UNL A   1      47.505  35.539  27.805  1.00  0.00     0.020 A 
ATOM     64  C   UNL A   1      47.990  34.782  30.065  1.00  0.00     0.020 A 
ATOM     65  C   UNL A   1      47.910  35.804  29.117  1.00  0.00     0.054 A 
BRANCH  65  66
ATOM     66  S   UNL A   1      48.297  37.512  29.582  1.00  0.00     0.124 S 
ATOM     67  O   UNL A   1      48.771  38.068  28.319  1.00  0.00    -0.237 OA
ATOM     68  O   UNL A   1      47.007  38.015  30.048  1.00  0.00    -0.237 OA
ATOM     69  O   UNL A   1      49.315  37.366  30.621  1.00  0.00    -0.744 OA
ENDBRANCH  65  66
ENDBRANCH  39  60
ENDBRANCH  13  14
ENDBRANCH   6   8
ENDBRANCH   5   6
ENDBRANCH   4   5
ENDBRANCH   3   4
ENDBRANCH   2   3
ENDBRANCH   1   2
BRANCH   1  70
ATOM     70  C   UNL A   1      40.125  21.434  26.212  1.00  0.00     0.188 C 
BRANCH  70  71
ATOM     71  O   UNL A   1      39.012  22.321  26.286  1.00  0.00    -0.376 OA
BRANCH  71  72
ATOM     72  C   UNL A   1      37.928  22.110  25.390  1.00  0.00     0.202 C 
BRANCH  72  73
ATOM     73  C   UNL A   1      36.492  22.244  25.919  1.00  0.00     0.261 C 
BRANCH  73  74
ATOM     74  O   UNL A   1      35.455  21.914  24.987  1.00  0.00    -0.463 OA
BRANCH  74  75
ATOM     75  C   UNL A   1      34.735  22.985  24.551  1.00  0.00     0.312 C 
ATOM     76  O   UNL A   1      34.868  24.123  24.975  1.00  0.00    -0.252 OA
BRANCH  75  77
ATOM     77  C   UNL A   1      33.828  22.607  23.407  1.00  0.00     0.147 C 
ATOM     78  C   UNL A   1      32.943  23.817  22.994  1.00  0.00     0.129 C 
ATOM     79  C   UNL A   1      32.767  21.592  23.835  1.00  0.00     0.157 C 
ATOM     80  C   UNL A   1      31.529  23.258  23.196  1.00  0.00     0.155 C 
ATOM     81  C   UNL A   1      32.015  22.043  25.052  1.00  0.00     0.004 C 
ATOM     82  O   UNL A   1      31.756  21.874  22.830  1.00  0.00    -0.365 OA
ATOM     83  C   UNL A   1      31.265  23.083  24.663  1.00  0.00     0.004 C 
BRANCH  78  84
ATOM     84  C   UNL A   1      33.113  24.305  21.559  1.00  0.00     0.231 C 
ATOM     85  O   UNL A   1      33.434  23.557  20.635  1.00  0.00    -0.274 OA
ATOM     86  N   UNL A   1      32.824  25.628  21.281  1.00  0.00    -0.325 N 
ATOM     87  H   UNL A   1      32.755  25.870  20.329  1.00  0.00     0.169 HD
BRANCH  86  88
ATOM     88  C   UNL A   1      32.618  26.664  22.205  1.00  0.00     0.048 A 
ATOM     89  C   UNL A   1      33.684  27.075  23.004  1.00  0.00     0.026 A 
ATOM     90  C   UNL A   1      31.396  27.335  22.286  1.00  0.00     0.111 A 
ATOM     91  C   UNL A   1      33.579  28.254  23.750  1.00  0.00     0.009 A 
ATOM     92  C   UNL A   1      31.305  28.533  22.997  1.00  0.00     0.271 A 
ATOM     93  C   UNL A   1      32.402  29.007  23.721  1.00  0.00     0.086 A 
BRANCH  92  94
ATOM     94  N   UNL A   1      30.067  29.316  22.930  1.00  0.00     0.062 N 
ATOM     95  O   UNL A   1      29.819  30.086  23.868  1.00  0.00    -0.258 OA
ATOM     96  O   UNL A   1      29.333  29.152  21.945  1.00  0.00    -0.258 OA
ENDBRANCH  92  94
ENDBRANCH  86  88
ENDBRANCH  78  84
ENDBRANCH  75  77
ENDBRANCH  74  75
ENDBRANCH  73  74
ENDBRANCH  72  73
ENDBRANCH  71  72
ENDBRANCH  70  71
ENDBRANCH   1  70
TORSDOF 23
ENDMDL
