MODEL 1
REMARK VINA RESULT:      -7.9      0.000      0.000
REMARK SMILES CN(CCc1cccs1)C(=O)c1cccn1CC(=O)OCCOCCOCCOC(=O)c1ccc(-c2c3nc(c(-c4ccc(S(=O)(=O)[O-])cc4)c4ccc([nH]4)c(-c4ccc(S(=O)(=O)[O-])cc4)c4nc(c(-c5ccc(S(=O)(=O)[O-])cc5)c5ccc2[nH]5)C=C4)C=C3)cc1
REMARK SMILES IDX 23 1 22 2 21 3 20 4 18 5 19 6 17 7 16 8 12 9 13 10 14 11
REMARK SMILES IDX 15 12 10 13 11 14 2 15 1 16 3 17 4 18 5 19 6 20 9 21 7 22
REMARK SMILES IDX 8 23 24 24 25 25 26 26 27 27 28 28 29 29 30 30 31 31 32 32
REMARK SMILES IDX 33 33 91 34 34 35 90 36 35 37 36 38 37 39 84 40 38 41 89 42
REMARK SMILES IDX 83 43 85 44 39 45 88 46 82 47 81 48 40 50 70 51 51 52 69 53
REMARK SMILES IDX 52 54 55 55 68 56 86 57 53 58 54 59 67 61 87 62 56 63 41 64
REMARK SMILES IDX 42 65 50 66 43 67 49 68 44 69 45 70 46 71 47 72 48 73 71 74
REMARK SMILES IDX 72 75 80 76 73 77 79 78 74 79 75 80 76 81 77 82 78 83 57 84
REMARK SMILES IDX 58 85 66 86 59 87 65 88 60 89 61 90 62 91 63 92 64 93
REMARK H PARENT 85 49 55 60
REMARK Flexibility Score: inf
ROOT
ATOM      1  O   UNL A   1      34.873  33.495  33.736  1.00  0.00    -0.376 OA
ENDROOT
BRANCH   1   2
ATOM      2  C   UNL A   1      36.178  32.945  33.652  1.00  0.00     0.202 C 
BRANCH   2   3
ATOM      3  C   UNL A   1      37.005  33.243  34.912  1.00  0.00     0.261 C 
BRANCH   3   4
ATOM      4  O   UNL A   1      37.581  32.071  35.529  1.00  0.00    -0.462 OA
BRANCH   4   5
ATOM      5  C   UNL A   1      38.902  31.845  35.298  1.00  0.00     0.326 C 
ATOM      6  O   UNL A   1      39.394  31.758  34.173  1.00  0.00    -0.250 OA
BRANCH   5   7
ATOM      7  C   UNL A   1      39.755  31.688  36.541  1.00  0.00     0.244 C 
BRANCH   7   8
ATOM      8  N   UNL A   1      40.970  32.502  36.615  1.00  0.00    -0.332 N 
ATOM      9  C   UNL A   1      41.109  33.816  37.083  1.00  0.00     0.107 A 
ATOM     10  C   UNL A   1      42.353  34.198  36.592  1.00  0.00     0.033 A 
ATOM     11  C   UNL A   1      43.075  33.048  36.199  1.00  0.00     0.020 A 
ATOM     12  C   UNL A   1      42.208  31.994  36.285  1.00  0.00     0.087 A 
BRANCH   9  13
ATOM     13  C   UNL A   1      40.104  34.492  37.911  1.00  0.00     0.270 C 
ATOM     14  O   UNL A   1      39.084  34.938  37.374  1.00  0.00    -0.267 OA
BRANCH  13  15
ATOM     15  N   UNL A   1      40.185  34.572  39.318  1.00  0.00    -0.340 N 
ATOM     16  C   UNL A   1      41.311  35.326  39.859  1.00  0.00     0.147 C 
BRANCH  15  17
ATOM     17  C   UNL A   1      39.263  34.022  40.322  1.00  0.00     0.125 C 
BRANCH  17  18
ATOM     18  C   UNL A   1      38.670  32.638  40.000  1.00  0.00     0.068 C 
BRANCH  18  19
ATOM     19  C   UNL A   1      37.483  32.256  40.833  1.00  0.00     0.006 A 
ATOM     20  C   UNL A   1      37.461  31.595  42.047  1.00  0.00     0.015 A 
ATOM     21  S   UNL A   1      35.894  32.623  40.296  1.00  0.00    -0.149 S 
ATOM     22  C   UNL A   1      36.144  31.488  42.582  1.00  0.00     0.012 A 
ATOM     23  C   UNL A   1      35.198  32.028  41.740  1.00  0.00     0.065 A 
ENDBRANCH  18  19
ENDBRANCH  17  18
ENDBRANCH  15  17
ENDBRANCH  13  15
ENDBRANCH   9  13
ENDBRANCH   7   8
ENDBRANCH   5   7
ENDBRANCH   4   5
ENDBRANCH   3   4
ENDBRANCH   2   3
ENDBRANCH   1   2
BRANCH   1  24
ATOM     24  C   UNL A   1      34.705  34.844  33.297  1.00  0.00     0.188 C 
BRANCH  24  25
ATOM     25  C   UNL A   1      33.572  35.174  32.321  1.00  0.00     0.188 C 
BRANCH  25  26
ATOM     26  O   UNL A   1      34.065  35.417  31.004  1.00  0.00    -0.376 OA
BRANCH  26  27
ATOM     27  C   UNL A   1      33.842  34.332  30.108  1.00  0.00     0.202 C 
BRANCH  27  28
ATOM     28  C   UNL A   1      35.144  33.554  29.970  1.00  0.00     0.261 C 
BRANCH  28  29
ATOM     29  O   UNL A   1      34.983  32.146  30.164  1.00  0.00    -0.460 OA
BRANCH  29  30
ATOM     30  C   UNL A   1      34.974  31.406  29.048  1.00  0.00     0.338 C 
ATOM     31  O   UNL A   1      34.111  31.394  28.159  1.00  0.00    -0.246 OA
BRANCH  30  32
ATOM     32  C   UNL A   1      36.124  30.517  29.043  1.00  0.00     0.060 A 
ATOM     33  C   UNL A   1      36.630  30.074  30.269  1.00  0.00     0.016 A 
ATOM     34  C   UNL A   1      36.820  30.340  27.838  1.00  0.00     0.016 A 
ATOM     35  C   UNL A   1      37.904  29.548  30.306  1.00  0.00     0.010 A 
ATOM     36  C   UNL A   1      38.109  29.859  27.883  1.00  0.00     0.010 A 
ATOM     37  C   UNL A   1      38.652  29.505  29.122  1.00  0.00    -0.014 A 
BRANCH  37  38
ATOM     38  C   UNL A   1      40.047  29.059  29.180  1.00  0.00     0.031 A 
ATOM     39  C   UNL A   1      41.000  30.195  29.532  1.00  0.00     0.074 A 
ATOM     40  C   UNL A   1      40.244  27.737  28.892  1.00  0.00     0.049 A 
ATOM     41  N   UNL A   1      42.279  30.265  29.358  1.00  0.00    -0.248 NA
ATOM     42  C   UNL A   1      40.465  31.462  30.110  1.00  0.00     0.031 C 
ATOM     43  C   UNL A   1      39.159  26.772  28.580  1.00  0.00     0.029 A 
ATOM     44  N   UNL A   1      41.357  26.931  28.798  1.00  0.00    -0.354 N 
ATOM     45  C   UNL A   1      42.722  31.471  29.934  1.00  0.00     0.074 A 
ATOM     46  C   UNL A   1      41.555  32.203  30.317  1.00  0.00     0.031 C 
ATOM     47  C   UNL A   1      39.666  25.562  28.258  1.00  0.00     0.029 A 
ATOM     48  C   UNL A   1      41.109  25.604  28.364  1.00  0.00     0.049 A 
ATOM     49  H   UNL A   1      42.261  27.255  29.016  1.00  0.00     0.167 HD
ATOM     50  C   UNL A   1      44.037  31.747  30.149  1.00  0.00     0.031 A 
ATOM     51  C   UNL A   1      42.003  24.611  28.078  1.00  0.00     0.031 A 
ATOM     52  C   UNL A   1      44.854  30.703  29.633  1.00  0.00     0.049 A 
ATOM     53  C   UNL A   1      43.321  25.119  28.485  1.00  0.00     0.074 A 
ATOM     54  C   UNL A   1      45.187  30.349  28.351  1.00  0.00     0.029 A 
ATOM     55  N   UNL A   1      45.133  29.656  30.479  1.00  0.00    -0.354 N 
ATOM     56  N   UNL A   1      43.716  25.254  29.714  1.00  0.00    -0.248 NA
ATOM     57  C   UNL A   1      44.265  25.567  27.454  1.00  0.00     0.031 C 
ATOM     58  C   UNL A   1      45.233  28.941  28.395  1.00  0.00     0.029 A 
ATOM     59  C   UNL A   1      45.096  28.511  29.721  1.00  0.00     0.049 A 
ATOM     60  H   UNL A   1      45.322  29.716  31.443  1.00  0.00     0.167 HD
ATOM     61  C   UNL A   1      44.744  26.155  29.595  1.00  0.00     0.074 A 
ATOM     62  C   UNL A   1      45.232  26.039  28.237  1.00  0.00     0.031 C 
ATOM     63  C   UNL A   1      44.745  27.269  30.374  1.00  0.00     0.031 A 
BRANCH  50  64
ATOM     64  C   UNL A   1      44.701  32.810  30.967  1.00  0.00    -0.014 A 
ATOM     65  C   UNL A   1      44.331  32.888  32.332  1.00  0.00     0.010 A 
ATOM     66  C   UNL A   1      45.370  33.904  30.402  1.00  0.00     0.010 A 
ATOM     67  C   UNL A   1      44.488  34.063  33.065  1.00  0.00     0.020 A 
ATOM     68  C   UNL A   1      45.565  35.080  31.147  1.00  0.00     0.020 A 
ATOM     69  C   UNL A   1      45.068  35.168  32.451  1.00  0.00     0.054 A 
BRANCH  69  70
ATOM     70  S   UNL A   1      45.069  36.740  33.353  1.00  0.00     0.124 S 
ATOM     71  O   UNL A   1      46.010  36.470  34.436  1.00  0.00    -0.237 OA
ATOM     72  O   UNL A   1      45.534  37.686  32.340  1.00  0.00    -0.237 OA
ATOM     73  O   UNL A   1      43.675  36.905  33.756  1.00  0.00    -0.744 OA
ENDBRANCH  69  70
ENDBRANCH  50  64
BRANCH  51  74
ATOM     74  C   UNL A   1      42.000  23.258  27.408  1.00  0.00    -0.014 A 
ATOM     75  C   UNL A   1      42.713  22.899  26.258  1.00  0.00     0.010 A 
ATOM     76  C   UNL A   1      41.323  22.196  28.072  1.00  0.00     0.010 A 
ATOM     77  C   UNL A   1      42.862  21.540  25.889  1.00  0.00     0.020 A 
ATOM     78  C   UNL A   1      41.503  20.851  27.751  1.00  0.00     0.020 A 
ATOM     79  C   UNL A   1      42.302  20.525  26.670  1.00  0.00     0.054 A 
BRANCH  79  80
ATOM     80  S   UNL A   1      42.721  18.781  26.388  1.00  0.00     0.124 S 
ATOM     81  O   UNL A   1      41.558  18.293  25.655  1.00  0.00    -0.237 OA
ATOM     82  O   UNL A   1      43.963  18.864  25.624  1.00  0.00    -0.237 OA
ATOM     83  O   UNL A   1      42.876  18.251  27.744  1.00  0.00    -0.744 OA
ENDBRANCH  79  80
ENDBRANCH  51  74
BRANCH  63  84
ATOM     84  C   UNL A   1      43.957  27.139  31.674  1.00  0.00    -0.014 A 
ATOM     85  C   UNL A   1      42.760  27.864  31.841  1.00  0.00     0.010 A 
ATOM     86  C   UNL A   1      44.427  26.414  32.789  1.00  0.00     0.010 A 
ATOM     87  C   UNL A   1      42.079  27.888  33.069  1.00  0.00     0.020 A 
ATOM     88  C   UNL A   1      43.750  26.427  34.022  1.00  0.00     0.020 A 
ATOM     89  C   UNL A   1      42.579  27.172  34.156  1.00  0.00     0.054 A 
BRANCH  89  90
ATOM     90  S   UNL A   1      41.690  27.251  35.741  1.00  0.00     0.124 S 
ATOM     91  O   UNL A   1      42.771  27.212  36.722  1.00  0.00    -0.237 OA
ATOM     92  O   UNL A   1      40.981  28.523  35.643  1.00  0.00    -0.237 OA
ATOM     93  O   UNL A   1      40.835  26.064  35.724  1.00  0.00    -0.744 OA
ENDBRANCH  89  90
ENDBRANCH  63  84
ENDBRANCH  37  38
ENDBRANCH  30  32
ENDBRANCH  29  30
ENDBRANCH  28  29
ENDBRANCH  27  28
ENDBRANCH  26  27
ENDBRANCH  25  26
ENDBRANCH  24  25
ENDBRANCH   1  24
TORSDOF 26
ENDMDL
MODEL 2
REMARK VINA RESULT:      -7.7      1.703      3.316
REMARK SMILES CN(CCc1cccs1)C(=O)c1cccn1CC(=O)OCCOCCOCCOC(=O)c1ccc(-c2c3nc(c(-c4ccc(S(=O)(=O)[O-])cc4)c4ccc([nH]4)c(-c4ccc(S(=O)(=O)[O-])cc4)c4nc(c(-c5ccc(S(=O)(=O)[O-])cc5)c5ccc2[nH]5)C=C4)C=C3)cc1
REMARK SMILES IDX 23 1 22 2 21 3 20 4 18 5 19 6 17 7 16 8 12 9 13 10 14 11
REMARK SMILES IDX 15 12 10 13 11 14 2 15 1 16 3 17 4 18 5 19 6 20 9 21 7 22
REMARK SMILES IDX 8 23 24 24 25 25 26 26 27 27 28 28 29 29 30 30 31 31 32 32
REMARK SMILES IDX 33 33 91 34 34 35 90 36 35 37 36 38 37 39 84 40 38 41 89 42
REMARK SMILES IDX 83 43 85 44 39 45 88 46 82 47 81 48 40 50 70 51 51 52 69 53
REMARK SMILES IDX 52 54 55 55 68 56 86 57 53 58 54 59 67 61 87 62 56 63 41 64
REMARK SMILES IDX 42 65 50 66 43 67 49 68 44 69 45 70 46 71 47 72 48 73 71 74
REMARK SMILES IDX 72 75 80 76 73 77 79 78 74 79 75 80 76 81 77 82 78 83 57 84
REMARK SMILES IDX 58 85 66 86 59 87 65 88 60 89 61 90 62 91 63 92 64 93
REMARK H PARENT 85 49 55 60
REMARK Flexibility Score: inf
ROOT
ATOM      1  O   UNL A   1      34.742  33.598  33.786  1.00  0.00    -0.376 OA
ENDROOT
BRANCH   1   2
ATOM      2  C   UNL A   1      36.042  33.046  33.922  1.00  0.00     0.202 C 
BRANCH   2   3
ATOM      3  C   UNL A   1      36.881  33.810  34.957  1.00  0.00     0.261 C 
BRANCH   3   4
ATOM      4  O   UNL A   1      37.210  33.038  36.134  1.00  0.00    -0.462 OA
BRANCH   4   5
ATOM      5  C   UNL A   1      38.521  32.999  36.493  1.00  0.00     0.326 C 
ATOM      6  O   UNL A   1      39.437  33.410  35.781  1.00  0.00    -0.250 OA
BRANCH   5   7
ATOM      7  C   UNL A   1      38.797  32.393  37.854  1.00  0.00     0.244 C 
BRANCH   7   8
ATOM      8  N   UNL A   1      39.576  33.203  38.793  1.00  0.00    -0.332 N 
ATOM      9  C   UNL A   1      40.948  33.131  39.073  1.00  0.00     0.107 A 
ATOM     10  C   UNL A   1      41.067  33.845  40.261  1.00  0.00     0.033 A 
ATOM     11  C   UNL A   1      39.905  34.624  40.458  1.00  0.00     0.020 A 
ATOM     12  C   UNL A   1      39.015  34.252  39.490  1.00  0.00     0.087 A 
BRANCH   9  13
ATOM     13  C   UNL A   1      41.917  32.451  38.206  1.00  0.00     0.270 C 
ATOM     14  O   UNL A   1      41.618  31.358  37.713  1.00  0.00    -0.267 OA
BRANCH  13  15
ATOM     15  N   UNL A   1      43.144  33.026  37.814  1.00  0.00    -0.340 N 
ATOM     16  C   UNL A   1      44.204  33.038  38.818  1.00  0.00     0.147 C 
BRANCH  15  17
ATOM     17  C   UNL A   1      43.517  33.590  36.509  1.00  0.00     0.125 C 
BRANCH  17  18
ATOM     18  C   UNL A   1      42.591  34.695  35.968  1.00  0.00     0.068 C 
BRANCH  18  19
ATOM     19  C   UNL A   1      42.810  35.046  34.526  1.00  0.00     0.006 A 
ATOM     20  C   UNL A   1      42.107  34.611  33.419  1.00  0.00     0.015 A 
ATOM     21  S   UNL A   1      44.086  36.105  34.078  1.00  0.00    -0.149 S 
ATOM     22  C   UNL A   1      42.552  35.234  32.216  1.00  0.00     0.012 A 
ATOM     23  C   UNL A   1      43.609  36.088  32.436  1.00  0.00     0.065 A 
ENDBRANCH  18  19
ENDBRANCH  17  18
ENDBRANCH  15  17
ENDBRANCH  13  15
ENDBRANCH   9  13
ENDBRANCH   7   8
ENDBRANCH   5   7
ENDBRANCH   4   5
ENDBRANCH   3   4
ENDBRANCH   2   3
ENDBRANCH   1   2
BRANCH   1  24
ATOM     24  C   UNL A   1      34.643  34.885  33.172  1.00  0.00     0.188 C 
BRANCH  24  25
ATOM     25  C   UNL A   1      33.588  35.111  32.085  1.00  0.00     0.188 C 
BRANCH  25  26
ATOM     26  O   UNL A   1      34.181  35.247  30.794  1.00  0.00    -0.376 OA
BRANCH  26  27
ATOM     27  C   UNL A   1      33.990  34.107  29.962  1.00  0.00     0.202 C 
BRANCH  27  28
ATOM     28  C   UNL A   1      35.304  33.339  29.899  1.00  0.00     0.261 C 
BRANCH  28  29
ATOM     29  O   UNL A   1      35.139  31.926  30.054  1.00  0.00    -0.460 OA
BRANCH  29  30
ATOM     30  C   UNL A   1      35.151  31.215  28.920  1.00  0.00     0.338 C 
ATOM     31  O   UNL A   1      34.308  31.231  28.012  1.00  0.00    -0.246 OA
BRANCH  30  32
ATOM     32  C   UNL A   1      36.294  30.318  28.918  1.00  0.00     0.060 A 
ATOM     33  C   UNL A   1      36.733  29.794  30.139  1.00  0.00     0.016 A 
ATOM     34  C   UNL A   1      37.051  30.210  27.743  1.00  0.00     0.016 A 
ATOM     35  C   UNL A   1      38.001  29.255  30.209  1.00  0.00     0.010 A 
ATOM     36  C   UNL A   1      38.334  29.716  27.824  1.00  0.00     0.010 A 
ATOM     37  C   UNL A   1      38.810  29.281  29.065  1.00  0.00    -0.014 A 
BRANCH  37  38
ATOM     38  C   UNL A   1      40.197  28.820  29.167  1.00  0.00     0.031 A 
ATOM     39  C   UNL A   1      41.147  29.941  29.572  1.00  0.00     0.074 A 
ATOM     40  C   UNL A   1      40.392  27.500  28.864  1.00  0.00     0.049 A 
ATOM     41  N   UNL A   1      42.432  30.000  29.447  1.00  0.00    -0.248 NA
ATOM     42  C   UNL A   1      40.603  31.204  30.151  1.00  0.00     0.031 C 
ATOM     43  C   UNL A   1      39.311  26.552  28.496  1.00  0.00     0.029 A 
ATOM     44  N   UNL A   1      41.500  26.686  28.798  1.00  0.00    -0.354 N 
ATOM     45  C   UNL A   1      42.865  31.192  30.059  1.00  0.00     0.074 A 
ATOM     46  C   UNL A   1      41.691  31.930  30.410  1.00  0.00     0.031 C 
ATOM     47  C   UNL A   1      39.817  25.342  28.174  1.00  0.00     0.029 A 
ATOM     48  C   UNL A   1      41.256  25.368  28.333  1.00  0.00     0.049 A 
ATOM     49  H   UNL A   1      42.398  26.996  29.055  1.00  0.00     0.167 HD
ATOM     50  C   UNL A   1      44.174  31.452  30.326  1.00  0.00     0.031 A 
ATOM     51  C   UNL A   1      42.151  24.371  28.064  1.00  0.00     0.031 A 
ATOM     52  C   UNL A   1      44.999  30.408  29.823  1.00  0.00     0.049 A 
ATOM     53  C   UNL A   1      43.458  24.860  28.528  1.00  0.00     0.074 A 
ATOM     54  C   UNL A   1      45.376  30.072  28.549  1.00  0.00     0.029 A 
ATOM     55  N   UNL A   1      45.237  29.345  30.662  1.00  0.00    -0.354 N 
ATOM     56  N   UNL A   1      43.808  24.971  29.772  1.00  0.00    -0.248 NA
ATOM     57  C   UNL A   1      44.443  25.315  27.539  1.00  0.00     0.031 C 
ATOM     58  C   UNL A   1      45.407  28.663  28.571  1.00  0.00     0.029 A 
ATOM     59  C   UNL A   1      45.218  28.213  29.884  1.00  0.00     0.049 A 
ATOM     60  H   UNL A   1      45.391  29.388  31.633  1.00  0.00     0.167 HD
ATOM     61  C   UNL A   1      44.848  25.863  29.706  1.00  0.00     0.074 A 
ATOM     62  C   UNL A   1      45.385  25.765  28.365  1.00  0.00     0.031 C 
ATOM     63  C   UNL A   1      44.831  26.964  30.503  1.00  0.00     0.031 A 
BRANCH  50  64
ATOM     64  C   UNL A   1      44.816  32.495  31.186  1.00  0.00    -0.014 A 
ATOM     65  C   UNL A   1      45.604  33.469  30.525  1.00  0.00     0.010 A 
ATOM     66  C   UNL A   1      44.962  32.360  32.573  1.00  0.00     0.010 A 
ATOM     67  C   UNL A   1      46.602  34.176  31.193  1.00  0.00     0.020 A 
ATOM     68  C   UNL A   1      45.943  33.097  33.260  1.00  0.00     0.020 A 
ATOM     69  C   UNL A   1      46.792  33.953  32.552  1.00  0.00     0.054 A 
BRANCH  69  70
ATOM     70  S   UNL A   1      48.226  34.722  33.350  1.00  0.00     0.124 S 
ATOM     71  O   UNL A   1      49.325  33.889  32.870  1.00  0.00    -0.237 OA
ATOM     72  O   UNL A   1      48.193  36.083  32.817  1.00  0.00    -0.237 OA
ATOM     73  O   UNL A   1      47.927  34.611  34.775  1.00  0.00    -0.744 OA
ENDBRANCH  69  70
ENDBRANCH  50  64
BRANCH  51  74
ATOM     74  C   UNL A   1      42.160  23.029  27.372  1.00  0.00    -0.014 A 
ATOM     75  C   UNL A   1      42.928  22.675  26.256  1.00  0.00     0.010 A 
ATOM     76  C   UNL A   1      41.428  21.970  27.980  1.00  0.00     0.010 A 
ATOM     77  C   UNL A   1      43.072  21.320  25.873  1.00  0.00     0.020 A 
ATOM     78  C   UNL A   1      41.602  20.627  27.647  1.00  0.00     0.020 A 
ATOM     79  C   UNL A   1      42.452  20.303  26.605  1.00  0.00     0.054 A 
BRANCH  79  80
ATOM     80  S   UNL A   1      42.854  18.556  26.317  1.00  0.00     0.124 S 
ATOM     81  O   UNL A   1      43.137  18.073  27.664  1.00  0.00    -0.237 OA
ATOM     82  O   UNL A   1      41.635  18.038  25.701  1.00  0.00    -0.237 OA
ATOM     83  O   UNL A   1      44.008  18.622  25.419  1.00  0.00    -0.744 OA
ENDBRANCH  79  80
ENDBRANCH  51  74
BRANCH  63  84
ATOM     84  C   UNL A   1      43.994  26.821  31.771  1.00  0.00    -0.014 A 
ATOM     85  C   UNL A   1      42.959  27.741  32.033  1.00  0.00     0.010 A 
ATOM     86  C   UNL A   1      44.279  25.875  32.777  1.00  0.00     0.010 A 
ATOM     87  C   UNL A   1      42.259  27.735  33.250  1.00  0.00     0.020 A 
ATOM     88  C   UNL A   1      43.580  25.856  33.999  1.00  0.00     0.020 A 
ATOM     89  C   UNL A   1      42.576  26.795  34.230  1.00  0.00     0.054 A 
BRANCH  89  90
ATOM     90  S   UNL A   1      41.672  26.837  35.808  1.00  0.00     0.124 S 
ATOM     91  O   UNL A   1      41.006  28.136  35.766  1.00  0.00    -0.237 OA
ATOM     92  O   UNL A   1      40.789  25.679  35.698  1.00  0.00    -0.237 OA
ATOM     93  O   UNL A   1      42.722  26.719  36.819  1.00  0.00    -0.744 OA
ENDBRANCH  89  90
ENDBRANCH  63  84
ENDBRANCH  37  38
ENDBRANCH  30  32
ENDBRANCH  29  30
ENDBRANCH  28  29
ENDBRANCH  27  28
ENDBRANCH  26  27
ENDBRANCH  25  26
ENDBRANCH  24  25
ENDBRANCH   1  24
TORSDOF 26
ENDMDL
MODEL 3
REMARK VINA RESULT:      -7.4      1.997      3.078
REMARK SMILES CN(CCc1cccs1)C(=O)c1cccn1CC(=O)OCCOCCOCCOC(=O)c1ccc(-c2c3nc(c(-c4ccc(S(=O)(=O)[O-])cc4)c4ccc([nH]4)c(-c4ccc(S(=O)(=O)[O-])cc4)c4nc(c(-c5ccc(S(=O)(=O)[O-])cc5)c5ccc2[nH]5)C=C4)C=C3)cc1
REMARK SMILES IDX 23 1 22 2 21 3 20 4 18 5 19 6 17 7 16 8 12 9 13 10 14 11
REMARK SMILES IDX 15 12 10 13 11 14 2 15 1 16 3 17 4 18 5 19 6 20 9 21 7 22
REMARK SMILES IDX 8 23 24 24 25 25 26 26 27 27 28 28 29 29 30 30 31 31 32 32
REMARK SMILES IDX 33 33 91 34 34 35 90 36 35 37 36 38 37 39 84 40 38 41 89 42
REMARK SMILES IDX 83 43 85 44 39 45 88 46 82 47 81 48 40 50 70 51 51 52 69 53
REMARK SMILES IDX 52 54 55 55 68 56 86 57 53 58 54 59 67 61 87 62 56 63 41 64
REMARK SMILES IDX 42 65 50 66 43 67 49 68 44 69 45 70 46 71 47 72 48 73 71 74
REMARK SMILES IDX 72 75 80 76 73 77 79 78 74 79 75 80 76 81 77 82 78 83 57 84
REMARK SMILES IDX 58 85 66 86 59 87 65 88 60 89 61 90 62 91 63 92 64 93
REMARK H PARENT 85 49 55 60
REMARK Flexibility Score: inf
ROOT
ATOM      1  O   UNL A   1      35.303  34.355  33.333  1.00  0.00    -0.376 OA
ENDROOT
BRANCH   1   2
ATOM      2  C   UNL A   1      36.719  34.303  33.274  1.00  0.00     0.202 C 
BRANCH   2   3
ATOM      3  C   UNL A   1      37.356  34.485  34.660  1.00  0.00     0.261 C 
BRANCH   3   4
ATOM      4  O   UNL A   1      38.214  33.394  35.061  1.00  0.00    -0.462 OA
BRANCH   4   5
ATOM      5  C   UNL A   1      39.548  33.653  35.113  1.00  0.00     0.326 C 
ATOM      6  O   UNL A   1      40.211  34.024  34.145  1.00  0.00    -0.250 OA
BRANCH   5   7
ATOM      7  C   UNL A   1      40.191  33.443  36.470  1.00  0.00     0.244 C 
BRANCH   7   8
ATOM      8  N   UNL A   1      40.001  34.501  37.463  1.00  0.00    -0.332 N 
ATOM      9  C   UNL A   1      39.831  34.373  38.849  1.00  0.00     0.107 A 
ATOM     10  C   UNL A   1      39.339  35.618  39.225  1.00  0.00     0.033 A 
ATOM     11  C   UNL A   1      39.579  36.550  38.190  1.00  0.00     0.020 A 
ATOM     12  C   UNL A   1      40.053  35.836  37.124  1.00  0.00     0.087 A 
BRANCH   9  13
ATOM     13  C   UNL A   1      40.166  33.155  39.596  1.00  0.00     0.270 C 
ATOM     14  O   UNL A   1      39.357  32.222  39.617  1.00  0.00    -0.267 OA
BRANCH  13  15
ATOM     15  N   UNL A   1      41.417  32.944  40.214  1.00  0.00    -0.340 N 
ATOM     16  C   UNL A   1      41.564  33.463  41.571  1.00  0.00     0.147 C 
BRANCH  15  17
ATOM     17  C   UNL A   1      42.592  32.236  39.688  1.00  0.00     0.125 C 
BRANCH  17  18
ATOM     18  C   UNL A   1      43.407  32.992  38.622  1.00  0.00     0.068 C 
BRANCH  18  19
ATOM     19  C   UNL A   1      43.675  32.214  37.369  1.00  0.00     0.006 A 
ATOM     20  C   UNL A   1      42.959  31.154  36.845  1.00  0.00     0.015 A 
ATOM     21  S   UNL A   1      45.034  32.592  36.389  1.00  0.00    -0.149 S 
ATOM     22  C   UNL A   1      43.469  30.726  35.584  1.00  0.00     0.012 A 
ATOM     23  C   UNL A   1      44.584  31.441  35.207  1.00  0.00     0.065 A 
ENDBRANCH  18  19
ENDBRANCH  17  18
ENDBRANCH  15  17
ENDBRANCH  13  15
ENDBRANCH   9  13
ENDBRANCH   7   8
ENDBRANCH   5   7
ENDBRANCH   4   5
ENDBRANCH   3   4
ENDBRANCH   2   3
ENDBRANCH   1   2
BRANCH   1  24
ATOM     24  C   UNL A   1      34.673  35.542  32.848  1.00  0.00     0.188 C 
BRANCH  24  25
ATOM     25  C   UNL A   1      33.437  35.417  31.953  1.00  0.00     0.188 C 
BRANCH  25  26
ATOM     26  O   UNL A   1      33.725  35.779  30.603  1.00  0.00    -0.376 OA
BRANCH  26  27
ATOM     27  C   UNL A   1      33.652  34.683  29.696  1.00  0.00     0.202 C 
BRANCH  27  28
ATOM     28  C   UNL A   1      34.866  33.792  29.929  1.00  0.00     0.261 C 
BRANCH  28  29
ATOM     29  O   UNL A   1      34.523  32.425  30.173  1.00  0.00    -0.460 OA
BRANCH  29  30
ATOM     30  C   UNL A   1      34.589  31.614  29.110  1.00  0.00     0.338 C 
ATOM     31  O   UNL A   1      33.707  31.409  28.263  1.00  0.00    -0.246 OA
BRANCH  30  32
ATOM     32  C   UNL A   1      35.859  30.909  29.111  1.00  0.00     0.060 A 
ATOM     33  C   UNL A   1      36.422  30.550  30.341  1.00  0.00     0.016 A 
ATOM     34  C   UNL A   1      36.578  30.835  27.910  1.00  0.00     0.016 A 
ATOM     35  C   UNL A   1      37.761  30.223  30.384  1.00  0.00     0.010 A 
ATOM     36  C   UNL A   1      37.925  30.554  27.961  1.00  0.00     0.010 A 
ATOM     37  C   UNL A   1      38.511  30.290  29.202  1.00  0.00    -0.014 A 
BRANCH  37  38
ATOM     38  C   UNL A   1      39.956  30.060  29.267  1.00  0.00     0.031 A 
ATOM     39  C   UNL A   1      40.716  31.295  29.734  1.00  0.00     0.074 A 
ATOM     40  C   UNL A   1      40.361  28.811  28.881  1.00  0.00     0.049 A 
ATOM     41  N   UNL A   1      41.972  31.574  29.605  1.00  0.00    -0.248 NA
ATOM     42  C   UNL A   1      39.981  32.414  30.394  1.00  0.00     0.031 C 
ATOM     43  C   UNL A   1      39.445  27.721  28.462  1.00  0.00     0.029 A 
ATOM     44  N   UNL A   1      41.588  28.196  28.757  1.00  0.00    -0.354 N 
ATOM     45  C   UNL A   1      42.212  32.782  30.287  1.00  0.00     0.074 A 
ATOM     46  C   UNL A   1      40.939  33.293  30.691  1.00  0.00     0.031 C 
ATOM     47  C   UNL A   1      40.139  26.633  28.062  1.00  0.00     0.029 A 
ATOM     48  C   UNL A   1      41.556  26.887  28.213  1.00  0.00     0.049 A 
ATOM     49  H   UNL A   1      42.426  28.635  29.027  1.00  0.00     0.167 HD
ATOM     50  C   UNL A   1      43.465  33.238  30.561  1.00  0.00     0.031 A 
ATOM     51  C   UNL A   1      42.598  26.070  27.876  1.00  0.00     0.031 A 
ATOM     52  C   UNL A   1      44.442  32.378  29.989  1.00  0.00     0.049 A 
ATOM     53  C   UNL A   1      43.814  26.739  28.361  1.00  0.00     0.074 A 
ATOM     54  C   UNL A   1      44.848  32.186  28.694  1.00  0.00     0.029 A 
ATOM     55  N   UNL A   1      44.866  31.320  30.759  1.00  0.00    -0.354 N 
ATOM     56  N   UNL A   1      44.162  26.831  29.607  1.00  0.00    -0.248 NA
ATOM     57  C   UNL A   1      44.695  27.409  27.397  1.00  0.00     0.031 C 
ATOM     58  C   UNL A   1      45.111  30.803  28.629  1.00  0.00     0.029 A 
ATOM     59  C   UNL A   1      45.020  30.249  29.912  1.00  0.00     0.049 A 
ATOM     60  H   UNL A   1      45.027  31.329  31.730  1.00  0.00     0.167 HD
ATOM     61  C   UNL A   1      45.040  27.886  29.591  1.00  0.00     0.074 A 
ATOM     62  C   UNL A   1      45.563  27.958  28.243  1.00  0.00     0.031 C 
ATOM     63  C   UNL A   1      44.855  28.918  30.454  1.00  0.00     0.031 A 
BRANCH  50  64
ATOM     64  C   UNL A   1      43.941  34.320  31.480  1.00  0.00    -0.014 A 
ATOM     65  C   UNL A   1      43.724  34.121  32.865  1.00  0.00     0.010 A 
ATOM     66  C   UNL A   1      44.257  35.613  31.041  1.00  0.00     0.010 A 
ATOM     67  C   UNL A   1      43.675  35.191  33.757  1.00  0.00     0.020 A 
ATOM     68  C   UNL A   1      44.245  36.692  31.942  1.00  0.00     0.020 A 
ATOM     69  C   UNL A   1      43.896  36.478  33.279  1.00  0.00     0.054 A 
BRANCH  69  70
ATOM     70  S   UNL A   1      43.621  37.866  34.411  1.00  0.00     0.124 S 
ATOM     71  O   UNL A   1      43.381  38.970  33.487  1.00  0.00    -0.237 OA
ATOM     72  O   UNL A   1      42.455  37.425  35.175  1.00  0.00    -0.237 OA
ATOM     73  O   UNL A   1      44.864  37.941  35.173  1.00  0.00    -0.744 OA
ENDBRANCH  69  70
ENDBRANCH  50  64
BRANCH  51  74
ATOM     74  C   UNL A   1      42.816  24.792  27.102  1.00  0.00    -0.014 A 
ATOM     75  C   UNL A   1      42.839  24.659  25.708  1.00  0.00     0.010 A 
ATOM     76  C   UNL A   1      43.171  23.627  27.840  1.00  0.00     0.010 A 
ATOM     77  C   UNL A   1      43.334  23.482  25.098  1.00  0.00     0.020 A 
ATOM     78  C   UNL A   1      43.709  22.482  27.254  1.00  0.00     0.020 A 
ATOM     79  C   UNL A   1      43.816  22.425  25.877  1.00  0.00     0.054 A 
BRANCH  79  80
ATOM     80  S   UNL A   1      44.719  21.040  25.128  1.00  0.00     0.124 S 
ATOM     81  O   UNL A   1      44.567  21.300  23.700  1.00  0.00    -0.237 OA
ATOM     82  O   UNL A   1      46.070  21.204  25.661  1.00  0.00    -0.237 OA
ATOM     83  O   UNL A   1      44.007  19.864  25.631  1.00  0.00    -0.744 OA
ENDBRANCH  79  80
ENDBRANCH  51  74
BRANCH  63  84
ATOM     84  C   UNL A   1      44.074  28.563  31.717  1.00  0.00    -0.014 A 
ATOM     85  C   UNL A   1      44.689  27.796  32.726  1.00  0.00     0.010 A 
ATOM     86  C   UNL A   1      42.706  28.861  31.883  1.00  0.00     0.010 A 
ATOM     87  C   UNL A   1      43.969  27.325  33.835  1.00  0.00     0.020 A 
ATOM     88  C   UNL A   1      41.975  28.399  32.994  1.00  0.00     0.020 A 
ATOM     89  C   UNL A   1      42.613  27.625  33.962  1.00  0.00     0.054 A 
BRANCH  89  90
ATOM     90  S   UNL A   1      41.702  26.972  35.395  1.00  0.00     0.124 S 
ATOM     91  O   UNL A   1      40.821  25.974  34.793  1.00  0.00    -0.237 OA
ATOM     92  O   UNL A   1      42.771  26.436  36.232  1.00  0.00    -0.237 OA
ATOM     93  O   UNL A   1      41.018  28.143  35.941  1.00  0.00    -0.744 OA
ENDBRANCH  89  90
ENDBRANCH  63  84
ENDBRANCH  37  38
ENDBRANCH  30  32
ENDBRANCH  29  30
ENDBRANCH  28  29
ENDBRANCH  27  28
ENDBRANCH  26  27
ENDBRANCH  25  26
ENDBRANCH  24  25
ENDBRANCH   1  24
TORSDOF 26
ENDMDL
