MODEL 1
REMARK VINA RESULT:     -10.7      0.000      0.000
REMARK SMILES C/C(=N\NC(N)=O)c1nnn(-c2ccc(C(=O)OCCOCCOCCOC(=O)c3ccc(-c4c5nc(c(-c6ccc(S(=O)(=O)[O-])cc6)c6ccc([nH]6)c(-c6ccc(S(=O)(=O)[O-])cc6)c6nc(c(-c7ccc(S(=O)(=O)[O-])cc7)c7ccc4[nH]7)C=C6)C=C5)cc3)cc2)c1C
REMARK SMILES IDX 22 1 21 2 20 3 19 4 18 5 16 6 17 7 15 8 12 9 13 10 91 11
REMARK SMILES IDX 14 12 90 13 11 14 8 15 9 16 92 17 10 18 93 19 2 20 1 21 3 22
REMARK SMILES IDX 4 23 5 24 6 26 7 27 23 30 24 31 25 32 26 33 27 34 28 35
REMARK SMILES IDX 29 36 30 37 31 38 89 39 32 40 88 41 33 42 34 43 35 44 82 45
REMARK SMILES IDX 36 46 87 47 81 48 83 49 37 50 86 51 80 52 79 53 38 55 68 56
REMARK SMILES IDX 49 57 67 58 50 59 53 60 66 61 84 62 51 63 52 64 65 66 85 67
REMARK SMILES IDX 54 68 39 69 40 70 48 71 41 72 47 73 42 74 43 75 44 76 45 77
REMARK SMILES IDX 46 78 69 79 70 80 78 81 71 82 77 83 72 84 73 85 74 86 75 87
REMARK SMILES IDX 76 88 55 89 56 90 64 91 57 92 63 93 58 94 59 95 60 96 61 97
REMARK SMILES IDX 62 98
REMARK H PARENT 4 25 6 28 6 29 83 54 53 65
REMARK Flexibility Score: inf
ROOT
ATOM      1  C   UNL A   1      34.224  31.594  27.871  1.00  0.00     0.188 C 
ENDROOT
BRANCH   1   2
ATOM      2  O   UNL A   1      33.133  30.689  27.942  1.00  0.00    -0.376 OA
BRANCH   2   3
ATOM      3  C   UNL A   1      33.061  29.570  27.070  1.00  0.00     0.202 C 
BRANCH   3   4
ATOM      4  C   UNL A   1      31.793  29.242  26.258  1.00  0.00     0.261 C 
BRANCH   4   5
ATOM      5  O   UNL A   1      31.349  30.258  25.350  1.00  0.00    -0.460 OA
BRANCH   5   6
ATOM      6  C   UNL A   1      30.701  29.828  24.247  1.00  0.00     0.338 C 
ATOM      7  O   UNL A   1      29.781  30.386  23.669  1.00  0.00    -0.246 OA
BRANCH   6   8
ATOM      8  C   UNL A   1      31.357  28.608  23.721  1.00  0.00     0.060 A 
ATOM      9  C   UNL A   1      32.543  26.206  23.020  1.00  0.00     0.067 A 
ATOM     10  C   UNL A   1      31.152  26.258  23.135  1.00  0.00     0.029 A 
ATOM     11  C   UNL A   1      33.323  27.369  23.100  1.00  0.00     0.029 A 
ATOM     12  C   UNL A   1      30.565  27.465  23.515  1.00  0.00     0.018 A 
ATOM     13  C   UNL A   1      32.727  28.578  23.444  1.00  0.00     0.018 A 
BRANCH   9  14
ATOM     14  N   UNL A   1      33.185  24.955  23.112  1.00  0.00    -0.217 N 
ATOM     15  C   UNL A   1      33.880  23.028  23.853  1.00  0.00     0.132 A 
ATOM     16  N   UNL A   1      33.986  23.044  22.485  1.00  0.00    -0.128 NA
ATOM     17  C   UNL A   1      33.332  24.221  24.280  1.00  0.00     0.071 A 
ATOM     18  N   UNL A   1      33.460  24.181  22.042  1.00  0.00    -0.061 NA
ATOM     19  C   UNL A   1      32.836  24.661  25.607  1.00  0.00     0.069 C 
BRANCH  15  20
ATOM     20  C   UNL A   1      34.165  21.852  24.658  1.00  0.00     0.087 C 
ATOM     21  C   UNL A   1      35.617  21.470  24.812  1.00  0.00     0.071 C 
ATOM     22  N   UNL A   1      33.127  21.272  25.183  1.00  0.00    -0.174 NA
BRANCH  22  23
ATOM     23  N   UNL A   1      33.217  20.118  25.909  1.00  0.00    -0.229 N 
ATOM     24  C   UNL A   1      32.712  18.884  25.557  1.00  0.00     0.332 C 
ATOM     25  H   UNL A   1      33.690  20.173  26.770  1.00  0.00     0.195 HD
ATOM     26  N   UNL A   1      32.928  17.944  26.520  1.00  0.00    -0.350 N 
ATOM     27  O   UNL A   1      32.136  18.578  24.523  1.00  0.00    -0.247 OA
ATOM     28  H   UNL A   1      33.392  18.189  27.354  1.00  0.00     0.161 HD
ATOM     29  H   UNL A   1      32.621  17.018  26.382  1.00  0.00     0.161 HD
ENDBRANCH  22  23
ENDBRANCH  15  20
ENDBRANCH   9  14
ENDBRANCH   6   8
ENDBRANCH   5   6
ENDBRANCH   4   5
ENDBRANCH   3   4
ENDBRANCH   2   3
ENDBRANCH   1   2
BRANCH   1  30
ATOM     30  C   UNL A   1      33.993  33.111  27.669  1.00  0.00     0.188 C 
BRANCH  30  31
ATOM     31  O   UNL A   1      35.024  33.952  28.138  1.00  0.00    -0.376 OA
BRANCH  31  32
ATOM     32  C   UNL A   1      34.909  34.686  29.346  1.00  0.00     0.202 C 
BRANCH  32  33
ATOM     33  C   UNL A   1      33.601  35.244  29.909  1.00  0.00     0.261 C 
BRANCH  33  34
ATOM     34  O   UNL A   1      33.134  34.645  31.096  1.00  0.00    -0.460 OA
BRANCH  34  35
ATOM     35  C   UNL A   1      33.498  35.303  32.215  1.00  0.00     0.338 C 
ATOM     36  O   UNL A   1      33.110  36.401  32.577  1.00  0.00    -0.246 OA
BRANCH  35  37
ATOM     37  C   UNL A   1      34.497  34.502  32.921  1.00  0.00     0.060 A 
ATOM     38  C   UNL A   1      35.646  35.177  33.332  1.00  0.00     0.016 A 
ATOM     39  C   UNL A   1      34.433  33.104  32.814  1.00  0.00     0.016 A 
ATOM     40  C   UNL A   1      36.823  34.473  33.337  1.00  0.00     0.010 A 
ATOM     41  C   UNL A   1      35.612  32.407  32.802  1.00  0.00     0.010 A 
ATOM     42  C   UNL A   1      36.790  33.131  32.944  1.00  0.00    -0.014 A 
BRANCH  42  43
ATOM     43  C   UNL A   1      38.050  32.510  32.625  1.00  0.00     0.031 A 
ATOM     44  C   UNL A   1      38.934  32.340  33.788  1.00  0.00     0.074 A 
ATOM     45  C   UNL A   1      38.336  32.086  31.382  1.00  0.00     0.049 A 
ATOM     46  N   UNL A   1      40.015  32.988  34.056  1.00  0.00    -0.248 NA
ATOM     47  C   UNL A   1      38.454  31.467  34.868  1.00  0.00     0.031 C 
ATOM     48  C   UNL A   1      37.434  31.935  30.236  1.00  0.00     0.029 A 
ATOM     49  N   UNL A   1      39.505  31.581  30.921  1.00  0.00    -0.354 N 
ATOM     50  C   UNL A   1      40.468  32.461  35.256  1.00  0.00     0.074 A 
ATOM     51  C   UNL A   1      39.379  31.686  35.799  1.00  0.00     0.031 C 
ATOM     52  C   UNL A   1      38.030  31.150  29.309  1.00  0.00     0.029 A 
ATOM     53  C   UNL A   1      39.392  30.870  29.738  1.00  0.00     0.049 A 
ATOM     54  H   UNL A   1      40.363  31.707  31.388  1.00  0.00     0.167 HD
ATOM     55  C   UNL A   1      41.784  32.486  35.597  1.00  0.00     0.031 A 
ATOM     56  C   UNL A   1      40.330  30.038  29.222  1.00  0.00     0.031 A 
ATOM     57  C   UNL A   1      42.536  33.395  34.776  1.00  0.00     0.049 A 
ATOM     58  C   UNL A   1      41.627  30.388  29.862  1.00  0.00     0.074 A 
ATOM     59  C   UNL A   1      42.495  34.758  34.553  1.00  0.00     0.029 A 
ATOM     60  N   UNL A   1      43.246  32.855  33.728  1.00  0.00    -0.354 N 
ATOM     61  N   UNL A   1      42.242  31.524  29.671  1.00  0.00    -0.248 NA
ATOM     62  C   UNL A   1      42.014  29.672  31.070  1.00  0.00     0.031 C 
ATOM     63  C   UNL A   1      42.783  34.914  33.167  1.00  0.00     0.029 A 
ATOM     64  C   UNL A   1      43.034  33.649  32.631  1.00  0.00     0.049 A 
ATOM     65  H   UNL A   1      43.805  32.045  33.761  1.00  0.00     0.167 HD
ATOM     66  C   UNL A   1      42.771  31.862  30.910  1.00  0.00     0.074 A 
ATOM     67  C   UNL A   1      42.681  30.640  31.705  1.00  0.00     0.031 C 
ATOM     68  C   UNL A   1      42.977  33.164  31.265  1.00  0.00     0.031 A 
BRANCH  55  69
ATOM     69  C   UNL A   1      42.436  31.394  36.400  1.00  0.00    -0.014 A 
ATOM     70  C   UNL A   1      43.248  31.745  37.493  1.00  0.00     0.010 A 
ATOM     71  C   UNL A   1      42.496  30.056  35.956  1.00  0.00     0.010 A 
ATOM     72  C   UNL A   1      44.123  30.815  38.069  1.00  0.00     0.020 A 
ATOM     73  C   UNL A   1      43.326  29.110  36.551  1.00  0.00     0.020 A 
ATOM     74  C   UNL A   1      44.165  29.508  37.582  1.00  0.00     0.054 A 
BRANCH  74  75
ATOM     75  S   UNL A   1      45.382  28.348  38.245  1.00  0.00     0.124 S 
ATOM     76  O   UNL A   1      46.637  29.023  37.933  1.00  0.00    -0.237 OA
ATOM     77  O   UNL A   1      45.021  28.297  39.659  1.00  0.00    -0.237 OA
ATOM     78  O   UNL A   1      45.126  27.119  37.497  1.00  0.00    -0.744 OA
ENDBRANCH  74  75
ENDBRANCH  55  69
BRANCH  56  79
ATOM     79  C   UNL A   1      40.096  28.749  28.522  1.00  0.00    -0.014 A 
ATOM     80  C   UNL A   1      40.541  28.548  27.203  1.00  0.00     0.010 A 
ATOM     81  C   UNL A   1      39.671  27.616  29.249  1.00  0.00     0.010 A 
ATOM     82  C   UNL A   1      40.613  27.256  26.654  1.00  0.00     0.020 A 
ATOM     83  C   UNL A   1      39.733  26.327  28.707  1.00  0.00     0.020 A 
ATOM     84  C   UNL A   1      40.226  26.151  27.418  1.00  0.00     0.054 A 
BRANCH  84  85
ATOM     85  S   UNL A   1      40.491  24.474  26.766  1.00  0.00     0.124 S 
ATOM     86  O   UNL A   1      41.608  24.671  25.847  1.00  0.00    -0.237 OA
ATOM     87  O   UNL A   1      40.789  23.707  27.971  1.00  0.00    -0.237 OA
ATOM     88  O   UNL A   1      39.214  24.149  26.129  1.00  0.00    -0.744 OA
ENDBRANCH  84  85
ENDBRANCH  56  79
BRANCH  68  89
ATOM     89  C   UNL A   1      42.889  34.229  30.196  1.00  0.00    -0.014 A 
ATOM     90  C   UNL A   1      41.680  34.623  29.589  1.00  0.00     0.010 A 
ATOM     91  C   UNL A   1      44.044  34.995  29.953  1.00  0.00     0.010 A 
ATOM     92  C   UNL A   1      41.632  35.756  28.762  1.00  0.00     0.020 A 
ATOM     93  C   UNL A   1      43.998  36.132  29.144  1.00  0.00     0.020 A 
ATOM     94  C   UNL A   1      42.792  36.508  28.551  1.00  0.00     0.054 A 
BRANCH  94  95
ATOM     95  S   UNL A   1      42.707  38.030  27.562  1.00  0.00     0.124 S 
ATOM     96  O   UNL A   1      41.432  37.883  26.865  1.00  0.00    -0.237 OA
ATOM     97  O   UNL A   1      42.752  39.081  28.576  1.00  0.00    -0.237 OA
ATOM     98  O   UNL A   1      43.891  37.957  26.709  1.00  0.00    -0.744 OA
ENDBRANCH  94  95
ENDBRANCH  68  89
ENDBRANCH  42  43
ENDBRANCH  35  37
ENDBRANCH  34  35
ENDBRANCH  33  34
ENDBRANCH  32  33
ENDBRANCH  31  32
ENDBRANCH  30  31
ENDBRANCH   1  30
TORSDOF 23
ENDMDL
MODEL 2
REMARK VINA RESULT:     -10.3      3.214      4.829
REMARK SMILES C/C(=N\NC(N)=O)c1nnn(-c2ccc(C(=O)OCCOCCOCCOC(=O)c3ccc(-c4c5nc(c(-c6ccc(S(=O)(=O)[O-])cc6)c6ccc([nH]6)c(-c6ccc(S(=O)(=O)[O-])cc6)c6nc(c(-c7ccc(S(=O)(=O)[O-])cc7)c7ccc4[nH]7)C=C6)C=C5)cc3)cc2)c1C
REMARK SMILES IDX 22 1 21 2 20 3 19 4 18 5 16 6 17 7 15 8 12 9 13 10 91 11
REMARK SMILES IDX 14 12 90 13 11 14 8 15 9 16 92 17 10 18 93 19 2 20 1 21 3 22
REMARK SMILES IDX 4 23 5 24 6 26 7 27 23 30 24 31 25 32 26 33 27 34 28 35
REMARK SMILES IDX 29 36 30 37 31 38 89 39 32 40 88 41 33 42 34 43 35 44 82 45
REMARK SMILES IDX 36 46 87 47 81 48 83 49 37 50 86 51 80 52 79 53 38 55 68 56
REMARK SMILES IDX 49 57 67 58 50 59 53 60 66 61 84 62 51 63 52 64 65 66 85 67
REMARK SMILES IDX 54 68 39 69 40 70 48 71 41 72 47 73 42 74 43 75 44 76 45 77
REMARK SMILES IDX 46 78 69 79 70 80 78 81 71 82 77 83 72 84 73 85 74 86 75 87
REMARK SMILES IDX 76 88 55 89 56 90 64 91 57 92 63 93 58 94 59 95 60 96 61 97
REMARK SMILES IDX 62 98
REMARK H PARENT 4 25 6 28 6 29 83 54 53 65
REMARK Flexibility Score: inf
ROOT
ATOM      1  C   UNL A   1      30.610  28.634  24.027  1.00  0.00     0.188 C 
ENDROOT
BRANCH   1   2
ATOM      2  O   UNL A   1      30.339  27.438  24.741  1.00  0.00    -0.376 OA
BRANCH   2   3
ATOM      3  C   UNL A   1      30.957  26.215  24.367  1.00  0.00     0.202 C 
BRANCH   3   4
ATOM      4  C   UNL A   1      31.739  26.059  23.048  1.00  0.00     0.261 C 
BRANCH   4   5
ATOM      5  O   UNL A   1      33.163  26.162  23.148  1.00  0.00    -0.460 OA
BRANCH   5   6
ATOM      6  C   UNL A   1      33.678  26.110  24.395  1.00  0.00     0.338 C 
ATOM      7  O   UNL A   1      33.512  26.918  25.296  1.00  0.00    -0.246 OA
BRANCH   6   8
ATOM      8  C   UNL A   1      34.396  24.829  24.589  1.00  0.00     0.060 A 
ATOM      9  C   UNL A   1      35.494  22.296  24.819  1.00  0.00     0.067 A 
ATOM     10  C   UNL A   1      35.495  22.916  23.567  1.00  0.00     0.029 A 
ATOM     11  C   UNL A   1      35.094  22.988  25.972  1.00  0.00     0.029 A 
ATOM     12  C   UNL A   1      34.916  24.180  23.455  1.00  0.00     0.018 A 
ATOM     13  C   UNL A   1      34.550  24.263  25.859  1.00  0.00     0.018 A 
BRANCH   9  14
ATOM     14  N   UNL A   1      35.619  20.894  24.882  1.00  0.00    -0.217 N 
ATOM     15  C   UNL A   1      35.219  18.763  24.678  1.00  0.00     0.132 A 
ATOM     16  N   UNL A   1      36.565  18.947  24.860  1.00  0.00    -0.128 NA
ATOM     17  C   UNL A   1      34.592  19.993  24.645  1.00  0.00     0.071 A 
ATOM     18  N   UNL A   1      36.806  20.254  24.876  1.00  0.00    -0.061 NA
ATOM     19  C   UNL A   1      33.204  20.385  24.298  1.00  0.00     0.069 C 
BRANCH  15  20
ATOM     20  C   UNL A   1      34.624  17.465  24.405  1.00  0.00     0.087 C 
ATOM     21  C   UNL A   1      34.044  17.260  23.027  1.00  0.00     0.071 C 
ATOM     22  N   UNL A   1      34.684  16.610  25.382  1.00  0.00    -0.174 NA
BRANCH  22  23
ATOM     23  N   UNL A   1      34.111  15.371  25.312  1.00  0.00    -0.229 N 
ATOM     24  C   UNL A   1      32.824  15.038  25.676  1.00  0.00     0.332 C 
ATOM     25  H   UNL A   1      34.675  14.643  24.966  1.00  0.00     0.195 HD
ATOM     26  N   UNL A   1      32.573  13.706  25.528  1.00  0.00    -0.350 N 
ATOM     27  O   UNL A   1      31.944  15.784  26.082  1.00  0.00    -0.247 OA
ATOM     28  H   UNL A   1      33.280  13.104  25.201  1.00  0.00     0.161 HD
ATOM     29  H   UNL A   1      31.683  13.346  25.749  1.00  0.00     0.161 HD
ENDBRANCH  22  23
ENDBRANCH  15  20
ENDBRANCH   9  14
ENDBRANCH   6   8
ENDBRANCH   5   6
ENDBRANCH   4   5
ENDBRANCH   3   4
ENDBRANCH   2   3
ENDBRANCH   1   2
BRANCH   1  30
ATOM     30  C   UNL A   1      31.018  29.932  24.766  1.00  0.00     0.188 C 
BRANCH  30  31
ATOM     31  O   UNL A   1      32.228  29.866  25.488  1.00  0.00    -0.376 OA
BRANCH  31  32
ATOM     32  C   UNL A   1      32.374  30.452  26.772  1.00  0.00     0.202 C 
BRANCH  32  33
ATOM     33  C   UNL A   1      33.517  31.380  27.186  1.00  0.00     0.261 C 
BRANCH  33  34
ATOM     34  O   UNL A   1      34.560  30.784  27.923  1.00  0.00    -0.460 OA
BRANCH  34  35
ATOM     35  C   UNL A   1      35.628  31.588  28.095  1.00  0.00     0.338 C 
ATOM     36  O   UNL A   1      35.865  32.627  27.503  1.00  0.00    -0.246 OA
BRANCH  35  37
ATOM     37  C   UNL A   1      36.512  30.979  29.089  1.00  0.00     0.060 A 
ATOM     38  C   UNL A   1      37.538  31.789  29.575  1.00  0.00     0.016 A 
ATOM     39  C   UNL A   1      36.525  29.581  29.208  1.00  0.00     0.016 A 
ATOM     40  C   UNL A   1      38.721  31.179  29.904  1.00  0.00     0.010 A 
ATOM     41  C   UNL A   1      37.714  28.975  29.518  1.00  0.00     0.010 A 
ATOM     42  C   UNL A   1      38.815  29.792  29.741  1.00  0.00    -0.014 A 
BRANCH  42  43
ATOM     43  C   UNL A   1      40.137  29.219  29.755  1.00  0.00     0.031 A 
ATOM     44  C   UNL A   1      40.740  29.163  31.095  1.00  0.00     0.074 A 
ATOM     45  C   UNL A   1      40.712  28.738  28.640  1.00  0.00     0.049 A 
ATOM     46  N   UNL A   1      41.708  29.881  31.553  1.00  0.00    -0.248 NA
ATOM     47  C   UNL A   1      40.060  28.332  32.098  1.00  0.00     0.031 C 
ATOM     48  C   UNL A   1      40.099  28.473  27.334  1.00  0.00     0.029 A 
ATOM     49  N   UNL A   1      41.972  28.266  28.488  1.00  0.00    -0.354 N 
ATOM     50  C   UNL A   1      41.896  29.449  32.857  1.00  0.00     0.074 A 
ATOM     51  C   UNL A   1      40.742  28.653  33.196  1.00  0.00     0.031 C 
ATOM     52  C   UNL A   1      40.918  27.667  26.621  1.00  0.00     0.029 A 
ATOM     53  C   UNL A   1      42.156  27.482  27.361  1.00  0.00     0.049 A 
ATOM     54  H   UNL A   1      42.697  28.464  29.125  1.00  0.00     0.167 HD
ATOM     55  C   UNL A   1      43.099  29.561  33.481  1.00  0.00     0.031 A 
ATOM     56  C   UNL A   1      43.216  26.670  27.127  1.00  0.00     0.031 A 
ATOM     57  C   UNL A   1      43.984  30.458  32.788  1.00  0.00     0.049 A 
ATOM     58  C   UNL A   1      44.321  27.123  28.015  1.00  0.00     0.074 A 
ATOM     59  C   UNL A   1      43.945  31.801  32.469  1.00  0.00     0.029 A 
ATOM     60  N   UNL A   1      44.932  29.893  31.965  1.00  0.00    -0.354 N 
ATOM     61  N   UNL A   1      44.921  28.275  27.888  1.00  0.00    -0.248 NA
ATOM     62  C   UNL A   1      44.450  26.500  29.325  1.00  0.00     0.031 C 
ATOM     63  C   UNL A   1      44.533  31.890  31.175  1.00  0.00     0.029 A 
ATOM     64  C   UNL A   1      44.945  30.609  30.796  1.00  0.00     0.049 A 
ATOM     65  H   UNL A   1      45.498  29.116  32.179  1.00  0.00     0.167 HD
ATOM     66  C   UNL A   1      45.144  28.712  29.188  1.00  0.00     0.074 A 
ATOM     67  C   UNL A   1      44.920  27.537  30.026  1.00  0.00     0.031 C 
ATOM     68  C   UNL A   1      45.216  30.042  29.489  1.00  0.00     0.031 A 
BRANCH  55  69
ATOM     69  C   UNL A   1      43.592  28.553  34.483  1.00  0.00    -0.014 A 
ATOM     70  C   UNL A   1      43.676  28.924  35.837  1.00  0.00     0.010 A 
ATOM     71  C   UNL A   1      44.226  27.351  34.103  1.00  0.00     0.010 A 
ATOM     72  C   UNL A   1      44.415  28.160  36.749  1.00  0.00     0.020 A 
ATOM     73  C   UNL A   1      44.921  26.557  35.011  1.00  0.00     0.020 A 
ATOM     74  C   UNL A   1      45.044  26.989  36.323  1.00  0.00     0.054 A 
BRANCH  74  75
ATOM     75  S   UNL A   1      46.096  26.073  37.473  1.00  0.00     0.124 S 
ATOM     76  O   UNL A   1      46.201  24.777  36.813  1.00  0.00    -0.237 OA
ATOM     77  O   UNL A   1      47.312  26.881  37.489  1.00  0.00    -0.237 OA
ATOM     78  O   UNL A   1      45.330  26.084  38.718  1.00  0.00    -0.744 OA
ENDBRANCH  74  75
ENDBRANCH  55  69
BRANCH  56  79
ATOM     79  C   UNL A   1      43.194  25.332  26.483  1.00  0.00    -0.014 A 
ATOM     80  C   UNL A   1      43.687  25.145  25.180  1.00  0.00     0.010 A 
ATOM     81  C   UNL A   1      42.934  24.179  27.256  1.00  0.00     0.010 A 
ATOM     82  C   UNL A   1      43.965  23.857  24.689  1.00  0.00     0.020 A 
ATOM     83  C   UNL A   1      43.201  22.893  26.772  1.00  0.00     0.020 A 
ATOM     84  C   UNL A   1      43.738  22.739  25.498  1.00  0.00     0.054 A 
BRANCH  84  85
ATOM     85  S   UNL A   1      44.266  21.097  24.925  1.00  0.00     0.124 S 
ATOM     86  O   UNL A   1      43.122  20.262  25.279  1.00  0.00    -0.237 OA
ATOM     87  O   UNL A   1      44.477  21.311  23.497  1.00  0.00    -0.237 OA
ATOM     88  O   UNL A   1      45.483  20.840  25.695  1.00  0.00    -0.744 OA
ENDBRANCH  84  85
ENDBRANCH  56  79
BRANCH  68  89
ATOM     89  C   UNL A   1      45.334  31.037  28.357  1.00  0.00    -0.014 A 
ATOM     90  C   UNL A   1      44.223  31.601  27.700  1.00  0.00     0.010 A 
ATOM     91  C   UNL A   1      46.610  31.567  28.095  1.00  0.00     0.010 A 
ATOM     92  C   UNL A   1      44.389  32.670  26.805  1.00  0.00     0.020 A 
ATOM     93  C   UNL A   1      46.779  32.641  27.219  1.00  0.00     0.020 A 
ATOM     94  C   UNL A   1      45.668  33.188  26.577  1.00  0.00     0.054 A 
BRANCH  94  95
ATOM     95  S   UNL A   1      45.869  34.635  25.497  1.00  0.00     0.124 S 
ATOM     96  O   UNL A   1      47.306  34.640  25.238  1.00  0.00    -0.237 OA
ATOM     97  O   UNL A   1      45.024  34.308  24.351  1.00  0.00    -0.237 OA
ATOM     98  O   UNL A   1      45.384  35.747  26.313  1.00  0.00    -0.744 OA
ENDBRANCH  94  95
ENDBRANCH  68  89
ENDBRANCH  42  43
ENDBRANCH  35  37
ENDBRANCH  34  35
ENDBRANCH  33  34
ENDBRANCH  32  33
ENDBRANCH  31  32
ENDBRANCH  30  31
ENDBRANCH   1  30
TORSDOF 23
ENDMDL
MODEL 3
REMARK VINA RESULT:     -10.2      3.483      5.174
REMARK SMILES C/C(=N\NC(N)=O)c1nnn(-c2ccc(C(=O)OCCOCCOCCOC(=O)c3ccc(-c4c5nc(c(-c6ccc(S(=O)(=O)[O-])cc6)c6ccc([nH]6)c(-c6ccc(S(=O)(=O)[O-])cc6)c6nc(c(-c7ccc(S(=O)(=O)[O-])cc7)c7ccc4[nH]7)C=C6)C=C5)cc3)cc2)c1C
REMARK SMILES IDX 22 1 21 2 20 3 19 4 18 5 16 6 17 7 15 8 12 9 13 10 91 11
REMARK SMILES IDX 14 12 90 13 11 14 8 15 9 16 92 17 10 18 93 19 2 20 1 21 3 22
REMARK SMILES IDX 4 23 5 24 6 26 7 27 23 30 24 31 25 32 26 33 27 34 28 35
REMARK SMILES IDX 29 36 30 37 31 38 89 39 32 40 88 41 33 42 34 43 35 44 82 45
REMARK SMILES IDX 36 46 87 47 81 48 83 49 37 50 86 51 80 52 79 53 38 55 68 56
REMARK SMILES IDX 49 57 67 58 50 59 53 60 66 61 84 62 51 63 52 64 65 66 85 67
REMARK SMILES IDX 54 68 39 69 40 70 48 71 41 72 47 73 42 74 43 75 44 76 45 77
REMARK SMILES IDX 46 78 69 79 70 80 78 81 71 82 77 83 72 84 73 85 74 86 75 87
REMARK SMILES IDX 76 88 55 89 56 90 64 91 57 92 63 93 58 94 59 95 60 96 61 97
REMARK SMILES IDX 62 98
REMARK H PARENT 4 25 6 28 6 29 83 54 53 65
REMARK Flexibility Score: inf
ROOT
ATOM      1  C   UNL A   1      34.357  34.540  31.467  1.00  0.00     0.188 C 
ENDROOT
BRANCH   1   2
ATOM      2  O   UNL A   1      33.268  34.596  30.559  1.00  0.00    -0.376 OA
BRANCH   2   3
ATOM      3  C   UNL A   1      33.440  35.124  29.251  1.00  0.00     0.202 C 
BRANCH   3   4
ATOM      4  C   UNL A   1      33.521  34.221  28.005  1.00  0.00     0.261 C 
BRANCH   4   5
ATOM      5  O   UNL A   1      33.309  32.823  28.229  1.00  0.00    -0.460 OA
BRANCH   5   6
ATOM      6  C   UNL A   1      34.350  32.010  27.945  1.00  0.00     0.338 C 
ATOM      7  O   UNL A   1      35.517  32.167  28.270  1.00  0.00    -0.246 OA
BRANCH   6   8
ATOM      8  C   UNL A   1      33.861  30.783  27.275  1.00  0.00     0.060 A 
ATOM      9  C   UNL A   1      32.734  28.472  26.245  1.00  0.00     0.067 A 
ATOM     10  C   UNL A   1      32.064  29.684  26.061  1.00  0.00     0.029 A 
ATOM     11  C   UNL A   1      34.022  28.431  26.796  1.00  0.00     0.029 A 
ATOM     12  C   UNL A   1      32.625  30.838  26.607  1.00  0.00     0.018 A 
ATOM     13  C   UNL A   1      34.594  29.593  27.307  1.00  0.00     0.018 A 
BRANCH   9  14
ATOM     14  N   UNL A   1      32.004  27.271  26.143  1.00  0.00    -0.217 N 
ATOM     15  C   UNL A   1      31.437  25.220  25.681  1.00  0.00     0.132 A 
ATOM     16  N   UNL A   1      30.637  25.685  26.692  1.00  0.00    -0.128 NA
ATOM     17  C   UNL A   1      32.350  26.197  25.337  1.00  0.00     0.071 A 
ATOM     18  N   UNL A   1      31.064  26.896  27.035  1.00  0.00    -0.061 NA
ATOM     19  C   UNL A   1      33.542  26.168  24.455  1.00  0.00     0.069 C 
BRANCH  15  20
ATOM     20  C   UNL A   1      31.391  23.849  25.198  1.00  0.00     0.087 C 
ATOM     21  C   UNL A   1      30.958  23.647  23.766  1.00  0.00     0.071 C 
ATOM     22  N   UNL A   1      31.759  22.945  26.056  1.00  0.00    -0.174 NA
BRANCH  22  23
ATOM     23  N   UNL A   1      31.708  21.607  25.782  1.00  0.00    -0.229 N 
ATOM     24  C   UNL A   1      32.780  20.746  25.685  1.00  0.00     0.332 C 
ATOM     25  H   UNL A   1      30.815  21.219  25.641  1.00  0.00     0.195 HD
ATOM     26  N   UNL A   1      32.398  19.480  25.353  1.00  0.00    -0.350 N 
ATOM     27  O   UNL A   1      33.962  20.999  25.867  1.00  0.00    -0.247 OA
ATOM     28  H   UNL A   1      31.447  19.275  25.206  1.00  0.00     0.161 HD
ATOM     29  H   UNL A   1      33.075  18.770  25.261  1.00  0.00     0.161 HD
ENDBRANCH  22  23
ENDBRANCH  15  20
ENDBRANCH   9  14
ENDBRANCH   6   8
ENDBRANCH   5   6
ENDBRANCH   4   5
ENDBRANCH   3   4
ENDBRANCH   2   3
ENDBRANCH   1   2
BRANCH   1  30
ATOM     30  C   UNL A   1      34.612  35.681  32.481  1.00  0.00     0.188 C 
BRANCH  30  31
ATOM     31  O   UNL A   1      35.331  35.316  33.639  1.00  0.00    -0.376 OA
BRANCH  31  32
ATOM     32  C   UNL A   1      35.262  34.012  34.192  1.00  0.00     0.202 C 
BRANCH  32  33
ATOM     33  C   UNL A   1      36.367  32.959  34.089  1.00  0.00     0.261 C 
BRANCH  33  34
ATOM     34  O   UNL A   1      36.079  31.838  33.285  1.00  0.00    -0.460 OA
BRANCH  34  35
ATOM     35  C   UNL A   1      36.954  31.657  32.276  1.00  0.00     0.338 C 
ATOM     36  O   UNL A   1      36.898  32.149  31.162  1.00  0.00    -0.246 OA
BRANCH  35  37
ATOM     37  C   UNL A   1      37.982  30.714  32.716  1.00  0.00     0.060 A 
ATOM     38  C   UNL A   1      39.250  31.249  32.942  1.00  0.00     0.016 A 
ATOM     39  C   UNL A   1      37.759  29.342  32.524  1.00  0.00     0.016 A 
ATOM     40  C   UNL A   1      40.330  30.450  32.668  1.00  0.00     0.010 A 
ATOM     41  C   UNL A   1      38.838  28.551  32.232  1.00  0.00     0.010 A 
ATOM     42  C   UNL A   1      40.089  29.156  32.194  1.00  0.00    -0.014 A 
BRANCH  42  43
ATOM     43  C   UNL A   1      41.198  28.462  31.592  1.00  0.00     0.031 A 
ATOM     44  C   UNL A   1      42.327  28.246  32.510  1.00  0.00     0.074 A 
ATOM     45  C   UNL A   1      41.151  28.016  30.325  1.00  0.00     0.049 A 
ATOM     46  N   UNL A   1      43.474  28.832  32.498  1.00  0.00    -0.248 NA
ATOM     47  C   UNL A   1      42.074  27.408  33.691  1.00  0.00     0.031 C 
ATOM     48  C   UNL A   1      39.991  27.911  29.433  1.00  0.00     0.029 A 
ATOM     49  N   UNL A   1      42.144  27.440  29.606  1.00  0.00    -0.354 N 
ATOM     50  C   UNL A   1      44.174  28.285  33.563  1.00  0.00     0.074 A 
ATOM     51  C   UNL A   1      43.208  27.578  34.368  1.00  0.00     0.031 C 
ATOM     52  C   UNL A   1      40.302  27.088  28.405  1.00  0.00     0.029 A 
ATOM     53  C   UNL A   1      41.709  26.732  28.498  1.00  0.00     0.049 A 
ATOM     54  H   UNL A   1      43.095  27.519  29.850  1.00  0.00     0.167 HD
ATOM     55  C   UNL A   1      45.533  28.235  33.576  1.00  0.00     0.031 A 
ATOM     56  C   UNL A   1      42.447  25.843  27.788  1.00  0.00     0.031 A 
ATOM     57  C   UNL A   1      46.113  29.095  32.580  1.00  0.00     0.049 A 
ATOM     58  C   UNL A   1      43.878  26.121  28.089  1.00  0.00     0.074 A 
ATOM     59  C   UNL A   1      46.095  30.456  32.348  1.00  0.00     0.029 A 
ATOM     60  N   UNL A   1      46.518  28.509  31.403  1.00  0.00    -0.354 N 
ATOM     61  N   UNL A   1      44.490  27.218  27.734  1.00  0.00    -0.248 NA
ATOM     62  C   UNL A   1      44.505  25.390  29.181  1.00  0.00     0.031 C 
ATOM     63  C   UNL A   1      46.047  30.589  30.931  1.00  0.00     0.029 A 
ATOM     64  C   UNL A   1      46.091  29.308  30.374  1.00  0.00     0.049 A 
ATOM     65  H   UNL A   1      47.022  27.668  31.316  1.00  0.00     0.167 HD
ATOM     66  C   UNL A   1      45.321  27.530  28.802  1.00  0.00     0.074 A 
ATOM     67  C   UNL A   1      45.358  26.320  29.619  1.00  0.00     0.031 C 
ATOM     68  C   UNL A   1      45.678  28.821  29.072  1.00  0.00     0.031 A 
BRANCH  55  69
ATOM     69  C   UNL A   1      46.298  27.112  34.219  1.00  0.00    -0.014 A 
ATOM     70  C   UNL A   1      45.997  25.787  33.855  1.00  0.00     0.010 A 
ATOM     71  C   UNL A   1      47.110  27.298  35.357  1.00  0.00     0.010 A 
ATOM     72  C   UNL A   1      46.435  24.709  34.633  1.00  0.00     0.020 A 
ATOM     73  C   UNL A   1      47.593  26.232  36.111  1.00  0.00     0.020 A 
ATOM     74  C   UNL A   1      47.218  24.943  35.765  1.00  0.00     0.054 A 
BRANCH  74  75
ATOM     75  S   UNL A   1      47.677  23.558  36.833  1.00  0.00     0.124 S 
ATOM     76  O   UNL A   1      48.905  23.089  36.200  1.00  0.00    -0.237 OA
ATOM     77  O   UNL A   1      47.836  24.209  38.130  1.00  0.00    -0.237 OA
ATOM     78  O   UNL A   1      46.533  22.654  36.730  1.00  0.00    -0.744 OA
ENDBRANCH  74  75
ENDBRANCH  55  69
BRANCH  56  79
ATOM     79  C   UNL A   1      41.980  24.567  27.190  1.00  0.00    -0.014 A 
ATOM     80  C   UNL A   1      42.885  23.670  26.594  1.00  0.00     0.010 A 
ATOM     81  C   UNL A   1      40.672  24.102  27.447  1.00  0.00     0.010 A 
ATOM     82  C   UNL A   1      42.513  22.342  26.320  1.00  0.00     0.020 A 
ATOM     83  C   UNL A   1      40.291  22.784  27.171  1.00  0.00     0.020 A 
ATOM     84  C   UNL A   1      41.222  21.902  26.629  1.00  0.00     0.054 A 
BRANCH  84  85
ATOM     85  S   UNL A   1      40.806  20.143  26.438  1.00  0.00     0.124 S 
ATOM     86  O   UNL A   1      39.436  20.201  25.935  1.00  0.00    -0.237 OA
ATOM     87  O   UNL A   1      41.811  19.679  25.487  1.00  0.00    -0.237 OA
ATOM     88  O   UNL A   1      40.946  19.608  27.792  1.00  0.00    -0.744 OA
ENDBRANCH  84  85
ENDBRANCH  56  79
BRANCH  68  89
ATOM     89  C   UNL A   1      45.394  29.884  28.036  1.00  0.00    -0.014 A 
ATOM     90  C   UNL A   1      44.093  30.248  27.634  1.00  0.00     0.010 A 
ATOM     91  C   UNL A   1      46.475  30.677  27.612  1.00  0.00     0.010 A 
ATOM     92  C   UNL A   1      43.885  31.380  26.830  1.00  0.00     0.020 A 
ATOM     93  C   UNL A   1      46.272  31.812  26.826  1.00  0.00     0.020 A 
ATOM     94  C   UNL A   1      44.978  32.160  26.437  1.00  0.00     0.054 A 
BRANCH  94  95
ATOM     95  S   UNL A   1      44.698  33.679  25.481  1.00  0.00     0.124 S 
ATOM     96  O   UNL A   1      46.055  34.175  25.270  1.00  0.00    -0.237 OA
ATOM     97  O   UNL A   1      44.014  33.191  24.285  1.00  0.00    -0.237 OA
ATOM     98  O   UNL A   1      43.870  34.497  26.365  1.00  0.00    -0.744 OA
ENDBRANCH  94  95
ENDBRANCH  68  89
ENDBRANCH  42  43
ENDBRANCH  35  37
ENDBRANCH  34  35
ENDBRANCH  33  34
ENDBRANCH  32  33
ENDBRANCH  31  32
ENDBRANCH  30  31
ENDBRANCH   1  30
TORSDOF 23
ENDMDL
