MODEL 1
REMARK VINA RESULT:      -7.4      0.000      0.000
REMARK SMILES COc1c(C)cc(Br)cc1C(=O)Nc1ccc(O)c(C(=O)OCCOCCOCCOC(=O)c2ccc(-c3c4nc(c(-c5ccc(S(=O)(=O)[O-])cc5)c5ccc([nH]5)c(-c5ccc(S(=O)(=O)[O-])cc5)c5nc(c(-c6ccc(S(=O)(=O)[O-])cc6)c6ccc3[nH]6)C=C5)C=C4)cc2)c1
REMARK SMILES IDX 26 1 25 2 24 3 23 4 22 5 20 6 21 7 19 8 14 9 15 10 94 11
REMARK SMILES IDX 16 12 17 13 13 14 11 15 12 16 10 18 3 19 4 20 5 21 6 22 9 23
REMARK SMILES IDX 7 24 8 25 2 26 1 27 18 28 27 30 28 31 29 32 30 33 31 34
REMARK SMILES IDX 32 35 33 36 34 37 35 38 93 39 36 40 92 41 37 42 38 43 39 44
REMARK SMILES IDX 86 45 40 46 91 47 85 48 87 49 41 50 90 51 84 52 83 53 42 55
REMARK SMILES IDX 72 56 53 57 71 58 54 59 57 60 70 61 88 62 55 63 56 64 69 66
REMARK SMILES IDX 89 67 58 68 43 69 44 70 52 71 45 72 51 73 46 74 47 75 48 76
REMARK SMILES IDX 49 77 50 78 73 79 74 80 82 81 75 82 81 83 76 84 77 85 78 86
REMARK SMILES IDX 79 87 80 88 59 89 60 90 68 91 61 92 67 93 62 94 63 95 64 96
REMARK SMILES IDX 65 97 66 98
REMARK H PARENT 13 17 18 29 87 54 57 65
REMARK Flexibility Score: inf
ROOT
ATOM      1  C   UNL A   1      39.990  22.839  26.887  1.00  0.00     0.188 C 
ENDROOT
BRANCH   1   2
ATOM      2  O   UNL A   1      38.758  22.247  26.507  1.00  0.00    -0.376 OA
BRANCH   2   3
ATOM      3  C   UNL A   1      37.797  23.039  25.811  1.00  0.00     0.202 C 
BRANCH   3   4
ATOM      4  C   UNL A   1      36.482  22.385  25.385  1.00  0.00     0.261 C 
BRANCH   4   5
ATOM      5  O   UNL A   1      35.399  22.953  26.127  1.00  0.00    -0.460 OA
BRANCH   5   6
ATOM      6  C   UNL A   1      34.435  22.100  26.552  1.00  0.00     0.342 C 
ATOM      7  O   UNL A   1      34.394  21.525  27.628  1.00  0.00    -0.246 OA
BRANCH   6   8
ATOM      8  C   UNL A   1      33.297  22.197  25.611  1.00  0.00     0.103 A 
ATOM      9  C   UNL A   1      31.291  23.358  24.964  1.00  0.00     0.042 A 
ATOM     10  C   UNL A   1      31.398  22.820  23.678  1.00  0.00     0.030 A 
ATOM     11  C   UNL A   1      32.293  23.133  25.902  1.00  0.00     0.045 A 
ATOM     12  C   UNL A   1      32.368  21.856  23.402  1.00  0.00     0.049 A 
ATOM     13  C   UNL A   1      33.275  21.496  24.397  1.00  0.00     0.130 A 
BRANCH   9  14
ATOM     14  N   UNL A   1      30.179  24.135  25.296  1.00  0.00    -0.322 N 
ATOM     15  C   UNL A   1      30.195  25.373  25.919  1.00  0.00     0.259 C 
ATOM     16  O   UNL A   1      29.310  25.656  26.728  1.00  0.00    -0.269 OA
ATOM     17  H   UNL A   1      29.296  23.766  25.065  1.00  0.00     0.170 HD
BRANCH  15  18
ATOM     18  C   UNL A   1      31.058  26.482  25.385  1.00  0.00     0.083 A 
ATOM     19  C   UNL A   1      31.024  27.053  24.105  1.00  0.00     0.134 A 
ATOM     20  C   UNL A   1      31.666  28.275  23.830  1.00  0.00    -0.007 A 
ATOM     21  C   UNL A   1      31.413  29.008  22.542  1.00  0.00     0.048 C 
ATOM     22  C   UNL A   1      32.567  28.785  24.765  1.00  0.00     0.023 A 
ATOM     23  C   UNL A   1      31.974  27.016  26.308  1.00  0.00     0.033 A 
ATOM     24  C   UNL A   1      32.749  28.128  25.979  1.00  0.00     0.019 A 
ATOM     25  Br  UNL A   1      34.045  28.771  27.195  1.00  0.00    -0.051 Br
BRANCH  19  26
ATOM     26  O   UNL A   1      30.430  26.426  23.050  1.00  0.00    -0.496 OA
ATOM     27  C   UNL A   1      31.406  25.861  22.171  1.00  0.00     0.278 C 
ENDBRANCH  19  26
ENDBRANCH  15  18
ENDBRANCH   9  14
BRANCH  13  28
ATOM     28  O   UNL A   1      34.163  20.487  24.158  1.00  0.00    -0.507 OA
ATOM     29  H   UNL A   1      33.852  19.622  23.975  1.00  0.00     0.293 HD
ENDBRANCH  13  28
ENDBRANCH   6   8
ENDBRANCH   5   6
ENDBRANCH   4   5
ENDBRANCH   3   4
ENDBRANCH   2   3
ENDBRANCH   1   2
BRANCH   1  30
ATOM     30  C   UNL A   1      40.902  22.134  27.910  1.00  0.00     0.188 C 
BRANCH  30  31
ATOM     31  O   UNL A   1      42.126  21.528  27.542  1.00  0.00    -0.376 OA
BRANCH  31  32
ATOM     32  C   UNL A   1      42.384  21.279  26.169  1.00  0.00     0.202 C 
BRANCH  32  33
ATOM     33  C   UNL A   1      43.757  21.602  25.575  1.00  0.00     0.261 C 
BRANCH  33  34
ATOM     34  O   UNL A   1      44.451  22.671  26.234  1.00  0.00    -0.460 OA
BRANCH  34  35
ATOM     35  C   UNL A   1      45.781  22.733  25.966  1.00  0.00     0.338 C 
ATOM     36  O   UNL A   1      46.488  21.838  25.536  1.00  0.00    -0.246 OA
BRANCH  35  37
ATOM     37  C   UNL A   1      46.249  24.127  26.085  1.00  0.00     0.060 A 
ATOM     38  C   UNL A   1      46.113  24.965  24.970  1.00  0.00     0.016 A 
ATOM     39  C   UNL A   1      46.876  24.582  27.245  1.00  0.00     0.016 A 
ATOM     40  C   UNL A   1      46.642  26.254  24.996  1.00  0.00     0.010 A 
ATOM     41  C   UNL A   1      47.425  25.868  27.262  1.00  0.00     0.010 A 
ATOM     42  C   UNL A   1      47.341  26.695  26.127  1.00  0.00    -0.014 A 
BRANCH  42  43
ATOM     43  C   UNL A   1      48.139  27.943  26.057  1.00  0.00     0.031 A 
ATOM     44  C   UNL A   1      47.473  29.242  26.422  1.00  0.00     0.074 A 
ATOM     45  C   UNL A   1      49.432  27.924  25.688  1.00  0.00     0.049 A 
ATOM     46  N   UNL A   1      47.956  30.457  26.390  1.00  0.00    -0.248 NA
ATOM     47  C   UNL A   1      46.076  29.160  26.882  1.00  0.00     0.031 C 
ATOM     48  C   UNL A   1      50.200  26.727  25.348  1.00  0.00     0.029 A 
ATOM     49  N   UNL A   1      50.323  28.954  25.527  1.00  0.00    -0.354 N 
ATOM     50  C   UNL A   1      46.923  31.284  26.817  1.00  0.00     0.074 A 
ATOM     51  C   UNL A   1      45.780  30.437  27.081  1.00  0.00     0.031 C 
ATOM     52  C   UNL A   1      51.448  27.095  25.005  1.00  0.00     0.029 A 
ATOM     53  C   UNL A   1      51.556  28.552  25.070  1.00  0.00     0.049 A 
ATOM     54  H   UNL A   1      50.102  29.894  25.721  1.00  0.00     0.167 HD
ATOM     55  C   UNL A   1      46.925  32.629  26.977  1.00  0.00     0.031 A 
ATOM     56  C   UNL A   1      52.637  29.279  24.724  1.00  0.00     0.031 A 
ATOM     57  C   UNL A   1      48.055  33.474  26.702  1.00  0.00     0.049 A 
ATOM     58  C   UNL A   1      52.592  30.781  24.848  1.00  0.00     0.074 A 
ATOM     59  C   UNL A   1      48.157  34.847  26.846  1.00  0.00     0.029 A 
ATOM     60  N   UNL A   1      49.278  33.030  26.223  1.00  0.00    -0.354 N 
ATOM     61  N   UNL A   1      51.616  31.546  25.275  1.00  0.00    -0.248 NA
ATOM     62  C   UNL A   1      53.802  31.516  24.449  1.00  0.00     0.031 C 
ATOM     63  C   UNL A   1      49.423  35.239  26.403  1.00  0.00     0.029 A 
ATOM     64  C   UNL A   1      50.132  34.104  26.042  1.00  0.00     0.049 A 
ATOM     65  H   UNL A   1      49.504  32.090  26.039  1.00  0.00     0.167 HD
ATOM     66  C   UNL A   1      52.106  32.849  25.228  1.00  0.00     0.074 A 
ATOM     67  C   UNL A   1      53.467  32.766  24.740  1.00  0.00     0.031 C 
ATOM     68  C   UNL A   1      51.486  34.007  25.561  1.00  0.00     0.031 A 
BRANCH  55  69
ATOM     69  C   UNL A   1      45.649  33.275  27.442  1.00  0.00    -0.014 A 
ATOM     70  C   UNL A   1      45.359  33.411  28.812  1.00  0.00     0.010 A 
ATOM     71  C   UNL A   1      44.748  33.795  26.495  1.00  0.00     0.010 A 
ATOM     72  C   UNL A   1      44.176  34.030  29.224  1.00  0.00     0.020 A 
ATOM     73  C   UNL A   1      43.577  34.437  26.905  1.00  0.00     0.020 A 
ATOM     74  C   UNL A   1      43.292  34.539  28.268  1.00  0.00     0.054 A 
BRANCH  74  75
ATOM     75  S   UNL A   1      41.781  35.369  28.832  1.00  0.00     0.124 S 
ATOM     76  O   UNL A   1      42.321  36.506  29.572  1.00  0.00    -0.237 OA
ATOM     77  O   UNL A   1      41.108  35.698  27.578  1.00  0.00    -0.237 OA
ATOM     78  O   UNL A   1      41.112  34.357  29.647  1.00  0.00    -0.744 OA
ENDBRANCH  74  75
ENDBRANCH  55  69
BRANCH  56  79
ATOM     79  C   UNL A   1      53.853  28.602  24.196  1.00  0.00    -0.014 A 
ATOM     80  C   UNL A   1      54.891  28.209  25.060  1.00  0.00     0.010 A 
ATOM     81  C   UNL A   1      53.990  28.369  22.814  1.00  0.00     0.010 A 
ATOM     82  C   UNL A   1      56.053  27.623  24.550  1.00  0.00     0.020 A 
ATOM     83  C   UNL A   1      55.138  27.757  22.304  1.00  0.00     0.020 A 
ATOM     84  C   UNL A   1      56.170  27.401  23.174  1.00  0.00     0.054 A 
BRANCH  84  85
ATOM     85  S   UNL A   1      57.673  26.611  22.536  1.00  0.00     0.124 S 
ATOM     86  O   UNL A   1      58.648  27.693  22.629  1.00  0.00    -0.237 OA
ATOM     87  O   UNL A   1      57.866  25.501  23.466  1.00  0.00    -0.237 OA
ATOM     88  O   UNL A   1      57.301  26.217  21.178  1.00  0.00    -0.744 OA
ENDBRANCH  84  85
ENDBRANCH  56  79
BRANCH  68  89
ATOM     89  C   UNL A   1      52.284  35.281  25.458  1.00  0.00    -0.014 A 
ATOM     90  C   UNL A   1      53.118  35.711  26.505  1.00  0.00     0.010 A 
ATOM     91  C   UNL A   1      52.240  36.029  24.266  1.00  0.00     0.010 A 
ATOM     92  C   UNL A   1      53.866  36.885  26.375  1.00  0.00     0.020 A 
ATOM     93  C   UNL A   1      53.008  37.187  24.122  1.00  0.00     0.020 A 
ATOM     94  C   UNL A   1      53.805  37.617  25.185  1.00  0.00     0.054 A 
BRANCH  94  95
ATOM     95  S   UNL A   1      54.816  39.115  25.024  1.00  0.00     0.124 S 
ATOM     96  O   UNL A   1      56.084  38.575  24.541  1.00  0.00    -0.237 OA
ATOM     97  O   UNL A   1      54.062  39.910  24.057  1.00  0.00    -0.237 OA
ATOM     98  O   UNL A   1      54.846  39.660  26.379  1.00  0.00    -0.744 OA
ENDBRANCH  94  95
ENDBRANCH  68  89
ENDBRANCH  42  43
ENDBRANCH  35  37
ENDBRANCH  34  35
ENDBRANCH  33  34
ENDBRANCH  32  33
ENDBRANCH  31  32
ENDBRANCH  30  31
ENDBRANCH   1  30
TORSDOF 24
ENDMDL
MODEL 2
REMARK VINA RESULT:      -7.4      7.955     13.240
REMARK SMILES COc1c(C)cc(Br)cc1C(=O)Nc1ccc(O)c(C(=O)OCCOCCOCCOC(=O)c2ccc(-c3c4nc(c(-c5ccc(S(=O)(=O)[O-])cc5)c5ccc([nH]5)c(-c5ccc(S(=O)(=O)[O-])cc5)c5nc(c(-c6ccc(S(=O)(=O)[O-])cc6)c6ccc3[nH]6)C=C5)C=C4)cc2)c1
REMARK SMILES IDX 26 1 25 2 24 3 23 4 22 5 20 6 21 7 19 8 14 9 15 10 94 11
REMARK SMILES IDX 16 12 17 13 13 14 11 15 12 16 10 18 3 19 4 20 5 21 6 22 9 23
REMARK SMILES IDX 7 24 8 25 2 26 1 27 18 28 27 30 28 31 29 32 30 33 31 34
REMARK SMILES IDX 32 35 33 36 34 37 35 38 93 39 36 40 92 41 37 42 38 43 39 44
REMARK SMILES IDX 86 45 40 46 91 47 85 48 87 49 41 50 90 51 84 52 83 53 42 55
REMARK SMILES IDX 72 56 53 57 71 58 54 59 57 60 70 61 88 62 55 63 56 64 69 66
REMARK SMILES IDX 89 67 58 68 43 69 44 70 52 71 45 72 51 73 46 74 47 75 48 76
REMARK SMILES IDX 49 77 50 78 73 79 74 80 82 81 75 82 81 83 76 84 77 85 78 86
REMARK SMILES IDX 79 87 80 88 59 89 60 90 68 91 61 92 67 93 62 94 63 95 64 96
REMARK SMILES IDX 65 97 66 98
REMARK H PARENT 13 17 18 29 87 54 57 65
REMARK Flexibility Score: inf
ROOT
ATOM      1  C   UNL A   1      34.796  32.938  32.575  1.00  0.00     0.188 C 
ENDROOT
BRANCH   1   2
ATOM      2  O   UNL A   1      35.558  34.098  32.868  1.00  0.00    -0.376 OA
BRANCH   2   3
ATOM      3  C   UNL A   1      35.727  34.486  34.230  1.00  0.00     0.202 C 
BRANCH   3   4
ATOM      4  C   UNL A   1      36.845  33.831  35.044  1.00  0.00     0.261 C 
BRANCH   4   5
ATOM      5  O   UNL A   1      38.021  33.713  34.238  1.00  0.00    -0.460 OA
BRANCH   5   6
ATOM      6  C   UNL A   1      38.855  34.782  34.213  1.00  0.00     0.342 C 
ATOM      7  O   UNL A   1      39.040  35.582  35.116  1.00  0.00    -0.246 OA
BRANCH   6   8
ATOM      8  C   UNL A   1      39.712  34.659  33.013  1.00  0.00     0.103 A 
ATOM      9  C   UNL A   1      41.916  34.286  32.123  1.00  0.00     0.042 A 
ATOM     10  C   UNL A   1      41.355  33.922  30.895  1.00  0.00     0.030 A 
ATOM     11  C   UNL A   1      41.096  34.555  33.214  1.00  0.00     0.045 A 
ATOM     12  C   UNL A   1      39.985  34.069  30.682  1.00  0.00     0.049 A 
ATOM     13  C   UNL A   1      39.174  34.506  31.727  1.00  0.00     0.130 A 
BRANCH   9  14
ATOM     14  N   UNL A   1      43.305  34.363  32.251  1.00  0.00    -0.322 N 
ATOM     15  C   UNL A   1      44.174  35.048  31.417  1.00  0.00     0.259 C 
ATOM     16  O   UNL A   1      45.282  34.571  31.174  1.00  0.00    -0.269 OA
ATOM     17  H   UNL A   1      43.706  33.883  33.012  1.00  0.00     0.170 HD
BRANCH  15  18
ATOM     18  C   UNL A   1      43.925  36.492  31.082  1.00  0.00     0.083 A 
ATOM     19  C   UNL A   1      44.160  37.612  31.891  1.00  0.00     0.134 A 
ATOM     20  C   UNL A   1      44.175  38.914  31.358  1.00  0.00    -0.007 A 
ATOM     21  C   UNL A   1      44.679  40.076  32.167  1.00  0.00     0.048 C 
ATOM     22  C   UNL A   1      43.686  39.115  30.066  1.00  0.00     0.023 A 
ATOM     23  C   UNL A   1      43.434  36.723  29.784  1.00  0.00     0.033 A 
ATOM     24  C   UNL A   1      43.277  38.024  29.305  1.00  0.00     0.019 A 
ATOM     25  Br  UNL A   1      42.523  38.316  27.597  1.00  0.00    -0.051 Br
BRANCH  19  26
ATOM     26  O   UNL A   1      44.317  37.506  33.242  1.00  0.00    -0.496 OA
ATOM     27  C   UNL A   1      43.064  37.638  33.918  1.00  0.00     0.278 C 
ENDBRANCH  19  26
ENDBRANCH  15  18
ENDBRANCH   9  14
BRANCH  13  28
ATOM     28  O   UNL A   1      37.849  34.741  31.493  1.00  0.00    -0.507 OA
ATOM     29  H   UNL A   1      37.441  35.509  31.841  1.00  0.00     0.293 HD
ENDBRANCH  13  28
ENDBRANCH   6   8
ENDBRANCH   5   6
ENDBRANCH   4   5
ENDBRANCH   3   4
ENDBRANCH   2   3
ENDBRANCH   1   2
BRANCH   1  30
ATOM     30  C   UNL A   1      34.780  32.366  31.143  1.00  0.00     0.188 C 
BRANCH  30  31
ATOM     31  O   UNL A   1      34.053  32.974  30.093  1.00  0.00    -0.376 OA
BRANCH  31  32
ATOM     32  C   UNL A   1      34.725  33.291  28.885  1.00  0.00     0.202 C 
BRANCH  32  33
ATOM     33  C   UNL A   1      34.815  32.256  27.762  1.00  0.00     0.261 C 
BRANCH  33  34
ATOM     34  O   UNL A   1      34.247  30.979  28.086  1.00  0.00    -0.460 OA
BRANCH  34  35
ATOM     35  C   UNL A   1      34.987  29.912  27.688  1.00  0.00     0.338 C 
ATOM     36  O   UNL A   1      34.768  29.175  26.742  1.00  0.00    -0.246 OA
BRANCH  35  37
ATOM     37  C   UNL A   1      36.243  29.861  28.460  1.00  0.00     0.060 A 
ATOM     38  C   UNL A   1      37.412  30.335  27.848  1.00  0.00     0.016 A 
ATOM     39  C   UNL A   1      36.287  29.291  29.732  1.00  0.00     0.016 A 
ATOM     40  C   UNL A   1      38.641  30.202  28.492  1.00  0.00     0.010 A 
ATOM     41  C   UNL A   1      37.523  29.140  30.368  1.00  0.00     0.010 A 
ATOM     42  C   UNL A   1      38.707  29.563  29.736  1.00  0.00    -0.014 A 
BRANCH  42  43
ATOM     43  C   UNL A   1      40.025  29.172  30.291  1.00  0.00     0.031 A 
ATOM     44  C   UNL A   1      40.492  29.828  31.563  1.00  0.00     0.074 A 
ATOM     45  C   UNL A   1      40.790  28.247  29.686  1.00  0.00     0.049 A 
ATOM     46  N   UNL A   1      41.622  29.680  32.205  1.00  0.00    -0.248 NA
ATOM     47  C   UNL A   1      39.559  30.778  32.195  1.00  0.00     0.031 C 
ATOM     48  C   UNL A   1      40.434  27.512  28.473  1.00  0.00     0.029 A 
ATOM     49  N   UNL A   1      42.037  27.775  30.012  1.00  0.00    -0.354 N 
ATOM     50  C   UNL A   1      41.542  30.521  33.308  1.00  0.00     0.074 A 
ATOM     51  C   UNL A   1      40.262  31.193  33.239  1.00  0.00     0.031 C 
ATOM     52  C   UNL A   1      41.449  26.692  28.147  1.00  0.00     0.029 A 
ATOM     53  C   UNL A   1      42.536  26.865  29.111  1.00  0.00     0.049 A 
ATOM     54  H   UNL A   1      42.529  28.062  30.815  1.00  0.00     0.167 HD
ATOM     55  C   UNL A   1      42.450  30.716  34.293  1.00  0.00     0.031 A 
ATOM     56  C   UNL A   1      43.739  26.261  29.058  1.00  0.00     0.031 A 
ATOM     57  C   UNL A   1      43.727  30.060  34.356  1.00  0.00     0.049 A 
ATOM     58  C   UNL A   1      44.760  26.545  30.130  1.00  0.00     0.074 A 
ATOM     59  C   UNL A   1      44.711  30.183  35.322  1.00  0.00     0.029 A 
ATOM     60  N   UNL A   1      44.203  29.160  33.414  1.00  0.00    -0.354 N 
ATOM     61  N   UNL A   1      44.660  27.326  31.180  1.00  0.00    -0.248 NA
ATOM     62  C   UNL A   1      46.055  25.857  30.013  1.00  0.00     0.031 C 
ATOM     63  C   UNL A   1      45.802  29.399  34.936  1.00  0.00     0.029 A 
ATOM     64  C   UNL A   1      45.474  28.740  33.763  1.00  0.00     0.049 A 
ATOM     65  H   UNL A   1      43.708  28.864  32.616  1.00  0.00     0.167 HD
ATOM     66  C   UNL A   1      45.866  27.197  31.865  1.00  0.00     0.074 A 
ATOM     67  C   UNL A   1      46.674  26.257  31.116  1.00  0.00     0.031 C 
ATOM     68  C   UNL A   1      46.266  27.799  33.011  1.00  0.00     0.031 A 
BRANCH  55  69
ATOM     69  C   UNL A   1      42.106  31.710  35.369  1.00  0.00    -0.014 A 
ATOM     70  C   UNL A   1      40.935  31.575  36.136  1.00  0.00     0.010 A 
ATOM     71  C   UNL A   1      42.991  32.768  35.647  1.00  0.00     0.010 A 
ATOM     72  C   UNL A   1      40.642  32.498  37.144  1.00  0.00     0.020 A 
ATOM     73  C   UNL A   1      42.713  33.678  36.670  1.00  0.00     0.020 A 
ATOM     74  C   UNL A   1      41.533  33.544  37.403  1.00  0.00     0.054 A 
BRANCH  74  75
ATOM     75  S   UNL A   1      41.144  34.708  38.739  1.00  0.00     0.124 S 
ATOM     76  O   UNL A   1      41.469  33.922  39.926  1.00  0.00    -0.237 OA
ATOM     77  O   UNL A   1      42.041  35.827  38.462  1.00  0.00    -0.237 OA
ATOM     78  O   UNL A   1      39.723  34.992  38.551  1.00  0.00    -0.744 OA
ENDBRANCH  74  75
ENDBRANCH  55  69
BRANCH  56  79
ATOM     79  C   UNL A   1      44.065  25.342  27.932  1.00  0.00    -0.014 A 
ATOM     80  C   UNL A   1      43.816  23.962  28.034  1.00  0.00     0.010 A 
ATOM     81  C   UNL A   1      44.652  25.845  26.755  1.00  0.00     0.010 A 
ATOM     82  C   UNL A   1      44.174  23.100  26.993  1.00  0.00     0.020 A 
ATOM     83  C   UNL A   1      44.985  24.990  25.702  1.00  0.00     0.020 A 
ATOM     84  C   UNL A   1      44.758  23.619  25.834  1.00  0.00     0.054 A 
BRANCH  84  85
ATOM     85  S   UNL A   1      45.186  22.487  24.482  1.00  0.00     0.124 S 
ATOM     86  O   UNL A   1      46.123  23.288  23.701  1.00  0.00    -0.237 OA
ATOM     87  O   UNL A   1      45.764  21.349  25.194  1.00  0.00    -0.237 OA
ATOM     88  O   UNL A   1      43.901  22.222  23.839  1.00  0.00    -0.744 OA
ENDBRANCH  84  85
ENDBRANCH  56  79
BRANCH  68  89
ATOM     89  C   UNL A   1      47.620  27.430  33.560  1.00  0.00    -0.014 A 
ATOM     90  C   UNL A   1      47.816  26.248  34.296  1.00  0.00     0.010 A 
ATOM     91  C   UNL A   1      48.726  28.255  33.282  1.00  0.00     0.010 A 
ATOM     92  C   UNL A   1      49.087  25.917  34.773  1.00  0.00     0.020 A 
ATOM     93  C   UNL A   1      50.003  27.912  33.733  1.00  0.00     0.020 A 
ATOM     94  C   UNL A   1      50.173  26.751  34.490  1.00  0.00     0.054 A 
BRANCH  94  95
ATOM     95  S   UNL A   1      51.821  26.280  35.086  1.00  0.00     0.124 S 
ATOM     96  O   UNL A   1      52.549  27.542  34.996  1.00  0.00    -0.237 OA
ATOM     97  O   UNL A   1      51.549  25.805  36.441  1.00  0.00    -0.237 OA
ATOM     98  O   UNL A   1      52.246  25.246  34.145  1.00  0.00    -0.744 OA
ENDBRANCH  94  95
ENDBRANCH  68  89
ENDBRANCH  42  43
ENDBRANCH  35  37
ENDBRANCH  34  35
ENDBRANCH  33  34
ENDBRANCH  32  33
ENDBRANCH  31  32
ENDBRANCH  30  31
ENDBRANCH   1  30
TORSDOF 24
ENDMDL
MODEL 3
REMARK VINA RESULT:      -7.3     10.367     17.670
REMARK SMILES COc1c(C)cc(Br)cc1C(=O)Nc1ccc(O)c(C(=O)OCCOCCOCCOC(=O)c2ccc(-c3c4nc(c(-c5ccc(S(=O)(=O)[O-])cc5)c5ccc([nH]5)c(-c5ccc(S(=O)(=O)[O-])cc5)c5nc(c(-c6ccc(S(=O)(=O)[O-])cc6)c6ccc3[nH]6)C=C5)C=C4)cc2)c1
REMARK SMILES IDX 26 1 25 2 24 3 23 4 22 5 20 6 21 7 19 8 14 9 15 10 94 11
REMARK SMILES IDX 16 12 17 13 13 14 11 15 12 16 10 18 3 19 4 20 5 21 6 22 9 23
REMARK SMILES IDX 7 24 8 25 2 26 1 27 18 28 27 30 28 31 29 32 30 33 31 34
REMARK SMILES IDX 32 35 33 36 34 37 35 38 93 39 36 40 92 41 37 42 38 43 39 44
REMARK SMILES IDX 86 45 40 46 91 47 85 48 87 49 41 50 90 51 84 52 83 53 42 55
REMARK SMILES IDX 72 56 53 57 71 58 54 59 57 60 70 61 88 62 55 63 56 64 69 66
REMARK SMILES IDX 89 67 58 68 43 69 44 70 52 71 45 72 51 73 46 74 47 75 48 76
REMARK SMILES IDX 49 77 50 78 73 79 74 80 82 81 75 82 81 83 76 84 77 85 78 86
REMARK SMILES IDX 79 87 80 88 59 89 60 90 68 91 61 92 67 93 62 94 63 95 64 96
REMARK SMILES IDX 65 97 66 98
REMARK H PARENT 13 17 18 29 87 54 57 65
REMARK Flexibility Score: inf
ROOT
ATOM      1  C   UNL A   1      50.721  21.601  40.843  1.00  0.00     0.188 C 
ENDROOT
BRANCH   1   2
ATOM      2  O   UNL A   1      49.951  20.922  41.822  1.00  0.00    -0.376 OA
BRANCH   2   3
ATOM      3  C   UNL A   1      49.894  19.496  41.789  1.00  0.00     0.202 C 
BRANCH   3   4
ATOM      4  C   UNL A   1      48.556  18.812  42.070  1.00  0.00     0.261 C 
BRANCH   4   5
ATOM      5  O   UNL A   1      47.704  18.929  40.926  1.00  0.00    -0.460 OA
BRANCH   5   6
ATOM      6  C   UNL A   1      47.079  17.801  40.511  1.00  0.00     0.342 C 
ATOM      7  O   UNL A   1      46.970  16.758  41.135  1.00  0.00    -0.246 OA
BRANCH   6   8
ATOM      8  C   UNL A   1      46.310  18.133  39.291  1.00  0.00     0.103 A 
ATOM      9  C   UNL A   1      46.184  19.409  37.255  1.00  0.00     0.042 A 
ATOM     10  C   UNL A   1      45.250  18.501  36.747  1.00  0.00     0.030 A 
ATOM     11  C   UNL A   1      46.793  19.173  38.483  1.00  0.00     0.045 A 
ATOM     12  C   UNL A   1      44.736  17.495  37.566  1.00  0.00     0.049 A 
ATOM     13  C   UNL A   1      45.221  17.358  38.865  1.00  0.00     0.130 A 
BRANCH   9  14
ATOM     14  N   UNL A   1      46.512  20.548  36.515  1.00  0.00    -0.322 N 
ATOM     15  C   UNL A   1      47.733  21.203  36.508  1.00  0.00     0.259 C 
ATOM     16  O   UNL A   1      47.762  22.430  36.421  1.00  0.00    -0.269 OA
ATOM     17  H   UNL A   1      45.804  20.922  35.942  1.00  0.00     0.170 HD
BRANCH  15  18
ATOM     18  C   UNL A   1      49.004  20.437  36.267  1.00  0.00     0.083 A 
ATOM     19  C   UNL A   1      49.720  20.320  35.068  1.00  0.00     0.134 A 
ATOM     20  C   UNL A   1      51.041  19.835  35.046  1.00  0.00    -0.007 A 
ATOM     21  C   UNL A   1      51.887  19.954  33.809  1.00  0.00     0.048 C 
ATOM     22  C   UNL A   1      51.548  19.214  36.188  1.00  0.00     0.023 A 
ATOM     23  C   UNL A   1      49.537  19.803  37.404  1.00  0.00     0.033 A 
ATOM     24  C   UNL A   1      50.776  19.163  37.346  1.00  0.00     0.019 A 
ATOM     25  Br  UNL A   1      51.430  18.232  38.855  1.00  0.00    -0.051 Br
BRANCH  19  26
ATOM     26  O   UNL A   1      49.155  20.602  33.860  1.00  0.00    -0.496 OA
ATOM     27  C   UNL A   1      48.297  19.541  33.433  1.00  0.00     0.278 C 
ENDBRANCH  19  26
ENDBRANCH  15  18
ENDBRANCH   9  14
BRANCH  13  28
ATOM     28  O   UNL A   1      44.654  16.436  39.697  1.00  0.00    -0.507 OA
ATOM     29  H   UNL A   1      43.974  15.875  39.381  1.00  0.00     0.293 HD
ENDBRANCH  13  28
ENDBRANCH   6   8
ENDBRANCH   5   6
ENDBRANCH   4   5
ENDBRANCH   3   4
ENDBRANCH   2   3
ENDBRANCH   1   2
BRANCH   1  30
ATOM     30  C   UNL A   1      50.033  22.550  39.842  1.00  0.00     0.188 C 
BRANCH  30  31
ATOM     31  O   UNL A   1      49.489  23.796  40.232  1.00  0.00    -0.376 OA
BRANCH  31  32
ATOM     32  C   UNL A   1      49.269  24.789  39.243  1.00  0.00     0.202 C 
BRANCH  32  33
ATOM     33  C   UNL A   1      47.852  25.063  38.732  1.00  0.00     0.261 C 
BRANCH  33  34
ATOM     34  O   UNL A   1      47.657  26.384  38.208  1.00  0.00    -0.460 OA
BRANCH  34  35
ATOM     35  C   UNL A   1      47.481  26.440  36.863  1.00  0.00     0.338 C 
ATOM     36  O   UNL A   1      48.023  25.746  36.020  1.00  0.00    -0.246 OA
BRANCH  35  37
ATOM     37  C   UNL A   1      46.369  27.354  36.542  1.00  0.00     0.060 A 
ATOM     38  C   UNL A   1      45.074  26.974  36.919  1.00  0.00     0.016 A 
ATOM     39  C   UNL A   1      46.584  28.529  35.821  1.00  0.00     0.016 A 
ATOM     40  C   UNL A   1      43.979  27.748  36.538  1.00  0.00     0.010 A 
ATOM     41  C   UNL A   1      45.484  29.293  35.421  1.00  0.00     0.010 A 
ATOM     42  C   UNL A   1      44.176  28.888  35.748  1.00  0.00    -0.014 A 
BRANCH  42  43
ATOM     43  C   UNL A   1      43.013  29.550  35.111  1.00  0.00     0.031 A 
ATOM     44  C   UNL A   1      42.569  29.074  33.754  1.00  0.00     0.074 A 
ATOM     45  C   UNL A   1      42.355  30.548  35.728  1.00  0.00     0.049 A 
ATOM     46  N   UNL A   1      41.612  29.531  32.988  1.00  0.00    -0.248 NA
ATOM     47  C   UNL A   1      43.303  27.930  33.185  1.00  0.00     0.031 C 
ATOM     48  C   UNL A   1      42.663  31.073  37.058  1.00  0.00     0.029 A 
ATOM     49  N   UNL A   1      41.293  31.305  35.303  1.00  0.00    -0.354 N 
ATOM     50  C   UNL A   1      41.633  28.740  31.846  1.00  0.00     0.074 A 
ATOM     51  C   UNL A   1      42.711  27.788  32.007  1.00  0.00     0.031 C 
ATOM     52  C   UNL A   1      41.815  32.080  37.334  1.00  0.00     0.029 A 
ATOM     53  C   UNL A   1      40.927  32.289  36.191  1.00  0.00     0.049 A 
ATOM     54  H   UNL A   1      40.836  31.159  34.444  1.00  0.00     0.167 HD
ATOM     55  C   UNL A   1      40.828  28.798  30.760  1.00  0.00     0.031 A 
ATOM     56  C   UNL A   1      39.998  33.260  36.082  1.00  0.00     0.031 A 
ATOM     57  C   UNL A   1      39.766  29.752  30.591  1.00  0.00     0.049 A 
ATOM     58  C   UNL A   1      39.157  33.346  34.833  1.00  0.00     0.074 A 
ATOM     59  C   UNL A   1      38.887  29.882  29.530  1.00  0.00     0.029 A 
ATOM     60  N   UNL A   1      39.440  30.744  31.504  1.00  0.00    -0.354 N 
ATOM     61  N   UNL A   1      39.175  32.576  33.771  1.00  0.00    -0.248 NA
ATOM     62  C   UNL A   1      38.166  34.430  34.774  1.00  0.00     0.031 C 
ATOM     63  C   UNL A   1      38.065  30.985  29.777  1.00  0.00     0.029 A 
ATOM     64  C   UNL A   1      38.390  31.504  31.019  1.00  0.00     0.049 A 
ATOM     65  H   UNL A   1      39.890  30.885  32.368  1.00  0.00     0.167 HD
ATOM     66  C   UNL A   1      38.174  33.062  32.933  1.00  0.00     0.074 A 
ATOM     67  C   UNL A   1      37.567  34.185  33.616  1.00  0.00     0.031 C 
ATOM     68  C   UNL A   1      37.791  32.617  31.712  1.00  0.00     0.031 A 
BRANCH  55  69
ATOM     69  C   UNL A   1      41.088  27.819  29.648  1.00  0.00    -0.014 A 
ATOM     70  C   UNL A   1      42.280  27.865  28.901  1.00  0.00     0.010 A 
ATOM     71  C   UNL A   1      40.148  26.809  29.376  1.00  0.00     0.010 A 
ATOM     72  C   UNL A   1      42.512  26.936  27.884  1.00  0.00     0.020 A 
ATOM     73  C   UNL A   1      40.388  25.862  28.377  1.00  0.00     0.020 A 
ATOM     74  C   UNL A   1      41.563  25.941  27.628  1.00  0.00     0.054 A 
BRANCH  74  75
ATOM     75  S   UNL A   1      41.905  24.726  26.325  1.00  0.00     0.124 S 
ATOM     76  O   UNL A   1      43.310  24.410  26.570  1.00  0.00    -0.237 OA
ATOM     77  O   UNL A   1      40.959  23.655  26.627  1.00  0.00    -0.237 OA
ATOM     78  O   UNL A   1      41.639  25.458  25.089  1.00  0.00    -0.744 OA
ENDBRANCH  74  75
ENDBRANCH  55  69
BRANCH  56  79
ATOM     79  C   UNL A   1      39.827  34.256  37.176  1.00  0.00    -0.014 A 
ATOM     80  C   UNL A   1      39.023  33.967  38.292  1.00  0.00     0.010 A 
ATOM     81  C   UNL A   1      40.451  35.514  37.091  1.00  0.00     0.010 A 
ATOM     82  C   UNL A   1      38.824  34.927  39.289  1.00  0.00     0.020 A 
ATOM     83  C   UNL A   1      40.277  36.466  38.099  1.00  0.00     0.020 A 
ATOM     84  C   UNL A   1      39.452  36.172  39.186  1.00  0.00     0.054 A 
BRANCH  84  85
ATOM     85  S   UNL A   1      39.206  37.393  40.505  1.00  0.00     0.124 S 
ATOM     86  O   UNL A   1      40.536  37.980  40.626  1.00  0.00    -0.237 OA
ATOM     87  O   UNL A   1      38.177  38.264  39.942  1.00  0.00    -0.237 OA
ATOM     88  O   UNL A   1      38.772  36.583  41.642  1.00  0.00    -0.744 OA
ENDBRANCH  84  85
ENDBRANCH  56  79
BRANCH  68  89
ATOM     89  C   UNL A   1      36.630  33.311  31.047  1.00  0.00    -0.014 A 
ATOM     90  C   UNL A   1      35.431  33.558  31.737  1.00  0.00     0.010 A 
ATOM     91  C   UNL A   1      36.768  33.774  29.725  1.00  0.00     0.010 A 
ATOM     92  C   UNL A   1      34.378  34.225  31.104  1.00  0.00     0.020 A 
ATOM     93  C   UNL A   1      35.728  34.465  29.100  1.00  0.00     0.020 A 
ATOM     94  C   UNL A   1      34.532  34.673  29.789  1.00  0.00     0.054 A 
BRANCH  94  95
ATOM     95  S   UNL A   1      33.166  35.572  29.003  1.00  0.00     0.124 S 
ATOM     96  O   UNL A   1      33.873  36.619  28.271  1.00  0.00    -0.237 OA
ATOM     97  O   UNL A   1      32.536  34.544  28.177  1.00  0.00    -0.237 OA
ATOM     98  O   UNL A   1      32.361  36.034  30.131  1.00  0.00    -0.744 OA
ENDBRANCH  94  95
ENDBRANCH  68  89
ENDBRANCH  42  43
ENDBRANCH  35  37
ENDBRANCH  34  35
ENDBRANCH  33  34
ENDBRANCH  32  33
ENDBRANCH  31  32
ENDBRANCH  30  31
ENDBRANCH   1  30
TORSDOF 24
ENDMDL
