MODEL 1
REMARK VINA RESULT:      -9.4      0.000      0.000
REMARK SMILES C[C@@H](C(=O)OCCOCCOCCOC(=O)c1ccc(-c2c3nc(c(-c4ccc(S(=O)(=O)[O-])cc4)c4ccc([nH]4)c(-c4ccc(S(=O)(=O)[O-])cc4)c4nc(c(-c5ccc(S(=O)(=O)[O-])cc5)c5ccc2[nH]5)C=C4)C=C3)cc1)c1ccc(Cc2ccoc2)cc1F
REMARK SMILES IDX 9 1 8 2 7 3 6 4 5 5 3 6 4 7 2 8 1 9 77 10 78 11 88 12 79 13
REMARK SMILES IDX 87 14 89 15 80 16 81 17 82 18 83 19 86 20 84 21 85 22 10 23
REMARK SMILES IDX 11 24 12 25 13 26 14 27 15 28 16 29 17 30 18 31 76 32 19 33
REMARK SMILES IDX 75 34 20 35 21 36 22 37 69 38 23 39 74 40 68 41 70 42 24 43
REMARK SMILES IDX 73 44 67 45 66 46 25 48 55 49 36 50 54 51 37 52 40 53 53 54
REMARK SMILES IDX 71 55 38 56 39 57 52 59 72 60 41 61 26 62 27 63 35 64 28 65
REMARK SMILES IDX 34 66 29 67 30 68 31 69 32 70 33 71 56 72 57 73 65 74 58 75
REMARK SMILES IDX 64 76 59 77 60 78 61 79 62 80 63 81 42 82 43 83 51 84 44 85
REMARK SMILES IDX 50 86 45 87 46 88 47 89 48 90 49 91
REMARK H PARENT 70 47 40 58
REMARK Flexibility Score: inf
ROOT
ATOM      1  C   UNL A   1      34.722  31.888  27.824  1.00  0.00     0.188 C 
ENDROOT
BRANCH   1   2
ATOM      2  O   UNL A   1      33.694  30.906  27.926  1.00  0.00    -0.376 OA
BRANCH   2   3
ATOM      3  C   UNL A   1      33.062  30.463  26.731  1.00  0.00     0.202 C 
BRANCH   3   4
ATOM      4  C   UNL A   1      32.082  29.283  26.817  1.00  0.00     0.261 C 
BRANCH   4   5
ATOM      5  O   UNL A   1      31.362  28.980  25.599  1.00  0.00    -0.463 OA
BRANCH   5   6
ATOM      6  C   UNL A   1      32.115  28.601  24.527  1.00  0.00     0.313 C 
ATOM      7  O   UNL A   1      33.003  29.301  24.048  1.00  0.00    -0.252 OA
BRANCH   6   8
ATOM      8  C   UNL A   1      31.709  27.254  23.897  1.00  0.00     0.129 C 
ATOM      9  C   UNL A   1      30.223  26.981  23.641  1.00  0.00     0.025 C 
BRANCH   8  10
ATOM     10  C   UNL A   1      32.367  26.085  24.620  1.00  0.00     0.002 A 
ATOM     11  C   UNL A   1      33.597  25.579  24.183  1.00  0.00     0.008 A 
ATOM     12  C   UNL A   1      31.807  25.514  25.767  1.00  0.00     0.127 A 
ATOM     13  C   UNL A   1      34.250  24.565  24.898  1.00  0.00     0.004 A 
ATOM     14  C   UNL A   1      32.450  24.506  26.483  1.00  0.00     0.043 A 
ATOM     15  F   UNL A   1      30.615  25.932  26.208  1.00  0.00    -0.207 F 
ATOM     16  C   UNL A   1      33.691  24.019  26.063  1.00  0.00    -0.041 A 
BRANCH  16  17
ATOM     17  C   UNL A   1      34.424  22.985  26.887  1.00  0.00     0.074 C 
BRANCH  17  18
ATOM     18  C   UNL A   1      35.499  22.398  26.038  1.00  0.00    -0.005 A 
ATOM     19  C   UNL A   1      36.774  22.953  25.716  1.00  0.00     0.046 A 
ATOM     20  C   UNL A   1      35.508  21.135  25.473  1.00  0.00     0.198 A 
ATOM     21  C   UNL A   1      37.441  22.009  24.973  1.00  0.00     0.195 A 
ATOM     22  O   UNL A   1      36.674  20.904  24.817  1.00  0.00    -0.472 OA
ENDBRANCH  17  18
ENDBRANCH  16  17
ENDBRANCH   8  10
ENDBRANCH   6   8
ENDBRANCH   5   6
ENDBRANCH   4   5
ENDBRANCH   3   4
ENDBRANCH   2   3
ENDBRANCH   1   2
BRANCH   1  23
ATOM     23  C   UNL A   1      34.362  33.342  28.173  1.00  0.00     0.188 C 
BRANCH  23  24
ATOM     24  O   UNL A   1      34.255  33.571  29.563  1.00  0.00    -0.376 OA
BRANCH  24  25
ATOM     25  C   UNL A   1      35.387  33.307  30.365  1.00  0.00     0.202 C 
BRANCH  25  26
ATOM     26  C   UNL A   1      35.345  32.057  31.252  1.00  0.00     0.261 C 
BRANCH  26  27
ATOM     27  O   UNL A   1      36.600  31.397  31.493  1.00  0.00    -0.460 OA
BRANCH  27  28
ATOM     28  C   UNL A   1      36.771  30.158  30.975  1.00  0.00     0.338 C 
ATOM     29  O   UNL A   1      35.905  29.316  30.805  1.00  0.00    -0.246 OA
BRANCH  28  30
ATOM     30  C   UNL A   1      38.162  30.069  30.465  1.00  0.00     0.060 A 
ATOM     31  C   UNL A   1      38.393  30.157  29.087  1.00  0.00     0.016 A 
ATOM     32  C   UNL A   1      39.240  29.910  31.343  1.00  0.00     0.016 A 
ATOM     33  C   UNL A   1      39.697  30.065  28.588  1.00  0.00     0.010 A 
ATOM     34  C   UNL A   1      40.542  29.810  30.841  1.00  0.00     0.010 A 
ATOM     35  C   UNL A   1      40.779  29.870  29.458  1.00  0.00    -0.014 A 
BRANCH  35  36
ATOM     36  C   UNL A   1      42.128  29.551  28.917  1.00  0.00     0.031 A 
ATOM     37  C   UNL A   1      42.386  28.152  28.427  1.00  0.00     0.074 A 
ATOM     38  C   UNL A   1      43.111  30.470  28.862  1.00  0.00     0.049 A 
ATOM     39  N   UNL A   1      43.483  27.635  27.936  1.00  0.00    -0.248 NA
ATOM     40  C   UNL A   1      41.258  27.211  28.515  1.00  0.00     0.031 C 
ATOM     41  C   UNL A   1      42.999  31.860  29.298  1.00  0.00     0.029 A 
ATOM     42  N   UNL A   1      44.406  30.363  28.412  1.00  0.00    -0.354 N 
ATOM     43  C   UNL A   1      43.180  26.306  27.661  1.00  0.00     0.074 A 
ATOM     44  C   UNL A   1      41.803  26.096  28.055  1.00  0.00     0.031 C 
ATOM     45  C   UNL A   1      44.171  32.482  29.078  1.00  0.00     0.029 A 
ATOM     46  C   UNL A   1      45.133  31.526  28.528  1.00  0.00     0.049 A 
ATOM     47  H   UNL A   1      44.779  29.532  28.040  1.00  0.00     0.167 HD
ATOM     48  C   UNL A   1      43.974  25.343  27.137  1.00  0.00     0.031 A 
ATOM     49  C   UNL A   1      46.428  31.783  28.246  1.00  0.00     0.031 A 
ATOM     50  C   UNL A   1      45.357  25.529  26.791  1.00  0.00     0.049 A 
ATOM     51  C   UNL A   1      47.313  30.677  27.721  1.00  0.00     0.074 A 
ATOM     52  C   UNL A   1      46.245  24.605  26.268  1.00  0.00     0.029 A 
ATOM     53  N   UNL A   1      46.062  26.714  26.949  1.00  0.00    -0.354 N 
ATOM     54  N   UNL A   1      47.003  29.434  27.440  1.00  0.00    -0.248 NA
ATOM     55  C   UNL A   1      48.727  31.008  27.485  1.00  0.00     0.031 C 
ATOM     56  C   UNL A   1      47.501  25.212  26.168  1.00  0.00     0.029 A 
ATOM     57  C   UNL A   1      47.378  26.536  26.558  1.00  0.00     0.049 A 
ATOM     58  H   UNL A   1      45.682  27.556  27.288  1.00  0.00     0.167 HD
ATOM     59  C   UNL A   1      48.176  28.843  26.978  1.00  0.00     0.074 A 
ATOM     60  C   UNL A   1      49.196  29.869  26.994  1.00  0.00     0.031 C 
ATOM     61  C   UNL A   1      48.390  27.563  26.577  1.00  0.00     0.031 A 
BRANCH  48  62
ATOM     62  C   UNL A   1      43.367  23.977  26.956  1.00  0.00    -0.014 A 
ATOM     63  C   UNL A   1      42.922  23.539  25.696  1.00  0.00     0.010 A 
ATOM     64  C   UNL A   1      43.256  23.114  28.060  1.00  0.00     0.010 A 
ATOM     65  C   UNL A   1      42.335  22.279  25.552  1.00  0.00     0.020 A 
ATOM     66  C   UNL A   1      42.699  21.840  27.916  1.00  0.00     0.020 A 
ATOM     67  C   UNL A   1      42.224  21.440  26.665  1.00  0.00     0.054 A 
BRANCH  67  68
ATOM     68  S   UNL A   1      41.467  19.806  26.449  1.00  0.00     0.124 S 
ATOM     69  O   UNL A   1      41.734  19.177  27.740  1.00  0.00    -0.237 OA
ATOM     70  O   UNL A   1      40.067  20.135  26.188  1.00  0.00    -0.237 OA
ATOM     71  O   UNL A   1      42.191  19.234  25.317  1.00  0.00    -0.744 OA
ENDBRANCH  67  68
ENDBRANCH  48  62
BRANCH  49  72
ATOM     72  C   UNL A   1      46.991  33.146  28.480  1.00  0.00    -0.014 A 
ATOM     73  C   UNL A   1      46.982  34.114  27.458  1.00  0.00     0.010 A 
ATOM     74  C   UNL A   1      47.563  33.476  29.723  1.00  0.00     0.010 A 
ATOM     75  C   UNL A   1      47.548  35.377  27.670  1.00  0.00     0.020 A 
ATOM     76  C   UNL A   1      48.097  34.747  29.950  1.00  0.00     0.020 A 
ATOM     77  C   UNL A   1      48.098  35.687  28.918  1.00  0.00     0.054 A 
BRANCH  77  78
ATOM     78  S   UNL A   1      48.775  37.348  29.188  1.00  0.00     0.124 S 
ATOM     79  O   UNL A   1      50.212  37.108  29.107  1.00  0.00    -0.237 OA
ATOM     80  O   UNL A   1      48.197  38.107  28.082  1.00  0.00    -0.237 OA
ATOM     81  O   UNL A   1      48.274  37.710  30.512  1.00  0.00    -0.744 OA
ENDBRANCH  77  78
ENDBRANCH  49  72
BRANCH  61  82
ATOM     82  C   UNL A   1      49.769  27.196  26.088  1.00  0.00    -0.014 A 
ATOM     83  C   UNL A   1      50.752  26.697  26.962  1.00  0.00     0.010 A 
ATOM     84  C   UNL A   1      50.063  27.287  24.713  1.00  0.00     0.010 A 
ATOM     85  C   UNL A   1      52.009  26.322  26.475  1.00  0.00     0.020 A 
ATOM     86  C   UNL A   1      51.308  26.887  24.219  1.00  0.00     0.020 A 
ATOM     87  C   UNL A   1      52.279  26.418  25.107  1.00  0.00     0.054 A 
BRANCH  87  88
ATOM     88  S   UNL A   1      53.901  25.882  24.494  1.00  0.00     0.124 S 
ATOM     89  O   UNL A   1      53.829  26.245  23.082  1.00  0.00    -0.237 OA
ATOM     90  O   UNL A   1      54.826  26.674  25.302  1.00  0.00    -0.237 OA
ATOM     91  O   UNL A   1      53.919  24.446  24.767  1.00  0.00    -0.744 OA
ENDBRANCH  87  88
ENDBRANCH  61  82
ENDBRANCH  35  36
ENDBRANCH  28  30
ENDBRANCH  27  28
ENDBRANCH  26  27
ENDBRANCH  25  26
ENDBRANCH  24  25
ENDBRANCH  23  24
ENDBRANCH   1  23
TORSDOF 23
ENDMDL
MODEL 2
REMARK VINA RESULT:      -9.0      6.149     12.585
REMARK SMILES C[C@@H](C(=O)OCCOCCOCCOC(=O)c1ccc(-c2c3nc(c(-c4ccc(S(=O)(=O)[O-])cc4)c4ccc([nH]4)c(-c4ccc(S(=O)(=O)[O-])cc4)c4nc(c(-c5ccc(S(=O)(=O)[O-])cc5)c5ccc2[nH]5)C=C4)C=C3)cc1)c1ccc(Cc2ccoc2)cc1F
REMARK SMILES IDX 9 1 8 2 7 3 6 4 5 5 3 6 4 7 2 8 1 9 77 10 78 11 88 12 79 13
REMARK SMILES IDX 87 14 89 15 80 16 81 17 82 18 83 19 86 20 84 21 85 22 10 23
REMARK SMILES IDX 11 24 12 25 13 26 14 27 15 28 16 29 17 30 18 31 76 32 19 33
REMARK SMILES IDX 75 34 20 35 21 36 22 37 69 38 23 39 74 40 68 41 70 42 24 43
REMARK SMILES IDX 73 44 67 45 66 46 25 48 55 49 36 50 54 51 37 52 40 53 53 54
REMARK SMILES IDX 71 55 38 56 39 57 52 59 72 60 41 61 26 62 27 63 35 64 28 65
REMARK SMILES IDX 34 66 29 67 30 68 31 69 32 70 33 71 56 72 57 73 65 74 58 75
REMARK SMILES IDX 64 76 59 77 60 78 61 79 62 80 63 81 42 82 43 83 51 84 44 85
REMARK SMILES IDX 50 86 45 87 46 88 47 89 48 90 49 91
REMARK H PARENT 70 47 40 58
REMARK Flexibility Score: inf
ROOT
ATOM      1  C   UNL A   1      46.329  23.621  24.925  1.00  0.00     0.188 C 
ENDROOT
BRANCH   1   2
ATOM      2  O   UNL A   1      45.495  23.006  23.946  1.00  0.00    -0.376 OA
BRANCH   2   3
ATOM      3  C   UNL A   1      45.082  21.662  24.158  1.00  0.00     0.202 C 
BRANCH   3   4
ATOM      4  C   UNL A   1      44.500  21.283  25.528  1.00  0.00     0.261 C 
BRANCH   4   5
ATOM      5  O   UNL A   1      43.077  21.023  25.552  1.00  0.00    -0.463 OA
BRANCH   5   6
ATOM      6  C   UNL A   1      42.269  22.086  25.826  1.00  0.00     0.313 C 
ATOM      7  O   UNL A   1      42.384  23.177  25.276  1.00  0.00    -0.252 OA
BRANCH   6   8
ATOM      8  C   UNL A   1      41.245  21.844  26.952  1.00  0.00     0.129 C 
ATOM      9  C   UNL A   1      41.206  20.470  27.629  1.00  0.00     0.025 C 
BRANCH   8  10
ATOM     10  C   UNL A   1      39.848  22.291  26.535  1.00  0.00     0.002 A 
ATOM     11  C   UNL A   1      39.361  23.549  26.912  1.00  0.00     0.008 A 
ATOM     12  C   UNL A   1      39.029  21.500  25.724  1.00  0.00     0.127 A 
ATOM     13  C   UNL A   1      38.116  24.001  26.454  1.00  0.00     0.004 A 
ATOM     14  C   UNL A   1      37.790  21.943  25.265  1.00  0.00     0.043 A 
ATOM     15  F   UNL A   1      39.427  20.274  25.365  1.00  0.00    -0.207 F 
ATOM     16  C   UNL A   1      37.315  23.209  25.618  1.00  0.00    -0.041 A 
BRANCH  16  17
ATOM     17  C   UNL A   1      36.009  23.719  25.053  1.00  0.00     0.074 C 
BRANCH  17  18
ATOM     18  C   UNL A   1      34.911  23.269  25.953  1.00  0.00    -0.005 A 
ATOM     19  C   UNL A   1      35.011  22.727  27.270  1.00  0.00     0.046 A 
ATOM     20  C   UNL A   1      33.552  23.386  25.720  1.00  0.00     0.198 A 
ATOM     21  C   UNL A   1      33.727  22.540  27.721  1.00  0.00     0.195 A 
ATOM     22  O   UNL A   1      32.835  22.933  26.782  1.00  0.00    -0.472 OA
ENDBRANCH  17  18
ENDBRANCH  16  17
ENDBRANCH   8  10
ENDBRANCH   6   8
ENDBRANCH   5   6
ENDBRANCH   4   5
ENDBRANCH   3   4
ENDBRANCH   2   3
ENDBRANCH   1   2
BRANCH   1  23
ATOM     23  C   UNL A   1      45.650  24.470  26.014  1.00  0.00     0.188 C 
BRANCH  23  24
ATOM     24  O   UNL A   1      46.506  25.446  26.572  1.00  0.00    -0.376 OA
BRANCH  24  25
ATOM     25  C   UNL A   1      46.564  26.710  25.944  1.00  0.00     0.202 C 
BRANCH  25  26
ATOM     26  C   UNL A   1      45.610  26.956  24.769  1.00  0.00     0.261 C 
BRANCH  26  27
ATOM     27  O   UNL A   1      44.466  27.787  25.033  1.00  0.00    -0.460 OA
BRANCH  27  28
ATOM     28  C   UNL A   1      43.301  27.176  25.348  1.00  0.00     0.338 C 
ATOM     29  O   UNL A   1      42.830  26.187  24.811  1.00  0.00    -0.246 OA
BRANCH  28  30
ATOM     30  C   UNL A   1      42.784  27.799  26.592  1.00  0.00     0.060 A 
ATOM     31  C   UNL A   1      43.119  29.128  26.881  1.00  0.00     0.016 A 
ATOM     32  C   UNL A   1      41.961  27.081  27.467  1.00  0.00     0.016 A 
ATOM     33  C   UNL A   1      42.648  29.729  28.054  1.00  0.00     0.010 A 
ATOM     34  C   UNL A   1      41.499  27.683  28.643  1.00  0.00     0.010 A 
ATOM     35  C   UNL A   1      41.852  29.006  28.954  1.00  0.00    -0.014 A 
BRANCH  35  36
ATOM     36  C   UNL A   1      41.540  29.566  30.296  1.00  0.00     0.031 A 
ATOM     37  C   UNL A   1      40.328  30.448  30.435  1.00  0.00     0.074 A 
ATOM     38  C   UNL A   1      42.308  29.313  31.373  1.00  0.00     0.049 A 
ATOM     39  N   UNL A   1      39.869  31.065  31.493  1.00  0.00    -0.248 NA
ATOM     40  C   UNL A   1      39.538  30.668  29.213  1.00  0.00     0.031 C 
ATOM     41  C   UNL A   1      43.505  28.477  31.383  1.00  0.00     0.029 A 
ATOM     42  N   UNL A   1      42.188  29.743  32.674  1.00  0.00    -0.354 N 
ATOM     43  C   UNL A   1      38.739  31.752  31.065  1.00  0.00     0.074 A 
ATOM     44  C   UNL A   1      38.594  31.488  29.649  1.00  0.00     0.031 C 
ATOM     45  C   UNL A   1      44.001  28.440  32.633  1.00  0.00     0.029 A 
ATOM     46  C   UNL A   1      43.184  29.285  33.505  1.00  0.00     0.049 A 
ATOM     47  H   UNL A   1      41.456  30.323  32.983  1.00  0.00     0.167 HD
ATOM     48  C   UNL A   1      37.900  32.540  31.778  1.00  0.00     0.031 A 
ATOM     49  C   UNL A   1      43.424  29.536  34.809  1.00  0.00     0.031 A 
ATOM     50  C   UNL A   1      38.066  32.850  33.173  1.00  0.00     0.049 A 
ATOM     51  C   UNL A   1      42.511  30.469  35.570  1.00  0.00     0.074 A 
ATOM     52  C   UNL A   1      37.274  33.653  33.975  1.00  0.00     0.029 A 
ATOM     53  N   UNL A   1      39.103  32.388  33.970  1.00  0.00    -0.354 N 
ATOM     54  N   UNL A   1      41.431  31.088  35.157  1.00  0.00    -0.248 NA
ATOM     55  C   UNL A   1      42.858  30.744  36.974  1.00  0.00     0.031 C 
ATOM     56  C   UNL A   1      37.865  33.726  35.240  1.00  0.00     0.029 A 
ATOM     57  C   UNL A   1      38.984  32.910  35.247  1.00  0.00     0.049 A 
ATOM     58  H   UNL A   1      39.816  31.779  33.672  1.00  0.00     0.167 HD
ATOM     59  C   UNL A   1      40.961  31.809  36.253  1.00  0.00     0.074 A 
ATOM     60  C   UNL A   1      41.859  31.530  37.353  1.00  0.00     0.031 C 
ATOM     61  C   UNL A   1      39.883  32.629  36.340  1.00  0.00     0.031 A 
BRANCH  48  62
ATOM     62  C   UNL A   1      36.750  33.167  31.036  1.00  0.00    -0.014 A 
ATOM     63  C   UNL A   1      36.968  34.009  29.930  1.00  0.00     0.010 A 
ATOM     64  C   UNL A   1      35.431  32.895  31.440  1.00  0.00     0.010 A 
ATOM     65  C   UNL A   1      35.890  34.604  29.271  1.00  0.00     0.020 A 
ATOM     66  C   UNL A   1      34.348  33.463  30.764  1.00  0.00     0.020 A 
ATOM     67  C   UNL A   1      34.586  34.330  29.696  1.00  0.00     0.054 A 
BRANCH  67  68
ATOM     68  S   UNL A   1      33.205  35.109  28.817  1.00  0.00     0.124 S 
ATOM     69  O   UNL A   1      33.879  36.180  28.087  1.00  0.00    -0.237 OA
ATOM     70  O   UNL A   1      32.691  34.016  27.994  1.00  0.00    -0.237 OA
ATOM     71  O   UNL A   1      32.315  35.550  29.888  1.00  0.00    -0.744 OA
ENDBRANCH  67  68
ENDBRANCH  48  62
BRANCH  49  72
ATOM     72  C   UNL A   1      44.601  28.920  35.490  1.00  0.00    -0.014 A 
ATOM     73  C   UNL A   1      44.494  27.667  36.121  1.00  0.00     0.010 A 
ATOM     74  C   UNL A   1      45.835  29.597  35.530  1.00  0.00     0.010 A 
ATOM     75  C   UNL A   1      45.591  27.112  36.792  1.00  0.00     0.020 A 
ATOM     76  C   UNL A   1      46.942  29.031  36.168  1.00  0.00     0.020 A 
ATOM     77  C   UNL A   1      46.810  27.796  36.806  1.00  0.00     0.054 A 
BRANCH  77  78
ATOM     78  S   UNL A   1      48.233  27.033  37.634  1.00  0.00     0.124 S 
ATOM     79  O   UNL A   1      48.717  28.123  38.474  1.00  0.00    -0.237 OA
ATOM     80  O   UNL A   1      47.620  25.912  38.342  1.00  0.00    -0.237 OA
ATOM     81  O   UNL A   1      49.110  26.657  36.528  1.00  0.00    -0.744 OA
ENDBRANCH  77  78
ENDBRANCH  49  72
BRANCH  61  82
ATOM     82  C   UNL A   1      39.583  33.265  37.674  1.00  0.00    -0.014 A 
ATOM     83  C   UNL A   1      40.310  34.375  38.141  1.00  0.00     0.010 A 
ATOM     84  C   UNL A   1      38.506  32.785  38.443  1.00  0.00     0.010 A 
ATOM     85  C   UNL A   1      39.984  34.974  39.362  1.00  0.00     0.020 A 
ATOM     86  C   UNL A   1      38.158  33.399  39.650  1.00  0.00     0.020 A 
ATOM     87  C   UNL A   1      38.908  34.483  40.108  1.00  0.00     0.054 A 
BRANCH  87  88
ATOM     88  S   UNL A   1      38.475  35.308  41.667  1.00  0.00     0.124 S 
ATOM     89  O   UNL A   1      38.527  36.718  41.290  1.00  0.00    -0.237 OA
ATOM     90  O   UNL A   1      37.142  34.780  41.948  1.00  0.00    -0.237 OA
ATOM     91  O   UNL A   1      39.519  34.873  42.592  1.00  0.00    -0.744 OA
ENDBRANCH  87  88
ENDBRANCH  61  82
ENDBRANCH  35  36
ENDBRANCH  28  30
ENDBRANCH  27  28
ENDBRANCH  26  27
ENDBRANCH  25  26
ENDBRANCH  24  25
ENDBRANCH  23  24
ENDBRANCH   1  23
TORSDOF 23
ENDMDL
MODEL 3
REMARK VINA RESULT:      -8.9      4.864     11.303
REMARK SMILES C[C@@H](C(=O)OCCOCCOCCOC(=O)c1ccc(-c2c3nc(c(-c4ccc(S(=O)(=O)[O-])cc4)c4ccc([nH]4)c(-c4ccc(S(=O)(=O)[O-])cc4)c4nc(c(-c5ccc(S(=O)(=O)[O-])cc5)c5ccc2[nH]5)C=C4)C=C3)cc1)c1ccc(Cc2ccoc2)cc1F
REMARK SMILES IDX 9 1 8 2 7 3 6 4 5 5 3 6 4 7 2 8 1 9 77 10 78 11 88 12 79 13
REMARK SMILES IDX 87 14 89 15 80 16 81 17 82 18 83 19 86 20 84 21 85 22 10 23
REMARK SMILES IDX 11 24 12 25 13 26 14 27 15 28 16 29 17 30 18 31 76 32 19 33
REMARK SMILES IDX 75 34 20 35 21 36 22 37 69 38 23 39 74 40 68 41 70 42 24 43
REMARK SMILES IDX 73 44 67 45 66 46 25 48 55 49 36 50 54 51 37 52 40 53 53 54
REMARK SMILES IDX 71 55 38 56 39 57 52 59 72 60 41 61 26 62 27 63 35 64 28 65
REMARK SMILES IDX 34 66 29 67 30 68 31 69 32 70 33 71 56 72 57 73 65 74 58 75
REMARK SMILES IDX 64 76 59 77 60 78 61 79 62 80 63 81 42 82 43 83 51 84 44 85
REMARK SMILES IDX 50 86 45 87 46 88 47 89 48 90 49 91
REMARK H PARENT 70 47 40 58
REMARK Flexibility Score: inf
ROOT
ATOM      1  C   UNL A   1      46.425  23.729  25.306  1.00  0.00     0.188 C 
ENDROOT
BRANCH   1   2
ATOM      2  O   UNL A   1      45.306  23.849  24.431  1.00  0.00    -0.376 OA
BRANCH   2   3
ATOM      3  C   UNL A   1      44.083  23.227  24.806  1.00  0.00     0.202 C 
BRANCH   3   4
ATOM      4  C   UNL A   1      43.547  23.467  26.226  1.00  0.00     0.261 C 
BRANCH   4   5
ATOM      5  O   UNL A   1      42.653  24.595  26.372  1.00  0.00    -0.463 OA
BRANCH   5   6
ATOM      6  C   UNL A   1      43.148  25.814  26.014  1.00  0.00     0.313 C 
ATOM      7  O   UNL A   1      42.955  26.321  24.913  1.00  0.00    -0.252 OA
BRANCH   6   8
ATOM      8  C   UNL A   1      44.053  26.478  27.070  1.00  0.00     0.129 C 
ATOM      9  C   UNL A   1      44.943  25.587  27.942  1.00  0.00     0.025 C 
BRANCH   8  10
ATOM     10  C   UNL A   1      43.272  27.475  27.919  1.00  0.00     0.002 A 
ATOM     11  C   UNL A   1      43.113  28.800  27.496  1.00  0.00     0.008 A 
ATOM     12  C   UNL A   1      42.643  27.099  29.110  1.00  0.00     0.127 A 
ATOM     13  C   UNL A   1      42.319  29.695  28.227  1.00  0.00     0.004 A 
ATOM     14  C   UNL A   1      41.853  27.983  29.841  1.00  0.00     0.043 A 
ATOM     15  F   UNL A   1      42.793  25.856  29.582  1.00  0.00    -0.207 F 
ATOM     16  C   UNL A   1      41.671  29.298  29.406  1.00  0.00    -0.041 A 
BRANCH  16  17
ATOM     17  C   UNL A   1      40.747  30.231  30.157  1.00  0.00     0.074 C 
BRANCH  17  18
ATOM     18  C   UNL A   1      39.344  29.852  29.828  1.00  0.00    -0.005 A 
ATOM     19  C   UNL A   1      38.586  30.188  28.667  1.00  0.00     0.046 A 
ATOM     20  C   UNL A   1      38.527  29.002  30.552  1.00  0.00     0.198 A 
ATOM     21  C   UNL A   1      37.377  29.545  28.782  1.00  0.00     0.195 A 
ATOM     22  O   UNL A   1      37.333  28.826  29.929  1.00  0.00    -0.472 OA
ENDBRANCH  17  18
ENDBRANCH  16  17
ENDBRANCH   8  10
ENDBRANCH   6   8
ENDBRANCH   5   6
ENDBRANCH   4   5
ENDBRANCH   3   4
ENDBRANCH   2   3
ENDBRANCH   1   2
BRANCH   1  23
ATOM     23  C   UNL A   1      47.483  24.844  25.274  1.00  0.00     0.188 C 
BRANCH  23  24
ATOM     24  O   UNL A   1      47.962  25.193  26.557  1.00  0.00    -0.376 OA
BRANCH  24  25
ATOM     25  C   UNL A   1      49.349  25.076  26.798  1.00  0.00     0.202 C 
BRANCH  25  26
ATOM     26  C   UNL A   1      50.298  25.631  25.729  1.00  0.00     0.261 C 
BRANCH  26  27
ATOM     27  O   UNL A   1      50.799  26.962  25.943  1.00  0.00    -0.460 OA
BRANCH  27  28
ATOM     28  C   UNL A   1      50.214  27.973  25.259  1.00  0.00     0.338 C 
ATOM     29  O   UNL A   1      50.376  28.243  24.081  1.00  0.00    -0.246 OA
BRANCH  28  30
ATOM     30  C   UNL A   1      49.188  28.583  26.142  1.00  0.00     0.060 A 
ATOM     31  C   UNL A   1      49.599  29.327  27.256  1.00  0.00     0.016 A 
ATOM     32  C   UNL A   1      47.825  28.433  25.868  1.00  0.00     0.016 A 
ATOM     33  C   UNL A   1      48.645  29.900  28.104  1.00  0.00     0.010 A 
ATOM     34  C   UNL A   1      46.873  29.001  26.724  1.00  0.00     0.010 A 
ATOM     35  C   UNL A   1      47.276  29.725  27.857  1.00  0.00    -0.014 A 
BRANCH  35  36
ATOM     36  C   UNL A   1      46.272  30.142  28.873  1.00  0.00     0.031 A 
ATOM     37  C   UNL A   1      45.940  29.181  29.982  1.00  0.00     0.074 A 
ATOM     38  C   UNL A   1      45.658  31.339  28.821  1.00  0.00     0.049 A 
ATOM     39  N   UNL A   1      45.087  29.312  30.964  1.00  0.00    -0.248 NA
ATOM     40  C   UNL A   1      46.661  27.898  29.971  1.00  0.00     0.031 C 
ATOM     41  C   UNL A   1      45.885  32.366  27.807  1.00  0.00     0.029 A 
ATOM     42  N   UNL A   1      44.709  31.891  29.650  1.00  0.00    -0.354 N 
ATOM     43  C   UNL A   1      45.162  28.126  31.687  1.00  0.00     0.074 A 
ATOM     44  C   UNL A   1      46.132  27.285  31.020  1.00  0.00     0.031 C 
ATOM     45  C   UNL A   1      45.110  33.430  28.083  1.00  0.00     0.029 A 
ATOM     46  C   UNL A   1      44.298  33.147  29.267  1.00  0.00     0.049 A 
ATOM     47  H   UNL A   1      44.358  31.430  30.445  1.00  0.00     0.167 HD
ATOM     48  C   UNL A   1      44.482  27.763  32.800  1.00  0.00     0.031 A 
ATOM     49  C   UNL A   1      43.360  33.962  29.794  1.00  0.00     0.031 A 
ATOM     50  C   UNL A   1      43.479  28.571  33.440  1.00  0.00     0.049 A 
ATOM     51  C   UNL A   1      42.568  33.510  30.998  1.00  0.00     0.074 A 
ATOM     52  C   UNL A   1      42.726  28.276  34.563  1.00  0.00     0.029 A 
ATOM     53  N   UNL A   1      43.074  29.824  33.004  1.00  0.00    -0.354 N 
ATOM     54  N   UNL A   1      42.672  32.397  31.686  1.00  0.00    -0.248 NA
ATOM     55  C   UNL A   1      41.524  34.422  31.491  1.00  0.00     0.031 C 
ATOM     56  C   UNL A   1      41.822  29.324  34.771  1.00  0.00     0.029 A 
ATOM     57  C   UNL A   1      42.064  30.303  33.821  1.00  0.00     0.049 A 
ATOM     58  H   UNL A   1      43.449  30.302  32.230  1.00  0.00     0.167 HD
ATOM     59  C   UNL A   1      41.722  32.486  32.701  1.00  0.00     0.074 A 
ATOM     60  C   UNL A   1      41.070  33.768  32.552  1.00  0.00     0.031 C 
ATOM     61  C   UNL A   1      41.417  31.583  33.668  1.00  0.00     0.031 A 
BRANCH  48  62
ATOM     62  C   UNL A   1      44.771  26.397  33.365  1.00  0.00    -0.014 A 
ATOM     63  C   UNL A   1      44.040  25.268  32.951  1.00  0.00     0.010 A 
ATOM     64  C   UNL A   1      45.799  26.239  34.310  1.00  0.00     0.010 A 
ATOM     65  C   UNL A   1      44.303  24.014  33.507  1.00  0.00     0.020 A 
ATOM     66  C   UNL A   1      46.087  24.981  34.846  1.00  0.00     0.020 A 
ATOM     67  C   UNL A   1      45.323  23.880  34.454  1.00  0.00     0.054 A 
BRANCH  67  68
ATOM     68  S   UNL A   1      45.648  22.238  35.153  1.00  0.00     0.124 S 
ATOM     69  O   UNL A   1      47.052  22.037  34.806  1.00  0.00    -0.237 OA
ATOM     70  O   UNL A   1      45.375  22.436  36.575  1.00  0.00    -0.237 OA
ATOM     71  O   UNL A   1      44.704  21.370  34.455  1.00  0.00    -0.744 OA
ENDBRANCH  67  68
ENDBRANCH  48  62
BRANCH  49  72
ATOM     72  C   UNL A   1      43.085  35.291  29.173  1.00  0.00    -0.014 A 
ATOM     73  C   UNL A   1      43.648  36.466  29.705  1.00  0.00     0.010 A 
ATOM     74  C   UNL A   1      42.236  35.392  28.054  1.00  0.00     0.010 A 
ATOM     75  C   UNL A   1      43.354  37.714  29.142  1.00  0.00     0.020 A 
ATOM     76  C   UNL A   1      41.968  36.632  27.468  1.00  0.00     0.020 A 
ATOM     77  C   UNL A   1      42.520  37.788  28.024  1.00  0.00     0.054 A 
BRANCH  77  78
ATOM     78  S   UNL A   1      42.197  39.410  27.277  1.00  0.00     0.124 S 
ATOM     79  O   UNL A   1      43.472  39.708  26.632  1.00  0.00    -0.237 OA
ATOM     80  O   UNL A   1      41.083  39.125  26.376  1.00  0.00    -0.237 OA
ATOM     81  O   UNL A   1      41.862  40.253  28.422  1.00  0.00    -0.744 OA
ENDBRANCH  77  78
ENDBRANCH  49  72
BRANCH  61  82
ATOM     82  C   UNL A   1      40.352  31.954  34.671  1.00  0.00    -0.014 A 
ATOM     83  C   UNL A   1      39.023  31.516  34.530  1.00  0.00     0.010 A 
ATOM     84  C   UNL A   1      40.707  32.697  35.813  1.00  0.00     0.010 A 
ATOM     85  C   UNL A   1      38.065  31.837  35.497  1.00  0.00     0.020 A 
ATOM     86  C   UNL A   1      39.759  32.995  36.796  1.00  0.00     0.020 A 
ATOM     87  C   UNL A   1      38.439  32.573  36.625  1.00  0.00     0.054 A 
BRANCH  87  88
ATOM     88  S   UNL A   1      37.186  32.936  37.888  1.00  0.00     0.124 S 
ATOM     89  O   UNL A   1      36.856  31.602  38.382  1.00  0.00    -0.237 OA
ATOM     90  O   UNL A   1      37.914  33.791  38.823  1.00  0.00    -0.237 OA
ATOM     91  O   UNL A   1      36.122  33.604  37.142  1.00  0.00    -0.744 OA
ENDBRANCH  87  88
ENDBRANCH  61  82
ENDBRANCH  35  36
ENDBRANCH  28  30
ENDBRANCH  27  28
ENDBRANCH  26  27
ENDBRANCH  25  26
ENDBRANCH  24  25
ENDBRANCH  23  24
ENDBRANCH   1  23
TORSDOF 23
ENDMDL
