MODEL 1
REMARK VINA RESULT:     -10.0      0.000      0.000
REMARK SMILES C[NH+]1CCC(NC(=O)N[C@@H]2C=C[C@H](C(=O)OCCOCCOCCOC(=O)c3ccc(-c4c5nc(c(-c6ccc(S(=O)(=O)[O-])cc6)c6ccc([nH]6)c(-c6ccc(S(=O)(=O)[O-])cc6)c6nc(c(-c7ccc(S(=O)(=O)[O-])cc7)c7ccc4[nH]7)C=C6)C=C5)cc3)C2)CC1
REMARK SMILES IDX 21 1 20 2 19 3 18 4 17 5 16 6 14 7 15 8 13 9 10 10 11 11
REMARK SMILES IDX 88 12 12 13 9 14 6 15 7 16 8 18 5 20 1 21 2 22 3 23 90 24
REMARK SMILES IDX 4 26 89 27 22 28 23 29 24 30 25 31 26 32 27 33 28 34 29 35
REMARK SMILES IDX 87 36 30 37 86 38 31 39 32 40 33 41 80 42 34 43 85 44 79 45
REMARK SMILES IDX 81 46 35 47 84 48 78 49 77 50 36 52 66 53 47 54 65 55 48 56
REMARK SMILES IDX 51 57 64 58 82 59 49 60 50 61 63 63 83 64 52 65 37 66 38 67
REMARK SMILES IDX 46 68 39 69 45 70 40 71 41 72 42 73 43 74 44 75 67 76 68 77
REMARK SMILES IDX 76 78 69 79 75 80 70 81 71 82 72 83 73 84 74 85 53 86 54 87
REMARK SMILES IDX 62 88 55 89 61 90 56 91 57 92 58 93 59 94 60 95
REMARK H PARENT 6 17 9 19 2 25 81 51 51 62
REMARK Flexibility Score: inf
ROOT
ATOM      1  C   UNL A   1      41.680  21.586  27.344  1.00  0.00     0.188 C 
ENDROOT
BRANCH   1   2
ATOM      2  C   UNL A   1      40.303  22.121  26.884  1.00  0.00     0.188 C 
BRANCH   2   3
ATOM      3  O   UNL A   1      39.456  21.278  26.143  1.00  0.00    -0.376 OA
BRANCH   3   4
ATOM      4  C   UNL A   1      38.156  21.680  25.762  1.00  0.00     0.202 C 
BRANCH   4   5
ATOM      5  C   UNL A   1      37.706  23.129  25.509  1.00  0.00     0.261 C 
BRANCH   5   6
ATOM      6  O   UNL A   1      36.644  23.632  26.318  1.00  0.00    -0.463 OA
BRANCH   6   7
ATOM      7  C   UNL A   1      35.427  23.023  26.172  1.00  0.00     0.312 C 
ATOM      8  O   UNL A   1      34.932  22.247  26.976  1.00  0.00    -0.252 OA
BRANCH   7   9
ATOM      9  C   UNL A   1      34.778  23.490  24.875  1.00  0.00     0.124 C 
ATOM     10  C   UNL A   1      32.319  23.662  24.694  1.00  0.00     0.107 C 
ATOM     11  C   UNL A   1      32.860  22.470  23.980  1.00  0.00    -0.006 C 
ATOM     12  C   UNL A   1      33.578  24.408  25.128  1.00  0.00     0.048 C 
ATOM     13  C   UNL A   1      34.188  22.364  24.087  1.00  0.00    -0.014 C 
BRANCH  10  14
ATOM     14  N   UNL A   1      31.516  23.188  25.795  1.00  0.00    -0.332 N 
ATOM     15  N   UNL A   1      30.143  25.015  26.441  1.00  0.00    -0.335 N 
ATOM     16  C   UNL A   1      30.567  23.745  26.568  1.00  0.00     0.315 C 
ATOM     17  H   UNL A   1      29.525  25.307  27.150  1.00  0.00     0.165 HD
ATOM     18  O   UNL A   1      30.065  23.035  27.436  1.00  0.00    -0.249 OA
ATOM     19  H   UNL A   1      31.703  22.251  26.032  1.00  0.00     0.165 HD
BRANCH  15  20
ATOM     20  C   UNL A   1      30.430  26.024  25.451  1.00  0.00     0.095 C 
ATOM     21  C   UNL A   1      31.307  28.983  22.665  1.00  0.00     0.332 C 
ATOM     22  N   UNL A   1      30.597  28.366  23.789  1.00  0.00    -0.337 N 
ATOM     23  C   UNL A   1      31.537  28.162  24.907  1.00  0.00     0.264 C 
ATOM     24  C   UNL A   1      29.910  27.142  23.337  1.00  0.00     0.264 C 
ATOM     25  H   UNL A   1      29.863  28.979  24.143  1.00  0.00     0.347 HD
ATOM     26  C   UNL A   1      30.959  27.321  26.045  1.00  0.00     0.086 C 
ATOM     27  C   UNL A   1      29.295  26.336  24.491  1.00  0.00     0.086 C 
ENDBRANCH  15  20
ENDBRANCH  10  14
ENDBRANCH   7   9
ENDBRANCH   6   7
ENDBRANCH   5   6
ENDBRANCH   4   5
ENDBRANCH   3   4
ENDBRANCH   2   3
ENDBRANCH   1   2
BRANCH   1  28
ATOM     28  O   UNL A   1      42.854  21.837  26.590  1.00  0.00    -0.376 OA
BRANCH  28  29
ATOM     29  C   UNL A   1      42.742  22.517  25.352  1.00  0.00     0.202 C 
BRANCH  29  30
ATOM     30  C   UNL A   1      43.034  24.021  25.311  1.00  0.00     0.261 C 
BRANCH  30  31
ATOM     31  O   UNL A   1      41.954  24.855  25.761  1.00  0.00    -0.460 OA
BRANCH  31  32
ATOM     32  C   UNL A   1      42.189  26.191  25.708  1.00  0.00     0.338 C 
ATOM     33  O   UNL A   1      42.303  26.875  24.707  1.00  0.00    -0.246 OA
BRANCH  32  34
ATOM     34  C   UNL A   1      42.139  26.772  27.067  1.00  0.00     0.060 A 
ATOM     35  C   UNL A   1      41.214  26.249  27.980  1.00  0.00     0.016 A 
ATOM     36  C   UNL A   1      42.926  27.871  27.412  1.00  0.00     0.016 A 
ATOM     37  C   UNL A   1      41.047  26.848  29.232  1.00  0.00     0.010 A 
ATOM     38  C   UNL A   1      42.743  28.482  28.659  1.00  0.00     0.010 A 
ATOM     39  C   UNL A   1      41.782  27.994  29.562  1.00  0.00    -0.014 A 
BRANCH  39  40
ATOM     40  C   UNL A   1      41.455  28.766  30.790  1.00  0.00     0.031 A 
ATOM     41  C   UNL A   1      40.266  29.687  30.780  1.00  0.00     0.074 A 
ATOM     42  C   UNL A   1      42.209  28.659  31.899  1.00  0.00     0.049 A 
ATOM     43  N   UNL A   1      39.834  30.490  31.718  1.00  0.00    -0.248 NA
ATOM     44  C   UNL A   1      39.461  29.714  29.548  1.00  0.00     0.031 C 
ATOM     45  C   UNL A   1      43.364  27.779  32.049  1.00  0.00     0.029 A 
ATOM     46  N   UNL A   1      42.112  29.297  33.113  1.00  0.00    -0.354 N 
ATOM     47  C   UNL A   1      38.731  31.141  31.182  1.00  0.00     0.074 A 
ATOM     48  C   UNL A   1      38.557  30.639  29.835  1.00  0.00     0.031 C 
ATOM     49  C   UNL A   1      43.870  27.931  33.284  1.00  0.00     0.029 A 
ATOM     50  C   UNL A   1      43.100  28.942  34.002  1.00  0.00     0.049 A 
ATOM     51  H   UNL A   1      41.405  29.947  33.325  1.00  0.00     0.167 HD
ATOM     52  C   UNL A   1      37.942  32.081  31.753  1.00  0.00     0.031 A 
ATOM     53  C   UNL A   1      43.367  29.389  35.247  1.00  0.00     0.031 A 
ATOM     54  C   UNL A   1      38.118  32.586  33.090  1.00  0.00     0.049 A 
ATOM     55  C   UNL A   1      42.486  30.452  35.851  1.00  0.00     0.074 A 
ATOM     56  C   UNL A   1      37.351  33.521  33.761  1.00  0.00     0.029 A 
ATOM     57  N   UNL A   1      39.135  32.209  33.955  1.00  0.00    -0.354 N 
ATOM     58  N   UNL A   1      41.421  31.028  35.344  1.00  0.00    -0.248 NA
ATOM     59  C   UNL A   1      42.841  30.928  37.197  1.00  0.00     0.031 C 
ATOM     60  C   UNL A   1      37.937  33.755  35.008  1.00  0.00     0.029 A 
ATOM     61  C   UNL A   1      39.032  32.917  35.140  1.00  0.00     0.049 A 
ATOM     62  H   UNL A   1      39.826  31.537  33.755  1.00  0.00     0.167 HD
ATOM     63  C   UNL A   1      40.975  31.923  36.313  1.00  0.00     0.074 A 
ATOM     64  C   UNL A   1      41.867  31.792  37.446  1.00  0.00     0.031 C 
ATOM     65  C   UNL A   1      39.926  32.780  36.263  1.00  0.00     0.031 A 
BRANCH  52  66
ATOM     66  C   UNL A   1      36.841  32.674  30.915  1.00  0.00    -0.014 A 
ATOM     67  C   UNL A   1      35.512  32.232  31.028  1.00  0.00     0.010 A 
ATOM     68  C   UNL A   1      37.139  33.736  30.041  1.00  0.00     0.010 A 
ATOM     69  C   UNL A   1      34.505  32.822  30.260  1.00  0.00     0.020 A 
ATOM     70  C   UNL A   1      36.130  34.347  29.291  1.00  0.00     0.020 A 
ATOM     71  C   UNL A   1      34.820  33.876  29.397  1.00  0.00     0.054 A 
BRANCH  71  72
ATOM     72  S   UNL A   1      33.487  34.649  28.441  1.00  0.00     0.124 S 
ATOM     73  O   UNL A   1      34.213  35.656  27.670  1.00  0.00    -0.237 OA
ATOM     74  O   UNL A   1      32.956  33.529  27.668  1.00  0.00    -0.237 OA
ATOM     75  O   UNL A   1      32.587  35.179  29.463  1.00  0.00    -0.744 OA
ENDBRANCH  71  72
ENDBRANCH  52  66
BRANCH  53  76
ATOM     76  C   UNL A   1      44.542  28.862  36.001  1.00  0.00    -0.014 A 
ATOM     77  C   UNL A   1      44.411  27.758  36.863  1.00  0.00     0.010 A 
ATOM     78  C   UNL A   1      45.799  29.480  35.876  1.00  0.00     0.010 A 
ATOM     79  C   UNL A   1      45.507  27.302  37.605  1.00  0.00     0.020 A 
ATOM     80  C   UNL A   1      46.905  29.008  36.593  1.00  0.00     0.020 A 
ATOM     81  C   UNL A   1      46.747  27.933  37.466  1.00  0.00     0.054 A 
BRANCH  81  82
ATOM     82  S   UNL A   1      48.161  27.312  38.420  1.00  0.00     0.124 S 
ATOM     83  O   UNL A   1      47.571  27.109  39.739  1.00  0.00    -0.237 OA
ATOM     84  O   UNL A   1      48.526  26.095  37.699  1.00  0.00    -0.237 OA
ATOM     85  O   UNL A   1      49.137  28.396  38.332  1.00  0.00    -0.744 OA
ENDBRANCH  81  82
ENDBRANCH  53  76
BRANCH  65  86
ATOM     86  C   UNL A   1      39.662  33.634  37.477  1.00  0.00    -0.014 A 
ATOM     87  C   UNL A   1      38.859  33.171  38.535  1.00  0.00     0.010 A 
ATOM     88  C   UNL A   1      40.283  34.891  37.590  1.00  0.00     0.010 A 
ATOM     89  C   UNL A   1      38.661  33.960  39.671  1.00  0.00     0.020 A 
ATOM     90  C   UNL A   1      40.109  35.673  38.736  1.00  0.00     0.020 A 
ATOM     91  C   UNL A   1      39.288  35.207  39.765  1.00  0.00     0.054 A 
BRANCH  91  92
ATOM     92  S   UNL A   1      39.056  36.191  41.271  1.00  0.00     0.124 S 
ATOM     93  O   UNL A   1      38.774  37.518  40.729  1.00  0.00    -0.237 OA
ATOM     94  O   UNL A   1      37.930  35.525  41.921  1.00  0.00    -0.237 OA
ATOM     95  O   UNL A   1      40.334  36.063  41.969  1.00  0.00    -0.744 OA
ENDBRANCH  91  92
ENDBRANCH  65  86
ENDBRANCH  39  40
ENDBRANCH  32  34
ENDBRANCH  31  32
ENDBRANCH  30  31
ENDBRANCH  29  30
ENDBRANCH  28  29
ENDBRANCH   1  28
TORSDOF 22
ENDMDL
MODEL 2
REMARK VINA RESULT:      -9.6      6.266      8.668
REMARK SMILES C[NH+]1CCC(NC(=O)N[C@@H]2C=C[C@H](C(=O)OCCOCCOCCOC(=O)c3ccc(-c4c5nc(c(-c6ccc(S(=O)(=O)[O-])cc6)c6ccc([nH]6)c(-c6ccc(S(=O)(=O)[O-])cc6)c6nc(c(-c7ccc(S(=O)(=O)[O-])cc7)c7ccc4[nH]7)C=C6)C=C5)cc3)C2)CC1
REMARK SMILES IDX 21 1 20 2 19 3 18 4 17 5 16 6 14 7 15 8 13 9 10 10 11 11
REMARK SMILES IDX 88 12 12 13 9 14 6 15 7 16 8 18 5 20 1 21 2 22 3 23 90 24
REMARK SMILES IDX 4 26 89 27 22 28 23 29 24 30 25 31 26 32 27 33 28 34 29 35
REMARK SMILES IDX 87 36 30 37 86 38 31 39 32 40 33 41 80 42 34 43 85 44 79 45
REMARK SMILES IDX 81 46 35 47 84 48 78 49 77 50 36 52 66 53 47 54 65 55 48 56
REMARK SMILES IDX 51 57 64 58 82 59 49 60 50 61 63 63 83 64 52 65 37 66 38 67
REMARK SMILES IDX 46 68 39 69 45 70 40 71 41 72 42 73 43 74 44 75 67 76 68 77
REMARK SMILES IDX 76 78 69 79 75 80 70 81 71 82 72 83 73 84 74 85 53 86 54 87
REMARK SMILES IDX 62 88 55 89 61 90 56 91 57 92 58 93 59 94 60 95
REMARK H PARENT 6 17 9 19 2 25 81 51 51 62
REMARK Flexibility Score: inf
ROOT
ATOM      1  C   UNL A   1      37.241  21.326  24.931  1.00  0.00     0.188 C 
ENDROOT
BRANCH   1   2
ATOM      2  C   UNL A   1      35.847  20.992  25.512  1.00  0.00     0.188 C 
BRANCH   2   3
ATOM      3  O   UNL A   1      35.038  20.052  24.850  1.00  0.00    -0.376 OA
BRANCH   3   4
ATOM      4  C   UNL A   1      33.659  19.927  25.135  1.00  0.00     0.202 C 
BRANCH   4   5
ATOM      5  C   UNL A   1      32.521  20.616  24.363  1.00  0.00     0.261 C 
BRANCH   5   6
ATOM      6  O   UNL A   1      32.411  22.033  24.493  1.00  0.00    -0.463 OA
BRANCH   6   7
ATOM      7  C   UNL A   1      31.657  22.491  25.540  1.00  0.00     0.312 C 
ATOM      8  O   UNL A   1      30.642  21.955  25.958  1.00  0.00    -0.252 OA
BRANCH   7   9
ATOM      9  C   UNL A   1      32.301  23.746  26.118  1.00  0.00     0.124 C 
ATOM     10  C   UNL A   1      33.313  25.437  24.626  1.00  0.00     0.107 C 
ATOM     11  C   UNL A   1      34.337  24.605  25.322  1.00  0.00    -0.006 C 
ATOM     12  C   UNL A   1      32.005  24.989  25.273  1.00  0.00     0.048 C 
ATOM     13  C   UNL A   1      33.795  23.679  26.118  1.00  0.00    -0.014 C 
BRANCH  10  14
ATOM     14  N   UNL A   1      33.394  25.146  23.216  1.00  0.00    -0.332 N 
ATOM     15  N   UNL A   1      32.480  27.034  22.102  1.00  0.00    -0.335 N 
ATOM     16  C   UNL A   1      33.047  25.813  22.102  1.00  0.00     0.315 C 
ATOM     17  H   UNL A   1      32.184  27.341  21.214  1.00  0.00     0.165 HD
ATOM     18  O   UNL A   1      33.271  25.263  21.026  1.00  0.00    -0.249 OA
ATOM     19  H   UNL A   1      33.792  24.265  23.027  1.00  0.00     0.165 HD
BRANCH  15  20
ATOM     20  C   UNL A   1      32.231  27.972  23.169  1.00  0.00     0.095 C 
ATOM     21  C   UNL A   1      31.425  30.694  26.207  1.00  0.00     0.332 C 
ATOM     22  N   UNL A   1      31.814  30.260  24.862  1.00  0.00    -0.337 N 
ATOM     23  C   UNL A   1      30.677  29.573  24.223  1.00  0.00     0.264 C 
ATOM     24  C   UNL A   1      33.050  29.460  24.931  1.00  0.00     0.264 C 
ATOM     25  H   UNL A   1      32.036  31.058  24.266  1.00  0.00     0.347 HD
ATOM     26  C   UNL A   1      31.040  28.881  22.909  1.00  0.00     0.086 C 
ATOM     27  C   UNL A   1      33.425  28.813  23.589  1.00  0.00     0.086 C 
ENDBRANCH  15  20
ENDBRANCH  10  14
ENDBRANCH   7   9
ENDBRANCH   6   7
ENDBRANCH   5   6
ENDBRANCH   4   5
ENDBRANCH   3   4
ENDBRANCH   2   3
ENDBRANCH   1   2
BRANCH   1  28
ATOM     28  O   UNL A   1      38.314  20.405  25.025  1.00  0.00    -0.376 OA
BRANCH  28  29
ATOM     29  C   UNL A   1      39.383  20.683  25.911  1.00  0.00     0.202 C 
BRANCH  29  30
ATOM     30  C   UNL A   1      40.308  19.535  26.330  1.00  0.00     0.261 C 
BRANCH  30  31
ATOM     31  O   UNL A   1      41.331  19.209  25.375  1.00  0.00    -0.460 OA
BRANCH  31  32
ATOM     32  C   UNL A   1      42.606  19.404  25.798  1.00  0.00     0.338 C 
ATOM     33  O   UNL A   1      43.510  18.587  25.799  1.00  0.00    -0.246 OA
BRANCH  32  34
ATOM     34  C   UNL A   1      42.821  20.828  26.133  1.00  0.00     0.060 A 
ATOM     35  C   UNL A   1      42.989  21.740  25.082  1.00  0.00     0.016 A 
ATOM     36  C   UNL A   1      42.946  21.248  27.457  1.00  0.00     0.016 A 
ATOM     37  C   UNL A   1      43.317  23.070  25.354  1.00  0.00     0.010 A 
ATOM     38  C   UNL A   1      43.294  22.577  27.726  1.00  0.00     0.010 A 
ATOM     39  C   UNL A   1      43.513  23.487  26.677  1.00  0.00    -0.014 A 
BRANCH  39  40
ATOM     40  C   UNL A   1      44.077  24.832  26.963  1.00  0.00     0.031 A 
ATOM     41  C   UNL A   1      43.149  25.942  27.376  1.00  0.00     0.074 A 
ATOM     42  C   UNL A   1      45.396  25.071  26.850  1.00  0.00     0.049 A 
ATOM     43  N   UNL A   1      43.421  27.199  27.621  1.00  0.00    -0.248 NA
ATOM     44  C   UNL A   1      41.727  25.594  27.526  1.00  0.00     0.031 C 
ATOM     45  C   UNL A   1      46.402  24.076  26.491  1.00  0.00     0.029 A 
ATOM     46  N   UNL A   1      46.116  26.229  27.026  1.00  0.00    -0.354 N 
ATOM     47  C   UNL A   1      42.204  27.798  27.920  1.00  0.00     0.074 A 
ATOM     48  C   UNL A   1      41.191  26.767  27.828  1.00  0.00     0.031 C 
ATOM     49  C   UNL A   1      47.611  24.664  26.475  1.00  0.00     0.029 A 
ATOM     50  C   UNL A   1      47.463  26.082  26.786  1.00  0.00     0.049 A 
ATOM     51  H   UNL A   1      45.707  27.081  27.298  1.00  0.00     0.167 HD
ATOM     52  C   UNL A   1      41.951  29.091  28.230  1.00  0.00     0.031 A 
ATOM     53  C   UNL A   1      48.463  26.988  26.799  1.00  0.00     0.031 A 
ATOM     54  C   UNL A   1      42.956  30.118  28.315  1.00  0.00     0.049 A 
ATOM     55  C   UNL A   1      48.149  28.425  27.126  1.00  0.00     0.074 A 
ATOM     56  C   UNL A   1      42.794  31.451  28.648  1.00  0.00     0.029 A 
ATOM     57  N   UNL A   1      44.305  29.932  28.055  1.00  0.00    -0.354 N 
ATOM     58  N   UNL A   1      46.998  28.967  27.447  1.00  0.00    -0.248 NA
ATOM     59  C   UNL A   1      49.271  29.378  27.092  1.00  0.00     0.031 C 
ATOM     60  C   UNL A   1      44.034  32.086  28.531  1.00  0.00     0.029 A 
ATOM     61  C   UNL A   1      44.981  31.134  28.189  1.00  0.00     0.049 A 
ATOM     62  H   UNL A   1      44.722  29.074  27.813  1.00  0.00     0.167 HD
ATOM     63  C   UNL A   1      47.260  30.317  27.664  1.00  0.00     0.074 A 
ATOM     64  C   UNL A   1      48.682  30.505  27.467  1.00  0.00     0.031 C 
ATOM     65  C   UNL A   1      46.398  31.311  27.990  1.00  0.00     0.031 A 
BRANCH  52  66
ATOM     66  C   UNL A   1      40.516  29.489  28.449  1.00  0.00    -0.014 A 
ATOM     67  C   UNL A   1      39.548  29.333  27.442  1.00  0.00     0.010 A 
ATOM     68  C   UNL A   1      40.122  29.975  29.710  1.00  0.00     0.010 A 
ATOM     69  C   UNL A   1      38.216  29.681  27.684  1.00  0.00     0.020 A 
ATOM     70  C   UNL A   1      38.787  30.299  29.964  1.00  0.00     0.020 A 
ATOM     71  C   UNL A   1      37.844  30.162  28.943  1.00  0.00     0.054 A 
BRANCH  71  72
ATOM     72  S   UNL A   1      36.102  30.570  29.241  1.00  0.00     0.124 S 
ATOM     73  O   UNL A   1      36.037  31.960  28.798  1.00  0.00    -0.237 OA
ATOM     74  O   UNL A   1      35.399  29.608  28.396  1.00  0.00    -0.237 OA
ATOM     75  O   UNL A   1      35.938  30.368  30.679  1.00  0.00    -0.744 OA
ENDBRANCH  71  72
ENDBRANCH  52  66
BRANCH  53  76
ATOM     76  C   UNL A   1      49.856  26.576  26.458  1.00  0.00    -0.014 A 
ATOM     77  C   UNL A   1      50.758  26.180  27.462  1.00  0.00     0.010 A 
ATOM     78  C   UNL A   1      50.295  26.599  25.122  1.00  0.00     0.010 A 
ATOM     79  C   UNL A   1      52.078  25.844  27.140  1.00  0.00     0.020 A 
ATOM     80  C   UNL A   1      51.605  26.235  24.791  1.00  0.00     0.020 A 
ATOM     81  C   UNL A   1      52.494  25.877  25.804  1.00  0.00     0.054 A 
BRANCH  81  82
ATOM     82  S   UNL A   1      54.203  25.415  25.404  1.00  0.00     0.124 S 
ATOM     83  O   UNL A   1      54.015  24.169  24.668  1.00  0.00    -0.237 OA
ATOM     84  O   UNL A   1      54.666  26.552  24.611  1.00  0.00    -0.237 OA
ATOM     85  O   UNL A   1      54.837  25.277  26.713  1.00  0.00    -0.744 OA
ENDBRANCH  81  82
ENDBRANCH  53  76
BRANCH  65  86
ATOM     86  C   UNL A   1      46.964  32.695  28.180  1.00  0.00    -0.014 A 
ATOM     87  C   UNL A   1      47.624  33.057  29.368  1.00  0.00     0.010 A 
ATOM     88  C   UNL A   1      46.895  33.624  27.126  1.00  0.00     0.010 A 
ATOM     89  C   UNL A   1      48.181  34.331  29.508  1.00  0.00     0.020 A 
ATOM     90  C   UNL A   1      47.473  34.891  27.252  1.00  0.00     0.020 A 
ATOM     91  C   UNL A   1      48.102  35.240  28.448  1.00  0.00     0.054 A 
BRANCH  91  92
ATOM     92  S   UNL A   1      48.876  36.870  28.636  1.00  0.00     0.124 S 
ATOM     93  O   UNL A   1      49.462  36.778  29.972  1.00  0.00    -0.237 OA
ATOM     94  O   UNL A   1      49.832  36.903  27.532  1.00  0.00    -0.237 OA
ATOM     95  O   UNL A   1      47.757  37.802  28.511  1.00  0.00    -0.744 OA
ENDBRANCH  91  92
ENDBRANCH  65  86
ENDBRANCH  39  40
ENDBRANCH  32  34
ENDBRANCH  31  32
ENDBRANCH  30  31
ENDBRANCH  29  30
ENDBRANCH  28  29
ENDBRANCH   1  28
TORSDOF 22
ENDMDL
MODEL 3
REMARK VINA RESULT:      -9.4      1.787      2.904
REMARK SMILES C[NH+]1CCC(NC(=O)N[C@@H]2C=C[C@H](C(=O)OCCOCCOCCOC(=O)c3ccc(-c4c5nc(c(-c6ccc(S(=O)(=O)[O-])cc6)c6ccc([nH]6)c(-c6ccc(S(=O)(=O)[O-])cc6)c6nc(c(-c7ccc(S(=O)(=O)[O-])cc7)c7ccc4[nH]7)C=C6)C=C5)cc3)C2)CC1
REMARK SMILES IDX 21 1 20 2 19 3 18 4 17 5 16 6 14 7 15 8 13 9 10 10 11 11
REMARK SMILES IDX 88 12 12 13 9 14 6 15 7 16 8 18 5 20 1 21 2 22 3 23 90 24
REMARK SMILES IDX 4 26 89 27 22 28 23 29 24 30 25 31 26 32 27 33 28 34 29 35
REMARK SMILES IDX 87 36 30 37 86 38 31 39 32 40 33 41 80 42 34 43 85 44 79 45
REMARK SMILES IDX 81 46 35 47 84 48 78 49 77 50 36 52 66 53 47 54 65 55 48 56
REMARK SMILES IDX 51 57 64 58 82 59 49 60 50 61 63 63 83 64 52 65 37 66 38 67
REMARK SMILES IDX 46 68 39 69 45 70 40 71 41 72 42 73 43 74 44 75 67 76 68 77
REMARK SMILES IDX 76 78 69 79 75 80 70 81 71 82 72 83 73 84 74 85 53 86 54 87
REMARK SMILES IDX 62 88 55 89 61 90 56 91 57 92 58 93 59 94 60 95
REMARK H PARENT 6 17 9 19 2 25 81 51 51 62
REMARK Flexibility Score: inf
ROOT
ATOM      1  C   UNL A   1      36.975  20.813  24.951  1.00  0.00     0.188 C 
ENDROOT
BRANCH   1   2
ATOM      2  C   UNL A   1      35.432  20.823  25.060  1.00  0.00     0.188 C 
BRANCH   2   3
ATOM      3  O   UNL A   1      34.745  22.042  24.921  1.00  0.00    -0.376 OA
BRANCH   3   4
ATOM      4  C   UNL A   1      34.332  22.523  23.658  1.00  0.00     0.202 C 
BRANCH   4   5
ATOM      5  C   UNL A   1      33.443  23.755  23.418  1.00  0.00     0.261 C 
BRANCH   5   6
ATOM      6  O   UNL A   1      34.103  24.991  23.146  1.00  0.00    -0.463 OA
BRANCH   6   7
ATOM      7  C   UNL A   1      33.611  25.727  22.102  1.00  0.00     0.312 C 
ATOM      8  O   UNL A   1      33.221  25.262  21.041  1.00  0.00    -0.252 OA
BRANCH   7   9
ATOM      9  C   UNL A   1      33.594  27.202  22.484  1.00  0.00     0.124 C 
ATOM     10  C   UNL A   1      32.142  28.005  24.316  1.00  0.00     0.107 C 
ATOM     11  C   UNL A   1      31.608  28.360  22.970  1.00  0.00    -0.006 C 
ATOM     12  C   UNL A   1      33.509  27.405  24.001  1.00  0.00     0.048 C 
ATOM     13  C   UNL A   1      32.381  27.916  21.975  1.00  0.00    -0.014 C 
BRANCH  10  14
ATOM     14  N   UNL A   1      31.223  27.073  24.922  1.00  0.00    -0.332 N 
ATOM     15  N   UNL A   1      31.523  27.285  27.269  1.00  0.00    -0.335 N 
ATOM     16  C   UNL A   1      30.930  26.740  26.191  1.00  0.00     0.315 C 
ATOM     17  H   UNL A   1      31.280  26.858  28.122  1.00  0.00     0.165 HD
ATOM     18  O   UNL A   1      30.061  25.886  26.360  1.00  0.00    -0.249 OA
ATOM     19  H   UNL A   1      30.694  26.570  24.261  1.00  0.00     0.165 HD
BRANCH  15  20
ATOM     20  C   UNL A   1      32.450  28.383  27.396  1.00  0.00     0.095 C 
ATOM     21  C   UNL A   1      35.052  31.608  27.734  1.00  0.00     0.332 C 
ATOM     22  N   UNL A   1      34.287  30.568  27.040  1.00  0.00    -0.337 N 
ATOM     23  C   UNL A   1      32.845  30.813  27.230  1.00  0.00     0.264 C 
ATOM     24  C   UNL A   1      34.742  29.236  27.478  1.00  0.00     0.264 C 
ATOM     25  H   UNL A   1      34.451  30.599  26.035  1.00  0.00     0.347 HD
ATOM     26  C   UNL A   1      31.961  29.666  26.742  1.00  0.00     0.086 C 
ATOM     27  C   UNL A   1      33.869  28.093  26.937  1.00  0.00     0.086 C 
ENDBRANCH  15  20
ENDBRANCH  10  14
ENDBRANCH   7   9
ENDBRANCH   6   7
ENDBRANCH   5   6
ENDBRANCH   4   5
ENDBRANCH   3   4
ENDBRANCH   2   3
ENDBRANCH   1   2
BRANCH   1  28
ATOM     28  O   UNL A   1      37.712  22.021  24.862  1.00  0.00    -0.376 OA
BRANCH  28  29
ATOM     29  C   UNL A   1      38.312  22.547  26.032  1.00  0.00     0.202 C 
BRANCH  29  30
ATOM     30  C   UNL A   1      38.711  24.027  26.051  1.00  0.00     0.261 C 
BRANCH  30  31
ATOM     31  O   UNL A   1      39.981  24.298  26.665  1.00  0.00    -0.460 OA
BRANCH  31  32
ATOM     32  C   UNL A   1      40.463  25.553  26.476  1.00  0.00     0.338 C 
ATOM     33  O   UNL A   1      40.659  26.109  25.411  1.00  0.00    -0.246 OA
BRANCH  32  34
ATOM     34  C   UNL A   1      40.588  26.253  27.773  1.00  0.00     0.060 A 
ATOM     35  C   UNL A   1      39.595  26.042  28.740  1.00  0.00     0.016 A 
ATOM     36  C   UNL A   1      41.613  27.169  28.004  1.00  0.00     0.016 A 
ATOM     37  C   UNL A   1      39.607  26.776  29.929  1.00  0.00     0.010 A 
ATOM     38  C   UNL A   1      41.612  27.918  29.188  1.00  0.00     0.010 A 
ATOM     39  C   UNL A   1      40.593  27.748  30.142  1.00  0.00    -0.014 A 
BRANCH  39  40
ATOM     40  C   UNL A   1      40.487  28.684  31.292  1.00  0.00     0.031 A 
ATOM     41  C   UNL A   1      39.440  29.764  31.262  1.00  0.00     0.074 A 
ATOM     42  C   UNL A   1      41.315  28.584  32.347  1.00  0.00     0.049 A 
ATOM     43  N   UNL A   1      39.209  30.715  32.130  1.00  0.00    -0.248 NA
ATOM     44  C   UNL A   1      38.539  29.779  30.098  1.00  0.00     0.031 C 
ATOM     45  C   UNL A   1      42.347  27.565  32.512  1.00  0.00     0.029 A 
ATOM     46  N   UNL A   1      41.418  29.354  33.482  1.00  0.00    -0.354 N 
ATOM     47  C   UNL A   1      38.162  31.462  31.605  1.00  0.00     0.074 A 
ATOM     48  C   UNL A   1      37.801  30.852  30.342  1.00  0.00     0.031 C 
ATOM     49  C   UNL A   1      42.979  27.769  33.681  1.00  0.00     0.029 A 
ATOM     50  C   UNL A   1      42.423  28.952  34.331  1.00  0.00     0.049 A 
ATOM     51  H   UNL A   1      40.828  30.119  33.669  1.00  0.00     0.167 HD
ATOM     52  C   UNL A   1      37.565  32.562  32.120  1.00  0.00     0.031 A 
ATOM     53  C   UNL A   1      42.860  29.483  35.492  1.00  0.00     0.031 A 
ATOM     54  C   UNL A   1      37.929  33.173  33.372  1.00  0.00     0.049 A 
ATOM     55  C   UNL A   1      42.191  30.721  36.031  1.00  0.00     0.074 A 
ATOM     56  C   UNL A   1      37.361  34.276  33.984  1.00  0.00     0.029 A 
ATOM     57  N   UNL A   1      38.957  32.743  34.196  1.00  0.00    -0.354 N 
ATOM     58  N   UNL A   1      41.174  31.391  35.541  1.00  0.00    -0.248 NA
ATOM     59  C   UNL A   1      42.728  31.279  37.283  1.00  0.00     0.031 C 
ATOM     60  C   UNL A   1      38.083  34.550  35.149  1.00  0.00     0.029 A 
ATOM     61  C   UNL A   1      39.060  33.579  35.296  1.00  0.00     0.049 A 
ATOM     62  H   UNL A   1      39.528  31.959  34.026  1.00  0.00     0.167 HD
ATOM     63  C   UNL A   1      40.945  32.438  36.429  1.00  0.00     0.074 A 
ATOM     64  C   UNL A   1      41.908  32.298  37.501  1.00  0.00     0.031 C 
ATOM     65  C   UNL A   1      40.024  33.430  36.358  1.00  0.00     0.031 A 
BRANCH  52  66
ATOM     66  C   UNL A   1      36.486  33.219  31.302  1.00  0.00    -0.014 A 
ATOM     67  C   UNL A   1      35.136  33.167  31.689  1.00  0.00     0.010 A 
ATOM     68  C   UNL A   1      36.842  33.951  30.154  1.00  0.00     0.010 A 
ATOM     69  C   UNL A   1      34.158  33.814  30.928  1.00  0.00     0.020 A 
ATOM     70  C   UNL A   1      35.871  34.621  29.405  1.00  0.00     0.020 A 
ATOM     71  C   UNL A   1      34.532  34.537  29.791  1.00  0.00     0.054 A 
BRANCH  71  72
ATOM     72  S   UNL A   1      33.248  35.397  28.843  1.00  0.00     0.124 S 
ATOM     73  O   UNL A   1      34.040  36.305  28.016  1.00  0.00    -0.237 OA
ATOM     74  O   UNL A   1      32.593  34.306  28.126  1.00  0.00    -0.237 OA
ATOM     75  O   UNL A   1      32.432  36.043  29.868  1.00  0.00    -0.744 OA
ENDBRANCH  71  72
ENDBRANCH  52  66
BRANCH  53  76
ATOM     76  C   UNL A   1      44.014  28.871  36.213  1.00  0.00    -0.014 A 
ATOM     77  C   UNL A   1      45.330  29.300  35.963  1.00  0.00     0.010 A 
ATOM     78  C   UNL A   1      43.803  27.836  37.141  1.00  0.00     0.010 A 
ATOM     79  C   UNL A   1      46.412  28.687  36.604  1.00  0.00     0.020 A 
ATOM     80  C   UNL A   1      44.879  27.241  37.808  1.00  0.00     0.020 A 
ATOM     81  C   UNL A   1      46.178  27.658  37.523  1.00  0.00     0.054 A 
BRANCH  81  82
ATOM     82  S   UNL A   1      47.593  26.891  38.363  1.00  0.00     0.124 S 
ATOM     83  O   UNL A   1      47.112  25.531  38.586  1.00  0.00    -0.237 OA
ATOM     84  O   UNL A   1      48.664  27.027  37.378  1.00  0.00    -0.237 OA
ATOM     85  O   UNL A   1      47.757  27.701  39.568  1.00  0.00    -0.744 OA
ENDBRANCH  81  82
ENDBRANCH  53  76
BRANCH  65  86
ATOM     86  C   UNL A   1      39.990  34.436  37.480  1.00  0.00    -0.014 A 
ATOM     87  C   UNL A   1      39.179  34.240  38.612  1.00  0.00     0.010 A 
ATOM     88  C   UNL A   1      40.835  35.560  37.431  1.00  0.00     0.010 A 
ATOM     89  C   UNL A   1      39.193  35.163  39.662  1.00  0.00     0.020 A 
ATOM     90  C   UNL A   1      40.873  36.471  38.491  1.00  0.00     0.020 A 
ATOM     91  C   UNL A   1      40.042  36.273  39.594  1.00  0.00     0.054 A 
BRANCH  91  92
ATOM     92  S   UNL A   1      40.080  37.429  40.992  1.00  0.00     0.124 S 
ATOM     93  O   UNL A   1      41.504  37.471  41.315  1.00  0.00    -0.237 OA
ATOM     94  O   UNL A   1      39.530  38.653  40.413  1.00  0.00    -0.237 OA
ATOM     95  O   UNL A   1      39.233  36.788  41.996  1.00  0.00    -0.744 OA
ENDBRANCH  91  92
ENDBRANCH  65  86
ENDBRANCH  39  40
ENDBRANCH  32  34
ENDBRANCH  31  32
ENDBRANCH  30  31
ENDBRANCH  29  30
ENDBRANCH  28  29
ENDBRANCH   1  28
TORSDOF 22
ENDMDL
