MODEL 1
REMARK VINA RESULT:      -9.1      0.000      0.000
REMARK SMILES C[C@@H](C(=O)OCCOCCOCCOC(=O)c1ccc(-c2c3nc(c(-c4ccc(S(=O)(=O)[O-])cc4)c4ccc([nH]4)c(-c4ccc(S(=O)(=O)[O-])cc4)c4nc(c(-c5ccc(S(=O)(=O)[O-])cc5)c5ccc2[nH]5)C=C4)C=C3)cc1)c1ccc(C[C@H]2CCC[C@H]2O)cc1
REMARK SMILES IDX 9 1 8 2 7 3 6 4 5 5 3 6 4 7 2 8 1 9 77 10 78 11 89 12 79 13
REMARK SMILES IDX 88 14 80 15 81 16 82 17 83 18 86 19 84 20 85 21 87 22 10 24
REMARK SMILES IDX 11 25 12 26 13 27 14 28 15 29 16 30 17 31 18 32 76 33 19 34
REMARK SMILES IDX 75 35 20 36 21 37 22 38 69 39 23 40 74 41 68 42 70 43 24 44
REMARK SMILES IDX 73 45 67 46 66 47 25 49 55 50 36 51 54 52 37 53 40 54 53 55
REMARK SMILES IDX 71 56 38 57 39 58 52 60 72 61 41 62 26 63 27 64 35 65 28 66
REMARK SMILES IDX 34 67 29 68 30 69 31 70 32 71 33 72 56 73 57 74 65 75 58 76
REMARK SMILES IDX 64 77 59 78 60 79 61 80 62 81 63 82 42 83 43 84 51 85 44 86
REMARK SMILES IDX 50 87 45 88 46 89 47 90 48 91 49 92
REMARK H PARENT 87 23 70 48 40 59
REMARK Flexibility Score: inf
ROOT
ATOM      1  C   UNL A   1      47.665  21.548  39.692  1.00  0.00     0.188 C 
ENDROOT
BRANCH   1   2
ATOM      2  O   UNL A   1      47.492  20.234  40.211  1.00  0.00    -0.376 OA
BRANCH   2   3
ATOM      3  C   UNL A   1      46.379  19.463  39.774  1.00  0.00     0.202 C 
BRANCH   3   4
ATOM      4  C   UNL A   1      46.464  18.724  38.427  1.00  0.00     0.261 C 
BRANCH   4   5
ATOM      5  O   UNL A   1      45.272  18.772  37.608  1.00  0.00    -0.463 OA
BRANCH   5   6
ATOM      6  C   UNL A   1      45.464  18.943  36.269  1.00  0.00     0.313 C 
ATOM      7  O   UNL A   1      45.419  18.020  35.460  1.00  0.00    -0.252 OA
BRANCH   6   8
ATOM      8  C   UNL A   1      45.799  20.390  35.844  1.00  0.00     0.126 C 
ATOM      9  C   UNL A   1      44.841  21.125  34.905  1.00  0.00     0.025 C 
BRANCH   8  10
ATOM     10  C   UNL A   1      47.245  20.482  35.367  1.00  0.00    -0.034 A 
ATOM     11  C   UNL A   1      47.608  20.176  34.048  1.00  0.00     0.005 A 
ATOM     12  C   UNL A   1      48.264  20.742  36.294  1.00  0.00     0.005 A 
ATOM     13  C   UNL A   1      48.947  20.019  33.699  1.00  0.00     0.004 A 
ATOM     14  C   UNL A   1      49.604  20.562  35.949  1.00  0.00     0.004 A 
ATOM     15  C   UNL A   1      49.945  20.115  34.672  1.00  0.00    -0.048 A 
BRANCH  15  16
ATOM     16  C   UNL A   1      51.326  19.590  34.383  1.00  0.00     0.041 C 
BRANCH  16  17
ATOM     17  C   UNL A   1      52.474  20.331  35.093  1.00  0.00     0.022 C 
ATOM     18  C   UNL A   1      53.804  19.585  35.266  1.00  0.00     0.007 C 
ATOM     19  C   UNL A   1      52.906  21.692  34.540  1.00  0.00     0.117 C 
ATOM     20  C   UNL A   1      54.872  20.679  35.433  1.00  0.00     0.003 C 
ATOM     21  C   UNL A   1      54.121  22.006  35.398  1.00  0.00     0.032 C 
BRANCH  19  22
ATOM     22  O   UNL A   1      53.317  21.743  33.180  1.00  0.00    -0.393 OA
ATOM     23  H   UNL A   1      52.539  21.848  32.611  1.00  0.00     0.210 HD
ENDBRANCH  19  22
ENDBRANCH  16  17
ENDBRANCH  15  16
ENDBRANCH   8  10
ENDBRANCH   6   8
ENDBRANCH   5   6
ENDBRANCH   4   5
ENDBRANCH   3   4
ENDBRANCH   2   3
ENDBRANCH   1   2
BRANCH   1  24
ATOM     24  C   UNL A   1      46.407  22.398  39.444  1.00  0.00     0.188 C 
BRANCH  24  25
ATOM     25  O   UNL A   1      46.673  23.671  38.900  1.00  0.00    -0.376 OA
BRANCH  25  26
ATOM     26  C   UNL A   1      47.985  24.186  38.992  1.00  0.00     0.202 C 
BRANCH  26  27
ATOM     27  C   UNL A   1      48.591  24.931  37.793  1.00  0.00     0.261 C 
BRANCH  27  28
ATOM     28  O   UNL A   1      47.763  25.894  37.121  1.00  0.00    -0.460 OA
BRANCH  28  29
ATOM     29  C   UNL A   1      47.418  27.009  37.803  1.00  0.00     0.338 C 
ATOM     30  O   UNL A   1      48.036  27.518  38.726  1.00  0.00    -0.246 OA
BRANCH  29  31
ATOM     31  C   UNL A   1      46.256  27.627  37.116  1.00  0.00     0.060 A 
ATOM     32  C   UNL A   1      46.440  28.799  36.373  1.00  0.00     0.016 A 
ATOM     33  C   UNL A   1      44.984  27.051  37.203  1.00  0.00     0.016 A 
ATOM     34  C   UNL A   1      45.347  29.401  35.736  1.00  0.00     0.010 A 
ATOM     35  C   UNL A   1      43.888  27.670  36.586  1.00  0.00     0.010 A 
ATOM     36  C   UNL A   1      44.055  28.857  35.858  1.00  0.00    -0.014 A 
BRANCH  36  37
ATOM     37  C   UNL A   1      42.880  29.629  35.365  1.00  0.00     0.031 A 
ATOM     38  C   UNL A   1      42.328  29.314  34.006  1.00  0.00     0.074 A 
ATOM     39  C   UNL A   1      42.334  30.649  36.055  1.00  0.00     0.049 A 
ATOM     40  N   UNL A   1      41.295  29.834  33.399  1.00  0.00    -0.248 NA
ATOM     41  C   UNL A   1      43.092  28.352  33.198  1.00  0.00     0.031 C 
ATOM     42  C   UNL A   1      42.884  31.215  37.276  1.00  0.00     0.029 A 
ATOM     43  N   UNL A   1      41.175  31.370  35.848  1.00  0.00    -0.354 N 
ATOM     44  C   UNL A   1      41.340  29.341  32.103  1.00  0.00     0.074 A 
ATOM     45  C   UNL A   1      42.467  28.436  32.033  1.00  0.00     0.031 C 
ATOM     46  C   UNL A   1      42.006  32.102  37.774  1.00  0.00     0.029 A 
ATOM     47  C   UNL A   1      40.823  32.159  36.926  1.00  0.00     0.049 A 
ATOM     48  H   UNL A   1      40.652  31.327  35.015  1.00  0.00     0.167 HD
ATOM     49  C   UNL A   1      40.555  29.672  31.050  1.00  0.00     0.031 A 
ATOM     50  C   UNL A   1      39.666  32.798  37.210  1.00  0.00     0.031 A 
ATOM     51  C   UNL A   1      39.467  30.612  31.108  1.00  0.00     0.049 A 
ATOM     52  C   UNL A   1      38.655  32.950  36.102  1.00  0.00     0.074 A 
ATOM     53  C   UNL A   1      38.631  31.023  30.084  1.00  0.00     0.029 A 
ATOM     54  N   UNL A   1      39.064  31.294  32.246  1.00  0.00    -0.354 N 
ATOM     55  N   UNL A   1      38.685  32.451  34.891  1.00  0.00    -0.248 NA
ATOM     56  C   UNL A   1      37.504  33.832  36.362  1.00  0.00     0.031 C 
ATOM     57  C   UNL A   1      37.752  31.986  30.593  1.00  0.00     0.029 A 
ATOM     58  C   UNL A   1      37.992  32.122  31.951  1.00  0.00     0.049 A 
ATOM     59  H   UNL A   1      39.479  31.204  33.135  1.00  0.00     0.167 HD
ATOM     60  C   UNL A   1      37.606  33.017  34.224  1.00  0.00     0.074 A 
ATOM     61  C   UNL A   1      36.881  33.813  35.191  1.00  0.00     0.031 C 
ATOM     62  C   UNL A   1      37.286  32.933  32.909  1.00  0.00     0.031 A 
BRANCH  49  63
ATOM     63  C   UNL A   1      40.915  29.069  29.721  1.00  0.00    -0.014 A 
ATOM     64  C   UNL A   1      40.353  27.854  29.291  1.00  0.00     0.010 A 
ATOM     65  C   UNL A   1      41.833  29.735  28.889  1.00  0.00     0.010 A 
ATOM     66  C   UNL A   1      40.736  27.297  28.069  1.00  0.00     0.020 A 
ATOM     67  C   UNL A   1      42.192  29.198  27.651  1.00  0.00     0.020 A 
ATOM     68  C   UNL A   1      41.653  27.972  27.258  1.00  0.00     0.054 A 
BRANCH  68  69
ATOM     69  S   UNL A   1      42.110  27.234  25.666  1.00  0.00     0.124 S 
ATOM     70  O   UNL A   1      43.406  26.635  25.973  1.00  0.00    -0.237 OA
ATOM     71  O   UNL A   1      41.022  26.290  25.429  1.00  0.00    -0.237 OA
ATOM     72  O   UNL A   1      42.152  28.374  24.754  1.00  0.00    -0.744 OA
ENDBRANCH  68  69
ENDBRANCH  49  63
BRANCH  50  73
ATOM     73  C   UNL A   1      39.362  33.338  38.575  1.00  0.00    -0.014 A 
ATOM     74  C   UNL A   1      38.802  32.488  39.555  1.00  0.00     0.010 A 
ATOM     75  C   UNL A   1      39.596  34.679  38.918  1.00  0.00     0.010 A 
ATOM     76  C   UNL A   1      38.477  32.967  40.831  1.00  0.00     0.020 A 
ATOM     77  C   UNL A   1      39.319  35.152  40.208  1.00  0.00     0.020 A 
ATOM     78  C   UNL A   1      38.746  34.297  41.152  1.00  0.00     0.054 A 
BRANCH  78  79
ATOM     79  S   UNL A   1      38.390  34.896  42.830  1.00  0.00     0.124 S 
ATOM     80  O   UNL A   1      38.992  33.856  43.657  1.00  0.00    -0.237 OA
ATOM     81  O   UNL A   1      39.062  36.193  42.856  1.00  0.00    -0.237 OA
ATOM     82  O   UNL A   1      36.931  34.959  42.862  1.00  0.00    -0.744 OA
ENDBRANCH  78  79
ENDBRANCH  50  73
BRANCH  62  83
ATOM     83  C   UNL A   1      36.117  33.749  32.427  1.00  0.00    -0.014 A 
ATOM     84  C   UNL A   1      35.843  35.018  32.974  1.00  0.00     0.010 A 
ATOM     85  C   UNL A   1      35.315  33.271  31.377  1.00  0.00     0.010 A 
ATOM     86  C   UNL A   1      34.767  35.775  32.504  1.00  0.00     0.020 A 
ATOM     87  C   UNL A   1      34.256  34.037  30.884  1.00  0.00     0.020 A 
ATOM     88  C   UNL A   1      33.980  35.279  31.461  1.00  0.00     0.054 A 
BRANCH  88  89
ATOM     89  S   UNL A   1      32.611  36.296  30.841  1.00  0.00     0.124 S 
ATOM     90  O   UNL A   1      32.537  35.888  29.442  1.00  0.00    -0.237 OA
ATOM     91  O   UNL A   1      31.492  35.873  31.680  1.00  0.00    -0.237 OA
ATOM     92  O   UNL A   1      33.068  37.666  31.067  1.00  0.00    -0.744 OA
ENDBRANCH  88  89
ENDBRANCH  62  83
ENDBRANCH  36  37
ENDBRANCH  29  31
ENDBRANCH  28  29
ENDBRANCH  27  28
ENDBRANCH  26  27
ENDBRANCH  25  26
ENDBRANCH  24  25
ENDBRANCH   1  24
TORSDOF 24
ENDMDL
MODEL 2
REMARK VINA RESULT:      -8.9      7.780     11.981
REMARK SMILES C[C@@H](C(=O)OCCOCCOCCOC(=O)c1ccc(-c2c3nc(c(-c4ccc(S(=O)(=O)[O-])cc4)c4ccc([nH]4)c(-c4ccc(S(=O)(=O)[O-])cc4)c4nc(c(-c5ccc(S(=O)(=O)[O-])cc5)c5ccc2[nH]5)C=C4)C=C3)cc1)c1ccc(C[C@H]2CCC[C@H]2O)cc1
REMARK SMILES IDX 9 1 8 2 7 3 6 4 5 5 3 6 4 7 2 8 1 9 77 10 78 11 89 12 79 13
REMARK SMILES IDX 88 14 80 15 81 16 82 17 83 18 86 19 84 20 85 21 87 22 10 24
REMARK SMILES IDX 11 25 12 26 13 27 14 28 15 29 16 30 17 31 18 32 76 33 19 34
REMARK SMILES IDX 75 35 20 36 21 37 22 38 69 39 23 40 74 41 68 42 70 43 24 44
REMARK SMILES IDX 73 45 67 46 66 47 25 49 55 50 36 51 54 52 37 53 40 54 53 55
REMARK SMILES IDX 71 56 38 57 39 58 52 60 72 61 41 62 26 63 27 64 35 65 28 66
REMARK SMILES IDX 34 67 29 68 30 69 31 70 32 71 33 72 56 73 57 74 65 75 58 76
REMARK SMILES IDX 64 77 59 78 60 79 61 80 62 81 63 82 42 83 43 84 51 85 44 86
REMARK SMILES IDX 50 87 45 88 46 89 47 90 48 91 49 92
REMARK H PARENT 87 23 70 48 40 59
REMARK Flexibility Score: inf
ROOT
ATOM      1  C   UNL A   1      43.025  18.967  26.059  1.00  0.00     0.188 C 
ENDROOT
BRANCH   1   2
ATOM      2  O   UNL A   1      41.983  19.804  26.551  1.00  0.00    -0.376 OA
BRANCH   2   3
ATOM      3  C   UNL A   1      41.928  21.159  26.120  1.00  0.00     0.202 C 
BRANCH   3   4
ATOM      4  C   UNL A   1      40.589  21.913  26.193  1.00  0.00     0.261 C 
BRANCH   4   5
ATOM      5  O   UNL A   1      40.675  23.315  26.539  1.00  0.00    -0.463 OA
BRANCH   5   6
ATOM      6  C   UNL A   1      41.253  23.608  27.738  1.00  0.00     0.313 C 
ATOM      7  O   UNL A   1      41.183  22.871  28.718  1.00  0.00    -0.252 OA
BRANCH   6   8
ATOM      8  C   UNL A   1      41.969  24.977  27.793  1.00  0.00     0.126 C 
ATOM      9  C   UNL A   1      43.066  25.196  28.837  1.00  0.00     0.025 C 
BRANCH   8  10
ATOM     10  C   UNL A   1      40.949  26.111  27.795  1.00  0.00    -0.034 A 
ATOM     11  C   UNL A   1      41.092  27.234  26.969  1.00  0.00     0.005 A 
ATOM     12  C   UNL A   1      39.915  26.109  28.742  1.00  0.00     0.005 A 
ATOM     13  C   UNL A   1      40.301  28.363  27.164  1.00  0.00     0.004 A 
ATOM     14  C   UNL A   1      39.138  27.249  28.951  1.00  0.00     0.004 A 
ATOM     15  C   UNL A   1      39.388  28.410  28.220  1.00  0.00    -0.048 A 
BRANCH  15  16
ATOM     16  C   UNL A   1      38.813  29.732  28.654  1.00  0.00     0.041 C 
BRANCH  16  17
ATOM     17  C   UNL A   1      37.433  30.076  28.061  1.00  0.00     0.022 C 
ATOM     18  C   UNL A   1      36.820  29.085  27.064  1.00  0.00     0.007 C 
ATOM     19  C   UNL A   1      36.282  30.356  29.031  1.00  0.00     0.117 C 
ATOM     20  C   UNL A   1      35.304  29.344  27.105  1.00  0.00     0.003 C 
ATOM     21  C   UNL A   1      35.103  30.497  28.081  1.00  0.00     0.032 C 
BRANCH  19  22
ATOM     22  O   UNL A   1      35.956  29.337  29.968  1.00  0.00    -0.393 OA
ATOM     23  H   UNL A   1      36.144  28.469  29.579  1.00  0.00     0.210 HD
ENDBRANCH  19  22
ENDBRANCH  16  17
ENDBRANCH  15  16
ENDBRANCH   8  10
ENDBRANCH   6   8
ENDBRANCH   5   6
ENDBRANCH   4   5
ENDBRANCH   3   4
ENDBRANCH   2   3
ENDBRANCH   1   2
BRANCH   1  24
ATOM     24  C   UNL A   1      43.912  19.510  24.926  1.00  0.00     0.188 C 
BRANCH  24  25
ATOM     25  O   UNL A   1      45.176  19.963  25.354  1.00  0.00    -0.376 OA
BRANCH  25  26
ATOM     26  C   UNL A   1      45.541  21.301  25.088  1.00  0.00     0.202 C 
BRANCH  26  27
ATOM     27  C   UNL A   1      45.440  22.350  26.206  1.00  0.00     0.261 C 
BRANCH  27  28
ATOM     28  O   UNL A   1      44.834  23.611  25.880  1.00  0.00    -0.460 OA
BRANCH  28  29
ATOM     29  C   UNL A   1      45.610  24.546  25.286  1.00  0.00     0.338 C 
ATOM     30  O   UNL A   1      46.253  24.409  24.256  1.00  0.00    -0.246 OA
BRANCH  29  31
ATOM     31  C   UNL A   1      45.399  25.835  25.992  1.00  0.00     0.060 A 
ATOM     32  C   UNL A   1      44.585  26.813  25.407  1.00  0.00     0.016 A 
ATOM     33  C   UNL A   1      46.003  26.080  27.229  1.00  0.00     0.016 A 
ATOM     34  C   UNL A   1      44.394  28.040  26.055  1.00  0.00     0.010 A 
ATOM     35  C   UNL A   1      45.831  27.319  27.862  1.00  0.00     0.010 A 
ATOM     36  C   UNL A   1      45.037  28.316  27.276  1.00  0.00    -0.014 A 
BRANCH  36  37
ATOM     37  C   UNL A   1      45.002  29.697  27.834  1.00  0.00     0.031 A 
ATOM     38  C   UNL A   1      46.048  30.679  27.395  1.00  0.00     0.074 A 
ATOM     39  C   UNL A   1      44.116  30.085  28.771  1.00  0.00     0.049 A 
ATOM     40  N   UNL A   1      46.184  31.936  27.725  1.00  0.00    -0.248 NA
ATOM     41  C   UNL A   1      47.126  30.150  26.547  1.00  0.00     0.031 C 
ATOM     42  C   UNL A   1      43.187  29.199  29.454  1.00  0.00     0.029 A 
ATOM     43  N   UNL A   1      43.827  31.331  29.289  1.00  0.00    -0.354 N 
ATOM     44  C   UNL A   1      47.412  32.324  27.209  1.00  0.00     0.074 A 
ATOM     45  C   UNL A   1      47.950  31.185  26.496  1.00  0.00     0.031 C 
ATOM     46  C   UNL A   1      42.352  29.942  30.201  1.00  0.00     0.029 A 
ATOM     47  C   UNL A   1      42.669  31.354  30.041  1.00  0.00     0.049 A 
ATOM     48  H   UNL A   1      44.390  32.125  29.139  1.00  0.00     0.167 HD
ATOM     49  C   UNL A   1      48.061  33.501  27.378  1.00  0.00     0.031 A 
ATOM     50  C   UNL A   1      41.931  32.394  30.493  1.00  0.00     0.031 A 
ATOM     51  C   UNL A   1      47.547  34.614  28.132  1.00  0.00     0.049 A 
ATOM     52  C   UNL A   1      42.549  33.768  30.448  1.00  0.00     0.074 A 
ATOM     53  C   UNL A   1      48.147  35.838  28.373  1.00  0.00     0.029 A 
ATOM     54  N   UNL A   1      46.318  34.642  28.772  1.00  0.00    -0.354 N 
ATOM     55  N   UNL A   1      43.694  34.135  29.926  1.00  0.00    -0.248 NA
ATOM     56  C   UNL A   1      41.828  34.850  31.139  1.00  0.00     0.031 C 
ATOM     57  C   UNL A   1      47.299  36.589  29.195  1.00  0.00     0.029 A 
ATOM     58  C   UNL A   1      46.140  35.861  29.406  1.00  0.00     0.049 A 
ATOM     59  H   UNL A   1      45.665  33.904  28.775  1.00  0.00     0.167 HD
ATOM     60  C   UNL A   1      43.864  35.465  30.291  1.00  0.00     0.074 A 
ATOM     61  C   UNL A   1      42.661  35.870  30.987  1.00  0.00     0.031 C 
ATOM     62  C   UNL A   1      44.952  36.256  30.120  1.00  0.00     0.031 A 
BRANCH  49  63
ATOM     63  C   UNL A   1      49.447  33.598  26.804  1.00  0.00    -0.014 A 
ATOM     64  C   UNL A   1      49.681  34.187  25.549  1.00  0.00     0.010 A 
ATOM     65  C   UNL A   1      50.534  33.090  27.538  1.00  0.00     0.010 A 
ATOM     66  C   UNL A   1      50.973  34.229  25.022  1.00  0.00     0.020 A 
ATOM     67  C   UNL A   1      51.833  33.160  27.030  1.00  0.00     0.020 A 
ATOM     68  C   UNL A   1      52.040  33.714  25.766  1.00  0.00     0.054 A 
BRANCH  68  69
ATOM     69  S   UNL A   1      53.709  33.807  25.064  1.00  0.00     0.124 S 
ATOM     70  O   UNL A   1      53.625  35.014  24.246  1.00  0.00    -0.237 OA
ATOM     71  O   UNL A   1      54.550  33.911  26.253  1.00  0.00    -0.237 OA
ATOM     72  O   UNL A   1      53.842  32.558  24.317  1.00  0.00    -0.744 OA
ENDBRANCH  68  69
ENDBRANCH  49  63
BRANCH  50  73
ATOM     73  C   UNL A   1      40.537  32.221  31.015  1.00  0.00    -0.014 A 
ATOM     74  C   UNL A   1      39.470  32.921  30.408  1.00  0.00     0.010 A 
ATOM     75  C   UNL A   1      40.245  31.395  32.113  1.00  0.00     0.010 A 
ATOM     76  C   UNL A   1      38.159  32.807  30.891  1.00  0.00     0.020 A 
ATOM     77  C   UNL A   1      38.930  31.238  32.568  1.00  0.00     0.020 A 
ATOM     78  C   UNL A   1      37.896  31.959  31.965  1.00  0.00     0.054 A 
BRANCH  78  79
ATOM     79  S   UNL A   1      36.185  31.758  32.541  1.00  0.00     0.124 S 
ATOM     80  O   UNL A   1      36.245  32.343  33.877  1.00  0.00    -0.237 OA
ATOM     81  O   UNL A   1      35.423  32.516  31.552  1.00  0.00    -0.237 OA
ATOM     82  O   UNL A   1      35.983  30.311  32.497  1.00  0.00    -0.744 OA
ENDBRANCH  78  79
ENDBRANCH  50  73
BRANCH  62  83
ATOM     83  C   UNL A   1      44.907  37.634  30.722  1.00  0.00    -0.014 A 
ATOM     84  C   UNL A   1      45.385  37.872  32.026  1.00  0.00     0.010 A 
ATOM     85  C   UNL A   1      44.436  38.716  29.959  1.00  0.00     0.010 A 
ATOM     86  C   UNL A   1      45.358  39.160  32.566  1.00  0.00     0.020 A 
ATOM     87  C   UNL A   1      44.434  40.011  30.486  1.00  0.00     0.020 A 
ATOM     88  C   UNL A   1      44.882  40.222  31.792  1.00  0.00     0.054 A 
BRANCH  88  89
ATOM     89  S   UNL A   1      44.891  41.892  32.501  1.00  0.00     0.124 S 
ATOM     90  O   UNL A   1      45.043  42.727  31.313  1.00  0.00    -0.237 OA
ATOM     91  O   UNL A   1      43.589  41.967  33.160  1.00  0.00    -0.237 OA
ATOM     92  O   UNL A   1      46.040  41.879  33.404  1.00  0.00    -0.744 OA
ENDBRANCH  88  89
ENDBRANCH  62  83
ENDBRANCH  36  37
ENDBRANCH  29  31
ENDBRANCH  28  29
ENDBRANCH  27  28
ENDBRANCH  26  27
ENDBRANCH  25  26
ENDBRANCH  24  25
ENDBRANCH   1  24
TORSDOF 24
ENDMDL
MODEL 3
REMARK VINA RESULT:      -8.8     10.384     19.246
REMARK SMILES C[C@@H](C(=O)OCCOCCOCCOC(=O)c1ccc(-c2c3nc(c(-c4ccc(S(=O)(=O)[O-])cc4)c4ccc([nH]4)c(-c4ccc(S(=O)(=O)[O-])cc4)c4nc(c(-c5ccc(S(=O)(=O)[O-])cc5)c5ccc2[nH]5)C=C4)C=C3)cc1)c1ccc(C[C@H]2CCC[C@H]2O)cc1
REMARK SMILES IDX 9 1 8 2 7 3 6 4 5 5 3 6 4 7 2 8 1 9 77 10 78 11 89 12 79 13
REMARK SMILES IDX 88 14 80 15 81 16 82 17 83 18 86 19 84 20 85 21 87 22 10 24
REMARK SMILES IDX 11 25 12 26 13 27 14 28 15 29 16 30 17 31 18 32 76 33 19 34
REMARK SMILES IDX 75 35 20 36 21 37 22 38 69 39 23 40 74 41 68 42 70 43 24 44
REMARK SMILES IDX 73 45 67 46 66 47 25 49 55 50 36 51 54 52 37 53 40 54 53 55
REMARK SMILES IDX 71 56 38 57 39 58 52 60 72 61 41 62 26 63 27 64 35 65 28 66
REMARK SMILES IDX 34 67 29 68 30 69 31 70 32 71 33 72 56 73 57 74 65 75 58 76
REMARK SMILES IDX 64 77 59 78 60 79 61 80 62 81 63 82 42 83 43 84 51 85 44 86
REMARK SMILES IDX 50 87 45 88 46 89 47 90 48 91 49 92
REMARK H PARENT 87 23 70 48 40 59
REMARK Flexibility Score: inf
ROOT
ATOM      1  C   UNL A   1      43.899  41.585  28.352  1.00  0.00     0.188 C 
ENDROOT
BRANCH   1   2
ATOM      2  O   UNL A   1      43.393  40.715  27.345  1.00  0.00    -0.376 OA
BRANCH   2   3
ATOM      3  C   UNL A   1      42.526  41.246  26.350  1.00  0.00     0.202 C 
BRANCH   3   4
ATOM      4  C   UNL A   1      43.095  41.569  24.958  1.00  0.00     0.261 C 
BRANCH   4   5
ATOM      5  O   UNL A   1      44.482  41.980  24.926  1.00  0.00    -0.463 OA
BRANCH   5   6
ATOM      6  C   UNL A   1      44.765  43.101  24.203  1.00  0.00     0.313 C 
ATOM      7  O   UNL A   1      43.930  43.964  23.945  1.00  0.00    -0.252 OA
BRANCH   6   8
ATOM      8  C   UNL A   1      46.217  43.185  23.682  1.00  0.00     0.126 C 
ATOM      9  C   UNL A   1      47.291  43.802  24.581  1.00  0.00     0.025 C 
BRANCH   8  10
ATOM     10  C   UNL A   1      46.244  43.777  22.277  1.00  0.00    -0.034 A 
ATOM     11  C   UNL A   1      46.088  45.152  22.052  1.00  0.00     0.005 A 
ATOM     12  C   UNL A   1      46.283  42.922  21.167  1.00  0.00     0.005 A 
ATOM     13  C   UNL A   1      45.861  45.639  20.767  1.00  0.00     0.004 A 
ATOM     14  C   UNL A   1      46.033  43.409  19.883  1.00  0.00     0.004 A 
ATOM     15  C   UNL A   1      45.735  44.758  19.691  1.00  0.00    -0.048 A 
BRANCH  15  16
ATOM     16  C   UNL A   1      45.133  45.237  18.397  1.00  0.00     0.041 C 
BRANCH  16  17
ATOM     17  C   UNL A   1      43.604  45.423  18.412  1.00  0.00     0.022 C 
ATOM     18  C   UNL A   1      43.033  46.680  17.743  1.00  0.00     0.007 C 
ATOM     19  C   UNL A   1      42.735  44.298  17.843  1.00  0.00     0.117 C 
ATOM     20  C   UNL A   1      41.577  46.334  17.387  1.00  0.00     0.003 C 
ATOM     21  C   UNL A   1      41.347  44.917  17.901  1.00  0.00     0.032 C 
BRANCH  19  22
ATOM     22  O   UNL A   1      42.972  43.908  16.496  1.00  0.00    -0.393 OA
ATOM     23  H   UNL A   1      43.749  43.328  16.461  1.00  0.00     0.210 HD
ENDBRANCH  19  22
ENDBRANCH  16  17
ENDBRANCH  15  16
ENDBRANCH   8  10
ENDBRANCH   6   8
ENDBRANCH   5   6
ENDBRANCH   4   5
ENDBRANCH   3   4
ENDBRANCH   2   3
ENDBRANCH   1   2
BRANCH   1  24
ATOM     24  C   UNL A   1      43.372  41.412  29.786  1.00  0.00     0.188 C 
BRANCH  24  25
ATOM     25  O   UNL A   1      44.169  40.578  30.595  1.00  0.00    -0.376 OA
BRANCH  25  26
ATOM     26  C   UNL A   1      44.297  39.216  30.243  1.00  0.00     0.202 C 
BRANCH  26  27
ATOM     27  C   UNL A   1      45.591  38.724  29.577  1.00  0.00     0.261 C 
BRANCH  27  28
ATOM     28  O   UNL A   1      45.759  37.306  29.419  1.00  0.00    -0.460 OA
BRANCH  28  29
ATOM     29  C   UNL A   1      47.003  36.799  29.576  1.00  0.00     0.338 C 
ATOM     30  O   UNL A   1      47.953  37.356  30.105  1.00  0.00    -0.246 OA
BRANCH  29  31
ATOM     31  C   UNL A   1      46.972  35.371  29.169  1.00  0.00     0.060 A 
ATOM     32  C   UNL A   1      46.529  35.032  27.885  1.00  0.00     0.016 A 
ATOM     33  C   UNL A   1      47.380  34.367  30.053  1.00  0.00     0.016 A 
ATOM     34  C   UNL A   1      46.478  33.687  27.497  1.00  0.00     0.010 A 
ATOM     35  C   UNL A   1      47.303  33.021  29.670  1.00  0.00     0.010 A 
ATOM     36  C   UNL A   1      46.839  32.666  28.395  1.00  0.00    -0.014 A 
BRANCH  36  37
ATOM     37  C   UNL A   1      46.566  31.243  28.045  1.00  0.00     0.031 A 
ATOM     38  C   UNL A   1      45.186  30.698  28.262  1.00  0.00     0.074 A 
ATOM     39  C   UNL A   1      47.524  30.402  27.609  1.00  0.00     0.049 A 
ATOM     40  N   UNL A   1      44.723  29.506  27.994  1.00  0.00    -0.248 NA
ATOM     41  C   UNL A   1      44.234  31.584  28.948  1.00  0.00     0.031 C 
ATOM     42  C   UNL A   1      48.943  30.714  27.555  1.00  0.00     0.029 A 
ATOM     43  N   UNL A   1      47.446  29.123  27.096  1.00  0.00    -0.354 N 
ATOM     44  C   UNL A   1      43.460  29.462  28.566  1.00  0.00     0.074 A 
ATOM     45  C   UNL A   1      43.211  30.766  29.143  1.00  0.00     0.031 C 
ATOM     46  C   UNL A   1      49.582  29.712  26.925  1.00  0.00     0.029 A 
ATOM     47  C   UNL A   1      48.624  28.696  26.514  1.00  0.00     0.049 A 
ATOM     48  H   UNL A   1      46.633  28.570  27.141  1.00  0.00     0.167 HD
ATOM     49  C   UNL A   1      42.617  28.406  28.665  1.00  0.00     0.031 A 
ATOM     50  C   UNL A   1      48.875  27.643  25.703  1.00  0.00     0.031 A 
ATOM     51  C   UNL A   1      42.890  27.095  28.137  1.00  0.00     0.049 A 
ATOM     52  C   UNL A   1      47.823  26.568  25.598  1.00  0.00     0.074 A 
ATOM     53  C   UNL A   1      42.101  25.960  28.209  1.00  0.00     0.029 A 
ATOM     54  N   UNL A   1      44.037  26.738  27.445  1.00  0.00    -0.354 N 
ATOM     55  N   UNL A   1      46.617  26.548  26.111  1.00  0.00    -0.248 NA
ATOM     56  C   UNL A   1      48.197  25.331  24.891  1.00  0.00     0.031 C 
ATOM     57  C   UNL A   1      42.791  24.905  27.600  1.00  0.00     0.029 A 
ATOM     58  C   UNL A   1      43.978  25.401  27.084  1.00  0.00     0.049 A 
ATOM     59  H   UNL A   1      44.785  27.345  27.240  1.00  0.00     0.167 HD
ATOM     60  C   UNL A   1      46.121  25.276  25.857  1.00  0.00     0.074 A 
ATOM     61  C   UNL A   1      47.111  24.589  25.054  1.00  0.00     0.031 C 
ATOM     62  C   UNL A   1      44.974  24.710  26.306  1.00  0.00     0.031 A 
BRANCH  49  63
ATOM     63  C   UNL A   1      41.357  28.616  29.456  1.00  0.00    -0.014 A 
ATOM     64  C   UNL A   1      40.189  29.117  28.855  1.00  0.00     0.010 A 
ATOM     65  C   UNL A   1      41.346  28.305  30.828  1.00  0.00     0.010 A 
ATOM     66  C   UNL A   1      39.044  29.339  29.623  1.00  0.00     0.020 A 
ATOM     67  C   UNL A   1      40.192  28.494  31.592  1.00  0.00     0.020 A 
ATOM     68  C   UNL A   1      39.054  29.027  30.986  1.00  0.00     0.054 A 
BRANCH  68  69
ATOM     69  S   UNL A   1      37.543  29.305  31.949  1.00  0.00     0.124 S 
ATOM     70  O   UNL A   1      37.763  30.651  32.472  1.00  0.00    -0.237 OA
ATOM     71  O   UNL A   1      36.495  29.186  30.940  1.00  0.00    -0.237 OA
ATOM     72  O   UNL A   1      37.567  28.239  32.948  1.00  0.00    -0.744 OA
ENDBRANCH  68  69
ENDBRANCH  49  63
BRANCH  50  73
ATOM     73  C   UNL A   1      50.143  27.524  24.913  1.00  0.00    -0.014 A 
ATOM     74  C   UNL A   1      50.214  28.080  23.616  1.00  0.00     0.010 A 
ATOM     75  C   UNL A   1      51.274  26.855  25.408  1.00  0.00     0.010 A 
ATOM     76  C   UNL A   1      51.373  27.960  22.837  1.00  0.00     0.020 A 
ATOM     77  C   UNL A   1      52.452  26.775  24.654  1.00  0.00     0.020 A 
ATOM     78  C   UNL A   1      52.489  27.314  23.365  1.00  0.00     0.054 A 
BRANCH  78  79
ATOM     79  S   UNL A   1      54.013  27.224  22.381  1.00  0.00     0.124 S 
ATOM     80  O   UNL A   1      53.629  26.311  21.310  1.00  0.00    -0.237 OA
ATOM     81  O   UNL A   1      54.220  28.615  21.984  1.00  0.00    -0.237 OA
ATOM     82  O   UNL A   1      54.995  26.703  23.329  1.00  0.00    -0.744 OA
ENDBRANCH  78  79
ENDBRANCH  50  73
BRANCH  62  83
ATOM     83  C   UNL A   1      44.738  23.262  25.970  1.00  0.00    -0.014 A 
ATOM     84  C   UNL A   1      43.519  22.837  25.408  1.00  0.00     0.010 A 
ATOM     85  C   UNL A   1      45.765  22.323  26.163  1.00  0.00     0.010 A 
ATOM     86  C   UNL A   1      43.319  21.494  25.080  1.00  0.00     0.020 A 
ATOM     87  C   UNL A   1      45.580  20.983  25.811  1.00  0.00     0.020 A 
ATOM     88  C   UNL A   1      44.352  20.575  25.284  1.00  0.00     0.054 A 
BRANCH  88  89
ATOM     89  S   UNL A   1      44.084  18.843  24.816  1.00  0.00     0.124 S 
ATOM     90  O   UNL A   1      45.207  18.173  25.466  1.00  0.00    -0.237 OA
ATOM     91  O   UNL A   1      42.768  18.558  25.385  1.00  0.00    -0.237 OA
ATOM     92  O   UNL A   1      44.133  18.866  23.356  1.00  0.00    -0.744 OA
ENDBRANCH  88  89
ENDBRANCH  62  83
ENDBRANCH  36  37
ENDBRANCH  29  31
ENDBRANCH  28  29
ENDBRANCH  27  28
ENDBRANCH  26  27
ENDBRANCH  25  26
ENDBRANCH  24  25
ENDBRANCH   1  24
TORSDOF 24
ENDMDL
