MODEL 1
REMARK VINA RESULT:     -11.8      0.000      0.000
REMARK SMILES Cc1cccc(C(=O)OCCOCCOCCOC(=O)c2ccc(-c3c4nc(c(-c5ccc(S(=O)(=O)[O-])cc5)c5ccc([nH]5)c(-c5ccc(S(=O)(=O)[O-])cc5)c5nc(c(-c6ccc(S(=O)(=O)[O-])cc6)c6ccc3[nH]6)C=C5)C=C4)cc2)c1OC[C@@H]1C[C@H]2CC[C@@H]1C2
REMARK SMILES IDX 13 1 12 2 11 3 10 4 9 5 7 6 8 7 6 8 1 9 2 10 3 11 81 12 4 13
REMARK SMILES IDX 5 14 82 15 83 16 84 17 85 18 89 19 86 20 88 21 90 22 87 23
REMARK SMILES IDX 14 24 15 25 16 26 17 27 18 28 19 29 20 30 21 31 22 32 80 33
REMARK SMILES IDX 23 34 79 35 24 36 25 37 26 38 73 39 27 40 78 41 72 42 74 43
REMARK SMILES IDX 28 44 77 45 71 46 70 47 29 49 59 50 40 51 58 52 41 53 44 54
REMARK SMILES IDX 57 55 75 56 42 57 43 58 56 60 76 61 45 62 30 63 31 64 39 65
REMARK SMILES IDX 32 66 38 67 33 68 34 69 35 70 36 71 37 72 60 73 61 74 69 75
REMARK SMILES IDX 62 76 68 77 63 78 64 79 65 80 66 81 67 82 46 83 47 84 55 85
REMARK SMILES IDX 48 86 54 87 49 88 50 89 51 90 52 91 53 92
REMARK H PARENT 74 48 44 59
REMARK Flexibility Score: inf
ROOT
ATOM      1  C   UNL A   1      39.926  21.715  26.897  1.00  0.00     0.188 C 
ENDROOT
BRANCH   1   2
ATOM      2  O   UNL A   1      39.351  22.514  25.853  1.00  0.00    -0.376 OA
BRANCH   2   3
ATOM      3  C   UNL A   1      38.435  23.590  26.000  1.00  0.00     0.202 C 
BRANCH   3   4
ATOM      4  C   UNL A   1      36.772  23.554  25.603  1.00  0.00     0.261 C 
BRANCH   4   5
ATOM      5  O   UNL A   1      35.412  23.005  26.509  1.00  0.00    -0.460 OA
BRANCH   5   6
ATOM      6  C   UNL A   1      34.010  22.827  26.546  1.00  0.00     0.342 C 
ATOM      7  O   UNL A   1      33.325  22.661  27.550  1.00  0.00    -0.246 OA
BRANCH   6   8
ATOM      8  C   UNL A   1      33.120  22.766  25.322  1.00  0.00     0.102 A 
ATOM      9  C   UNL A   1      31.449  25.131  22.810  1.00  0.00     0.048 C 
ATOM     10  C   UNL A   1      31.966  23.886  23.473  1.00  0.00    -0.008 A 
ATOM     11  C   UNL A   1      31.751  22.664  22.822  1.00  0.00     0.007 A 
ATOM     12  C   UNL A   1      32.713  23.934  24.679  1.00  0.00     0.136 A 
ATOM     13  C   UNL A   1      32.305  21.507  23.342  1.00  0.00     0.001 A 
ATOM     14  C   UNL A   1      33.014  21.572  24.553  1.00  0.00     0.019 A 
BRANCH  12  15
ATOM     15  O   UNL A   1      33.109  25.180  25.084  1.00  0.00    -0.492 OA
BRANCH  15  16
ATOM     16  C   UNL A   1      32.336  25.761  26.151  1.00  0.00     0.233 C 
BRANCH  16  17
ATOM     17  C   UNL A   1      32.760  27.145  26.710  1.00  0.00     0.030 C 
ATOM     18  C   UNL A   1      31.511  28.033  26.916  1.00  0.00     0.011 C 
ATOM     19  C   UNL A   1      33.634  28.008  25.778  1.00  0.00    -0.004 C 
ATOM     20  C   UNL A   1      31.820  29.267  26.054  1.00  0.00    -0.010 C 
ATOM     21  C   UNL A   1      34.160  29.220  26.582  1.00  0.00     0.004 C 
ATOM     22  C   UNL A   1      32.592  28.662  24.881  1.00  0.00     0.007 C 
ATOM     23  C   UNL A   1      32.908  30.091  26.759  1.00  0.00     0.004 C 
ENDBRANCH  16  17
ENDBRANCH  15  16
ENDBRANCH  12  15
ENDBRANCH   6   8
ENDBRANCH   5   6
ENDBRANCH   4   5
ENDBRANCH   3   4
ENDBRANCH   2   3
ENDBRANCH   1   2
BRANCH   1  24
ATOM     24  C   UNL A   1      40.462  20.322  26.592  1.00  0.00     0.188 C 
BRANCH  24  25
ATOM     25  O   UNL A   1      41.828  20.256  26.956  1.00  0.00    -0.376 OA
BRANCH  25  26
ATOM     26  C   UNL A   1      42.757  20.475  25.915  1.00  0.00     0.202 C 
BRANCH  26  27
ATOM     27  C   UNL A   1      43.643  21.709  26.152  1.00  0.00     0.261 C 
BRANCH  27  28
ATOM     28  O   UNL A   1      42.868  22.815  26.672  1.00  0.00    -0.460 OA
BRANCH  28  29
ATOM     29  C   UNL A   1      42.757  23.950  25.874  1.00  0.00     0.338 C 
ATOM     30  O   UNL A   1      43.360  24.084  24.855  1.00  0.00    -0.246 OA
BRANCH  29  31
ATOM     31  C   UNL A   1      41.780  24.921  26.520  1.00  0.00     0.060 A 
ATOM     32  C   UNL A   1      41.132  26.025  25.949  1.00  0.00     0.016 A 
ATOM     33  C   UNL A   1      41.743  24.895  27.863  1.00  0.00     0.016 A 
ATOM     34  C   UNL A   1      40.631  27.167  26.753  1.00  0.00     0.010 A 
ATOM     35  C   UNL A   1      41.560  26.140  28.467  1.00  0.00     0.010 A 
ATOM     36  C   UNL A   1      40.876  27.315  28.126  1.00  0.00    -0.014 A 
BRANCH  36  37
ATOM     37  C   UNL A   1      40.674  28.668  29.108  1.00  0.00     0.031 A 
ATOM     38  C   UNL A   1      39.478  29.812  29.396  1.00  0.00     0.074 A 
ATOM     39  C   UNL A   1      41.735  29.013  29.874  1.00  0.00     0.049 A 
ATOM     40  N   UNL A   1      39.648  31.134  29.327  1.00  0.00    -0.248 NA
ATOM     41  C   UNL A   1      38.074  29.594  29.854  1.00  0.00     0.031 C 
ATOM     42  C   UNL A   1      41.770  29.989  30.967  1.00  0.00     0.029 A 
ATOM     43  N   UNL A   1      43.044  28.587  29.776  1.00  0.00    -0.354 N 
ATOM     44  C   UNL A   1      38.428  31.778  29.655  1.00  0.00     0.074 A 
ATOM     45  C   UNL A   1      37.470  30.771  29.850  1.00  0.00     0.031 C 
ATOM     46  C   UNL A   1      43.049  30.245  31.278  1.00  0.00     0.029 A 
ATOM     47  C   UNL A   1      43.885  29.549  30.318  1.00  0.00     0.049 A 
ATOM     48  H   UNL A   1      43.337  27.733  29.384  1.00  0.00     0.167 HD
ATOM     49  C   UNL A   1      38.167  33.075  29.993  1.00  0.00     0.031 A 
ATOM     50  C   UNL A   1      44.868  30.115  29.564  1.00  0.00     0.031 A 
ATOM     51  C   UNL A   1      39.374  33.676  30.460  1.00  0.00     0.049 A 
ATOM     52  C   UNL A   1      44.681  31.603  29.371  1.00  0.00     0.074 A 
ATOM     53  C   UNL A   1      39.955  33.643  31.715  1.00  0.00     0.029 A 
ATOM     54  N   UNL A   1      40.352  33.999  29.551  1.00  0.00    -0.354 N 
ATOM     55  N   UNL A   1      43.587  32.257  29.659  1.00  0.00    -0.248 NA
ATOM     56  C   UNL A   1      45.719  32.477  28.831  1.00  0.00     0.031 C 
ATOM     57  C   UNL A   1      41.345  33.832  31.536  1.00  0.00     0.029 A 
ATOM     58  C   UNL A   1      41.569  34.079  30.193  1.00  0.00     0.049 A 
ATOM     59  H   UNL A   1      40.206  34.151  28.589  1.00  0.00     0.167 HD
ATOM     60  C   UNL A   1      43.735  33.575  29.315  1.00  0.00     0.074 A 
ATOM     61  C   UNL A   1      45.099  33.670  28.833  1.00  0.00     0.031 C 
ATOM     62  C   UNL A   1      42.730  34.487  29.435  1.00  0.00     0.031 A 
BRANCH  49  63
ATOM     63  C   UNL A   1      36.735  33.524  30.324  1.00  0.00    -0.014 A 
ATOM     64  C   UNL A   1      35.751  33.682  29.334  1.00  0.00     0.010 A 
ATOM     65  C   UNL A   1      36.368  33.926  31.636  1.00  0.00     0.010 A 
ATOM     66  C   UNL A   1      34.536  34.353  29.598  1.00  0.00     0.020 A 
ATOM     67  C   UNL A   1      35.181  34.641  31.902  1.00  0.00     0.020 A 
ATOM     68  C   UNL A   1      34.278  34.872  30.870  1.00  0.00     0.054 A 
BRANCH  68  69
ATOM     69  S   UNL A   1      32.826  35.944  31.129  1.00  0.00     0.124 S 
ATOM     70  O   UNL A   1      32.319  36.142  29.773  1.00  0.00    -0.237 OA
ATOM     71  O   UNL A   1      31.983  35.132  32.001  1.00  0.00    -0.237 OA
ATOM     72  O   UNL A   1      33.388  37.145  31.746  1.00  0.00    -0.744 OA
ENDBRANCH  68  69
ENDBRANCH  49  63
BRANCH  50  73
ATOM     73  C   UNL A   1      45.526  29.157  28.625  1.00  0.00    -0.014 A 
ATOM     74  C   UNL A   1      44.700  28.598  27.622  1.00  0.00     0.010 A 
ATOM     75  C   UNL A   1      46.921  29.112  28.442  1.00  0.00     0.010 A 
ATOM     76  C   UNL A   1      45.234  28.155  26.410  1.00  0.00     0.020 A 
ATOM     77  C   UNL A   1      47.464  28.643  27.227  1.00  0.00     0.020 A 
ATOM     78  C   UNL A   1      46.609  28.223  26.202  1.00  0.00     0.054 A 
BRANCH  78  79
ATOM     79  S   UNL A   1      47.202  27.966  24.498  1.00  0.00     0.124 S 
ATOM     80  O   UNL A   1      48.651  27.995  24.660  1.00  0.00    -0.237 OA
ATOM     81  O   UNL A   1      46.631  26.657  24.187  1.00  0.00    -0.237 OA
ATOM     82  O   UNL A   1      46.627  29.092  23.767  1.00  0.00    -0.744 OA
ENDBRANCH  78  79
ENDBRANCH  50  73
BRANCH  62  83
ATOM     83  C   UNL A   1      42.719  35.892  28.889  1.00  0.00    -0.014 A 
ATOM     84  C   UNL A   1      43.155  37.010  29.610  1.00  0.00     0.010 A 
ATOM     85  C   UNL A   1      42.406  36.088  27.518  1.00  0.00     0.010 A 
ATOM     86  C   UNL A   1      43.205  38.276  29.014  1.00  0.00     0.020 A 
ATOM     87  C   UNL A   1      42.507  37.332  26.899  1.00  0.00     0.020 A 
ATOM     88  C   UNL A   1      42.875  38.430  27.665  1.00  0.00     0.054 A 
BRANCH  88  89
ATOM     89  S   UNL A   1      42.978  40.059  26.888  1.00  0.00     0.124 S 
ATOM     90  O   UNL A   1      44.197  39.931  26.093  1.00  0.00    -0.237 OA
ATOM     91  O   UNL A   1      41.738  40.141  26.121  1.00  0.00    -0.237 OA
ATOM     92  O   UNL A   1      43.062  40.973  28.025  1.00  0.00    -0.744 OA
ENDBRANCH  88  89
ENDBRANCH  62  83
ENDBRANCH  36  37
ENDBRANCH  29  31
ENDBRANCH  28  29
ENDBRANCH  27  28
ENDBRANCH  26  27
ENDBRANCH  25  26
ENDBRANCH  24  25
ENDBRANCH   1  24
TORSDOF 23
ENDMDL
MODEL 2
REMARK VINA RESULT:     -11.7      1.549      2.200
REMARK SMILES Cc1cccc(C(=O)OCCOCCOCCOC(=O)c2ccc(-c3c4nc(c(-c5ccc(S(=O)(=O)[O-])cc5)c5ccc([nH]5)c(-c5ccc(S(=O)(=O)[O-])cc5)c5nc(c(-c6ccc(S(=O)(=O)[O-])cc6)c6ccc3[nH]6)C=C5)C=C4)cc2)c1OC[C@@H]1C[C@H]2CC[C@@H]1C2
REMARK SMILES IDX 13 1 12 2 11 3 10 4 9 5 7 6 8 7 6 8 1 9 2 10 3 11 81 12 4 13
REMARK SMILES IDX 5 14 82 15 83 16 84 17 85 18 89 19 86 20 88 21 90 22 87 23
REMARK SMILES IDX 14 24 15 25 16 26 17 27 18 28 19 29 20 30 21 31 22 32 80 33
REMARK SMILES IDX 23 34 79 35 24 36 25 37 26 38 73 39 27 40 78 41 72 42 74 43
REMARK SMILES IDX 28 44 77 45 71 46 70 47 29 49 59 50 40 51 58 52 41 53 44 54
REMARK SMILES IDX 57 55 75 56 42 57 43 58 56 60 76 61 45 62 30 63 31 64 39 65
REMARK SMILES IDX 32 66 38 67 33 68 34 69 35 70 36 71 37 72 60 73 61 74 69 75
REMARK SMILES IDX 62 76 68 77 63 78 64 79 65 80 66 81 67 82 46 83 47 84 55 85
REMARK SMILES IDX 48 86 54 87 49 88 50 89 51 90 52 91 53 92
REMARK H PARENT 74 48 44 59
REMARK Flexibility Score: inf
ROOT
ATOM      1  C   UNL A   1      39.675  21.247  26.492  1.00  0.00     0.188 C 
ENDROOT
BRANCH   1   2
ATOM      2  O   UNL A   1      38.417  21.599  25.894  1.00  0.00    -0.376 OA
BRANCH   2   3
ATOM      3  C   UNL A   1      37.968  22.900  25.543  1.00  0.00     0.202 C 
BRANCH   3   4
ATOM      4  C   UNL A   1      36.441  23.570  25.921  1.00  0.00     0.261 C 
BRANCH   4   5
ATOM      5  O   UNL A   1      35.074  22.876  26.710  1.00  0.00    -0.460 OA
BRANCH   5   6
ATOM      6  C   UNL A   1      33.724  22.471  26.599  1.00  0.00     0.342 C 
ATOM      7  O   UNL A   1      32.789  22.859  27.291  1.00  0.00    -0.246 OA
BRANCH   6   8
ATOM      8  C   UNL A   1      33.218  21.436  25.615  1.00  0.00     0.102 A 
ATOM      9  C   UNL A   1      31.739  21.245  22.083  1.00  0.00     0.048 C 
ATOM     10  C   UNL A   1      32.346  20.853  23.400  1.00  0.00    -0.008 A 
ATOM     11  C   UNL A   1      32.599  19.492  23.621  1.00  0.00     0.007 A 
ATOM     12  C   UNL A   1      32.727  21.819  24.368  1.00  0.00     0.136 A 
ATOM     13  C   UNL A   1      33.257  19.099  24.774  1.00  0.00     0.001 A 
ATOM     14  C   UNL A   1      33.596  20.068  25.733  1.00  0.00     0.019 A 
BRANCH  12  15
ATOM     15  O   UNL A   1      32.701  23.122  23.949  1.00  0.00    -0.492 OA
BRANCH  15  16
ATOM     16  C   UNL A   1      33.913  23.602  23.338  1.00  0.00     0.233 C 
BRANCH  16  17
ATOM     17  C   UNL A   1      34.137  25.133  23.229  1.00  0.00     0.030 C 
ATOM     18  C   UNL A   1      33.948  25.792  24.615  1.00  0.00     0.011 C 
ATOM     19  C   UNL A   1      33.126  25.900  22.353  1.00  0.00    -0.004 C 
ATOM     20  C   UNL A   1      32.838  26.822  24.359  1.00  0.00    -0.010 C 
ATOM     21  C   UNL A   1      33.643  27.345  22.159  1.00  0.00     0.004 C 
ATOM     22  C   UNL A   1      31.969  26.114  23.319  1.00  0.00     0.007 C 
ATOM     23  C   UNL A   1      33.430  27.980  23.541  1.00  0.00     0.004 C 
ENDBRANCH  16  17
ENDBRANCH  15  16
ENDBRANCH  12  15
ENDBRANCH   6   8
ENDBRANCH   5   6
ENDBRANCH   4   5
ENDBRANCH   3   4
ENDBRANCH   2   3
ENDBRANCH   1   2
BRANCH   1  24
ATOM     24  C   UNL A   1      40.360  19.937  26.125  1.00  0.00     0.188 C 
BRANCH  24  25
ATOM     25  O   UNL A   1      41.646  19.899  26.715  1.00  0.00    -0.376 OA
BRANCH  25  26
ATOM     26  C   UNL A   1      42.677  19.356  25.919  1.00  0.00     0.202 C 
BRANCH  26  27
ATOM     27  C   UNL A   1      43.779  20.376  25.588  1.00  0.00     0.261 C 
BRANCH  27  28
ATOM     28  O   UNL A   1      43.462  21.681  26.128  1.00  0.00    -0.460 OA
BRANCH  28  29
ATOM     29  C   UNL A   1      43.137  22.687  25.223  1.00  0.00     0.338 C 
ATOM     30  O   UNL A   1      43.524  22.690  24.095  1.00  0.00    -0.246 OA
BRANCH  29  31
ATOM     31  C   UNL A   1      42.252  23.713  25.913  1.00  0.00     0.060 A 
ATOM     32  C   UNL A   1      41.798  24.949  25.432  1.00  0.00     0.016 A 
ATOM     33  C   UNL A   1      42.115  23.556  27.241  1.00  0.00     0.016 A 
ATOM     34  C   UNL A   1      41.395  26.062  26.326  1.00  0.00     0.010 A 
ATOM     35  C   UNL A   1      42.054  24.747  27.968  1.00  0.00     0.010 A 
ATOM     36  C   UNL A   1      41.557  26.034  27.719  1.00  0.00    -0.014 A 
BRANCH  36  37
ATOM     37  C   UNL A   1      41.464  27.295  28.831  1.00  0.00     0.031 A 
ATOM     38  C   UNL A   1      40.293  28.365  29.383  1.00  0.00     0.074 A 
ATOM     39  C   UNL A   1      42.616  27.619  29.463  1.00  0.00     0.049 A 
ATOM     40  N   UNL A   1      40.415  29.694  29.403  1.00  0.00    -0.248 NA
ATOM     41  C   UNL A   1      38.977  28.057  30.018  1.00  0.00     0.031 C 
ATOM     42  C   UNL A   1      42.784  28.505  30.618  1.00  0.00     0.029 A 
ATOM     43  N   UNL A   1      43.908  27.254  29.143  1.00  0.00    -0.354 N 
ATOM     44  C   UNL A   1      39.239  30.261  29.956  1.00  0.00     0.074 A 
ATOM     45  C   UNL A   1      38.347  29.205  30.201  1.00  0.00     0.031 C 
ATOM     46  C   UNL A   1      44.087  28.786  30.763  1.00  0.00     0.029 A 
ATOM     47  C   UNL A   1      44.793  28.202  29.638  1.00  0.00     0.049 A 
ATOM     48  H   UNL A   1      44.163  26.447  28.642  1.00  0.00     0.167 HD
ATOM     49  C   UNL A   1      38.995  31.516  30.437  1.00  0.00     0.031 A 
ATOM     50  C   UNL A   1      45.639  28.865  28.802  1.00  0.00     0.031 A 
ATOM     51  C   UNL A   1      40.240  32.125  30.775  1.00  0.00     0.049 A 
ATOM     52  C   UNL A   1      45.386  30.355  28.765  1.00  0.00     0.074 A 
ATOM     53  C   UNL A   1      40.999  32.014  31.927  1.00  0.00     0.029 A 
ATOM     54  N   UNL A   1      41.066  32.558  29.766  1.00  0.00    -0.354 N 
ATOM     55  N   UNL A   1      44.329  30.940  29.261  1.00  0.00    -0.248 NA
ATOM     56  C   UNL A   1      46.309  31.309  28.156  1.00  0.00     0.031 C 
ATOM     57  C   UNL A   1      42.342  32.271  31.567  1.00  0.00     0.029 A 
ATOM     58  C   UNL A   1      42.361  32.633  30.231  1.00  0.00     0.049 A 
ATOM     59  H   UNL A   1      40.777  32.780  28.851  1.00  0.00     0.167 HD
ATOM     60  C   UNL A   1      44.389  32.287  29.012  1.00  0.00     0.074 A 
ATOM     61  C   UNL A   1      45.663  32.473  28.348  1.00  0.00     0.031 C 
ATOM     62  C   UNL A   1      43.387  33.146  29.352  1.00  0.00     0.031 A 
BRANCH  49  63
ATOM     63  C   UNL A   1      37.615  31.881  31.008  1.00  0.00    -0.014 A 
ATOM     64  C   UNL A   1      36.567  32.345  30.195  1.00  0.00     0.010 A 
ATOM     65  C   UNL A   1      37.368  31.888  32.406  1.00  0.00     0.010 A 
ATOM     66  C   UNL A   1      35.409  32.936  30.747  1.00  0.00     0.020 A 
ATOM     67  C   UNL A   1      36.240  32.520  32.970  1.00  0.00     0.020 A 
ATOM     68  C   UNL A   1      35.273  33.065  32.132  1.00  0.00     0.054 A 
BRANCH  68  69
ATOM     69  S   UNL A   1      33.897  34.046  32.816  1.00  0.00     0.124 S 
ATOM     70  O   UNL A   1      34.562  34.902  33.797  1.00  0.00    -0.237 OA
ATOM     71  O   UNL A   1      33.378  34.731  31.637  1.00  0.00    -0.237 OA
ATOM     72  O   UNL A   1      33.008  33.040  33.396  1.00  0.00    -0.744 OA
ENDBRANCH  68  69
ENDBRANCH  49  63
BRANCH  50  73
ATOM     73  C   UNL A   1      46.178  28.011  27.700  1.00  0.00    -0.014 A 
ATOM     74  C   UNL A   1      45.434  27.999  26.497  1.00  0.00     0.010 A 
ATOM     75  C   UNL A   1      47.519  27.585  27.660  1.00  0.00     0.010 A 
ATOM     76  C   UNL A   1      46.045  27.724  25.272  1.00  0.00     0.020 A 
ATOM     77  C   UNL A   1      48.132  27.284  26.425  1.00  0.00     0.020 A 
ATOM     78  C   UNL A   1      47.402  27.413  25.238  1.00  0.00     0.054 A 
BRANCH  78  79
ATOM     79  S   UNL A   1      48.210  27.412  23.605  1.00  0.00     0.124 S 
ATOM     80  O   UNL A   1      48.307  25.988  23.301  1.00  0.00    -0.237 OA
ATOM     81  O   UNL A   1      47.242  28.159  22.802  1.00  0.00    -0.237 OA
ATOM     82  O   UNL A   1      49.477  28.092  23.854  1.00  0.00    -0.744 OA
ENDBRANCH  78  79
ENDBRANCH  50  73
BRANCH  62  83
ATOM     83  C   UNL A   1      43.258  34.589  28.934  1.00  0.00    -0.014 A 
ATOM     84  C   UNL A   1      43.550  35.670  29.773  1.00  0.00     0.010 A 
ATOM     85  C   UNL A   1      42.984  34.881  27.572  1.00  0.00     0.010 A 
ATOM     86  C   UNL A   1      43.498  36.986  29.296  1.00  0.00     0.020 A 
ATOM     87  C   UNL A   1      42.986  36.183  27.073  1.00  0.00     0.020 A 
ATOM     88  C   UNL A   1      43.210  37.234  27.952  1.00  0.00     0.054 A 
BRANCH  88  89
ATOM     89  S   UNL A   1      43.181  38.931  27.331  1.00  0.00     0.124 S 
ATOM     90  O   UNL A   1      43.173  39.701  28.572  1.00  0.00    -0.237 OA
ATOM     91  O   UNL A   1      44.412  39.020  26.549  1.00  0.00    -0.237 OA
ATOM     92  O   UNL A   1      41.948  38.986  26.549  1.00  0.00    -0.744 OA
ENDBRANCH  88  89
ENDBRANCH  62  83
ENDBRANCH  36  37
ENDBRANCH  29  31
ENDBRANCH  28  29
ENDBRANCH  27  28
ENDBRANCH  26  27
ENDBRANCH  25  26
ENDBRANCH  24  25
ENDBRANCH   1  24
TORSDOF 23
ENDMDL
MODEL 3
REMARK VINA RESULT:     -10.7      5.013      9.900
REMARK SMILES Cc1cccc(C(=O)OCCOCCOCCOC(=O)c2ccc(-c3c4nc(c(-c5ccc(S(=O)(=O)[O-])cc5)c5ccc([nH]5)c(-c5ccc(S(=O)(=O)[O-])cc5)c5nc(c(-c6ccc(S(=O)(=O)[O-])cc6)c6ccc3[nH]6)C=C5)C=C4)cc2)c1OC[C@@H]1C[C@H]2CC[C@@H]1C2
REMARK SMILES IDX 13 1 12 2 11 3 10 4 9 5 7 6 8 7 6 8 1 9 2 10 3 11 81 12 4 13
REMARK SMILES IDX 5 14 82 15 83 16 84 17 85 18 89 19 86 20 88 21 90 22 87 23
REMARK SMILES IDX 14 24 15 25 16 26 17 27 18 28 19 29 20 30 21 31 22 32 80 33
REMARK SMILES IDX 23 34 79 35 24 36 25 37 26 38 73 39 27 40 78 41 72 42 74 43
REMARK SMILES IDX 28 44 77 45 71 46 70 47 29 49 59 50 40 51 58 52 41 53 44 54
REMARK SMILES IDX 57 55 75 56 42 57 43 58 56 60 76 61 45 62 30 63 31 64 39 65
REMARK SMILES IDX 32 66 38 67 33 68 34 69 35 70 36 71 37 72 60 73 61 74 69 75
REMARK SMILES IDX 62 76 68 77 63 78 64 79 65 80 66 81 67 82 46 83 47 84 55 85
REMARK SMILES IDX 48 86 54 87 49 88 50 89 51 90 52 91 53 92
REMARK H PARENT 74 48 44 59
REMARK Flexibility Score: inf
ROOT
ATOM      1  C   UNL A   1      34.483  33.095  29.660  1.00  0.00     0.188 C 
ENDROOT
BRANCH   1   2
ATOM      2  O   UNL A   1      34.482  32.204  28.534  1.00  0.00    -0.376 OA
BRANCH   2   3
ATOM      3  C   UNL A   1      35.552  31.382  28.089  1.00  0.00     0.202 C 
BRANCH   3   4
ATOM      4  C   UNL A   1      35.409  29.784  27.496  1.00  0.00     0.261 C 
BRANCH   4   5
ATOM      5  O   UNL A   1      34.118  29.008  26.659  1.00  0.00    -0.460 OA
BRANCH   5   6
ATOM      6  C   UNL A   1      32.728  28.972  26.400  1.00  0.00     0.342 C 
ATOM      7  O   UNL A   1      31.831  29.053  27.233  1.00  0.00    -0.246 OA
BRANCH   6   8
ATOM      8  C   UNL A   1      32.116  28.779  25.028  1.00  0.00     0.102 A 
ATOM      9  C   UNL A   1      31.981  26.155  22.237  1.00  0.00     0.048 C 
ATOM     10  C   UNL A   1      31.690  27.372  23.067  1.00  0.00    -0.008 A 
ATOM     11  C   UNL A   1      30.691  28.246  22.615  1.00  0.00     0.007 A 
ATOM     12  C   UNL A   1      32.341  27.608  24.307  1.00  0.00     0.136 A 
ATOM     13  C   UNL A   1      30.316  29.319  23.404  1.00  0.00     0.001 A 
ATOM     14  C   UNL A   1      30.994  29.552  24.612  1.00  0.00     0.019 A 
BRANCH  12  15
ATOM     15  O   UNL A   1      33.085  26.567  24.794  1.00  0.00    -0.492 OA
BRANCH  15  16
ATOM     16  C   UNL A   1      32.357  25.586  25.556  1.00  0.00     0.233 C 
BRANCH  16  17
ATOM     17  C   UNL A   1      33.068  24.262  25.938  1.00  0.00     0.030 C 
ATOM     18  C   UNL A   1      33.131  23.325  24.710  1.00  0.00     0.011 C 
ATOM     19  C   UNL A   1      32.349  23.391  26.987  1.00  0.00    -0.004 C 
ATOM     20  C   UNL A   1      32.416  22.059  25.205  1.00  0.00    -0.010 C 
ATOM     21  C   UNL A   1      33.308  22.257  27.424  1.00  0.00     0.004 C 
ATOM     22  C   UNL A   1      31.344  22.631  26.132  1.00  0.00     0.007 C 
ATOM     23  C   UNL A   1      33.340  21.336  26.195  1.00  0.00     0.004 C 
ENDBRANCH  16  17
ENDBRANCH  15  16
ENDBRANCH  12  15
ENDBRANCH   6   8
ENDBRANCH   5   6
ENDBRANCH   4   5
ENDBRANCH   3   4
ENDBRANCH   2   3
ENDBRANCH   1   2
BRANCH   1  24
ATOM     24  C   UNL A   1      34.910  32.597  31.034  1.00  0.00     0.188 C 
BRANCH  24  25
ATOM     25  O   UNL A   1      34.330  33.417  32.031  1.00  0.00    -0.376 OA
BRANCH  25  26
ATOM     26  C   UNL A   1      34.867  33.286  33.330  1.00  0.00     0.202 C 
BRANCH  26  27
ATOM     27  C   UNL A   1      35.461  34.598  33.868  1.00  0.00     0.261 C 
BRANCH  27  28
ATOM     28  O   UNL A   1      36.904  34.523  33.951  1.00  0.00    -0.460 OA
BRANCH  28  29
ATOM     29  C   UNL A   1      37.459  34.229  35.192  1.00  0.00     0.338 C 
ATOM     30  O   UNL A   1      36.819  33.799  36.101  1.00  0.00    -0.246 OA
BRANCH  29  31
ATOM     31  C   UNL A   1      38.947  34.546  35.161  1.00  0.00     0.060 A 
ATOM     32  C   UNL A   1      39.666  35.467  35.935  1.00  0.00     0.016 A 
ATOM     33  C   UNL A   1      39.609  34.102  34.079  1.00  0.00     0.016 A 
ATOM     34  C   UNL A   1      40.954  36.056  35.495  1.00  0.00     0.010 A 
ATOM     35  C   UNL A   1      40.612  34.955  33.616  1.00  0.00     0.010 A 
ATOM     36  C   UNL A   1      41.501  35.857  34.218  1.00  0.00    -0.014 A 
BRANCH  36  37
ATOM     37  C   UNL A   1      42.750  36.683  33.450  1.00  0.00     0.031 A 
ATOM     38  C   UNL A   1      43.393  38.235  33.467  1.00  0.00     0.074 A 
ATOM     39  C   UNL A   1      43.447  35.984  32.523  1.00  0.00     0.049 A 
ATOM     40  N   UNL A   1      43.572  39.004  32.391  1.00  0.00    -0.248 NA
ATOM     41  C   UNL A   1      43.952  38.997  34.623  1.00  0.00     0.031 C 
ATOM     42  C   UNL A   1      44.702  36.367  31.871  1.00  0.00     0.029 A 
ATOM     43  N   UNL A   1      43.120  34.785  31.922  1.00  0.00    -0.354 N 
ATOM     44  C   UNL A   1      44.156  40.233  32.789  1.00  0.00     0.074 A 
ATOM     45  C   UNL A   1      44.251  40.210  34.189  1.00  0.00     0.031 C 
ATOM     46  C   UNL A   1      44.914  35.552  30.827  1.00  0.00     0.029 A 
ATOM     47  C   UNL A   1      43.747  34.701  30.686  1.00  0.00     0.049 A 
ATOM     48  H   UNL A   1      42.535  34.095  32.310  1.00  0.00     0.167 HD
ATOM     49  C   UNL A   1      44.774  41.205  32.056  1.00  0.00     0.031 A 
ATOM     50  C   UNL A   1      43.017  34.537  29.549  1.00  0.00     0.031 A 
ATOM     51  C   UNL A   1      45.214  40.637  30.824  1.00  0.00     0.049 A 
ATOM     52  C   UNL A   1      43.149  35.699  28.590  1.00  0.00     0.074 A 
ATOM     53  C   UNL A   1      46.365  39.925  30.536  1.00  0.00     0.029 A 
ATOM     54  N   UNL A   1      44.285  40.349  29.854  1.00  0.00    -0.354 N 
ATOM     55  N   UNL A   1      43.681  36.853  28.891  1.00  0.00    -0.248 NA
ATOM     56  C   UNL A   1      42.681  35.652  27.207  1.00  0.00     0.031 C 
ATOM     57  C   UNL A   1      46.074  39.094  29.429  1.00  0.00     0.029 A 
ATOM     58  C   UNL A   1      44.791  39.390  29.003  1.00  0.00     0.049 A 
ATOM     59  H   UNL A   1      43.395  40.764  29.777  1.00  0.00     0.167 HD
ATOM     60  C   UNL A   1      43.594  37.695  27.814  1.00  0.00     0.074 A 
ATOM     61  C   UNL A   1      42.991  36.886  26.773  1.00  0.00     0.031 C 
ATOM     62  C   UNL A   1      44.006  38.994  27.856  1.00  0.00     0.031 A 
BRANCH  49  63
ATOM     63  C   UNL A   1      45.346  42.457  32.741  1.00  0.00    -0.014 A 
ATOM     64  C   UNL A   1      46.689  42.544  33.144  1.00  0.00     0.010 A 
ATOM     65  C   UNL A   1      44.512  43.544  33.118  1.00  0.00     0.010 A 
ATOM     66  C   UNL A   1      47.137  43.566  34.010  1.00  0.00     0.020 A 
ATOM     67  C   UNL A   1      44.934  44.541  34.021  1.00  0.00     0.020 A 
ATOM     68  C   UNL A   1      46.246  44.532  34.483  1.00  0.00     0.054 A 
BRANCH  68  69
ATOM     69  S   UNL A   1      46.779  45.691  35.787  1.00  0.00     0.124 S 
ATOM     70  O   UNL A   1      48.219  45.796  35.562  1.00  0.00    -0.237 OA
ATOM     71  O   UNL A   1      46.007  46.891  35.481  1.00  0.00    -0.237 OA
ATOM     72  O   UNL A   1      46.409  45.010  37.028  1.00  0.00    -0.744 OA
ENDBRANCH  68  69
ENDBRANCH  49  63
BRANCH  50  73
ATOM     73  C   UNL A   1      41.838  33.636  29.722  1.00  0.00    -0.014 A 
ATOM     74  C   UNL A   1      42.122  32.259  29.881  1.00  0.00     0.010 A 
ATOM     75  C   UNL A   1      40.576  34.108  30.129  1.00  0.00     0.010 A 
ATOM     76  C   UNL A   1      41.245  31.415  30.564  1.00  0.00     0.020 A 
ATOM     77  C   UNL A   1      39.679  33.250  30.800  1.00  0.00     0.020 A 
ATOM     78  C   UNL A   1      40.049  31.926  31.061  1.00  0.00     0.054 A 
BRANCH  78  79
ATOM     79  S   UNL A   1      39.124  30.880  32.231  1.00  0.00     0.124 S 
ATOM     80  O   UNL A   1      40.023  30.819  33.379  1.00  0.00    -0.237 OA
ATOM     81  O   UNL A   1      37.909  31.669  32.428  1.00  0.00    -0.237 OA
ATOM     82  O   UNL A   1      38.948  29.629  31.501  1.00  0.00    -0.744 OA
ENDBRANCH  78  79
ENDBRANCH  50  73
BRANCH  62  83
ATOM     83  C   UNL A   1      43.756  40.052  26.811  1.00  0.00    -0.014 A 
ATOM     84  C   UNL A   1      44.750  40.557  25.965  1.00  0.00     0.010 A 
ATOM     85  C   UNL A   1      42.419  40.449  26.550  1.00  0.00     0.010 A 
ATOM     86  C   UNL A   1      44.435  41.473  24.953  1.00  0.00     0.020 A 
ATOM     87  C   UNL A   1      42.087  41.315  25.510  1.00  0.00     0.020 A 
ATOM     88  C   UNL A   1      43.108  41.851  24.736  1.00  0.00     0.054 A 
BRANCH  88  89
ATOM     89  S   UNL A   1      42.701  43.003  23.405  1.00  0.00     0.124 S 
ATOM     90  O   UNL A   1      43.501  42.476  22.302  1.00  0.00    -0.237 OA
ATOM     91  O   UNL A   1      41.256  42.847  23.259  1.00  0.00    -0.237 OA
ATOM     92  O   UNL A   1      43.131  44.297  23.931  1.00  0.00    -0.744 OA
ENDBRANCH  88  89
ENDBRANCH  62  83
ENDBRANCH  36  37
ENDBRANCH  29  31
ENDBRANCH  28  29
ENDBRANCH  27  28
ENDBRANCH  26  27
ENDBRANCH  25  26
ENDBRANCH  24  25
ENDBRANCH   1  24
TORSDOF 23
ENDMDL
