MODEL 1
REMARK VINA RESULT:      -6.8      0.000      0.000
REMARK SMILES CCCCCCCNC(=O)Oc1cccc(-c2ccc([C@@H](C)C(=O)OCCOCCOCCOC(=O)c3ccc(-c4c5nc(c(-c6ccc(S(=O)(=O)[O-])cc6)c6ccc([nH]6)c(-c6ccc(S(=O)(=O)[O-])cc6)c6nc(c(-c7ccc(S(=O)(=O)[O-])cc7)c7ccc4[nH]7)C=C6)C=C5)cc3)cc2F)c1
REMARK SMILES IDX 26 1 25 2 23 3 24 4 21 5 22 6 20 7 17 8 18 9 98 10 19 11
REMARK SMILES IDX 97 12 99 13 16 14 12 15 13 16 100 17 14 18 15 19 11 20 9 21
REMARK SMILES IDX 8 22 10 24 7 25 6 26 5 27 4 28 3 29 2 30 1 31 27 32 28 33
REMARK SMILES IDX 29 34 30 35 31 36 32 37 33 38 34 39 35 40 36 41 37 42 38 43
REMARK SMILES IDX 96 44 39 45 95 46 40 47 41 48 42 49 89 50 43 51 94 52 88 53
REMARK SMILES IDX 90 54 44 55 93 56 87 57 86 58 45 60 75 61 56 62 74 63 57 64
REMARK SMILES IDX 60 65 73 66 91 67 58 68 59 69 72 71 92 72 61 73 46 74 47 75
REMARK SMILES IDX 55 76 48 77 54 78 49 79 50 80 51 81 52 82 53 83 76 84 77 85
REMARK SMILES IDX 85 86 78 87 84 88 79 89 80 90 81 91 82 92 83 93 62 94 63 95
REMARK SMILES IDX 71 96 64 97 70 98 65 99 66 100 67 101 68 102 69 103
REMARK H PARENT 8 23 90 59 60 70
REMARK Flexibility Score: inf
ROOT
ATOM      1  C   UNL A   1      55.343  23.769  33.621  1.00  0.00     0.261 C 
ENDROOT
BRANCH   1   2
ATOM      2  O   UNL A   1      55.009  22.472  34.168  1.00  0.00    -0.463 OA
BRANCH   2   3
ATOM      3  C   UNL A   1      53.863  21.905  33.710  1.00  0.00     0.313 C 
ATOM      4  O   UNL A   1      53.578  21.843  32.517  1.00  0.00    -0.252 OA
BRANCH   3   5
ATOM      5  C   UNL A   1      52.924  21.315  34.767  1.00  0.00     0.126 C 
ATOM      6  C   UNL A   1      53.280  19.841  34.958  1.00  0.00     0.025 C 
BRANCH   5   7
ATOM      7  C   UNL A   1      51.407  21.475  34.672  1.00  0.00    -0.031 A 
ATOM      8  C   UNL A   1      48.560  21.854  34.606  1.00  0.00     0.018 A 
ATOM      9  C   UNL A   1      49.194  20.860  33.837  1.00  0.00     0.012 A 
ATOM     10  C   UNL A   1      49.386  22.650  35.407  1.00  0.00     0.131 A 
ATOM     11  C   UNL A   1      50.589  20.665  33.875  1.00  0.00     0.005 A 
ATOM     12  C   UNL A   1      50.774  22.465  35.450  1.00  0.00     0.044 A 
ATOM     13  F   UNL A   1      48.858  23.609  36.183  1.00  0.00    -0.206 F 
BRANCH   8  14
ATOM     14  C   UNL A   1      47.089  22.006  34.607  1.00  0.00    -0.012 A 
ATOM     15  C   UNL A   1      45.057  23.263  34.146  1.00  0.00     0.133 A 
ATOM     16  C   UNL A   1      44.270  22.269  34.723  1.00  0.00     0.047 A 
ATOM     17  C   UNL A   1      46.451  23.149  34.087  1.00  0.00     0.056 A 
ATOM     18  C   UNL A   1      44.884  21.132  35.236  1.00  0.00     0.004 A 
ATOM     19  C   UNL A   1      46.277  21.005  35.179  1.00  0.00     0.009 A 
BRANCH  15  20
ATOM     20  O   UNL A   1      44.396  24.444  33.767  1.00  0.00    -0.410 OA
BRANCH  20  21
ATOM     21  C   UNL A   1      45.024  25.654  34.012  1.00  0.00     0.412 C 
ATOM     22  N   UNL A   1      45.092  26.462  32.909  1.00  0.00    -0.321 N 
ATOM     23  H   UNL A   1      45.454  27.366  33.048  1.00  0.00     0.167 HD
ATOM     24  O   UNL A   1      45.522  26.002  35.081  1.00  0.00    -0.224 OA
BRANCH  22  25
ATOM     25  C   UNL A   1      44.686  26.128  31.556  1.00  0.00     0.119 C 
BRANCH  25  26
ATOM     26  C   UNL A   1      45.852  25.664  30.681  1.00  0.00     0.021 C 
BRANCH  26  27
ATOM     27  C   UNL A   1      47.140  26.486  30.825  1.00  0.00     0.002 C 
BRANCH  27  28
ATOM     28  C   UNL A   1      48.356  25.722  31.362  1.00  0.00     0.000 C 
BRANCH  28  29
ATOM     29  C   UNL A   1      49.681  26.009  30.648  1.00  0.00    -0.000 C 
BRANCH  29  30
ATOM     30  C   UNL A   1      50.778  24.959  30.851  1.00  0.00    -0.003 C 
ATOM     31  C   UNL A   1      50.705  24.258  32.200  1.00  0.00     0.004 C 
ENDBRANCH  29  30
ENDBRANCH  28  29
ENDBRANCH  27  28
ENDBRANCH  26  27
ENDBRANCH  25  26
ENDBRANCH  22  25
ENDBRANCH  20  21
ENDBRANCH  15  20
ENDBRANCH   8  14
ENDBRANCH   5   7
ENDBRANCH   3   5
ENDBRANCH   2   3
ENDBRANCH   1   2
BRANCH   1  32
ATOM     32  C   UNL A   1      56.520  23.776  32.635  1.00  0.00     0.202 C 
BRANCH  32  33
ATOM     33  O   UNL A   1      56.269  24.179  31.294  1.00  0.00    -0.376 OA
BRANCH  33  34
ATOM     34  C   UNL A   1      56.480  23.252  30.235  1.00  0.00     0.188 C 
BRANCH  34  35
ATOM     35  C   UNL A   1      56.474  23.763  28.787  1.00  0.00     0.188 C 
BRANCH  35  36
ATOM     36  O   UNL A   1      55.897  25.042  28.629  1.00  0.00    -0.376 OA
BRANCH  36  37
ATOM     37  C   UNL A   1      56.441  25.857  27.609  1.00  0.00     0.202 C 
BRANCH  37  38
ATOM     38  C   UNL A   1      55.738  25.748  26.249  1.00  0.00     0.261 C 
BRANCH  38  39
ATOM     39  O   UNL A   1      54.369  25.305  26.279  1.00  0.00    -0.460 OA
BRANCH  39  40
ATOM     40  C   UNL A   1      53.627  25.475  25.163  1.00  0.00     0.338 C 
ATOM     41  O   UNL A   1      53.915  25.117  24.027  1.00  0.00    -0.246 OA
BRANCH  40  42
ATOM     42  C   UNL A   1      52.296  25.972  25.575  1.00  0.00     0.060 A 
ATOM     43  C   UNL A   1      51.902  25.862  26.917  1.00  0.00     0.016 A 
ATOM     44  C   UNL A   1      51.455  26.585  24.645  1.00  0.00     0.016 A 
ATOM     45  C   UNL A   1      50.669  26.374  27.332  1.00  0.00     0.010 A 
ATOM     46  C   UNL A   1      50.212  27.074  25.057  1.00  0.00     0.010 A 
ATOM     47  C   UNL A   1      49.806  26.966  26.400  1.00  0.00    -0.014 A 
BRANCH  47  48
ATOM     48  C   UNL A   1      48.433  27.385  26.781  1.00  0.00     0.031 A 
ATOM     49  C   UNL A   1      48.215  28.778  27.303  1.00  0.00     0.074 A 
ATOM     50  C   UNL A   1      47.399  26.525  26.708  1.00  0.00     0.049 A 
ATOM     51  N   UNL A   1      47.136  29.312  27.814  1.00  0.00    -0.248 NA
ATOM     52  C   UNL A   1      49.370  29.689  27.242  1.00  0.00     0.031 C 
ATOM     53  C   UNL A   1      47.466  25.163  26.179  1.00  0.00     0.029 A 
ATOM     54  N   UNL A   1      46.092  26.668  27.105  1.00  0.00    -0.354 N 
ATOM     55  C   UNL A   1      47.483  30.615  28.152  1.00  0.00     0.074 A 
ATOM     56  C   UNL A   1      48.878  30.784  27.802  1.00  0.00     0.031 C 
ATOM     57  C   UNL A   1      46.255  24.590  26.303  1.00  0.00     0.029 A 
ATOM     58  C   UNL A   1      45.343  25.523  26.962  1.00  0.00     0.049 A 
ATOM     59  H   UNL A   1      45.724  27.512  27.458  1.00  0.00     0.167 HD
ATOM     60  C   UNL A   1      46.712  31.581  28.705  1.00  0.00     0.031 A 
ATOM     61  C   UNL A   1      44.083  25.245  27.354  1.00  0.00     0.031 A 
ATOM     62  C   UNL A   1      45.331  31.403  29.073  1.00  0.00     0.049 A 
ATOM     63  C   UNL A   1      43.274  26.306  28.060  1.00  0.00     0.074 A 
ATOM     64  C   UNL A   1      44.462  32.331  29.622  1.00  0.00     0.029 A 
ATOM     65  N   UNL A   1      44.622  30.218  28.946  1.00  0.00    -0.354 N 
ATOM     66  N   UNL A   1      43.604  27.543  28.343  1.00  0.00    -0.248 NA
ATOM     67  C   UNL A   1      41.922  25.930  28.500  1.00  0.00     0.031 C 
ATOM     68  C   UNL A   1      43.249  31.687  29.890  1.00  0.00     0.029 A 
ATOM     69  C   UNL A   1      43.339  30.379  29.443  1.00  0.00     0.049 A 
ATOM     70  H   UNL A   1      44.978  29.386  28.559  1.00  0.00     0.167 HD
ATOM     71  C   UNL A   1      42.494  28.097  28.977  1.00  0.00     0.074 A 
ATOM     72  C   UNL A   1      41.477  27.068  29.014  1.00  0.00     0.031 C 
ATOM     73  C   UNL A   1      42.334  29.346  29.483  1.00  0.00     0.031 A 
BRANCH  60  74
ATOM     74  C   UNL A   1      47.357  32.912  28.988  1.00  0.00    -0.014 A 
ATOM     75  C   UNL A   1      47.332  33.953  28.042  1.00  0.00     0.010 A 
ATOM     76  C   UNL A   1      47.956  33.141  30.241  1.00  0.00     0.010 A 
ATOM     77  C   UNL A   1      47.924  35.186  28.332  1.00  0.00     0.020 A 
ATOM     78  C   UNL A   1      48.523  34.382  30.545  1.00  0.00     0.020 A 
ATOM     79  C   UNL A   1      48.517  35.392  29.582  1.00  0.00     0.054 A 
BRANCH  79  80
ATOM     80  S   UNL A   1      49.254  37.010  29.937  1.00  0.00     0.124 S 
ATOM     81  O   UNL A   1      50.651  36.659  30.176  1.00  0.00    -0.237 OA
ATOM     82  O   UNL A   1      48.995  37.756  28.709  1.00  0.00    -0.237 OA
ATOM     83  O   UNL A   1      48.521  37.477  31.112  1.00  0.00    -0.744 OA
ENDBRANCH  79  80
ENDBRANCH  60  74
BRANCH  61  84
ATOM     84  C   UNL A   1      43.511  23.886  27.128  1.00  0.00    -0.014 A 
ATOM     85  C   UNL A   1      43.061  23.499  25.854  1.00  0.00     0.010 A 
ATOM     86  C   UNL A   1      43.401  22.975  28.196  1.00  0.00     0.010 A 
ATOM     87  C   UNL A   1      42.497  22.234  25.654  1.00  0.00     0.020 A 
ATOM     88  C   UNL A   1      42.867  21.699  27.994  1.00  0.00     0.020 A 
ATOM     89  C   UNL A   1      42.408  21.341  26.726  1.00  0.00     0.054 A 
BRANCH  89  90
ATOM     90  S   UNL A   1      41.717  19.689  26.431  1.00  0.00     0.124 S 
ATOM     91  O   UNL A   1      40.291  19.974  26.302  1.00  0.00    -0.237 OA
ATOM     92  O   UNL A   1      42.393  19.280  25.202  1.00  0.00    -0.237 OA
ATOM     93  O   UNL A   1      42.100  18.938  27.624  1.00  0.00    -0.744 OA
ENDBRANCH  89  90
ENDBRANCH  61  84
BRANCH  73  94
ATOM     94  C   UNL A   1      41.003  29.685  30.104  1.00  0.00    -0.014 A 
ATOM     95  C   UNL A   1      40.810  29.616  31.496  1.00  0.00     0.010 A 
ATOM     96  C   UNL A   1      39.950  30.144  29.291  1.00  0.00     0.010 A 
ATOM     97  C   UNL A   1      39.582  29.975  32.059  1.00  0.00     0.020 A 
ATOM     98  C   UNL A   1      38.730  30.534  29.854  1.00  0.00     0.020 A 
ATOM     99  C   UNL A   1      38.550  30.436  31.235  1.00  0.00     0.054 A 
BRANCH  99 100
ATOM    100  S   UNL A   1      36.986  30.949  31.997  1.00  0.00     0.124 S 
ATOM    101  O   UNL A   1      36.059  29.933  31.505  1.00  0.00    -0.237 OA
ATOM    102  O   UNL A   1      37.290  30.882  33.425  1.00  0.00    -0.237 OA
ATOM    103  O   UNL A   1      36.769  32.295  31.475  1.00  0.00    -0.744 OA
ENDBRANCH  99 100
ENDBRANCH  73  94
ENDBRANCH  47  48
ENDBRANCH  40  42
ENDBRANCH  39  40
ENDBRANCH  38  39
ENDBRANCH  37  38
ENDBRANCH  36  37
ENDBRANCH  35  36
ENDBRANCH  34  35
ENDBRANCH  33  34
ENDBRANCH  32  33
ENDBRANCH   1  32
TORSDOF 30
ENDMDL
MODEL 2
REMARK VINA RESULT:      -5.7      4.047     10.599
REMARK SMILES CCCCCCCNC(=O)Oc1cccc(-c2ccc([C@@H](C)C(=O)OCCOCCOCCOC(=O)c3ccc(-c4c5nc(c(-c6ccc(S(=O)(=O)[O-])cc6)c6ccc([nH]6)c(-c6ccc(S(=O)(=O)[O-])cc6)c6nc(c(-c7ccc(S(=O)(=O)[O-])cc7)c7ccc4[nH]7)C=C6)C=C5)cc3)cc2F)c1
REMARK SMILES IDX 26 1 25 2 23 3 24 4 21 5 22 6 20 7 17 8 18 9 98 10 19 11
REMARK SMILES IDX 97 12 99 13 16 14 12 15 13 16 100 17 14 18 15 19 11 20 9 21
REMARK SMILES IDX 8 22 10 24 7 25 6 26 5 27 4 28 3 29 2 30 1 31 27 32 28 33
REMARK SMILES IDX 29 34 30 35 31 36 32 37 33 38 34 39 35 40 36 41 37 42 38 43
REMARK SMILES IDX 96 44 39 45 95 46 40 47 41 48 42 49 89 50 43 51 94 52 88 53
REMARK SMILES IDX 90 54 44 55 93 56 87 57 86 58 45 60 75 61 56 62 74 63 57 64
REMARK SMILES IDX 60 65 73 66 91 67 58 68 59 69 72 71 92 72 61 73 46 74 47 75
REMARK SMILES IDX 55 76 48 77 54 78 49 79 50 80 51 81 52 82 53 83 76 84 77 85
REMARK SMILES IDX 85 86 78 87 84 88 79 89 80 90 81 91 82 92 83 93 62 94 63 95
REMARK SMILES IDX 71 96 64 97 70 98 65 99 66 100 67 101 68 102 69 103
REMARK H PARENT 8 23 90 59 60 70
REMARK Flexibility Score: inf
ROOT
ATOM      1  C   UNL A   1      45.344  25.133  25.504  1.00  0.00     0.261 C 
ENDROOT
BRANCH   1   2
ATOM      2  O   UNL A   1      44.617  23.893  25.344  1.00  0.00    -0.463 OA
BRANCH   2   3
ATOM      3  C   UNL A   1      43.508  23.744  26.113  1.00  0.00     0.313 C 
ATOM      4  O   UNL A   1      42.405  24.180  25.790  1.00  0.00    -0.252 OA
BRANCH   3   5
ATOM      5  C   UNL A   1      43.687  22.976  27.427  1.00  0.00     0.126 C 
ATOM      6  C   UNL A   1      42.544  21.970  27.555  1.00  0.00     0.025 C 
BRANCH   5   7
ATOM      7  C   UNL A   1      43.895  23.699  28.757  1.00  0.00    -0.031 A 
ATOM      8  C   UNL A   1      44.298  25.175  31.188  1.00  0.00     0.018 A 
ATOM      9  C   UNL A   1      44.392  23.771  31.149  1.00  0.00     0.012 A 
ATOM     10  C   UNL A   1      43.999  25.818  29.983  1.00  0.00     0.131 A 
ATOM     11  C   UNL A   1      44.205  23.045  29.956  1.00  0.00     0.005 A 
ATOM     12  C   UNL A   1      43.810  25.105  28.792  1.00  0.00     0.044 A 
ATOM     13  F   UNL A   1      43.909  27.157  29.932  1.00  0.00    -0.206 F 
BRANCH   8  14
ATOM     14  C   UNL A   1      44.560  25.931  32.433  1.00  0.00    -0.012 A 
ATOM     15  C   UNL A   1      43.824  27.211  34.366  1.00  0.00     0.133 A 
ATOM     16  C   UNL A   1      45.141  27.443  34.757  1.00  0.00     0.047 A 
ATOM     17  C   UNL A   1      43.524  26.471  33.217  1.00  0.00     0.056 A 
ATOM     18  C   UNL A   1      46.177  26.912  33.997  1.00  0.00     0.004 A 
ATOM     19  C   UNL A   1      45.888  26.166  32.847  1.00  0.00     0.009 A 
BRANCH  15  20
ATOM     20  O   UNL A   1      42.827  27.882  35.095  1.00  0.00    -0.410 OA
BRANCH  20  21
ATOM     21  C   UNL A   1      42.743  27.651  36.457  1.00  0.00     0.412 C 
ATOM     22  N   UNL A   1      42.003  26.546  36.775  1.00  0.00    -0.321 N 
ATOM     23  H   UNL A   1      41.981  26.289  37.725  1.00  0.00     0.167 HD
ATOM     24  O   UNL A   1      43.232  28.358  37.338  1.00  0.00    -0.224 OA
BRANCH  22  25
ATOM     25  C   UNL A   1      41.247  25.708  35.861  1.00  0.00     0.119 C 
BRANCH  25  26
ATOM     26  C   UNL A   1      41.905  24.349  35.616  1.00  0.00     0.021 C 
BRANCH  26  27
ATOM     27  C   UNL A   1      43.396  24.275  35.968  1.00  0.00     0.002 C 
BRANCH  27  28
ATOM     28  C   UNL A   1      44.234  23.330  35.099  1.00  0.00     0.000 C 
BRANCH  28  29
ATOM     29  C   UNL A   1      45.049  22.281  35.866  1.00  0.00    -0.000 C 
BRANCH  29  30
ATOM     30  C   UNL A   1      46.549  22.569  35.981  1.00  0.00    -0.003 C 
ATOM     31  C   UNL A   1      47.201  22.929  34.654  1.00  0.00     0.004 C 
ENDBRANCH  29  30
ENDBRANCH  28  29
ENDBRANCH  27  28
ENDBRANCH  26  27
ENDBRANCH  25  26
ENDBRANCH  22  25
ENDBRANCH  20  21
ENDBRANCH  15  20
ENDBRANCH   8  14
ENDBRANCH   5   7
ENDBRANCH   3   5
ENDBRANCH   2   3
ENDBRANCH   1   2
BRANCH   1  32
ATOM     32  C   UNL A   1      44.561  26.400  25.131  1.00  0.00     0.202 C 
BRANCH  32  33
ATOM     33  O   UNL A   1      44.212  27.304  26.173  1.00  0.00    -0.376 OA
BRANCH  33  34
ATOM     34  C   UNL A   1      43.023  28.077  26.057  1.00  0.00     0.188 C 
BRANCH  34  35
ATOM     35  C   UNL A   1      42.196  28.362  27.319  1.00  0.00     0.188 C 
BRANCH  35  36
ATOM     36  O   UNL A   1      41.537  27.229  27.846  1.00  0.00    -0.376 OA
BRANCH  36  37
ATOM     37  C   UNL A   1      40.311  27.466  28.511  1.00  0.00     0.202 C 
BRANCH  37  38
ATOM     38  C   UNL A   1      40.412  27.556  30.040  1.00  0.00     0.261 C 
BRANCH  38  39
ATOM     39  O   UNL A   1      39.321  28.216  30.709  1.00  0.00    -0.460 OA
BRANCH  39  40
ATOM     40  C   UNL A   1      39.624  29.142  31.644  1.00  0.00     0.338 C 
ATOM     41  O   UNL A   1      39.083  29.290  32.734  1.00  0.00    -0.246 OA
BRANCH  40  42
ATOM     42  C   UNL A   1      40.874  29.815  31.229  1.00  0.00     0.060 A 
ATOM     43  C   UNL A   1      42.044  29.623  31.977  1.00  0.00     0.016 A 
ATOM     44  C   UNL A   1      40.900  30.600  30.075  1.00  0.00     0.016 A 
ATOM     45  C   UNL A   1      43.246  30.209  31.567  1.00  0.00     0.010 A 
ATOM     46  C   UNL A   1      42.096  31.206  29.680  1.00  0.00     0.010 A 
ATOM     47  C   UNL A   1      43.275  31.022  30.425  1.00  0.00    -0.014 A 
BRANCH  47  48
ATOM     48  C   UNL A   1      44.498  31.775  30.050  1.00  0.00     0.031 A 
ATOM     49  C   UNL A   1      44.472  33.278  30.097  1.00  0.00     0.074 A 
ATOM     50  C   UNL A   1      45.606  31.135  29.628  1.00  0.00     0.049 A 
ATOM     51  N   UNL A   1      45.373  34.135  29.692  1.00  0.00    -0.248 NA
ATOM     52  C   UNL A   1      43.269  33.894  30.678  1.00  0.00     0.031 C 
ATOM     53  C   UNL A   1      45.778  29.684  29.578  1.00  0.00     0.029 A 
ATOM     54  N   UNL A   1      46.790  31.632  29.139  1.00  0.00    -0.354 N 
ATOM     55  C   UNL A   1      44.840  35.393  29.951  1.00  0.00     0.074 A 
ATOM     56  C   UNL A   1      43.531  35.185  30.534  1.00  0.00     0.031 C 
ATOM     57  C   UNL A   1      46.991  29.408  29.066  1.00  0.00     0.029 A 
ATOM     58  C   UNL A   1      47.661  30.658  28.708  1.00  0.00     0.049 A 
ATOM     59  H   UNL A   1      46.997  32.594  29.101  1.00  0.00     0.167 HD
ATOM     60  C   UNL A   1      45.390  36.610  29.723  1.00  0.00     0.031 A 
ATOM     61  C   UNL A   1      48.841  30.760  28.063  1.00  0.00     0.031 A 
ATOM     62  C   UNL A   1      46.683  36.814  29.122  1.00  0.00     0.049 A 
ATOM     63  C   UNL A   1      49.388  32.126  27.729  1.00  0.00     0.074 A 
ATOM     64  C   UNL A   1      47.332  38.010  28.868  1.00  0.00     0.029 A 
ATOM     65  N   UNL A   1      47.516  35.803  28.667  1.00  0.00    -0.354 N 
ATOM     66  N   UNL A   1      48.888  33.306  28.009  1.00  0.00    -0.248 NA
ATOM     67  C   UNL A   1      50.658  32.172  26.988  1.00  0.00     0.031 C 
ATOM     68  C   UNL A   1      48.526  37.724  28.198  1.00  0.00     0.029 A 
ATOM     69  C   UNL A   1      48.654  36.349  28.098  1.00  0.00     0.049 A 
ATOM     70  H   UNL A   1      47.326  34.840  28.739  1.00  0.00     0.167 HD
ATOM     71  C   UNL A   1      49.793  34.233  27.496  1.00  0.00     0.074 A 
ATOM     72  C   UNL A   1      50.879  33.477  26.910  1.00  0.00     0.031 C 
ATOM     73  C   UNL A   1      49.728  35.588  27.509  1.00  0.00     0.031 A 
BRANCH  60  74
ATOM     74  C   UNL A   1      44.575  37.823  30.086  1.00  0.00    -0.014 A 
ATOM     75  C   UNL A   1      43.751  38.460  29.141  1.00  0.00     0.010 A 
ATOM     76  C   UNL A   1      44.597  38.304  31.408  1.00  0.00     0.010 A 
ATOM     77  C   UNL A   1      42.991  39.576  29.503  1.00  0.00     0.020 A 
ATOM     78  C   UNL A   1      43.816  39.402  31.782  1.00  0.00     0.020 A 
ATOM     79  C   UNL A   1      43.030  40.040  30.822  1.00  0.00     0.054 A 
BRANCH  79  80
ATOM     80  S   UNL A   1      42.013  41.475  31.267  1.00  0.00     0.124 S 
ATOM     81  O   UNL A   1      42.010  41.401  32.726  1.00  0.00    -0.237 OA
ATOM     82  O   UNL A   1      42.765  42.589  30.696  1.00  0.00    -0.237 OA
ATOM     83  O   UNL A   1      40.727  41.202  30.629  1.00  0.00    -0.744 OA
ENDBRANCH  79  80
ENDBRANCH  60  74
BRANCH  61  84
ATOM     84  C   UNL A   1      49.576  29.530  27.649  1.00  0.00    -0.014 A 
ATOM     85  C   UNL A   1      50.436  28.871  28.544  1.00  0.00     0.010 A 
ATOM     86  C   UNL A   1      49.430  29.021  26.344  1.00  0.00     0.010 A 
ATOM     87  C   UNL A   1      51.146  27.736  28.140  1.00  0.00     0.020 A 
ATOM     88  C   UNL A   1      50.114  27.869  25.946  1.00  0.00     0.020 A 
ATOM     89  C   UNL A   1      50.977  27.240  26.843  1.00  0.00     0.054 A 
BRANCH  89  90
ATOM     90  S   UNL A   1      51.874  25.738  26.359  1.00  0.00     0.124 S 
ATOM     91  O   UNL A   1      51.710  25.741  24.908  1.00  0.00    -0.237 OA
ATOM     92  O   UNL A   1      53.226  26.010  26.842  1.00  0.00    -0.237 OA
ATOM     93  O   UNL A   1      51.169  24.673  27.067  1.00  0.00    -0.744 OA
ENDBRANCH  89  90
ENDBRANCH  61  84
BRANCH  73  94
ATOM     94  C   UNL A   1      50.872  36.351  26.890  1.00  0.00    -0.014 A 
ATOM     95  C   UNL A   1      51.970  36.772  27.661  1.00  0.00     0.010 A 
ATOM     96  C   UNL A   1      50.881  36.590  25.503  1.00  0.00     0.010 A 
ATOM     97  C   UNL A   1      53.042  37.440  27.062  1.00  0.00     0.020 A 
ATOM     98  C   UNL A   1      51.965  37.231  24.895  1.00  0.00     0.020 A 
ATOM     99  C   UNL A   1      53.035  37.662  25.682  1.00  0.00     0.054 A 
BRANCH  99 100
ATOM    100  S   UNL A   1      54.464  38.481  24.922  1.00  0.00     0.124 S 
ATOM    101  O   UNL A   1      53.872  39.713  24.408  1.00  0.00    -0.237 OA
ATOM    102  O   UNL A   1      55.376  38.645  26.051  1.00  0.00    -0.237 OA
ATOM    103  O   UNL A   1      54.908  37.533  23.903  1.00  0.00    -0.744 OA
ENDBRANCH  99 100
ENDBRANCH  73  94
ENDBRANCH  47  48
ENDBRANCH  40  42
ENDBRANCH  39  40
ENDBRANCH  38  39
ENDBRANCH  37  38
ENDBRANCH  36  37
ENDBRANCH  35  36
ENDBRANCH  34  35
ENDBRANCH  33  34
ENDBRANCH  32  33
ENDBRANCH   1  32
TORSDOF 30
ENDMDL
MODEL 3
REMARK VINA RESULT:      -5.7      6.167     13.356
REMARK SMILES CCCCCCCNC(=O)Oc1cccc(-c2ccc([C@@H](C)C(=O)OCCOCCOCCOC(=O)c3ccc(-c4c5nc(c(-c6ccc(S(=O)(=O)[O-])cc6)c6ccc([nH]6)c(-c6ccc(S(=O)(=O)[O-])cc6)c6nc(c(-c7ccc(S(=O)(=O)[O-])cc7)c7ccc4[nH]7)C=C6)C=C5)cc3)cc2F)c1
REMARK SMILES IDX 26 1 25 2 23 3 24 4 21 5 22 6 20 7 17 8 18 9 98 10 19 11
REMARK SMILES IDX 97 12 99 13 16 14 12 15 13 16 100 17 14 18 15 19 11 20 9 21
REMARK SMILES IDX 8 22 10 24 7 25 6 26 5 27 4 28 3 29 2 30 1 31 27 32 28 33
REMARK SMILES IDX 29 34 30 35 31 36 32 37 33 38 34 39 35 40 36 41 37 42 38 43
REMARK SMILES IDX 96 44 39 45 95 46 40 47 41 48 42 49 89 50 43 51 94 52 88 53
REMARK SMILES IDX 90 54 44 55 93 56 87 57 86 58 45 60 75 61 56 62 74 63 57 64
REMARK SMILES IDX 60 65 73 66 91 67 58 68 59 69 72 71 92 72 61 73 46 74 47 75
REMARK SMILES IDX 55 76 48 77 54 78 49 79 50 80 51 81 52 82 53 83 76 84 77 85
REMARK SMILES IDX 85 86 78 87 84 88 79 89 80 90 81 91 82 92 83 93 62 94 63 95
REMARK SMILES IDX 71 96 64 97 70 98 65 99 66 100 67 101 68 102 69 103
REMARK H PARENT 8 23 90 59 60 70
REMARK Flexibility Score: inf
ROOT
ATOM      1  C   UNL A   1      40.501  27.004  28.077  1.00  0.00     0.261 C 
ENDROOT
BRANCH   1   2
ATOM      2  O   UNL A   1      40.752  27.127  26.657  1.00  0.00    -0.463 OA
BRANCH   2   3
ATOM      3  C   UNL A   1      41.045  25.976  25.999  1.00  0.00     0.313 C 
ATOM      4  O   UNL A   1      41.621  25.952  24.913  1.00  0.00    -0.252 OA
BRANCH   3   5
ATOM      5  C   UNL A   1      40.633  24.671  26.689  1.00  0.00     0.126 C 
ATOM      6  C   UNL A   1      41.589  23.567  26.239  1.00  0.00     0.025 C 
BRANCH   5   7
ATOM      7  C   UNL A   1      39.193  24.162  26.649  1.00  0.00    -0.031 A 
ATOM      8  C   UNL A   1      36.524  23.114  26.478  1.00  0.00     0.018 A 
ATOM      9  C   UNL A   1      36.800  24.338  27.116  1.00  0.00     0.012 A 
ATOM     10  C   UNL A   1      37.615  22.431  25.929  1.00  0.00     0.131 A 
ATOM     11  C   UNL A   1      38.107  24.860  27.192  1.00  0.00     0.005 A 
ATOM     12  C   UNL A   1      38.917  22.941  26.001  1.00  0.00     0.044 A 
ATOM     13  F   UNL A   1      37.433  21.265  25.289  1.00  0.00    -0.206 F 
BRANCH   8  14
ATOM     14  C   UNL A   1      35.139  22.608  26.347  1.00  0.00    -0.012 A 
ATOM     15  C   UNL A   1      33.530  20.831  25.935  1.00  0.00     0.133 A 
ATOM     16  C   UNL A   1      32.467  21.728  26.021  1.00  0.00     0.047 A 
ATOM     17  C   UNL A   1      34.855  21.254  26.089  1.00  0.00     0.056 A 
ATOM     18  C   UNL A   1      32.730  23.068  26.281  1.00  0.00     0.004 A 
ATOM     19  C   UNL A   1      34.052  23.501  26.440  1.00  0.00     0.009 A 
BRANCH  15  20
ATOM     20  O   UNL A   1      33.214  19.520  25.539  1.00  0.00    -0.410 OA
BRANCH  20  21
ATOM     21  C   UNL A   1      33.910  18.971  24.477  1.00  0.00     0.412 C 
ATOM     22  N   UNL A   1      33.297  19.164  23.269  1.00  0.00    -0.321 N 
ATOM     23  H   UNL A   1      33.792  18.866  22.472  1.00  0.00     0.167 HD
ATOM     24  O   UNL A   1      34.958  18.330  24.557  1.00  0.00    -0.224 OA
BRANCH  22  25
ATOM     25  C   UNL A   1      31.996  19.765  23.037  1.00  0.00     0.119 C 
BRANCH  25  26
ATOM     26  C   UNL A   1      32.065  21.018  22.163  1.00  0.00     0.021 C 
BRANCH  26  27
ATOM     27  C   UNL A   1      32.432  22.309  22.906  1.00  0.00     0.002 C 
BRANCH  27  28
ATOM     28  C   UNL A   1      33.454  23.209  22.203  1.00  0.00     0.000 C 
BRANCH  28  29
ATOM     29  C   UNL A   1      33.804  24.508  22.939  1.00  0.00    -0.000 C 
BRANCH  29  30
ATOM     30  C   UNL A   1      33.370  25.799  22.237  1.00  0.00    -0.003 C 
ATOM     31  C   UNL A   1      32.009  25.695  21.565  1.00  0.00     0.004 C 
ENDBRANCH  29  30
ENDBRANCH  28  29
ENDBRANCH  27  28
ENDBRANCH  26  27
ENDBRANCH  25  26
ENDBRANCH  22  25
ENDBRANCH  20  21
ENDBRANCH  15  20
ENDBRANCH   8  14
ENDBRANCH   5   7
ENDBRANCH   3   5
ENDBRANCH   2   3
ENDBRANCH   1   2
BRANCH   1  32
ATOM     32  C   UNL A   1      39.903  28.252  28.742  1.00  0.00     0.202 C 
BRANCH  32  33
ATOM     33  O   UNL A   1      38.959  29.018  28.003  1.00  0.00    -0.376 OA
BRANCH  33  34
ATOM     34  C   UNL A   1      37.583  28.968  28.365  1.00  0.00     0.188 C 
BRANCH  34  35
ATOM     35  C   UNL A   1      36.913  30.234  28.918  1.00  0.00     0.188 C 
BRANCH  35  36
ATOM     36  O   UNL A   1      36.425  30.100  30.236  1.00  0.00    -0.376 OA
BRANCH  36  37
ATOM     37  C   UNL A   1      36.009  31.290  30.878  1.00  0.00     0.202 C 
BRANCH  37  38
ATOM     38  C   UNL A   1      35.986  31.224  32.411  1.00  0.00     0.261 C 
BRANCH  38  39
ATOM     39  O   UNL A   1      37.236  31.489  33.075  1.00  0.00    -0.460 OA
BRANCH  39  40
ATOM     40  C   UNL A   1      38.154  30.499  33.106  1.00  0.00     0.338 C 
ATOM     41  O   UNL A   1      37.951  29.314  33.343  1.00  0.00    -0.246 OA
BRANCH  40  42
ATOM     42  C   UNL A   1      39.426  31.045  32.584  1.00  0.00     0.060 A 
ATOM     43  C   UNL A   1      39.456  31.628  31.309  1.00  0.00     0.016 A 
ATOM     44  C   UNL A   1      40.578  31.021  33.372  1.00  0.00     0.016 A 
ATOM     45  C   UNL A   1      40.638  32.196  30.823  1.00  0.00     0.010 A 
ATOM     46  C   UNL A   1      41.765  31.566  32.874  1.00  0.00     0.010 A 
ATOM     47  C   UNL A   1      41.807  32.150  31.595  1.00  0.00    -0.014 A 
BRANCH  47  48
ATOM     48  C   UNL A   1      43.108  32.611  31.048  1.00  0.00     0.031 A 
ATOM     49  C   UNL A   1      43.500  34.053  31.216  1.00  0.00     0.074 A 
ATOM     50  C   UNL A   1      43.913  31.770  30.370  1.00  0.00     0.049 A 
ATOM     51  N   UNL A   1      44.518  34.700  30.710  1.00  0.00    -0.248 NA
ATOM     52  C   UNL A   1      42.624  34.875  32.067  1.00  0.00     0.031 C 
ATOM     53  C   UNL A   1      43.674  30.341  30.175  1.00  0.00     0.029 A 
ATOM     54  N   UNL A   1      45.088  32.010  29.699  1.00  0.00    -0.354 N 
ATOM     55  C   UNL A   1      44.398  36.008  31.166  1.00  0.00     0.074 A 
ATOM     56  C   UNL A   1      43.199  36.064  31.975  1.00  0.00     0.031 C 
ATOM     57  C   UNL A   1      44.663  29.835  29.416  1.00  0.00     0.029 A 
ATOM     58  C   UNL A   1      45.577  30.910  29.033  1.00  0.00     0.049 A 
ATOM     59  H   UNL A   1      45.540  32.886  29.696  1.00  0.00     0.167 HD
ATOM     60  C   UNL A   1      45.211  37.065  30.930  1.00  0.00     0.031 A 
ATOM     61  C   UNL A   1      46.615  30.792  28.179  1.00  0.00     0.031 A 
ATOM     62  C   UNL A   1      46.391  37.011  30.105  1.00  0.00     0.049 A 
ATOM     63  C   UNL A   1      47.449  32.007  27.852  1.00  0.00     0.074 A 
ATOM     64  C   UNL A   1      47.289  38.026  29.824  1.00  0.00     0.029 A 
ATOM     65  N   UNL A   1      46.830  35.888  29.420  1.00  0.00    -0.354 N 
ATOM     66  N   UNL A   1      47.342  33.230  28.314  1.00  0.00    -0.248 NA
ATOM     67  C   UNL A   1      48.540  31.824  26.883  1.00  0.00     0.031 C 
ATOM     68  C   UNL A   1      48.230  37.536  28.912  1.00  0.00     0.029 A 
ATOM     69  C   UNL A   1      47.961  36.196  28.683  1.00  0.00     0.049 A 
ATOM     70  H   UNL A   1      46.400  35.003  29.452  1.00  0.00     0.167 HD
ATOM     71  C   UNL A   1      48.366  33.955  27.708  1.00  0.00     0.074 A 
ATOM     72  C   UNL A   1      49.091  33.030  26.864  1.00  0.00     0.031 C 
ATOM     73  C   UNL A   1      48.674  35.270  27.839  1.00  0.00     0.031 A 
BRANCH  60  74
ATOM     74  C   UNL A   1      44.829  38.389  31.537  1.00  0.00    -0.014 A 
ATOM     75  C   UNL A   1      44.003  39.298  30.852  1.00  0.00     0.010 A 
ATOM     76  C   UNL A   1      45.265  38.708  32.837  1.00  0.00     0.010 A 
ATOM     77  C   UNL A   1      43.648  40.514  31.441  1.00  0.00     0.020 A 
ATOM     78  C   UNL A   1      44.888  39.910  33.442  1.00  0.00     0.020 A 
ATOM     79  C   UNL A   1      44.095  40.813  32.733  1.00  0.00     0.054 A 
BRANCH  79  80
ATOM     80  S   UNL A   1      43.596  42.389  33.480  1.00  0.00     0.124 S 
ATOM     81  O   UNL A   1      44.780  42.739  34.262  1.00  0.00    -0.237 OA
ATOM     82  O   UNL A   1      43.342  43.230  32.313  1.00  0.00    -0.237 OA
ATOM     83  O   UNL A   1      42.413  42.043  34.265  1.00  0.00    -0.744 OA
ENDBRANCH  79  80
ENDBRANCH  60  74
BRANCH  61  84
ATOM     84  C   UNL A   1      46.908  29.479  27.535  1.00  0.00    -0.014 A 
ATOM     85  C   UNL A   1      46.227  29.082  26.372  1.00  0.00     0.010 A 
ATOM     86  C   UNL A   1      47.864  28.610  28.095  1.00  0.00     0.010 A 
ATOM     87  C   UNL A   1      46.483  27.837  25.789  1.00  0.00     0.020 A 
ATOM     88  C   UNL A   1      48.146  27.378  27.498  1.00  0.00     0.020 A 
ATOM     89  C   UNL A   1      47.445  26.994  26.355  1.00  0.00     0.054 A 
BRANCH  89  90
ATOM     90  S   UNL A   1      47.794  25.403  25.553  1.00  0.00     0.124 S 
ATOM     91  O   UNL A   1      46.726  25.322  24.562  1.00  0.00    -0.237 OA
ATOM     92  O   UNL A   1      49.138  25.609  25.019  1.00  0.00    -0.237 OA
ATOM     93  O   UNL A   1      47.706  24.441  26.648  1.00  0.00    -0.744 OA
ENDBRANCH  89  90
ENDBRANCH  61  84
BRANCH  73  94
ATOM     94  C   UNL A   1      49.861  35.791  27.070  1.00  0.00    -0.014 A 
ATOM     95  C   UNL A   1      51.167  35.677  27.578  1.00  0.00     0.010 A 
ATOM     96  C   UNL A   1      49.674  36.342  25.787  1.00  0.00     0.010 A 
ATOM     97  C   UNL A   1      52.261  36.127  26.832  1.00  0.00     0.020 A 
ATOM     98  C   UNL A   1      50.768  36.765  25.025  1.00  0.00     0.020 A 
ATOM     99  C   UNL A   1      52.054  36.664  25.558  1.00  0.00     0.054 A 
BRANCH  99 100
ATOM    100  S   UNL A   1      53.495  37.188  24.588  1.00  0.00     0.124 S 
ATOM    101  O   UNL A   1      53.384  36.348  23.399  1.00  0.00    -0.237 OA
ATOM    102  O   UNL A   1      53.238  38.611  24.378  1.00  0.00    -0.237 OA
ATOM    103  O   UNL A   1      54.629  36.888  25.458  1.00  0.00    -0.744 OA
ENDBRANCH  99 100
ENDBRANCH  73  94
ENDBRANCH  47  48
ENDBRANCH  40  42
ENDBRANCH  39  40
ENDBRANCH  38  39
ENDBRANCH  37  38
ENDBRANCH  36  37
ENDBRANCH  35  36
ENDBRANCH  34  35
ENDBRANCH  33  34
ENDBRANCH  32  33
ENDBRANCH   1  32
TORSDOF 30
ENDMDL
