MODEL 1
REMARK VINA RESULT:      -8.0      0.000      0.000
REMARK SMILES Cc1ccc(C(N)=O)c(NCc2ccc(C(=O)OCCOCCOCCOC(=O)c3ccc(-c4c5nc(c(-c6ccc(S(=O)(=O)[O-])cc6)c6ccc([nH]6)c(-c6ccc(S(=O)(=O)[O-])cc6)c6nc(c(-c7ccc(S(=O)(=O)[O-])cc7)c7ccc4[nH]7)C=C6)C=C5)cc3)o2)n1
REMARK SMILES IDX 22 1 21 2 20 3 19 4 18 5 16 6 17 7 15 8 12 9 13 10 90 11
REMARK SMILES IDX 14 12 11 13 10 14 9 16 1 17 2 18 3 19 91 20 4 21 5 22 6 23
REMARK SMILES IDX 7 24 8 25 23 28 24 29 25 30 26 31 27 32 28 33 29 34 30 35
REMARK SMILES IDX 31 36 89 37 32 38 88 39 33 40 34 41 35 42 82 43 36 44 87 45
REMARK SMILES IDX 81 46 83 47 37 48 86 49 80 50 79 51 38 53 68 54 49 55 67 56
REMARK SMILES IDX 50 57 53 58 66 59 84 60 51 61 52 62 65 64 85 65 54 66 39 67
REMARK SMILES IDX 40 68 48 69 41 70 47 71 42 72 43 73 44 74 45 75 46 76 69 77
REMARK SMILES IDX 70 78 78 79 71 80 77 81 72 82 73 83 74 84 75 85 76 86 55 87
REMARK SMILES IDX 56 88 64 89 57 90 63 91 58 92 59 93 60 94 61 95 62 96
REMARK H PARENT 10 15 7 26 7 27 83 52 53 63
REMARK Flexibility Score: inf
ROOT
ATOM      1  C   UNL A   1      44.272  24.243  25.030  1.00  0.00     0.188 C 
ENDROOT
BRANCH   1   2
ATOM      2  O   UNL A   1      45.437  24.959  25.428  1.00  0.00    -0.376 OA
BRANCH   2   3
ATOM      3  C   UNL A   1      45.317  26.032  26.353  1.00  0.00     0.202 C 
BRANCH   3   4
ATOM      4  C   UNL A   1      46.225  27.245  26.132  1.00  0.00     0.261 C 
BRANCH   4   5
ATOM      5  O   UNL A   1      45.622  28.470  26.582  1.00  0.00    -0.457 OA
BRANCH   5   6
ATOM      6  C   UNL A   1      46.410  29.583  26.480  1.00  0.00     0.374 C 
ATOM      7  O   UNL A   1      47.597  29.568  26.181  1.00  0.00    -0.242 OA
BRANCH   6   8
ATOM      8  C   UNL A   1      45.610  30.771  26.668  1.00  0.00     0.211 A 
ATOM      9  C   UNL A   1      44.628  32.618  25.948  1.00  0.00     0.124 A 
ATOM     10  C   UNL A   1      44.236  32.454  27.260  1.00  0.00     0.048 A 
ATOM     11  O   UNL A   1      45.480  31.614  25.597  1.00  0.00    -0.452 OA
ATOM     12  C   UNL A   1      44.850  31.259  27.716  1.00  0.00     0.058 A 
BRANCH   9  13
ATOM     13  C   UNL A   1      44.301  33.592  24.862  1.00  0.00     0.190 C 
BRANCH  13  14
ATOM     14  N   UNL A   1      45.153  34.777  24.806  1.00  0.00    -0.362 N 
ATOM     15  H   UNL A   1      45.428  35.154  23.939  1.00  0.00     0.162 HD
BRANCH  14  16
ATOM     16  C   UNL A   1      45.572  35.369  25.998  1.00  0.00     0.139 A 
ATOM     17  C   UNL A   1      43.906  37.399  28.583  1.00  0.00     0.067 C 
ATOM     18  C   UNL A   1      44.988  36.641  27.877  1.00  0.00     0.040 A 
ATOM     19  C   UNL A   1      46.224  36.439  28.467  1.00  0.00     0.024 A 
ATOM     20  N   UNL A   1      44.675  36.134  26.662  1.00  0.00    -0.236 NA
ATOM     21  C   UNL A   1      47.170  35.696  27.773  1.00  0.00     0.019 A 
ATOM     22  C   UNL A   1      46.857  35.154  26.518  1.00  0.00     0.081 A 
BRANCH  22  23
ATOM     23  C   UNL A   1      47.935  34.388  25.832  1.00  0.00     0.252 C 
ATOM     24  N   UNL A   1      48.218  33.129  26.279  1.00  0.00    -0.365 N 
ATOM     25  O   UNL A   1      48.533  34.848  24.866  1.00  0.00    -0.269 OA
ATOM     26  H   UNL A   1      47.736  32.763  27.055  1.00  0.00     0.159 HD
ATOM     27  H   UNL A   1      48.905  32.589  25.825  1.00  0.00     0.159 HD
ENDBRANCH  22  23
ENDBRANCH  14  16
ENDBRANCH  13  14
ENDBRANCH   9  13
ENDBRANCH   6   8
ENDBRANCH   5   6
ENDBRANCH   4   5
ENDBRANCH   3   4
ENDBRANCH   2   3
ENDBRANCH   1   2
BRANCH   1  28
ATOM     28  C   UNL A   1      44.360  22.716  24.850  1.00  0.00     0.188 C 
BRANCH  28  29
ATOM     29  O   UNL A   1      43.822  21.970  25.932  1.00  0.00    -0.376 OA
BRANCH  29  30
ATOM     30  C   UNL A   1      42.445  21.640  25.835  1.00  0.00     0.202 C 
BRANCH  30  31
ATOM     31  C   UNL A   1      41.542  22.473  26.750  1.00  0.00     0.261 C 
BRANCH  31  32
ATOM     32  O   UNL A   1      40.186  22.010  26.850  1.00  0.00    -0.460 OA
BRANCH  32  33
ATOM     33  C   UNL A   1      39.220  22.844  26.406  1.00  0.00     0.338 C 
ATOM     34  O   UNL A   1      38.231  22.547  25.760  1.00  0.00    -0.246 OA
BRANCH  33  35
ATOM     35  C   UNL A   1      39.478  24.179  26.980  1.00  0.00     0.060 A 
ATOM     36  C   UNL A   1      40.113  25.146  26.192  1.00  0.00     0.016 A 
ATOM     37  C   UNL A   1      39.094  24.473  28.291  1.00  0.00     0.016 A 
ATOM     38  C   UNL A   1      40.387  26.407  26.727  1.00  0.00     0.010 A 
ATOM     39  C   UNL A   1      39.381  25.729  28.829  1.00  0.00     0.010 A 
ATOM     40  C   UNL A   1      40.048  26.695  28.058  1.00  0.00    -0.014 A 
BRANCH  40  41
ATOM     41  C   UNL A   1      40.524  27.946  28.696  1.00  0.00     0.031 A 
ATOM     42  C   UNL A   1      41.938  28.004  29.207  1.00  0.00     0.074 A 
ATOM     43  C   UNL A   1      39.716  29.013  28.828  1.00  0.00     0.049 A 
ATOM     44  N   UNL A   1      42.559  28.981  29.816  1.00  0.00    -0.248 NA
ATOM     45  C   UNL A   1      42.760  26.800  29.001  1.00  0.00     0.031 C 
ATOM     46  C   UNL A   1      38.334  29.095  28.356  1.00  0.00     0.029 A 
ATOM     47  N   UNL A   1      39.945  30.234  29.412  1.00  0.00    -0.354 N 
ATOM     48  C   UNL A   1      43.843  28.512  30.065  1.00  0.00     0.074 A 
ATOM     49  C   UNL A   1      43.906  27.156  29.563  1.00  0.00     0.031 C 
ATOM     50  C   UNL A   1      37.835  30.301  28.678  1.00  0.00     0.029 A 
ATOM     51  C   UNL A   1      38.851  31.066  29.401  1.00  0.00     0.049 A 
ATOM     52  H   UNL A   1      40.812  30.490  29.802  1.00  0.00     0.167 HD
ATOM     53  C   UNL A   1      44.881  29.151  30.654  1.00  0.00     0.031 A 
ATOM     54  C   UNL A   1      38.683  32.295  29.929  1.00  0.00     0.031 A 
ATOM     55  C   UNL A   1      44.816  30.487  31.183  1.00  0.00     0.049 A 
ATOM     56  C   UNL A   1      39.829  32.959  30.647  1.00  0.00     0.074 A 
ATOM     57  C   UNL A   1      45.819  31.221  31.792  1.00  0.00     0.029 A 
ATOM     58  N   UNL A   1      43.681  31.283  31.178  1.00  0.00    -0.354 N 
ATOM     59  N   UNL A   1      41.048  32.516  30.841  1.00  0.00    -0.248 NA
ATOM     60  C   UNL A   1      39.577  34.294  31.213  1.00  0.00     0.031 C 
ATOM     61  C   UNL A   1      45.277  32.446  32.196  1.00  0.00     0.029 A 
ATOM     62  C   UNL A   1      43.952  32.493  31.794  1.00  0.00     0.049 A 
ATOM     63  H   UNL A   1      42.813  31.026  30.793  1.00  0.00     0.167 HD
ATOM     64  C   UNL A   1      41.715  33.526  31.529  1.00  0.00     0.074 A 
ATOM     65  C   UNL A   1      40.766  34.606  31.709  1.00  0.00     0.031 C 
ATOM     66  C   UNL A   1      42.997  33.558  31.967  1.00  0.00     0.031 A 
BRANCH  53  67
ATOM     67  C   UNL A   1      46.171  28.390  30.784  1.00  0.00    -0.014 A 
ATOM     68  C   UNL A   1      47.136  28.424  29.763  1.00  0.00     0.010 A 
ATOM     69  C   UNL A   1      46.427  27.645  31.949  1.00  0.00     0.010 A 
ATOM     70  C   UNL A   1      48.320  27.693  29.886  1.00  0.00     0.020 A 
ATOM     71  C   UNL A   1      47.620  26.929  32.085  1.00  0.00     0.020 A 
ATOM     72  C   UNL A   1      48.551  26.943  31.043  1.00  0.00     0.054 A 
BRANCH  72  73
ATOM     73  S   UNL A   1      50.097  26.006  31.183  1.00  0.00     0.124 S 
ATOM     74  O   UNL A   1      49.766  25.036  32.223  1.00  0.00    -0.237 OA
ATOM     75  O   UNL A   1      50.262  25.453  29.840  1.00  0.00    -0.237 OA
ATOM     76  O   UNL A   1      51.082  27.016  31.562  1.00  0.00    -0.744 OA
ENDBRANCH  72  73
ENDBRANCH  53  67
BRANCH  54  77
ATOM     77  C   UNL A   1      37.367  32.981  29.814  1.00  0.00    -0.014 A 
ATOM     78  C   UNL A   1      36.482  33.021  30.906  1.00  0.00     0.010 A 
ATOM     79  C   UNL A   1      36.990  33.591  28.604  1.00  0.00     0.010 A 
ATOM     80  C   UNL A   1      35.237  33.645  30.785  1.00  0.00     0.020 A 
ATOM     81  C   UNL A   1      35.754  34.236  28.487  1.00  0.00     0.020 A 
ATOM     82  C   UNL A   1      34.881  34.249  29.575  1.00  0.00     0.054 A 
BRANCH  82  83
ATOM     83  S   UNL A   1      33.279  35.094  29.453  1.00  0.00     0.124 S 
ATOM     84  O   UNL A   1      32.700  34.836  30.768  1.00  0.00    -0.237 OA
ATOM     85  O   UNL A   1      33.668  36.477  29.193  1.00  0.00    -0.237 OA
ATOM     86  O   UNL A   1      32.623  34.419  28.335  1.00  0.00    -0.744 OA
ENDBRANCH  82  83
ENDBRANCH  54  77
BRANCH  66  87
ATOM     87  C   UNL A   1      43.468  34.812  32.657  1.00  0.00    -0.014 A 
ATOM     88  C   UNL A   1      43.294  34.989  34.041  1.00  0.00     0.010 A 
ATOM     89  C   UNL A   1      44.149  35.795  31.918  1.00  0.00     0.010 A 
ATOM     90  C   UNL A   1      43.773  36.142  34.670  1.00  0.00     0.020 A 
ATOM     91  C   UNL A   1      44.649  36.939  32.547  1.00  0.00     0.020 A 
ATOM     92  C   UNL A   1      44.446  37.110  33.918  1.00  0.00     0.054 A 
BRANCH  92  93
ATOM     93  S   UNL A   1      45.104  38.577  34.763  1.00  0.00     0.124 S 
ATOM     94  O   UNL A   1      46.001  39.131  33.753  1.00  0.00    -0.237 OA
ATOM     95  O   UNL A   1      43.901  39.360  35.033  1.00  0.00    -0.237 OA
ATOM     96  O   UNL A   1      45.759  38.027  35.948  1.00  0.00    -0.744 OA
ENDBRANCH  92  93
ENDBRANCH  66  87
ENDBRANCH  40  41
ENDBRANCH  33  35
ENDBRANCH  32  33
ENDBRANCH  31  32
ENDBRANCH  30  31
ENDBRANCH  29  30
ENDBRANCH  28  29
ENDBRANCH   1  28
TORSDOF 24
ENDMDL
MODEL 2
REMARK VINA RESULT:      -7.7      4.150     11.882
REMARK SMILES Cc1ccc(C(N)=O)c(NCc2ccc(C(=O)OCCOCCOCCOC(=O)c3ccc(-c4c5nc(c(-c6ccc(S(=O)(=O)[O-])cc6)c6ccc([nH]6)c(-c6ccc(S(=O)(=O)[O-])cc6)c6nc(c(-c7ccc(S(=O)(=O)[O-])cc7)c7ccc4[nH]7)C=C6)C=C5)cc3)o2)n1
REMARK SMILES IDX 22 1 21 2 20 3 19 4 18 5 16 6 17 7 15 8 12 9 13 10 90 11
REMARK SMILES IDX 14 12 11 13 10 14 9 16 1 17 2 18 3 19 91 20 4 21 5 22 6 23
REMARK SMILES IDX 7 24 8 25 23 28 24 29 25 30 26 31 27 32 28 33 29 34 30 35
REMARK SMILES IDX 31 36 89 37 32 38 88 39 33 40 34 41 35 42 82 43 36 44 87 45
REMARK SMILES IDX 81 46 83 47 37 48 86 49 80 50 79 51 38 53 68 54 49 55 67 56
REMARK SMILES IDX 50 57 53 58 66 59 84 60 51 61 52 62 65 64 85 65 54 66 39 67
REMARK SMILES IDX 40 68 48 69 41 70 47 71 42 72 43 73 44 74 45 75 46 76 69 77
REMARK SMILES IDX 70 78 78 79 71 80 77 81 72 82 73 83 74 84 75 85 76 86 55 87
REMARK SMILES IDX 56 88 64 89 57 90 63 91 58 92 59 93 60 94 61 95 62 96
REMARK H PARENT 10 15 7 26 7 27 83 52 53 63
REMARK Flexibility Score: inf
ROOT
ATOM      1  C   UNL A   1      33.979  34.236  28.224  1.00  0.00     0.188 C 
ENDROOT
BRANCH   1   2
ATOM      2  O   UNL A   1      32.914  35.178  28.309  1.00  0.00    -0.376 OA
BRANCH   2   3
ATOM      3  C   UNL A   1      32.853  36.066  29.418  1.00  0.00     0.202 C 
BRANCH   3   4
ATOM      4  C   UNL A   1      33.658  35.681  30.662  1.00  0.00     0.261 C 
BRANCH   4   5
ATOM      5  O   UNL A   1      33.077  36.198  31.872  1.00  0.00    -0.457 OA
BRANCH   5   6
ATOM      6  C   UNL A   1      33.952  36.392  32.905  1.00  0.00     0.374 C 
ATOM      7  O   UNL A   1      34.014  37.413  33.579  1.00  0.00    -0.242 OA
BRANCH   6   8
ATOM      8  C   UNL A   1      34.703  35.183  33.148  1.00  0.00     0.211 A 
ATOM      9  C   UNL A   1      36.581  34.018  33.245  1.00  0.00     0.124 A 
ATOM     10  C   UNL A   1      35.585  33.192  33.723  1.00  0.00     0.048 A 
ATOM     11  O   UNL A   1      36.044  35.213  32.873  1.00  0.00    -0.452 OA
ATOM     12  C   UNL A   1      34.383  33.946  33.679  1.00  0.00     0.058 A 
BRANCH   9  13
ATOM     13  C   UNL A   1      38.064  33.905  33.095  1.00  0.00     0.190 C 
BRANCH  13  14
ATOM     14  N   UNL A   1      38.533  32.717  32.386  1.00  0.00    -0.362 N 
ATOM     15  H   UNL A   1      37.899  32.145  31.897  1.00  0.00     0.162 HD
BRANCH  14  16
ATOM     16  C   UNL A   1      39.893  32.404  32.412  1.00  0.00     0.139 A 
ATOM     17  C   UNL A   1      42.935  34.070  31.168  1.00  0.00     0.067 C 
ATOM     18  C   UNL A   1      42.073  33.049  31.843  1.00  0.00     0.040 A 
ATOM     19  C   UNL A   1      42.628  31.995  32.549  1.00  0.00     0.024 A 
ATOM     20  N   UNL A   1      40.735  33.238  31.760  1.00  0.00    -0.236 NA
ATOM     21  C   UNL A   1      41.771  31.104  33.182  1.00  0.00     0.019 A 
ATOM     22  C   UNL A   1      40.383  31.294  33.115  1.00  0.00     0.081 A 
BRANCH  22  23
ATOM     23  C   UNL A   1      39.535  30.281  33.803  1.00  0.00     0.252 C 
ATOM     24  N   UNL A   1      39.725  28.964  33.498  1.00  0.00    -0.365 N 
ATOM     25  O   UNL A   1      38.711  30.605  34.652  1.00  0.00    -0.269 OA
ATOM     26  H   UNL A   1      40.386  28.708  32.816  1.00  0.00     0.159 HD
ATOM     27  H   UNL A   1      39.199  28.272  33.959  1.00  0.00     0.159 HD
ENDBRANCH  22  23
ENDBRANCH  14  16
ENDBRANCH  13  14
ENDBRANCH   9  13
ENDBRANCH   6   8
ENDBRANCH   5   6
ENDBRANCH   4   5
ENDBRANCH   3   4
ENDBRANCH   2   3
ENDBRANCH   1   2
BRANCH   1  28
ATOM     28  C   UNL A   1      33.642  32.737  28.123  1.00  0.00     0.188 C 
BRANCH  28  29
ATOM     29  O   UNL A   1      34.612  31.881  28.710  1.00  0.00    -0.376 OA
BRANCH  29  30
ATOM     30  C   UNL A   1      34.976  32.181  30.049  1.00  0.00     0.202 C 
BRANCH  30  31
ATOM     31  C   UNL A   1      36.160  31.359  30.568  1.00  0.00     0.261 C 
BRANCH  31  32
ATOM     32  O   UNL A   1      37.223  31.161  29.622  1.00  0.00    -0.460 OA
BRANCH  32  33
ATOM     33  C   UNL A   1      37.447  29.894  29.208  1.00  0.00     0.338 C 
ATOM     34  O   UNL A   1      36.617  29.021  29.032  1.00  0.00    -0.246 OA
BRANCH  33  35
ATOM     35  C   UNL A   1      38.872  29.786  28.840  1.00  0.00     0.060 A 
ATOM     36  C   UNL A   1      39.211  29.400  27.539  1.00  0.00     0.016 A 
ATOM     37  C   UNL A   1      39.869  30.065  29.780  1.00  0.00     0.016 A 
ATOM     38  C   UNL A   1      40.555  29.270  27.181  1.00  0.00     0.010 A 
ATOM     39  C   UNL A   1      41.211  29.921  29.425  1.00  0.00     0.010 A 
ATOM     40  C   UNL A   1      41.562  29.501  28.130  1.00  0.00    -0.014 A 
BRANCH  40  41
ATOM     41  C   UNL A   1      42.971  29.159  27.823  1.00  0.00     0.031 A 
ATOM     42  C   UNL A   1      44.017  30.235  27.940  1.00  0.00     0.074 A 
ATOM     43  C   UNL A   1      43.320  27.919  27.437  1.00  0.00     0.049 A 
ATOM     44  N   UNL A   1      45.301  30.170  27.701  1.00  0.00    -0.248 NA
ATOM     45  C   UNL A   1      43.551  31.557  28.390  1.00  0.00     0.031 C 
ATOM     46  C   UNL A   1      42.409  26.783  27.306  1.00  0.00     0.029 A 
ATOM     47  N   UNL A   1      44.544  27.413  27.075  1.00  0.00    -0.354 N 
ATOM     48  C   UNL A   1      45.798  31.440  27.972  1.00  0.00     0.074 A 
ATOM     49  C   UNL A   1      44.674  32.260  28.370  1.00  0.00     0.031 C 
ATOM     50  C   UNL A   1      43.105  25.714  26.882  1.00  0.00     0.029 A 
ATOM     51  C   UNL A   1      44.504  26.094  26.688  1.00  0.00     0.049 A 
ATOM     52  H   UNL A   1      45.372  27.945  27.091  1.00  0.00     0.167 HD
ATOM     53  C   UNL A   1      47.075  31.885  27.900  1.00  0.00     0.031 A 
ATOM     54  C   UNL A   1      45.480  25.294  26.215  1.00  0.00     0.031 A 
ATOM     55  C   UNL A   1      48.190  31.083  27.475  1.00  0.00     0.049 A 
ATOM     56  C   UNL A   1      46.879  25.832  26.072  1.00  0.00     0.074 A 
ATOM     57  C   UNL A   1      49.522  31.446  27.377  1.00  0.00     0.029 A 
ATOM     58  N   UNL A   1      48.102  29.763  27.063  1.00  0.00    -0.354 N 
ATOM     59  N   UNL A   1      47.339  27.024  26.368  1.00  0.00    -0.248 NA
ATOM     60  C   UNL A   1      47.895  24.911  25.536  1.00  0.00     0.031 C 
ATOM     61  C   UNL A   1      50.233  30.356  26.863  1.00  0.00     0.029 A 
ATOM     62  C   UNL A   1      49.351  29.301  26.688  1.00  0.00     0.049 A 
ATOM     63  H   UNL A   1      47.273  29.232  27.042  1.00  0.00     0.167 HD
ATOM     64  C   UNL A   1      48.700  26.990  26.077  1.00  0.00     0.074 A 
ATOM     65  C   UNL A   1      48.991  25.656  25.591  1.00  0.00     0.031 C 
ATOM     66  C   UNL A   1      49.626  27.972  26.206  1.00  0.00     0.031 A 
BRANCH  53  67
ATOM     67  C   UNL A   1      47.321  33.323  28.263  1.00  0.00    -0.014 A 
ATOM     68  C   UNL A   1      47.625  33.692  29.585  1.00  0.00     0.010 A 
ATOM     69  C   UNL A   1      47.263  34.314  27.268  1.00  0.00     0.010 A 
ATOM     70  C   UNL A   1      47.827  35.035  29.914  1.00  0.00     0.020 A 
ATOM     71  C   UNL A   1      47.486  35.656  27.589  1.00  0.00     0.020 A 
ATOM     72  C   UNL A   1      47.749  36.009  28.914  1.00  0.00     0.054 A 
BRANCH  72  73
ATOM     73  S   UNL A   1      48.021  37.745  29.364  1.00  0.00     0.124 S 
ATOM     74  O   UNL A   1      49.451  37.898  29.112  1.00  0.00    -0.237 OA
ATOM     75  O   UNL A   1      47.142  38.459  28.441  1.00  0.00    -0.237 OA
ATOM     76  O   UNL A   1      47.625  37.806  30.769  1.00  0.00    -0.744 OA
ENDBRANCH  72  73
ENDBRANCH  53  67
BRANCH  54  77
ATOM     77  C   UNL A   1      45.167  23.892  25.822  1.00  0.00    -0.014 A 
ATOM     78  C   UNL A   1      44.461  23.620  24.637  1.00  0.00     0.010 A 
ATOM     79  C   UNL A   1      45.569  22.821  26.640  1.00  0.00     0.010 A 
ATOM     80  C   UNL A   1      44.149  22.304  24.286  1.00  0.00     0.020 A 
ATOM     81  C   UNL A   1      45.278  21.502  26.280  1.00  0.00     0.020 A 
ATOM     82  C   UNL A   1      44.559  21.252  25.111  1.00  0.00     0.054 A 
BRANCH  82  83
ATOM     83  S   UNL A   1      44.184  19.547  24.613  1.00  0.00     0.124 S 
ATOM     84  O   UNL A   1      42.784  19.420  25.002  1.00  0.00    -0.237 OA
ATOM     85  O   UNL A   1      44.442  19.571  23.176  1.00  0.00    -0.237 OA
ATOM     86  O   UNL A   1      45.127  18.750  25.395  1.00  0.00    -0.744 OA
ENDBRANCH  82  83
ENDBRANCH  54  77
BRANCH  66  87
ATOM     87  C   UNL A   1      51.051  27.639  25.848  1.00  0.00    -0.014 A 
ATOM     88  C   UNL A   1      51.929  27.087  26.797  1.00  0.00     0.010 A 
ATOM     89  C   UNL A   1      51.496  27.825  24.527  1.00  0.00     0.010 A 
ATOM     90  C   UNL A   1      53.236  26.748  26.436  1.00  0.00     0.020 A 
ATOM     91  C   UNL A   1      52.795  27.468  24.157  1.00  0.00     0.020 A 
ATOM     92  C   UNL A   1      53.661  26.942  25.118  1.00  0.00     0.054 A 
BRANCH  92  93
ATOM     93  S   UNL A   1      55.347  26.450  24.657  1.00  0.00     0.124 S 
ATOM     94  O   UNL A   1      56.158  27.329  25.494  1.00  0.00    -0.237 OA
ATOM     95  O   UNL A   1      55.378  25.034  25.015  1.00  0.00    -0.237 OA
ATOM     96  O   UNL A   1      55.406  26.723  23.223  1.00  0.00    -0.744 OA
ENDBRANCH  92  93
ENDBRANCH  66  87
ENDBRANCH  40  41
ENDBRANCH  33  35
ENDBRANCH  32  33
ENDBRANCH  31  32
ENDBRANCH  30  31
ENDBRANCH  29  30
ENDBRANCH  28  29
ENDBRANCH   1  28
TORSDOF 24
ENDMDL
MODEL 3
REMARK VINA RESULT:      -7.7      3.830     10.781
REMARK SMILES Cc1ccc(C(N)=O)c(NCc2ccc(C(=O)OCCOCCOCCOC(=O)c3ccc(-c4c5nc(c(-c6ccc(S(=O)(=O)[O-])cc6)c6ccc([nH]6)c(-c6ccc(S(=O)(=O)[O-])cc6)c6nc(c(-c7ccc(S(=O)(=O)[O-])cc7)c7ccc4[nH]7)C=C6)C=C5)cc3)o2)n1
REMARK SMILES IDX 22 1 21 2 20 3 19 4 18 5 16 6 17 7 15 8 12 9 13 10 90 11
REMARK SMILES IDX 14 12 11 13 10 14 9 16 1 17 2 18 3 19 91 20 4 21 5 22 6 23
REMARK SMILES IDX 7 24 8 25 23 28 24 29 25 30 26 31 27 32 28 33 29 34 30 35
REMARK SMILES IDX 31 36 89 37 32 38 88 39 33 40 34 41 35 42 82 43 36 44 87 45
REMARK SMILES IDX 81 46 83 47 37 48 86 49 80 50 79 51 38 53 68 54 49 55 67 56
REMARK SMILES IDX 50 57 53 58 66 59 84 60 51 61 52 62 65 64 85 65 54 66 39 67
REMARK SMILES IDX 40 68 48 69 41 70 47 71 42 72 43 73 44 74 45 75 46 76 69 77
REMARK SMILES IDX 70 78 78 79 71 80 77 81 72 82 73 83 74 84 75 85 76 86 55 87
REMARK SMILES IDX 56 88 64 89 57 90 63 91 58 92 59 93 60 94 61 95 62 96
REMARK H PARENT 10 15 7 26 7 27 83 52 53 63
REMARK Flexibility Score: inf
ROOT
ATOM      1  C   UNL A   1      36.940  33.490  29.762  1.00  0.00     0.188 C 
ENDROOT
BRANCH   1   2
ATOM      2  O   UNL A   1      36.927  33.467  31.186  1.00  0.00    -0.376 OA
BRANCH   2   3
ATOM      3  C   UNL A   1      37.441  34.578  31.909  1.00  0.00     0.202 C 
BRANCH   3   4
ATOM      4  C   UNL A   1      37.673  34.384  33.409  1.00  0.00     0.261 C 
BRANCH   4   5
ATOM      5  O   UNL A   1      39.015  34.718  33.804  1.00  0.00    -0.457 OA
BRANCH   5   6
ATOM      6  C   UNL A   1      39.353  34.374  35.084  1.00  0.00     0.374 C 
ATOM      7  O   UNL A   1      39.631  35.174  35.968  1.00  0.00    -0.242 OA
BRANCH   6   8
ATOM      8  C   UNL A   1      39.224  32.946  35.259  1.00  0.00     0.211 A 
ATOM      9  C   UNL A   1      39.819  30.852  34.865  1.00  0.00     0.124 A 
ATOM     10  C   UNL A   1      38.846  30.804  35.841  1.00  0.00     0.048 A 
ATOM     11  O   UNL A   1      40.030  32.146  34.494  1.00  0.00    -0.452 OA
ATOM     12  C   UNL A   1      38.477  32.148  36.108  1.00  0.00     0.058 A 
BRANCH   9  13
ATOM     13  C   UNL A   1      40.687  29.840  34.188  1.00  0.00     0.190 C 
BRANCH  13  14
ATOM     14  N   UNL A   1      41.069  28.693  35.009  1.00  0.00    -0.362 N 
ATOM     15  H   UNL A   1      40.405  28.245  35.580  1.00  0.00     0.162 HD
BRANCH  14  16
ATOM     16  C   UNL A   1      42.389  28.244  34.973  1.00  0.00     0.139 A 
ATOM     17  C   UNL A   1      44.113  25.470  33.266  1.00  0.00     0.067 C 
ATOM     18  C   UNL A   1      43.916  26.685  34.120  1.00  0.00     0.040 A 
ATOM     19  C   UNL A   1      44.995  27.356  34.672  1.00  0.00     0.024 A 
ATOM     20  N   UNL A   1      42.641  27.108  34.283  1.00  0.00    -0.236 NA
ATOM     21  C   UNL A   1      44.744  28.496  35.424  1.00  0.00     0.019 A 
ATOM     22  C   UNL A   1      43.429  28.954  35.592  1.00  0.00     0.081 A 
BRANCH  22  23
ATOM     23  C   UNL A   1      43.246  30.172  36.430  1.00  0.00     0.252 C 
ATOM     24  N   UNL A   1      44.010  31.269  36.151  1.00  0.00    -0.365 N 
ATOM     25  O   UNL A   1      42.408  30.215  37.324  1.00  0.00    -0.269 OA
ATOM     26  H   UNL A   1      44.682  31.230  35.433  1.00  0.00     0.159 HD
ATOM     27  H   UNL A   1      43.890  32.097  36.669  1.00  0.00     0.159 HD
ENDBRANCH  22  23
ENDBRANCH  14  16
ENDBRANCH  13  14
ENDBRANCH   9  13
ENDBRANCH   6   8
ENDBRANCH   5   6
ENDBRANCH   4   5
ENDBRANCH   3   4
ENDBRANCH   2   3
ENDBRANCH   1   2
BRANCH   1  28
ATOM     28  C   UNL A   1      35.896  34.346  29.021  1.00  0.00     0.188 C 
BRANCH  28  29
ATOM     29  O   UNL A   1      35.319  33.710  27.890  1.00  0.00    -0.376 OA
BRANCH  29  30
ATOM     30  C   UNL A   1      33.909  33.543  27.923  1.00  0.00     0.202 C 
BRANCH  30  31
ATOM     31  C   UNL A   1      33.435  32.177  27.420  1.00  0.00     0.261 C 
BRANCH  31  32
ATOM     32  O   UNL A   1      33.852  31.058  28.217  1.00  0.00    -0.460 OA
BRANCH  32  33
ATOM     33  C   UNL A   1      34.381  30.001  27.561  1.00  0.00     0.338 C 
ATOM     34  O   UNL A   1      33.875  29.373  26.649  1.00  0.00    -0.246 OA
BRANCH  33  35
ATOM     35  C   UNL A   1      35.770  29.828  28.030  1.00  0.00     0.060 A 
ATOM     36  C   UNL A   1      36.821  30.017  27.126  1.00  0.00     0.016 A 
ATOM     37  C   UNL A   1      36.030  29.482  29.359  1.00  0.00     0.016 A 
ATOM     38  C   UNL A   1      38.140  29.834  27.548  1.00  0.00     0.010 A 
ATOM     39  C   UNL A   1      37.348  29.286  29.776  1.00  0.00     0.010 A 
ATOM     40  C   UNL A   1      38.409  29.439  28.867  1.00  0.00    -0.014 A 
BRANCH  40  41
ATOM     41  C   UNL A   1      39.781  29.038  29.262  1.00  0.00     0.031 A 
ATOM     42  C   UNL A   1      40.635  30.026  30.009  1.00  0.00     0.074 A 
ATOM     43  C   UNL A   1      40.267  27.822  28.957  1.00  0.00     0.049 A 
ATOM     44  N   UNL A   1      41.866  29.901  30.434  1.00  0.00    -0.248 NA
ATOM     45  C   UNL A   1      40.017  31.325  30.321  1.00  0.00     0.031 C 
ATOM     46  C   UNL A   1      39.535  26.766  28.258  1.00  0.00     0.029 A 
ATOM     47  N   UNL A   1      41.503  27.274  29.193  1.00  0.00    -0.354 N 
ATOM     48  C   UNL A   1      42.170  31.102  31.063  1.00  0.00     0.074 A 
ATOM     49  C   UNL A   1      41.004  31.951  30.944  1.00  0.00     0.031 C 
ATOM     50  C   UNL A   1      40.342  25.700  28.112  1.00  0.00     0.029 A 
ATOM     51  C   UNL A   1      41.653  26.006  28.685  1.00  0.00     0.049 A 
ATOM     52  H   UNL A   1      42.217  27.746  29.681  1.00  0.00     0.167 HD
ATOM     53  C   UNL A   1      43.315  31.467  31.688  1.00  0.00     0.031 A 
ATOM     54  C   UNL A   1      42.728  25.193  28.668  1.00  0.00     0.031 A 
ATOM     55  C   UNL A   1      44.487  30.640  31.780  1.00  0.00     0.049 A 
ATOM     56  C   UNL A   1      44.015  25.650  29.303  1.00  0.00     0.074 A 
ATOM     57  C   UNL A   1      45.692  30.922  32.401  1.00  0.00     0.029 A 
ATOM     58  N   UNL A   1      44.607  29.375  31.227  1.00  0.00    -0.354 N 
ATOM     59  N   UNL A   1      44.274  26.774  29.927  1.00  0.00    -0.248 NA
ATOM     60  C   UNL A   1      45.156  24.722  29.238  1.00  0.00     0.031 C 
ATOM     61  C   UNL A   1      46.556  29.844  32.183  1.00  0.00     0.029 A 
ATOM     62  C   UNL A   1      45.873  28.872  31.470  1.00  0.00     0.049 A 
ATOM     63  H   UNL A   1      43.896  28.905  30.735  1.00  0.00     0.167 HD
ATOM     64  C   UNL A   1      45.598  26.679  30.349  1.00  0.00     0.074 A 
ATOM     65  C   UNL A   1      46.082  25.384  29.918  1.00  0.00     0.031 C 
ATOM     66  C   UNL A   1      46.342  27.581  31.035  1.00  0.00     0.031 A 
BRANCH  53  67
ATOM     67  C   UNL A   1      43.357  32.843  32.292  1.00  0.00    -0.014 A 
ATOM     68  C   UNL A   1      43.772  33.953  31.535  1.00  0.00     0.010 A 
ATOM     69  C   UNL A   1      42.960  33.031  33.627  1.00  0.00     0.010 A 
ATOM     70  C   UNL A   1      43.830  35.222  32.116  1.00  0.00     0.020 A 
ATOM     71  C   UNL A   1      42.996  34.303  34.206  1.00  0.00     0.020 A 
ATOM     72  C   UNL A   1      43.448  35.388  33.451  1.00  0.00     0.054 A 
BRANCH  72  73
ATOM     73  S   UNL A   1      43.526  37.045  34.181  1.00  0.00     0.124 S 
ATOM     74  O   UNL A   1      42.110  37.386  34.301  1.00  0.00    -0.237 OA
ATOM     75  O   UNL A   1      44.222  36.810  35.444  1.00  0.00    -0.237 OA
ATOM     76  O   UNL A   1      44.274  37.824  33.197  1.00  0.00    -0.744 OA
ENDBRANCH  72  73
ENDBRANCH  53  67
BRANCH  54  77
ATOM     77  C   UNL A   1      42.644  23.861  28.009  1.00  0.00    -0.014 A 
ATOM     78  C   UNL A   1      42.979  23.709  26.652  1.00  0.00     0.010 A 
ATOM     79  C   UNL A   1      42.218  22.736  28.739  1.00  0.00     0.010 A 
ATOM     80  C   UNL A   1      42.873  22.460  26.033  1.00  0.00     0.020 A 
ATOM     81  C   UNL A   1      42.134  21.481  28.128  1.00  0.00     0.020 A 
ATOM     82  C   UNL A   1      42.451  21.354  26.776  1.00  0.00     0.054 A 
BRANCH  82  83
ATOM     83  S   UNL A   1      42.365  19.732  25.964  1.00  0.00     0.124 S 
ATOM     84  O   UNL A   1      43.413  19.844  24.954  1.00  0.00    -0.237 OA
ATOM     85  O   UNL A   1      42.642  18.811  27.063  1.00  0.00    -0.237 OA
ATOM     86  O   UNL A   1      40.999  19.682  25.448  1.00  0.00    -0.744 OA
ENDBRANCH  82  83
ENDBRANCH  54  77
BRANCH  66  87
ATOM     87  C   UNL A   1      47.751  27.193  31.395  1.00  0.00    -0.014 A 
ATOM     88  C   UNL A   1      48.837  27.556  30.580  1.00  0.00     0.010 A 
ATOM     89  C   UNL A   1      47.996  26.508  32.599  1.00  0.00     0.010 A 
ATOM     90  C   UNL A   1      50.142  27.221  30.951  1.00  0.00     0.020 A 
ATOM     91  C   UNL A   1      49.301  26.190  32.985  1.00  0.00     0.020 A 
ATOM     92  C   UNL A   1      50.365  26.538  32.151  1.00  0.00     0.054 A 
BRANCH  92  93
ATOM     93  S   UNL A   1      52.072  26.155  32.640  1.00  0.00     0.124 S 
ATOM     94  O   UNL A   1      51.874  25.460  33.909  1.00  0.00    -0.237 OA
ATOM     95  O   UNL A   1      52.545  25.326  31.535  1.00  0.00    -0.237 OA
ATOM     96  O   UNL A   1      52.705  27.469  32.739  1.00  0.00    -0.744 OA
ENDBRANCH  92  93
ENDBRANCH  66  87
ENDBRANCH  40  41
ENDBRANCH  33  35
ENDBRANCH  32  33
ENDBRANCH  31  32
ENDBRANCH  30  31
ENDBRANCH  29  30
ENDBRANCH  28  29
ENDBRANCH   1  28
TORSDOF 24
ENDMDL
