MODEL 1
REMARK VINA RESULT:     -10.4      0.000      0.000
REMARK SMILES C[C@@H]1CC[C@H](C)[N@H+]1Cc1cc2c(cc1Cl)C=C(C(=O)OCCOCCOCCOC(=O)c1ccc(-c3c4nc(c(-c5ccc(S(=O)(=O)[O-])cc5)c5ccc([nH]5)c(-c5ccc(S(=O)(=O)[O-])cc5)c5nc(c(-c6ccc(S(=O)(=O)[O-])cc6)c6ccc3[nH]6)C=C5)C=C4)cc1)[C@@H](C(F)(F)F)O2
REMARK SMILES IDX 25 1 24 2 23 3 22 4 21 5 20 6 18 7 19 8 17 9 9 10 10 11
REMARK SMILES IDX 14 12 11 13 13 14 15 15 12 16 97 17 16 18 92 19 8 20 7 21
REMARK SMILES IDX 6 22 5 23 4 24 3 25 2 26 1 28 93 29 94 30 95 31 96 32 26 33
REMARK SMILES IDX 27 34 28 35 29 36 30 37 31 38 32 39 33 40 91 41 34 42 90 43
REMARK SMILES IDX 35 44 36 45 37 46 84 47 38 48 89 49 83 50 85 51 39 52 88 53
REMARK SMILES IDX 82 54 81 55 40 57 70 58 51 59 69 60 52 61 55 62 68 63 86 64
REMARK SMILES IDX 53 65 54 66 67 68 87 69 56 70 41 71 42 72 50 73 43 74 49 75
REMARK SMILES IDX 44 76 45 77 46 78 47 79 48 80 71 81 72 82 80 83 73 84 79 85
REMARK SMILES IDX 74 86 75 87 76 88 77 89 78 90 57 91 58 92 66 93 59 94 65 95
REMARK SMILES IDX 60 96 61 97 62 98 63 99 64 100
REMARK H PARENT 7 27 85 56 55 67
REMARK Flexibility Score: inf
ROOT
ATOM      1  C   UNL A   1      36.493  33.422  28.401  1.00  0.00     0.188 C 
ENDROOT
BRANCH   1   2
ATOM      2  C   UNL A   1      35.118  32.854  27.984  1.00  0.00     0.188 C 
BRANCH   2   3
ATOM      3  O   UNL A   1      35.197  31.523  27.515  1.00  0.00    -0.376 OA
BRANCH   3   4
ATOM      4  C   UNL A   1      34.039  30.713  27.624  1.00  0.00     0.202 C 
BRANCH   4   5
ATOM      5  C   UNL A   1      33.180  30.457  26.372  1.00  0.00     0.261 C 
BRANCH   5   6
ATOM      6  O   UNL A   1      32.104  29.519  26.525  1.00  0.00    -0.460 OA
BRANCH   6   7
ATOM      7  C   UNL A   1      31.339  29.294  25.437  1.00  0.00     0.338 C 
ATOM      8  O   UNL A   1      30.787  30.143  24.756  1.00  0.00    -0.246 OA
BRANCH   7   9
ATOM      9  C   UNL A   1      31.373  27.854  25.102  1.00  0.00     0.087 C 
ATOM     10  C   UNL A   1      31.937  22.844  25.282  1.00  0.00     0.029 A 
ATOM     11  C   UNL A   1      31.618  23.767  24.256  1.00  0.00     0.058 A 
ATOM     12  C   UNL A   1      32.091  23.355  26.583  1.00  0.00     0.050 A 
ATOM     13  C   UNL A   1      31.460  25.135  24.526  1.00  0.00     0.128 A 
ATOM     14  C   UNL A   1      31.826  24.699  26.865  1.00  0.00     0.033 A 
ATOM     15  Cl  UNL A   1      32.765  22.444  27.890  1.00  0.00    -0.084 Cl
ATOM     16  C   UNL A   1      31.531  25.593  25.838  1.00  0.00     0.019 A 
ATOM     17  O   UNL A   1      31.244  25.966  23.460  1.00  0.00    -0.475 OA
ATOM     18  C   UNL A   1      31.386  27.005  26.136  1.00  0.00     0.027 C 
ATOM     19  C   UNL A   1      31.407  27.405  23.663  1.00  0.00     0.316 C 
BRANCH  10  20
ATOM     20  C   UNL A   1      32.173  21.385  24.920  1.00  0.00     0.301 C 
BRANCH  20  21
ATOM     21  N   UNL A   1      33.508  20.984  24.454  1.00  0.00    -0.327 N 
ATOM     22  C   UNL A   1      33.616  18.617  23.760  1.00  0.00     0.075 C 
ATOM     23  C   UNL A   1      33.972  19.643  24.829  1.00  0.00     0.181 C 
ATOM     24  C   UNL A   1      35.486  19.776  24.985  1.00  0.00     0.071 C 
ATOM     25  C   UNL A   1      35.653  21.206  25.450  1.00  0.00     0.071 C 
ATOM     26  C   UNL A   1      34.589  21.955  24.660  1.00  0.00     0.181 C 
ATOM     27  H   UNL A   1      33.305  20.956  23.455  1.00  0.00     0.348 HD
ATOM     28  C   UNL A   1      35.104  22.437  23.303  1.00  0.00     0.075 C 
ENDBRANCH  20  21
ENDBRANCH  10  20
BRANCH  19  29
ATOM     29  C   UNL A   1      32.678  27.897  22.956  1.00  0.00     0.430 C 
ATOM     30  F   UNL A   1      33.012  27.092  21.918  1.00  0.00    -0.167 F 
ATOM     31  F   UNL A   1      32.505  29.139  22.439  1.00  0.00    -0.167 F 
ATOM     32  F   UNL A   1      33.742  27.950  23.786  1.00  0.00    -0.167 F 
ENDBRANCH  19  29
ENDBRANCH   7   9
ENDBRANCH   6   7
ENDBRANCH   5   6
ENDBRANCH   4   5
ENDBRANCH   3   4
ENDBRANCH   2   3
ENDBRANCH   1   2
BRANCH   1  33
ATOM     33  O   UNL A   1      36.762  33.681  29.774  1.00  0.00    -0.376 OA
BRANCH  33  34
ATOM     34  C   UNL A   1      35.677  33.710  30.696  1.00  0.00     0.202 C 
BRANCH  34  35
ATOM     35  C   UNL A   1      34.938  32.404  31.029  1.00  0.00     0.261 C 
BRANCH  35  36
ATOM     36  O   UNL A   1      35.725  31.210  30.900  1.00  0.00    -0.460 OA
BRANCH  36  37
ATOM     37  C   UNL A   1      36.674  31.028  31.856  1.00  0.00     0.338 C 
ATOM     38  O   UNL A   1      36.529  31.122  33.062  1.00  0.00    -0.246 OA
BRANCH  37  39
ATOM     39  C   UNL A   1      37.896  30.479  31.230  1.00  0.00     0.060 A 
ATOM     40  C   UNL A   1      38.063  30.481  29.845  1.00  0.00     0.016 A 
ATOM     41  C   UNL A   1      38.898  29.963  32.065  1.00  0.00     0.016 A 
ATOM     42  C   UNL A   1      39.254  29.992  29.299  1.00  0.00     0.010 A 
ATOM     43  C   UNL A   1      40.078  29.459  31.516  1.00  0.00     0.010 A 
ATOM     44  C   UNL A   1      40.275  29.493  30.130  1.00  0.00    -0.014 A 
BRANCH  44  45
ATOM     45  C   UNL A   1      41.613  29.197  29.561  1.00  0.00     0.031 A 
ATOM     46  C   UNL A   1      42.727  30.198  29.574  1.00  0.00     0.074 A 
ATOM     47  C   UNL A   1      41.805  27.979  29.019  1.00  0.00     0.049 A 
ATOM     48  N   UNL A   1      43.976  30.028  29.224  1.00  0.00    -0.248 NA
ATOM     49  C   UNL A   1      42.406  31.558  30.028  1.00  0.00     0.031 C 
ATOM     50  C   UNL A   1      40.779  26.938  28.925  1.00  0.00     0.029 A 
ATOM     51  N   UNL A   1      42.919  27.401  28.464  1.00  0.00    -0.354 N 
ATOM     52  C   UNL A   1      44.604  31.246  29.446  1.00  0.00     0.074 A 
ATOM     53  C   UNL A   1      43.583  32.164  29.910  1.00  0.00     0.031 C 
ATOM     54  C   UNL A   1      41.319  25.839  28.383  1.00  0.00     0.029 A 
ATOM     55  C   UNL A   1      42.722  26.100  28.068  1.00  0.00     0.049 A 
ATOM     56  H   UNL A   1      43.776  27.874  28.359  1.00  0.00     0.167 HD
ATOM     57  C   UNL A   1      45.914  31.555  29.295  1.00  0.00     0.031 A 
ATOM     58  C   UNL A   1      43.573  25.204  27.529  1.00  0.00     0.031 A 
ATOM     59  C   UNL A   1      46.913  30.634  28.807  1.00  0.00     0.049 A 
ATOM     60  C   UNL A   1      45.012  25.584  27.333  1.00  0.00     0.074 A 
ATOM     61  C   UNL A   1      48.275  30.846  28.667  1.00  0.00     0.029 A 
ATOM     62  N   UNL A   1      46.667  29.341  28.369  1.00  0.00    -0.354 N 
ATOM     63  N   UNL A   1      45.609  26.711  27.636  1.00  0.00    -0.248 NA
ATOM     64  C   UNL A   1      45.897  24.572  26.741  1.00  0.00     0.031 C 
ATOM     65  C   UNL A   1      48.837  29.714  28.076  1.00  0.00     0.029 A 
ATOM     66  C   UNL A   1      47.843  28.760  27.921  1.00  0.00     0.049 A 
ATOM     67  H   UNL A   1      45.787  28.900  28.375  1.00  0.00     0.167 HD
ATOM     68  C   UNL A   1      46.944  26.540  27.287  1.00  0.00     0.074 A 
ATOM     69  C   UNL A   1      47.070  25.193  26.768  1.00  0.00     0.031 C 
ATOM     70  C   UNL A   1      47.967  27.422  27.391  1.00  0.00     0.031 A 
BRANCH  57  71
ATOM     71  C   UNL A   1      46.379  32.937  29.681  1.00  0.00    -0.014 A 
ATOM     72  C   UNL A   1      46.450  33.305  31.039  1.00  0.00     0.010 A 
ATOM     73  C   UNL A   1      46.591  33.919  28.697  1.00  0.00     0.010 A 
ATOM     74  C   UNL A   1      46.686  34.634  31.403  1.00  0.00     0.020 A 
ATOM     75  C   UNL A   1      46.854  35.244  29.057  1.00  0.00     0.020 A 
ATOM     76  C   UNL A   1      46.875  35.598  30.409  1.00  0.00     0.054 A 
BRANCH  76  77
ATOM     77  S   UNL A   1      47.135  37.326  30.899  1.00  0.00     0.124 S 
ATOM     78  O   UNL A   1      47.630  37.189  32.265  1.00  0.00    -0.237 OA
ATOM     79  O   UNL A   1      48.111  37.792  29.916  1.00  0.00    -0.237 OA
ATOM     80  O   UNL A   1      45.806  37.921  30.772  1.00  0.00    -0.744 OA
ENDBRANCH  76  77
ENDBRANCH  57  71
BRANCH  58  81
ATOM     81  C   UNL A   1      43.069  23.841  27.209  1.00  0.00    -0.014 A 
ATOM     82  C   UNL A   1      43.024  22.847  28.206  1.00  0.00     0.010 A 
ATOM     83  C   UNL A   1      42.737  23.499  25.888  1.00  0.00     0.010 A 
ATOM     84  C   UNL A   1      42.720  21.525  27.876  1.00  0.00     0.020 A 
ATOM     85  C   UNL A   1      42.401  22.182  25.559  1.00  0.00     0.020 A 
ATOM     86  C   UNL A   1      42.427  21.198  26.550  1.00  0.00     0.054 A 
BRANCH  86  87
ATOM     87  S   UNL A   1      42.105  19.462  26.132  1.00  0.00     0.124 S 
ATOM     88  O   UNL A   1      42.932  19.284  24.941  1.00  0.00    -0.237 OA
ATOM     89  O   UNL A   1      42.562  18.757  27.327  1.00  0.00    -0.237 OA
ATOM     90  O   UNL A   1      40.664  19.428  25.903  1.00  0.00    -0.744 OA
ENDBRANCH  86  87
ENDBRANCH  58  81
BRANCH  70  91
ATOM     91  C   UNL A   1      49.334  26.990  26.923  1.00  0.00    -0.014 A 
ATOM     92  C   UNL A   1      49.875  27.533  25.741  1.00  0.00     0.010 A 
ATOM     93  C   UNL A   1      50.023  25.951  27.574  1.00  0.00     0.010 A 
ATOM     94  C   UNL A   1      51.053  27.016  25.196  1.00  0.00     0.020 A 
ATOM     95  C   UNL A   1      51.219  25.453  27.048  1.00  0.00     0.020 A 
ATOM     96  C   UNL A   1      51.711  25.970  25.847  1.00  0.00     0.054 A 
BRANCH  96  97
ATOM     97  S   UNL A   1      53.213  25.280  25.098  1.00  0.00     0.124 S 
ATOM     98  O   UNL A   1      53.043  23.849  25.330  1.00  0.00    -0.237 OA
ATOM     99  O   UNL A   1      53.104  25.709  23.705  1.00  0.00    -0.237 OA
ATOM    100  O   UNL A   1      54.293  25.911  25.853  1.00  0.00    -0.744 OA
ENDBRANCH  96  97
ENDBRANCH  70  91
ENDBRANCH  44  45
ENDBRANCH  37  39
ENDBRANCH  36  37
ENDBRANCH  35  36
ENDBRANCH  34  35
ENDBRANCH  33  34
ENDBRANCH   1  33
TORSDOF 23
ENDMDL
MODEL 2
REMARK VINA RESULT:      -8.9      7.994     12.029
REMARK SMILES C[C@@H]1CC[C@H](C)[N@H+]1Cc1cc2c(cc1Cl)C=C(C(=O)OCCOCCOCCOC(=O)c1ccc(-c3c4nc(c(-c5ccc(S(=O)(=O)[O-])cc5)c5ccc([nH]5)c(-c5ccc(S(=O)(=O)[O-])cc5)c5nc(c(-c6ccc(S(=O)(=O)[O-])cc6)c6ccc3[nH]6)C=C5)C=C4)cc1)[C@@H](C(F)(F)F)O2
REMARK SMILES IDX 25 1 24 2 23 3 22 4 21 5 20 6 18 7 19 8 17 9 9 10 10 11
REMARK SMILES IDX 14 12 11 13 13 14 15 15 12 16 97 17 16 18 92 19 8 20 7 21
REMARK SMILES IDX 6 22 5 23 4 24 3 25 2 26 1 28 93 29 94 30 95 31 96 32 26 33
REMARK SMILES IDX 27 34 28 35 29 36 30 37 31 38 32 39 33 40 91 41 34 42 90 43
REMARK SMILES IDX 35 44 36 45 37 46 84 47 38 48 89 49 83 50 85 51 39 52 88 53
REMARK SMILES IDX 82 54 81 55 40 57 70 58 51 59 69 60 52 61 55 62 68 63 86 64
REMARK SMILES IDX 53 65 54 66 67 68 87 69 56 70 41 71 42 72 50 73 43 74 49 75
REMARK SMILES IDX 44 76 45 77 46 78 47 79 48 80 71 81 72 82 80 83 73 84 79 85
REMARK SMILES IDX 74 86 75 87 76 88 77 89 78 90 57 91 58 92 66 93 59 94 65 95
REMARK SMILES IDX 60 96 61 97 62 98 63 99 64 100
REMARK H PARENT 7 27 85 56 55 67
REMARK Flexibility Score: inf
ROOT
ATOM      1  C   UNL A   1      36.346  31.968  28.040  1.00  0.00     0.188 C 
ENDROOT
BRANCH   1   2
ATOM      2  C   UNL A   1      34.804  32.041  28.081  1.00  0.00     0.188 C 
BRANCH   2   3
ATOM      3  O   UNL A   1      34.187  30.938  27.446  1.00  0.00    -0.376 OA
BRANCH   3   4
ATOM      4  C   UNL A   1      32.830  31.070  27.062  1.00  0.00     0.202 C 
BRANCH   4   5
ATOM      5  C   UNL A   1      32.269  30.151  25.961  1.00  0.00     0.261 C 
BRANCH   5   6
ATOM      6  O   UNL A   1      33.169  29.158  25.447  1.00  0.00    -0.460 OA
BRANCH   6   7
ATOM      7  C   UNL A   1      32.734  28.435  24.395  1.00  0.00     0.338 C 
ATOM      8  O   UNL A   1      32.583  28.842  23.253  1.00  0.00    -0.246 OA
BRANCH   7   9
ATOM      9  C   UNL A   1      32.588  27.020  24.796  1.00  0.00     0.087 C 
ATOM     10  C   UNL A   1      33.385  22.109  25.636  1.00  0.00     0.029 A 
ATOM     11  C   UNL A   1      32.269  22.969  25.782  1.00  0.00     0.058 A 
ATOM     12  C   UNL A   1      34.597  22.691  25.222  1.00  0.00     0.050 A 
ATOM     13  C   UNL A   1      32.367  24.345  25.525  1.00  0.00     0.128 A 
ATOM     14  C   UNL A   1      34.716  24.076  25.074  1.00  0.00     0.033 A 
ATOM     15  Cl  UNL A   1      35.967  21.771  24.707  1.00  0.00    -0.084 Cl
ATOM     16  C   UNL A   1      33.601  24.902  25.205  1.00  0.00     0.019 A 
ATOM     17  O   UNL A   1      31.217  25.083  25.602  1.00  0.00    -0.475 OA
ATOM     18  C   UNL A   1      33.721  26.319  24.921  1.00  0.00     0.027 C 
ATOM     19  C   UNL A   1      31.221  26.427  25.025  1.00  0.00     0.316 C 
BRANCH  10  20
ATOM     20  C   UNL A   1      33.203  20.614  25.852  1.00  0.00     0.301 C 
BRANCH  20  21
ATOM     21  N   UNL A   1      33.361  19.714  24.700  1.00  0.00    -0.327 N 
ATOM     22  C   UNL A   1      32.337  20.601  22.637  1.00  0.00     0.075 C 
ATOM     23  C   UNL A   1      32.223  19.600  23.780  1.00  0.00     0.181 C 
ATOM     24  C   UNL A   1      32.273  18.163  23.265  1.00  0.00     0.071 C 
ATOM     25  C   UNL A   1      32.869  17.406  24.431  1.00  0.00     0.071 C 
ATOM     26  C   UNL A   1      33.900  18.379  24.985  1.00  0.00     0.181 C 
ATOM     27  H   UNL A   1      34.084  20.240  24.209  1.00  0.00     0.348 HD
ATOM     28  C   UNL A   1      35.265  18.227  24.312  1.00  0.00     0.075 C 
ENDBRANCH  20  21
ENDBRANCH  10  20
BRANCH  19  29
ATOM     29  C   UNL A   1      30.379  26.453  23.742  1.00  0.00     0.430 C 
ATOM     30  F   UNL A   1      31.137  26.209  22.645  1.00  0.00    -0.167 F 
ATOM     31  F   UNL A   1      29.416  25.500  23.764  1.00  0.00    -0.167 F 
ATOM     32  F   UNL A   1      29.766  27.642  23.552  1.00  0.00    -0.167 F 
ENDBRANCH  19  29
ENDBRANCH   7   9
ENDBRANCH   6   7
ENDBRANCH   5   6
ENDBRANCH   4   5
ENDBRANCH   3   4
ENDBRANCH   2   3
ENDBRANCH   1   2
BRANCH   1  33
ATOM     33  O   UNL A   1      37.078  31.812  29.251  1.00  0.00    -0.376 OA
BRANCH  33  34
ATOM     34  C   UNL A   1      37.370  32.965  30.034  1.00  0.00     0.202 C 
BRANCH  34  35
ATOM     35  C   UNL A   1      36.228  33.685  30.769  1.00  0.00     0.261 C 
BRANCH  35  36
ATOM     36  O   UNL A   1      35.279  32.819  31.412  1.00  0.00    -0.460 OA
BRANCH  36  37
ATOM     37  C   UNL A   1      34.848  33.228  32.635  1.00  0.00     0.338 C 
ATOM     38  O   UNL A   1      33.699  33.459  32.969  1.00  0.00    -0.246 OA
BRANCH  37  39
ATOM     39  C   UNL A   1      35.968  33.152  33.596  1.00  0.00     0.060 A 
ATOM     40  C   UNL A   1      36.395  34.278  34.301  1.00  0.00     0.016 A 
ATOM     41  C   UNL A   1      36.592  31.911  33.797  1.00  0.00     0.016 A 
ATOM     42  C   UNL A   1      37.429  34.151  35.233  1.00  0.00     0.010 A 
ATOM     43  C   UNL A   1      37.637  31.791  34.715  1.00  0.00     0.010 A 
ATOM     44  C   UNL A   1      38.046  32.905  35.458  1.00  0.00    -0.014 A 
BRANCH  44  45
ATOM     45  C   UNL A   1      38.972  32.736  36.604  1.00  0.00     0.031 A 
ATOM     46  C   UNL A   1      38.494  32.718  38.024  1.00  0.00     0.074 A 
ATOM     47  C   UNL A   1      40.284  32.596  36.332  1.00  0.00     0.049 A 
ATOM     48  N   UNL A   1      39.176  32.454  39.108  1.00  0.00    -0.248 NA
ATOM     49  C   UNL A   1      37.080  33.038  38.262  1.00  0.00     0.031 C 
ATOM     50  C   UNL A   1      40.863  32.630  34.986  1.00  0.00     0.029 A 
ATOM     51  N   UNL A   1      41.361  32.382  37.154  1.00  0.00    -0.354 N 
ATOM     52  C   UNL A   1      38.273  32.542  40.159  1.00  0.00     0.074 A 
ATOM     53  C   UNL A   1      37.002  32.937  39.585  1.00  0.00     0.031 C 
ATOM     54  C   UNL A   1      42.181  32.406  35.072  1.00  0.00     0.029 A 
ATOM     55  C   UNL A   1      42.548  32.237  36.477  1.00  0.00     0.049 A 
ATOM     56  H   UNL A   1      41.290  32.338  38.135  1.00  0.00     0.167 HD
ATOM     57  C   UNL A   1      38.488  32.292  41.472  1.00  0.00     0.031 A 
ATOM     58  C   UNL A   1      43.793  31.977  36.924  1.00  0.00     0.031 A 
ATOM     59  C   UNL A   1      39.767  31.924  42.030  1.00  0.00     0.049 A 
ATOM     60  C   UNL A   1      44.012  31.745  38.391  1.00  0.00     0.074 A 
ATOM     61  C   UNL A   1      40.067  31.605  43.344  1.00  0.00     0.029 A 
ATOM     62  N   UNL A   1      40.956  31.835  41.320  1.00  0.00    -0.354 N 
ATOM     63  N   UNL A   1      43.128  31.740  39.360  1.00  0.00    -0.248 NA
ATOM     64  C   UNL A   1      45.387  31.467  38.827  1.00  0.00     0.031 C 
ATOM     65  C   UNL A   1      41.444  31.399  43.443  1.00  0.00     0.029 A 
ATOM     66  C   UNL A   1      41.996  31.508  42.177  1.00  0.00     0.049 A 
ATOM     67  H   UNL A   1      41.048  31.983  40.352  1.00  0.00     0.167 HD
ATOM     68  C   UNL A   1      43.836  31.442  40.519  1.00  0.00     0.074 A 
ATOM     69  C   UNL A   1      45.219  31.255  40.126  1.00  0.00     0.031 C 
ATOM     70  C   UNL A   1      43.377  31.335  41.788  1.00  0.00     0.031 A 
BRANCH  57  71
ATOM     71  C   UNL A   1      37.319  32.377  42.423  1.00  0.00    -0.014 A 
ATOM     72  C   UNL A   1      36.477  31.263  42.608  1.00  0.00     0.010 A 
ATOM     73  C   UNL A   1      36.963  33.605  43.008  1.00  0.00     0.010 A 
ATOM     74  C   UNL A   1      35.284  31.386  43.327  1.00  0.00     0.020 A 
ATOM     75  C   UNL A   1      35.785  33.726  43.751  1.00  0.00     0.020 A 
ATOM     76  C   UNL A   1      34.940  32.621  43.884  1.00  0.00     0.054 A 
BRANCH  76  77
ATOM     77  S   UNL A   1      33.366  32.774  44.775  1.00  0.00     0.124 S 
ATOM     78  O   UNL A   1      32.458  33.225  43.725  1.00  0.00    -0.237 OA
ATOM     79  O   UNL A   1      33.144  31.415  45.263  1.00  0.00    -0.237 OA
ATOM     80  O   UNL A   1      33.657  33.757  45.816  1.00  0.00    -0.744 OA
ENDBRANCH  76  77
ENDBRANCH  57  71
BRANCH  58  81
ATOM     81  C   UNL A   1      44.899  31.861  35.935  1.00  0.00    -0.014 A 
ATOM     82  C   UNL A   1      45.613  33.004  35.528  1.00  0.00     0.010 A 
ATOM     83  C   UNL A   1      45.169  30.630  35.315  1.00  0.00     0.010 A 
ATOM     84  C   UNL A   1      46.528  32.932  34.478  1.00  0.00     0.020 A 
ATOM     85  C   UNL A   1      46.108  30.547  34.283  1.00  0.00     0.020 A 
ATOM     86  C   UNL A   1      46.757  31.705  33.849  1.00  0.00     0.054 A 
BRANCH  86  87
ATOM     87  S   UNL A   1      47.897  31.648  32.439  1.00  0.00     0.124 S 
ATOM     88  O   UNL A   1      47.002  31.276  31.346  1.00  0.00    -0.237 OA
ATOM     89  O   UNL A   1      48.413  33.014  32.392  1.00  0.00    -0.237 OA
ATOM     90  O   UNL A   1      48.869  30.630  32.826  1.00  0.00    -0.744 OA
ENDBRANCH  86  87
ENDBRANCH  58  81
BRANCH  70  91
ATOM     91  C   UNL A   1      44.365  31.014  42.881  1.00  0.00    -0.014 A 
ATOM     92  C   UNL A   1      44.608  29.672  43.234  1.00  0.00     0.010 A 
ATOM     93  C   UNL A   1      44.948  32.038  43.649  1.00  0.00     0.010 A 
ATOM     94  C   UNL A   1      45.379  29.361  44.358  1.00  0.00     0.020 A 
ATOM     95  C   UNL A   1      45.745  31.730  44.756  1.00  0.00     0.020 A 
ATOM     96  C   UNL A   1      45.931  30.393  45.120  1.00  0.00     0.054 A 
BRANCH  96  97
ATOM     97  S   UNL A   1      46.887  29.971  46.603  1.00  0.00     0.124 S 
ATOM     98  O   UNL A   1      48.217  30.465  46.262  1.00  0.00    -0.237 OA
ATOM     99  O   UNL A   1      46.191  30.710  47.654  1.00  0.00    -0.237 OA
ATOM    100  O   UNL A   1      46.763  28.518  46.689  1.00  0.00    -0.744 OA
ENDBRANCH  96  97
ENDBRANCH  70  91
ENDBRANCH  44  45
ENDBRANCH  37  39
ENDBRANCH  36  37
ENDBRANCH  35  36
ENDBRANCH  34  35
ENDBRANCH  33  34
ENDBRANCH   1  33
TORSDOF 23
ENDMDL
MODEL 3
REMARK VINA RESULT:      -8.9      7.179      9.035
REMARK SMILES C[C@@H]1CC[C@H](C)[N@H+]1Cc1cc2c(cc1Cl)C=C(C(=O)OCCOCCOCCOC(=O)c1ccc(-c3c4nc(c(-c5ccc(S(=O)(=O)[O-])cc5)c5ccc([nH]5)c(-c5ccc(S(=O)(=O)[O-])cc5)c5nc(c(-c6ccc(S(=O)(=O)[O-])cc6)c6ccc3[nH]6)C=C5)C=C4)cc1)[C@@H](C(F)(F)F)O2
REMARK SMILES IDX 25 1 24 2 23 3 22 4 21 5 20 6 18 7 19 8 17 9 9 10 10 11
REMARK SMILES IDX 14 12 11 13 13 14 15 15 12 16 97 17 16 18 92 19 8 20 7 21
REMARK SMILES IDX 6 22 5 23 4 24 3 25 2 26 1 28 93 29 94 30 95 31 96 32 26 33
REMARK SMILES IDX 27 34 28 35 29 36 30 37 31 38 32 39 33 40 91 41 34 42 90 43
REMARK SMILES IDX 35 44 36 45 37 46 84 47 38 48 89 49 83 50 85 51 39 52 88 53
REMARK SMILES IDX 82 54 81 55 40 57 70 58 51 59 69 60 52 61 55 62 68 63 86 64
REMARK SMILES IDX 53 65 54 66 67 68 87 69 56 70 41 71 42 72 50 73 43 74 49 75
REMARK SMILES IDX 44 76 45 77 46 78 47 79 48 80 71 81 72 82 80 83 73 84 79 85
REMARK SMILES IDX 74 86 75 87 76 88 77 89 78 90 57 91 58 92 66 93 59 94 65 95
REMARK SMILES IDX 60 96 61 97 62 98 63 99 64 100
REMARK H PARENT 7 27 85 56 55 67
REMARK Flexibility Score: inf
ROOT
ATOM      1  C   UNL A   1      35.513  32.345  28.155  1.00  0.00     0.188 C 
ENDROOT
BRANCH   1   2
ATOM      2  C   UNL A   1      33.986  32.457  27.950  1.00  0.00     0.188 C 
BRANCH   2   3
ATOM      3  O   UNL A   1      33.385  31.218  27.634  1.00  0.00    -0.376 OA
BRANCH   3   4
ATOM      4  C   UNL A   1      32.186  31.237  26.879  1.00  0.00     0.202 C 
BRANCH   4   5
ATOM      5  C   UNL A   1      31.988  30.204  25.755  1.00  0.00     0.261 C 
BRANCH   5   6
ATOM      6  O   UNL A   1      33.094  29.322  25.506  1.00  0.00    -0.460 OA
BRANCH   6   7
ATOM      7  C   UNL A   1      32.998  28.524  24.423  1.00  0.00     0.338 C 
ATOM      8  O   UNL A   1      33.090  28.875  23.258  1.00  0.00    -0.246 OA
BRANCH   7   9
ATOM      9  C   UNL A   1      32.893  27.114  24.859  1.00  0.00     0.087 C 
ATOM     10  C   UNL A   1      33.749  22.205  25.644  1.00  0.00     0.029 A 
ATOM     11  C   UNL A   1      32.671  23.079  25.930  1.00  0.00     0.058 A 
ATOM     12  C   UNL A   1      34.898  22.767  25.062  1.00  0.00     0.050 A 
ATOM     13  C   UNL A   1      32.747  24.450  25.645  1.00  0.00     0.128 A 
ATOM     14  C   UNL A   1      35.010  24.150  24.881  1.00  0.00     0.033 A 
ATOM     15  Cl  UNL A   1      36.176  21.826  24.376  1.00  0.00    -0.084 Cl
ATOM     16  C   UNL A   1      33.932  24.989  25.152  1.00  0.00     0.019 A 
ATOM     17  O   UNL A   1      31.626  25.203  25.868  1.00  0.00    -0.475 OA
ATOM     18  C   UNL A   1      34.026  26.402  24.837  1.00  0.00     0.027 C 
ATOM     19  C   UNL A   1      31.564  26.541  25.280  1.00  0.00     0.316 C 
BRANCH  10  20
ATOM     20  C   UNL A   1      33.583  20.714  25.901  1.00  0.00     0.301 C 
BRANCH  20  21
ATOM     21  N   UNL A   1      33.533  19.803  24.748  1.00  0.00    -0.327 N 
ATOM     22  C   UNL A   1      32.534  20.842  22.744  1.00  0.00     0.075 C 
ATOM     23  C   UNL A   1      32.338  19.866  23.898  1.00  0.00     0.181 C 
ATOM     24  C   UNL A   1      32.138  18.440  23.390  1.00  0.00     0.071 C 
ATOM     25  C   UNL A   1      32.681  17.598  24.523  1.00  0.00     0.071 C 
ATOM     26  C   UNL A   1      33.878  18.401  25.009  1.00  0.00     0.181 C 
ATOM     27  H   UNL A   1      34.297  20.215  24.212  1.00  0.00     0.348 HD
ATOM     28  C   UNL A   1      35.162  18.046  24.257  1.00  0.00     0.075 C 
ENDBRANCH  20  21
ENDBRANCH  10  20
BRANCH  19  29
ATOM     29  C   UNL A   1      30.556  26.562  24.123  1.00  0.00     0.430 C 
ATOM     30  F   UNL A   1      31.152  26.279  22.939  1.00  0.00    -0.167 F 
ATOM     31  F   UNL A   1      29.585  25.632  24.297  1.00  0.00    -0.167 F 
ATOM     32  F   UNL A   1      29.947  27.762  23.992  1.00  0.00    -0.167 F 
ENDBRANCH  19  29
ENDBRANCH   7   9
ENDBRANCH   6   7
ENDBRANCH   5   6
ENDBRANCH   4   5
ENDBRANCH   3   4
ENDBRANCH   2   3
ENDBRANCH   1   2
BRANCH   1  33
ATOM     33  O   UNL A   1      36.068  32.546  29.450  1.00  0.00    -0.376 OA
BRANCH  33  34
ATOM     34  C   UNL A   1      35.944  31.512  30.421  1.00  0.00     0.202 C 
BRANCH  34  35
ATOM     35  C   UNL A   1      36.572  30.137  30.142  1.00  0.00     0.261 C 
BRANCH  35  36
ATOM     36  O   UNL A   1      37.932  30.173  29.681  1.00  0.00    -0.460 OA
BRANCH  36  37
ATOM     37  C   UNL A   1      38.552  28.967  29.594  1.00  0.00     0.338 C 
ATOM     38  O   UNL A   1      38.437  28.144  28.702  1.00  0.00    -0.246 OA
BRANCH  37  39
ATOM     39  C   UNL A   1      39.578  28.870  30.654  1.00  0.00     0.060 A 
ATOM     40  C   UNL A   1      40.849  29.419  30.482  1.00  0.00     0.016 A 
ATOM     41  C   UNL A   1      39.242  28.220  31.851  1.00  0.00     0.016 A 
ATOM     42  C   UNL A   1      41.774  29.343  31.529  1.00  0.00     0.010 A 
ATOM     43  C   UNL A   1      40.173  28.129  32.886  1.00  0.00     0.010 A 
ATOM     44  C   UNL A   1      41.438  28.713  32.742  1.00  0.00    -0.014 A 
BRANCH  44  45
ATOM     45  C   UNL A   1      42.336  28.842  33.915  1.00  0.00     0.031 A 
ATOM     46  C   UNL A   1      42.220  29.973  34.891  1.00  0.00     0.074 A 
ATOM     47  C   UNL A   1      43.282  27.897  34.086  1.00  0.00     0.049 A 
ATOM     48  N   UNL A   1      42.856  30.138  36.022  1.00  0.00    -0.248 NA
ATOM     49  C   UNL A   1      41.281  31.054  34.561  1.00  0.00     0.031 C 
ATOM     50  C   UNL A   1      43.504  26.769  33.178  1.00  0.00     0.029 A 
ATOM     51  N   UNL A   1      44.214  27.719  35.075  1.00  0.00    -0.354 N 
ATOM     52  C   UNL A   1      42.374  31.324  36.560  1.00  0.00     0.074 A 
ATOM     53  C   UNL A   1      41.430  31.864  35.603  1.00  0.00     0.031 C 
ATOM     54  C   UNL A   1      44.481  25.997  33.672  1.00  0.00     0.029 A 
ATOM     55  C   UNL A   1      44.973  26.584  34.917  1.00  0.00     0.049 A 
ATOM     56  H   UNL A   1      44.330  28.345  35.827  1.00  0.00     0.167 HD
ATOM     57  C   UNL A   1      42.680  31.889  37.753  1.00  0.00     0.031 A 
ATOM     58  C   UNL A   1      45.944  26.056  35.689  1.00  0.00     0.031 A 
ATOM     59  C   UNL A   1      43.642  31.349  38.683  1.00  0.00     0.049 A 
ATOM     60  C   UNL A   1      46.293  26.725  36.987  1.00  0.00     0.074 A 
ATOM     61  C   UNL A   1      43.981  31.830  39.938  1.00  0.00     0.029 A 
ATOM     62  N   UNL A   1      44.426  30.226  38.465  1.00  0.00    -0.354 N 
ATOM     63  N   UNL A   1      45.761  27.795  37.525  1.00  0.00    -0.248 NA
ATOM     64  C   UNL A   1      47.358  26.110  37.791  1.00  0.00     0.031 C 
ATOM     65  C   UNL A   1      45.019  31.045  40.443  1.00  0.00     0.029 A 
ATOM     66  C   UNL A   1      45.275  30.023  39.543  1.00  0.00     0.049 A 
ATOM     67  H   UNL A   1      44.387  29.656  37.664  1.00  0.00     0.167 HD
ATOM     68  C   UNL A   1      46.414  27.975  38.739  1.00  0.00     0.074 A 
ATOM     69  C   UNL A   1      47.368  26.890  38.864  1.00  0.00     0.031 C 
ATOM     70  C   UNL A   1      46.235  28.951  39.662  1.00  0.00     0.031 A 
BRANCH  57  71
ATOM     71  C   UNL A   1      41.959  33.151  38.160  1.00  0.00    -0.014 A 
ATOM     72  C   UNL A   1      42.541  34.408  37.911  1.00  0.00     0.010 A 
ATOM     73  C   UNL A   1      40.785  33.083  38.931  1.00  0.00     0.010 A 
ATOM     74  C   UNL A   1      41.984  35.569  38.455  1.00  0.00     0.020 A 
ATOM     75  C   UNL A   1      40.209  34.245  39.455  1.00  0.00     0.020 A 
ATOM     76  C   UNL A   1      40.828  35.478  39.235  1.00  0.00     0.054 A 
BRANCH  76  77
ATOM     77  S   UNL A   1      40.144  36.990  39.971  1.00  0.00     0.124 S 
ATOM     78  O   UNL A   1      39.359  36.465  41.083  1.00  0.00    -0.237 OA
ATOM     79  O   UNL A   1      41.345  37.735  40.340  1.00  0.00    -0.237 OA
ATOM     80  O   UNL A   1      39.369  37.580  38.881  1.00  0.00    -0.744 OA
ENDBRANCH  76  77
ENDBRANCH  57  71
BRANCH  58  81
ATOM     81  C   UNL A   1      46.588  24.786  35.259  1.00  0.00    -0.014 A 
ATOM     82  C   UNL A   1      46.008  23.546  35.589  1.00  0.00     0.010 A 
ATOM     83  C   UNL A   1      47.838  24.807  34.618  1.00  0.00     0.010 A 
ATOM     84  C   UNL A   1      46.693  22.355  35.344  1.00  0.00     0.020 A 
ATOM     85  C   UNL A   1      48.514  23.614  34.342  1.00  0.00     0.020 A 
ATOM     86  C   UNL A   1      47.951  22.398  34.737  1.00  0.00     0.054 A 
BRANCH  86  87
ATOM     87  S   UNL A   1      48.854  20.844  34.494  1.00  0.00     0.124 S 
ATOM     88  O   UNL A   1      49.420  20.616  35.821  1.00  0.00    -0.237 OA
ATOM     89  O   UNL A   1      47.796  19.920  34.094  1.00  0.00    -0.237 OA
ATOM     90  O   UNL A   1      49.821  21.170  33.449  1.00  0.00    -0.744 OA
ENDBRANCH  86  87
ENDBRANCH  58  81
BRANCH  70  91
ATOM     91  C   UNL A   1      47.092  28.927  40.903  1.00  0.00    -0.014 A 
ATOM     92  C   UNL A   1      46.636  28.260  42.057  1.00  0.00     0.010 A 
ATOM     93  C   UNL A   1      48.281  29.675  40.971  1.00  0.00     0.010 A 
ATOM     94  C   UNL A   1      47.328  28.379  43.265  1.00  0.00     0.020 A 
ATOM     95  C   UNL A   1      48.992  29.771  42.172  1.00  0.00     0.020 A 
ATOM     96  C   UNL A   1      48.495  29.145  43.318  1.00  0.00     0.054 A 
BRANCH  96  97
ATOM     97  S   UNL A   1      49.351  29.327  44.907  1.00  0.00     0.124 S 
ATOM     98  O   UNL A   1      48.939  28.122  45.618  1.00  0.00    -0.237 OA
ATOM     99  O   UNL A   1      50.757  29.375  44.510  1.00  0.00    -0.237 OA
ATOM    100  O   UNL A   1      48.821  30.580  45.441  1.00  0.00    -0.744 OA
ENDBRANCH  96  97
ENDBRANCH  70  91
ENDBRANCH  44  45
ENDBRANCH  37  39
ENDBRANCH  36  37
ENDBRANCH  35  36
ENDBRANCH  34  35
ENDBRANCH  33  34
ENDBRANCH   1  33
TORSDOF 23
ENDMDL
