MODEL 1
REMARK VINA RESULT:      -9.9      0.000      0.000
REMARK SMILES CN(Cc1ccncc1)C(=O)c1cccn1CC(=O)OCCOCCOCCOC(=O)c1ccc(-c2c3nc(c(-c4ccc(S(=O)(=O)[O-])cc4)c4ccc([nH]4)c(-c4ccc(S(=O)(=O)[O-])cc4)c4nc(c(-c5ccc(S(=O)(=O)[O-])cc5)c5ccc2[nH]5)C=C4)C=C3)cc1
REMARK SMILES IDX 24 1 23 2 22 3 21 4 20 5 18 6 19 7 17 8 16 9 12 10 13 11
REMARK SMILES IDX 14 12 15 13 10 14 11 15 2 16 1 17 3 18 4 19 5 20 9 21 6 22
REMARK SMILES IDX 8 23 7 24 25 25 26 26 27 27 28 28 29 29 30 30 31 31 32 32
REMARK SMILES IDX 33 33 91 34 34 35 90 36 35 37 36 38 37 39 84 40 38 41 89 42
REMARK SMILES IDX 83 43 85 44 39 45 88 46 82 47 81 48 40 50 70 51 51 52 69 53
REMARK SMILES IDX 52 54 55 55 68 56 86 57 53 58 54 59 67 61 87 62 56 63 41 64
REMARK SMILES IDX 42 65 50 66 43 67 49 68 44 69 45 70 46 71 47 72 48 73 71 74
REMARK SMILES IDX 72 75 80 76 73 77 79 78 74 79 75 80 76 81 77 82 78 83 57 84
REMARK SMILES IDX 58 85 66 86 59 87 65 88 60 89 61 90 62 91 63 92 64 93
REMARK H PARENT 85 49 55 60
REMARK Flexibility Score: inf
ROOT
ATOM      1  C   UNL A   1      31.354  29.266  24.508  1.00  0.00     0.188 C 
ENDROOT
BRANCH   1   2
ATOM      2  O   UNL A   1      32.037  29.178  23.256  1.00  0.00    -0.376 OA
BRANCH   2   3
ATOM      3  C   UNL A   1      32.096  27.908  22.633  1.00  0.00     0.202 C 
BRANCH   3   4
ATOM      4  C   UNL A   1      33.539  27.467  22.334  1.00  0.00     0.261 C 
BRANCH   4   5
ATOM      5  O   UNL A   1      33.647  26.271  21.522  1.00  0.00    -0.462 OA
BRANCH   5   6
ATOM      6  C   UNL A   1      33.163  25.122  22.058  1.00  0.00     0.326 C 
ATOM      7  O   UNL A   1      32.081  24.631  21.738  1.00  0.00    -0.250 OA
BRANCH   6   8
ATOM      8  C   UNL A   1      34.028  24.462  23.111  1.00  0.00     0.244 C 
BRANCH   8   9
ATOM      9  N   UNL A   1      33.519  24.322  24.481  1.00  0.00    -0.332 N 
ATOM     10  C   UNL A   1      33.422  23.158  25.251  1.00  0.00     0.107 A 
ATOM     11  C   UNL A   1      32.947  23.585  26.488  1.00  0.00     0.033 A 
ATOM     12  C   UNL A   1      32.861  24.991  26.511  1.00  0.00     0.020 A 
ATOM     13  C   UNL A   1      33.294  25.423  25.286  1.00  0.00     0.087 A 
BRANCH  10  14
ATOM     14  C   UNL A   1      33.896  21.839  24.827  1.00  0.00     0.270 C 
ATOM     15  O   UNL A   1      35.107  21.601  24.800  1.00  0.00    -0.267 OA
BRANCH  14  16
ATOM     16  N   UNL A   1      33.016  20.801  24.479  1.00  0.00    -0.336 N 
ATOM     17  C   UNL A   1      32.357  20.930  23.186  1.00  0.00     0.147 C 
BRANCH  16  18
ATOM     18  C   UNL A   1      32.564  19.713  25.345  1.00  0.00     0.155 C 
BRANCH  18  19
ATOM     19  C   UNL A   1      33.089  18.339  24.988  1.00  0.00    -0.026 A 
ATOM     20  C   UNL A   1      32.435  17.216  25.517  1.00  0.00     0.025 A 
ATOM     21  C   UNL A   1      34.251  18.129  24.237  1.00  0.00     0.025 A 
ATOM     22  C   UNL A   1      33.001  15.963  25.336  1.00  0.00     0.111 A 
ATOM     23  C   UNL A   1      34.739  16.835  24.114  1.00  0.00     0.111 A 
ATOM     24  N   UNL A   1      34.139  15.751  24.647  1.00  0.00    -0.265 NA
ENDBRANCH  18  19
ENDBRANCH  16  18
ENDBRANCH  14  16
ENDBRANCH  10  14
ENDBRANCH   8   9
ENDBRANCH   6   8
ENDBRANCH   5   6
ENDBRANCH   4   5
ENDBRANCH   3   4
ENDBRANCH   2   3
ENDBRANCH   1   2
BRANCH   1  25
ATOM     25  C   UNL A   1      32.069  28.901  25.825  1.00  0.00     0.188 C 
BRANCH  25  26
ATOM     26  O   UNL A   1      33.403  29.401  25.898  1.00  0.00    -0.376 OA
BRANCH  26  27
ATOM     27  C   UNL A   1      33.796  29.878  27.178  1.00  0.00     0.202 C 
BRANCH  27  28
ATOM     28  C   UNL A   1      33.074  31.184  27.486  1.00  0.00     0.261 C 
BRANCH  28  29
ATOM     29  O   UNL A   1      33.915  32.327  27.357  1.00  0.00    -0.460 OA
BRANCH  29  30
ATOM     30  C   UNL A   1      33.563  33.367  28.122  1.00  0.00     0.338 C 
ATOM     31  O   UNL A   1      32.598  34.129  27.975  1.00  0.00    -0.246 OA
BRANCH  30  32
ATOM     32  C   UNL A   1      34.577  33.597  29.124  1.00  0.00     0.060 A 
ATOM     33  C   UNL A   1      35.762  34.211  28.705  1.00  0.00     0.016 A 
ATOM     34  C   UNL A   1      34.482  32.802  30.272  1.00  0.00     0.016 A 
ATOM     35  C   UNL A   1      36.926  33.860  29.344  1.00  0.00     0.010 A 
ATOM     36  C   UNL A   1      35.649  32.395  30.859  1.00  0.00     0.010 A 
ATOM     37  C   UNL A   1      36.857  32.896  30.357  1.00  0.00    -0.014 A 
BRANCH  37  38
ATOM     38  C   UNL A   1      38.090  32.467  31.003  1.00  0.00     0.031 A 
ATOM     39  C   UNL A   1      38.693  31.280  30.256  1.00  0.00     0.074 A 
ATOM     40  C   UNL A   1      38.448  33.191  32.106  1.00  0.00     0.049 A 
ATOM     41  N   UNL A   1      39.590  30.438  30.651  1.00  0.00    -0.248 NA
ATOM     42  C   UNL A   1      38.199  30.932  28.888  1.00  0.00     0.031 C 
ATOM     43  C   UNL A   1      37.685  34.340  32.663  1.00  0.00     0.029 A 
ATOM     44  N   UNL A   1      39.505  33.126  32.981  1.00  0.00    -0.354 N 
ATOM     45  C   UNL A   1      39.909  29.619  29.551  1.00  0.00     0.074 A 
ATOM     46  C   UNL A   1      38.964  29.906  28.521  1.00  0.00     0.031 C 
ATOM     47  C   UNL A   1      38.251  34.791  33.804  1.00  0.00     0.029 A 
ATOM     48  C   UNL A   1      39.449  34.023  34.078  1.00  0.00     0.049 A 
ATOM     49  H   UNL A   1      40.253  32.497  32.856  1.00  0.00     0.167 HD
ATOM     50  C   UNL A   1      41.022  28.841  29.516  1.00  0.00     0.031 A 
ATOM     51  C   UNL A   1      40.296  34.114  35.146  1.00  0.00     0.031 A 
ATOM     52  C   UNL A   1      41.693  28.884  30.770  1.00  0.00     0.049 A 
ATOM     53  C   UNL A   1      41.414  33.210  34.837  1.00  0.00     0.074 A 
ATOM     54  C   UNL A   1      41.363  28.384  32.003  1.00  0.00     0.029 A 
ATOM     55  N   UNL A   1      42.651  29.859  30.917  1.00  0.00    -0.354 N 
ATOM     56  N   UNL A   1      42.329  33.437  33.945  1.00  0.00    -0.248 NA
ATOM     57  C   UNL A   1      41.487  31.915  35.524  1.00  0.00     0.031 C 
ATOM     58  C   UNL A   1      41.778  29.400  32.891  1.00  0.00     0.029 A 
ATOM     59  C   UNL A   1      42.507  30.365  32.186  1.00  0.00     0.049 A 
ATOM     60  H   UNL A   1      43.312  30.140  30.243  1.00  0.00     0.167 HD
ATOM     61  C   UNL A   1      42.818  32.179  33.700  1.00  0.00     0.074 A 
ATOM     62  C   UNL A   1      42.523  31.388  34.877  1.00  0.00     0.031 C 
ATOM     63  C   UNL A   1      42.911  31.733  32.421  1.00  0.00     0.031 A 
BRANCH  50  64
ATOM     64  C   UNL A   1      41.727  28.205  28.357  1.00  0.00    -0.014 A 
ATOM     65  C   UNL A   1      42.116  26.855  28.520  1.00  0.00     0.010 A 
ATOM     66  C   UNL A   1      42.316  28.939  27.318  1.00  0.00     0.010 A 
ATOM     67  C   UNL A   1      43.162  26.306  27.785  1.00  0.00     0.020 A 
ATOM     68  C   UNL A   1      43.343  28.378  26.543  1.00  0.00     0.020 A 
ATOM     69  C   UNL A   1      43.797  27.088  26.826  1.00  0.00     0.054 A 
BRANCH  69  70
ATOM     70  S   UNL A   1      45.282  26.422  26.031  1.00  0.00     0.124 S 
ATOM     71  O   UNL A   1      45.903  27.627  25.488  1.00  0.00    -0.237 OA
ATOM     72  O   UNL A   1      45.990  25.804  27.150  1.00  0.00    -0.237 OA
ATOM     73  O   UNL A   1      44.751  25.485  25.045  1.00  0.00    -0.744 OA
ENDBRANCH  69  70
ENDBRANCH  50  64
BRANCH  51  74
ATOM     74  C   UNL A   1      40.338  34.760  36.511  1.00  0.00    -0.014 A 
ATOM     75  C   UNL A   1      41.125  35.853  36.890  1.00  0.00     0.010 A 
ATOM     76  C   UNL A   1      39.372  34.332  37.466  1.00  0.00     0.010 A 
ATOM     77  C   UNL A   1      40.849  36.568  38.083  1.00  0.00     0.020 A 
ATOM     78  C   UNL A   1      39.051  35.059  38.613  1.00  0.00     0.020 A 
ATOM     79  C   UNL A   1      39.776  36.199  38.903  1.00  0.00     0.054 A 
BRANCH  79  80
ATOM     80  S   UNL A   1      39.211  37.270  40.257  1.00  0.00     0.124 S 
ATOM     81  O   UNL A   1      38.445  38.291  39.550  1.00  0.00    -0.237 OA
ATOM     82  O   UNL A   1      38.431  36.358  41.091  1.00  0.00    -0.237 OA
ATOM     83  O   UNL A   1      40.458  37.732  40.865  1.00  0.00    -0.744 OA
ENDBRANCH  79  80
ENDBRANCH  51  74
BRANCH  63  84
ATOM     84  C   UNL A   1      43.017  32.816  31.354  1.00  0.00    -0.014 A 
ATOM     85  C   UNL A   1      41.871  33.197  30.633  1.00  0.00     0.010 A 
ATOM     86  C   UNL A   1      44.239  33.412  30.983  1.00  0.00     0.010 A 
ATOM     87  C   UNL A   1      41.939  34.126  29.582  1.00  0.00     0.020 A 
ATOM     88  C   UNL A   1      44.320  34.345  29.931  1.00  0.00     0.020 A 
ATOM     89  C   UNL A   1      43.165  34.698  29.236  1.00  0.00     0.054 A 
BRANCH  89  90
ATOM     90  S   UNL A   1      43.219  35.885  27.860  1.00  0.00     0.124 S 
ATOM     91  O   UNL A   1      44.555  36.463  27.981  1.00  0.00    -0.237 OA
ATOM     92  O   UNL A   1      43.016  35.028  26.694  1.00  0.00    -0.237 OA
ATOM     93  O   UNL A   1      42.124  36.810  28.148  1.00  0.00    -0.744 OA
ENDBRANCH  89  90
ENDBRANCH  63  84
ENDBRANCH  37  38
ENDBRANCH  30  32
ENDBRANCH  29  30
ENDBRANCH  28  29
ENDBRANCH  27  28
ENDBRANCH  26  27
ENDBRANCH  25  26
ENDBRANCH   1  25
TORSDOF 25
ENDMDL
MODEL 2
REMARK VINA RESULT:      -9.4      4.013      9.647
REMARK SMILES CN(Cc1ccncc1)C(=O)c1cccn1CC(=O)OCCOCCOCCOC(=O)c1ccc(-c2c3nc(c(-c4ccc(S(=O)(=O)[O-])cc4)c4ccc([nH]4)c(-c4ccc(S(=O)(=O)[O-])cc4)c4nc(c(-c5ccc(S(=O)(=O)[O-])cc5)c5ccc2[nH]5)C=C4)C=C3)cc1
REMARK SMILES IDX 24 1 23 2 22 3 21 4 20 5 18 6 19 7 17 8 16 9 12 10 13 11
REMARK SMILES IDX 14 12 15 13 10 14 11 15 2 16 1 17 3 18 4 19 5 20 9 21 6 22
REMARK SMILES IDX 8 23 7 24 25 25 26 26 27 27 28 28 29 29 30 30 31 31 32 32
REMARK SMILES IDX 33 33 91 34 34 35 90 36 35 37 36 38 37 39 84 40 38 41 89 42
REMARK SMILES IDX 83 43 85 44 39 45 88 46 82 47 81 48 40 50 70 51 51 52 69 53
REMARK SMILES IDX 52 54 55 55 68 56 86 57 53 58 54 59 67 61 87 62 56 63 41 64
REMARK SMILES IDX 42 65 50 66 43 67 49 68 44 69 45 70 46 71 47 72 48 73 71 74
REMARK SMILES IDX 72 75 80 76 73 77 79 78 74 79 75 80 76 81 77 82 78 83 57 84
REMARK SMILES IDX 58 85 66 86 59 87 65 88 60 89 61 90 62 91 63 92 64 93
REMARK H PARENT 85 49 55 60
REMARK Flexibility Score: inf
ROOT
ATOM      1  C   UNL A   1      34.302  22.189  27.251  1.00  0.00     0.188 C 
ENDROOT
BRANCH   1   2
ATOM      2  O   UNL A   1      32.910  22.168  26.928  1.00  0.00    -0.376 OA
BRANCH   2   3
ATOM      3  C   UNL A   1      32.557  22.207  25.558  1.00  0.00     0.202 C 
BRANCH   3   4
ATOM      4  C   UNL A   1      31.104  22.663  25.338  1.00  0.00     0.261 C 
BRANCH   4   5
ATOM      5  O   UNL A   1      30.596  23.564  26.353  1.00  0.00    -0.462 OA
BRANCH   5   6
ATOM      6  C   UNL A   1      30.347  24.840  25.969  1.00  0.00     0.326 C 
ATOM      7  O   UNL A   1      29.925  25.706  26.735  1.00  0.00    -0.250 OA
BRANCH   6   8
ATOM      8  C   UNL A   1      30.598  25.159  24.510  1.00  0.00     0.244 C 
BRANCH   8   9
ATOM      9  N   UNL A   1      30.297  26.502  24.000  1.00  0.00    -0.332 N 
ATOM     10  C   UNL A   1      31.197  27.517  23.657  1.00  0.00     0.107 A 
ATOM     11  C   UNL A   1      30.402  28.549  23.164  1.00  0.00     0.033 A 
ATOM     12  C   UNL A   1      29.057  28.134  23.104  1.00  0.00     0.020 A 
ATOM     13  C   UNL A   1      29.033  26.840  23.553  1.00  0.00     0.087 A 
BRANCH  10  14
ATOM     14  C   UNL A   1      32.655  27.379  23.684  1.00  0.00     0.270 C 
ATOM     15  O   UNL A   1      33.336  27.888  22.790  1.00  0.00    -0.267 OA
BRANCH  14  16
ATOM     16  N   UNL A   1      33.327  26.713  24.722  1.00  0.00    -0.336 N 
ATOM     17  C   UNL A   1      33.982  25.465  24.359  1.00  0.00     0.147 C 
BRANCH  16  18
ATOM     18  C   UNL A   1      33.284  27.048  26.145  1.00  0.00     0.155 C 
BRANCH  18  19
ATOM     19  C   UNL A   1      33.218  28.526  26.462  1.00  0.00    -0.026 A 
ATOM     20  C   UNL A   1      34.405  29.190  26.806  1.00  0.00     0.025 A 
ATOM     21  C   UNL A   1      32.020  29.248  26.526  1.00  0.00     0.025 A 
ATOM     22  C   UNL A   1      34.335  30.499  27.260  1.00  0.00     0.111 A 
ATOM     23  C   UNL A   1      32.055  30.555  26.993  1.00  0.00     0.111 A 
ATOM     24  N   UNL A   1      33.185  31.193  27.360  1.00  0.00    -0.265 NA
ENDBRANCH  18  19
ENDBRANCH  16  18
ENDBRANCH  14  16
ENDBRANCH  10  14
ENDBRANCH   8   9
ENDBRANCH   6   8
ENDBRANCH   5   6
ENDBRANCH   4   5
ENDBRANCH   3   4
ENDBRANCH   2   3
ENDBRANCH   1   2
BRANCH   1  25
ATOM     25  C   UNL A   1      35.323  22.847  26.301  1.00  0.00     0.188 C 
BRANCH  25  26
ATOM     26  O   UNL A   1      36.623  22.262  26.380  1.00  0.00    -0.376 OA
BRANCH  26  27
ATOM     27  C   UNL A   1      37.517  22.647  25.345  1.00  0.00     0.202 C 
BRANCH  27  28
ATOM     28  C   UNL A   1      38.448  23.743  25.847  1.00  0.00     0.261 C 
BRANCH  28  29
ATOM     29  O   UNL A   1      38.928  23.503  27.168  1.00  0.00    -0.460 OA
BRANCH  29  30
ATOM     30  C   UNL A   1      39.990  24.236  27.517  1.00  0.00     0.338 C 
ATOM     31  O   UNL A   1      41.131  23.842  27.793  1.00  0.00    -0.246 OA
BRANCH  30  32
ATOM     32  C   UNL A   1      39.597  25.616  27.677  1.00  0.00     0.060 A 
ATOM     33  C   UNL A   1      40.021  26.519  26.697  1.00  0.00     0.016 A 
ATOM     34  C   UNL A   1      39.243  25.996  28.977  1.00  0.00     0.016 A 
ATOM     35  C   UNL A   1      40.284  27.810  27.086  1.00  0.00     0.010 A 
ATOM     36  C   UNL A   1      39.577  27.259  29.381  1.00  0.00     0.010 A 
ATOM     37  C   UNL A   1      40.134  28.134  28.440  1.00  0.00    -0.014 A 
BRANCH  37  38
ATOM     38  C   UNL A   1      40.469  29.481  28.880  1.00  0.00     0.031 A 
ATOM     39  C   UNL A   1      39.200  30.301  29.090  1.00  0.00     0.074 A 
ATOM     40  C   UNL A   1      41.807  29.729  29.016  1.00  0.00     0.049 A 
ATOM     41  N   UNL A   1      39.062  31.582  29.187  1.00  0.00    -0.248 NA
ATOM     42  C   UNL A   1      37.872  29.615  29.151  1.00  0.00     0.031 C 
ATOM     43  C   UNL A   1      42.893  28.748  28.750  1.00  0.00     0.029 A 
ATOM     44  N   UNL A   1      42.534  30.831  29.398  1.00  0.00    -0.354 N 
ATOM     45  C   UNL A   1      37.717  31.835  29.515  1.00  0.00     0.074 A 
ATOM     46  C   UNL A   1      37.010  30.601  29.394  1.00  0.00     0.031 C 
ATOM     47  C   UNL A   1      44.110  29.319  28.894  1.00  0.00     0.029 A 
ATOM     48  C   UNL A   1      43.943  30.698  29.308  1.00  0.00     0.049 A 
ATOM     49  H   UNL A   1      42.104  31.660  29.714  1.00  0.00     0.167 HD
ATOM     50  C   UNL A   1      37.293  33.034  29.996  1.00  0.00     0.031 A 
ATOM     51  C   UNL A   1      44.902  31.648  29.521  1.00  0.00     0.031 A 
ATOM     52  C   UNL A   1      38.358  33.978  29.972  1.00  0.00     0.049 A 
ATOM     53  C   UNL A   1      44.186  32.811  30.065  1.00  0.00     0.074 A 
ATOM     54  C   UNL A   1      39.005  34.603  28.937  1.00  0.00     0.029 A 
ATOM     55  N   UNL A   1      39.135  34.051  31.103  1.00  0.00    -0.354 N 
ATOM     56  N   UNL A   1      43.683  32.884  31.259  1.00  0.00    -0.248 NA
ATOM     57  C   UNL A   1      43.945  33.965  29.190  1.00  0.00     0.031 C 
ATOM     58  C   UNL A   1      40.353  34.613  29.352  1.00  0.00     0.029 A 
ATOM     59  C   UNL A   1      40.436  34.181  30.681  1.00  0.00     0.049 A 
ATOM     60  H   UNL A   1      38.820  34.017  32.036  1.00  0.00     0.167 HD
ATOM     61  C   UNL A   1      42.758  33.888  31.127  1.00  0.00     0.074 A 
ATOM     62  C   UNL A   1      43.186  34.695  30.003  1.00  0.00     0.031 C 
ATOM     63  C   UNL A   1      41.483  33.684  31.545  1.00  0.00     0.031 A 
BRANCH  50  64
ATOM     64  C   UNL A   1      36.041  33.398  30.731  1.00  0.00    -0.014 A 
ATOM     65  C   UNL A   1      34.898  33.658  29.938  1.00  0.00     0.010 A 
ATOM     66  C   UNL A   1      36.028  33.830  32.065  1.00  0.00     0.010 A 
ATOM     67  C   UNL A   1      33.856  34.454  30.404  1.00  0.00     0.020 A 
ATOM     68  C   UNL A   1      34.960  34.597  32.555  1.00  0.00     0.020 A 
ATOM     69  C   UNL A   1      33.915  34.953  31.701  1.00  0.00     0.054 A 
BRANCH  69  70
ATOM     70  S   UNL A   1      32.654  36.148  32.211  1.00  0.00     0.124 S 
ATOM     71  O   UNL A   1      33.313  36.834  33.319  1.00  0.00    -0.237 OA
ATOM     72  O   UNL A   1      32.468  36.949  31.002  1.00  0.00    -0.237 OA
ATOM     73  O   UNL A   1      31.514  35.311  32.574  1.00  0.00    -0.744 OA
ENDBRANCH  69  70
ENDBRANCH  50  64
BRANCH  51  74
ATOM     74  C   UNL A   1      46.376  31.851  29.265  1.00  0.00    -0.014 A 
ATOM     75  C   UNL A   1      47.424  31.529  30.135  1.00  0.00     0.010 A 
ATOM     76  C   UNL A   1      46.762  32.255  27.955  1.00  0.00     0.010 A 
ATOM     77  C   UNL A   1      48.761  31.463  29.668  1.00  0.00     0.020 A 
ATOM     78  C   UNL A   1      48.064  32.139  27.467  1.00  0.00     0.020 A 
ATOM     79  C   UNL A   1      49.060  31.712  28.323  1.00  0.00     0.054 A 
BRANCH  79  80
ATOM     80  S   UNL A   1      50.698  31.335  27.635  1.00  0.00     0.124 S 
ATOM     81  O   UNL A   1      50.464  31.427  26.198  1.00  0.00    -0.237 OA
ATOM     82  O   UNL A   1      51.542  32.382  28.207  1.00  0.00    -0.237 OA
ATOM     83  O   UNL A   1      50.974  29.990  28.139  1.00  0.00    -0.744 OA
ENDBRANCH  79  80
ENDBRANCH  51  74
BRANCH  63  84
ATOM     84  C   UNL A   1      41.307  32.618  32.620  1.00  0.00    -0.014 A 
ATOM     85  C   UNL A   1      41.685  32.897  33.946  1.00  0.00     0.010 A 
ATOM     86  C   UNL A   1      40.856  31.311  32.341  1.00  0.00     0.010 A 
ATOM     87  C   UNL A   1      41.623  31.918  34.949  1.00  0.00     0.020 A 
ATOM     88  C   UNL A   1      40.790  30.321  33.339  1.00  0.00     0.020 A 
ATOM     89  C   UNL A   1      41.174  30.632  34.642  1.00  0.00     0.054 A 
BRANCH  89  90
ATOM     90  S   UNL A   1      41.123  29.384  35.963  1.00  0.00     0.124 S 
ATOM     91  O   UNL A   1      39.752  29.488  36.456  1.00  0.00    -0.237 OA
ATOM     92  O   UNL A   1      41.434  28.151  35.245  1.00  0.00    -0.237 OA
ATOM     93  O   UNL A   1      42.148  29.826  36.908  1.00  0.00    -0.744 OA
ENDBRANCH  89  90
ENDBRANCH  63  84
ENDBRANCH  37  38
ENDBRANCH  30  32
ENDBRANCH  29  30
ENDBRANCH  28  29
ENDBRANCH  27  28
ENDBRANCH  26  27
ENDBRANCH  25  26
ENDBRANCH   1  25
TORSDOF 25
ENDMDL
MODEL 3
REMARK VINA RESULT:      -9.3      4.451     11.172
REMARK SMILES CN(Cc1ccncc1)C(=O)c1cccn1CC(=O)OCCOCCOCCOC(=O)c1ccc(-c2c3nc(c(-c4ccc(S(=O)(=O)[O-])cc4)c4ccc([nH]4)c(-c4ccc(S(=O)(=O)[O-])cc4)c4nc(c(-c5ccc(S(=O)(=O)[O-])cc5)c5ccc2[nH]5)C=C4)C=C3)cc1
REMARK SMILES IDX 24 1 23 2 22 3 21 4 20 5 18 6 19 7 17 8 16 9 12 10 13 11
REMARK SMILES IDX 14 12 15 13 10 14 11 15 2 16 1 17 3 18 4 19 5 20 9 21 6 22
REMARK SMILES IDX 8 23 7 24 25 25 26 26 27 27 28 28 29 29 30 30 31 31 32 32
REMARK SMILES IDX 33 33 91 34 34 35 90 36 35 37 36 38 37 39 84 40 38 41 89 42
REMARK SMILES IDX 83 43 85 44 39 45 88 46 82 47 81 48 40 50 70 51 51 52 69 53
REMARK SMILES IDX 52 54 55 55 68 56 86 57 53 58 54 59 67 61 87 62 56 63 41 64
REMARK SMILES IDX 42 65 50 66 43 67 49 68 44 69 45 70 46 71 47 72 48 73 71 74
REMARK SMILES IDX 72 75 80 76 73 77 79 78 74 79 75 80 76 81 77 82 78 83 57 84
REMARK SMILES IDX 58 85 66 86 59 87 65 88 60 89 61 90 62 91 63 92 64 93
REMARK H PARENT 85 49 55 60
REMARK Flexibility Score: inf
ROOT
ATOM      1  C   UNL A   1      32.853  20.419  25.790  1.00  0.00     0.188 C 
ENDROOT
BRANCH   1   2
ATOM      2  O   UNL A   1      31.763  21.074  25.137  1.00  0.00    -0.376 OA
BRANCH   2   3
ATOM      3  C   UNL A   1      31.948  22.423  24.751  1.00  0.00     0.202 C 
BRANCH   3   4
ATOM      4  C   UNL A   1      30.758  23.315  25.144  1.00  0.00     0.261 C 
BRANCH   4   5
ATOM      5  O   UNL A   1      31.104  24.449  25.978  1.00  0.00    -0.462 OA
BRANCH   5   6
ATOM      6  C   UNL A   1      30.540  25.639  25.657  1.00  0.00     0.326 C 
ATOM      7  O   UNL A   1      30.569  26.622  26.398  1.00  0.00    -0.250 OA
BRANCH   6   8
ATOM      8  C   UNL A   1      29.835  25.704  24.318  1.00  0.00     0.244 C 
BRANCH   8   9
ATOM      9  N   UNL A   1      29.822  26.965  23.568  1.00  0.00    -0.332 N 
ATOM     10  C   UNL A   1      30.794  27.457  22.689  1.00  0.00     0.107 A 
ATOM     11  C   UNL A   1      30.262  28.646  22.195  1.00  0.00     0.033 A 
ATOM     12  C   UNL A   1      28.949  28.821  22.675  1.00  0.00     0.020 A 
ATOM     13  C   UNL A   1      28.676  27.731  23.457  1.00  0.00     0.087 A 
BRANCH  10  14
ATOM     14  C   UNL A   1      32.006  26.733  22.301  1.00  0.00     0.270 C 
ATOM     15  O   UNL A   1      32.032  26.103  21.241  1.00  0.00    -0.267 OA
BRANCH  14  16
ATOM     16  N   UNL A   1      33.175  26.756  23.080  1.00  0.00    -0.336 N 
ATOM     17  C   UNL A   1      33.643  25.465  23.566  1.00  0.00     0.147 C 
BRANCH  16  18
ATOM     18  C   UNL A   1      33.859  27.942  23.594  1.00  0.00     0.155 C 
BRANCH  18  19
ATOM     19  C   UNL A   1      33.391  28.424  24.949  1.00  0.00    -0.026 A 
ATOM     20  C   UNL A   1      32.345  29.357  25.003  1.00  0.00     0.025 A 
ATOM     21  C   UNL A   1      34.010  28.063  26.152  1.00  0.00     0.025 A 
ATOM     22  C   UNL A   1      32.019  29.931  26.222  1.00  0.00     0.111 A 
ATOM     23  C   UNL A   1      33.612  28.696  27.321  1.00  0.00     0.111 A 
ATOM     24  N   UNL A   1      32.632  29.620  27.381  1.00  0.00    -0.265 NA
ENDBRANCH  18  19
ENDBRANCH  16  18
ENDBRANCH  14  16
ENDBRANCH  10  14
ENDBRANCH   8   9
ENDBRANCH   6   8
ENDBRANCH   5   6
ENDBRANCH   4   5
ENDBRANCH   3   4
ENDBRANCH   2   3
ENDBRANCH   1   2
BRANCH   1  25
ATOM     25  C   UNL A   1      34.005  19.800  24.973  1.00  0.00     0.188 C 
BRANCH  25  26
ATOM     26  O   UNL A   1      34.956  20.764  24.523  1.00  0.00    -0.376 OA
BRANCH  26  27
ATOM     27  C   UNL A   1      35.986  21.070  25.453  1.00  0.00     0.202 C 
BRANCH  27  28
ATOM     28  C   UNL A   1      37.281  20.386  25.033  1.00  0.00     0.261 C 
BRANCH  28  29
ATOM     29  O   UNL A   1      38.398  21.271  25.022  1.00  0.00    -0.460 OA
BRANCH  29  30
ATOM     30  C   UNL A   1      39.397  20.917  25.838  1.00  0.00     0.338 C 
ATOM     31  O   UNL A   1      39.967  19.821  25.914  1.00  0.00    -0.246 OA
BRANCH  30  32
ATOM     32  C   UNL A   1      39.663  21.986  26.773  1.00  0.00     0.060 A 
ATOM     33  C   UNL A   1      39.270  23.275  26.398  1.00  0.00     0.016 A 
ATOM     34  C   UNL A   1      40.661  21.726  27.719  1.00  0.00     0.016 A 
ATOM     35  C   UNL A   1      40.032  24.329  26.837  1.00  0.00     0.010 A 
ATOM     36  C   UNL A   1      41.464  22.767  28.094  1.00  0.00     0.010 A 
ATOM     37  C   UNL A   1      41.164  24.047  27.612  1.00  0.00    -0.014 A 
BRANCH  37  38
ATOM     38  C   UNL A   1      42.018  25.149  28.034  1.00  0.00     0.031 A 
ATOM     39  C   UNL A   1      41.182  26.251  28.679  1.00  0.00     0.074 A 
ATOM     40  C   UNL A   1      43.350  24.978  27.780  1.00  0.00     0.049 A 
ATOM     41  N   UNL A   1      41.494  27.482  28.911  1.00  0.00    -0.248 NA
ATOM     42  C   UNL A   1      39.768  25.973  29.082  1.00  0.00     0.031 C 
ATOM     43  C   UNL A   1      43.953  23.786  27.125  1.00  0.00     0.029 A 
ATOM     44  N   UNL A   1      44.466  25.747  28.010  1.00  0.00    -0.354 N 
ATOM     45  C   UNL A   1      40.437  28.052  29.647  1.00  0.00     0.074 A 
ATOM     46  C   UNL A   1      39.365  27.109  29.648  1.00  0.00     0.031 C 
ATOM     47  C   UNL A   1      45.282  23.954  26.941  1.00  0.00     0.029 A 
ATOM     48  C   UNL A   1      45.682  25.234  27.491  1.00  0.00     0.049 A 
ATOM     49  H   UNL A   1      44.425  26.599  28.504  1.00  0.00     0.167 HD
ATOM     50  C   UNL A   1      40.563  29.224  30.324  1.00  0.00     0.031 A 
ATOM     51  C   UNL A   1      46.916  25.820  27.479  1.00  0.00     0.031 A 
ATOM     52  C   UNL A   1      41.829  29.814  30.054  1.00  0.00     0.049 A 
ATOM     53  C   UNL A   1      46.781  27.032  28.301  1.00  0.00     0.074 A 
ATOM     54  C   UNL A   1      42.349  30.392  28.924  1.00  0.00     0.029 A 
ATOM     55  N   UNL A   1      42.856  29.472  30.902  1.00  0.00    -0.354 N 
ATOM     56  N   UNL A   1      46.660  27.045  29.593  1.00  0.00    -0.248 NA
ATOM     57  C   UNL A   1      46.705  28.335  27.631  1.00  0.00     0.031 C 
ATOM     58  C   UNL A   1      43.688  29.946  28.914  1.00  0.00     0.029 A 
ATOM     59  C   UNL A   1      43.971  29.293  30.119  1.00  0.00     0.049 A 
ATOM     60  H   UNL A   1      42.802  29.374  31.880  1.00  0.00     0.167 HD
ATOM     61  C   UNL A   1      46.107  28.279  29.823  1.00  0.00     0.074 A 
ATOM     62  C   UNL A   1      46.462  29.106  28.688  1.00  0.00     0.031 C 
ATOM     63  C   UNL A   1      44.989  28.381  30.587  1.00  0.00     0.031 A 
BRANCH  50  64
ATOM     64  C   UNL A   1      39.733  29.802  31.427  1.00  0.00    -0.014 A 
ATOM     65  C   UNL A   1      39.310  31.142  31.261  1.00  0.00     0.010 A 
ATOM     66  C   UNL A   1      39.661  29.244  32.712  1.00  0.00     0.010 A 
ATOM     67  C   UNL A   1      38.984  31.942  32.352  1.00  0.00     0.020 A 
ATOM     68  C   UNL A   1      39.292  30.033  33.812  1.00  0.00     0.020 A 
ATOM     69  C   UNL A   1      39.017  31.390  33.629  1.00  0.00     0.054 A 
BRANCH  69  70
ATOM     70  S   UNL A   1      38.789  32.498  35.042  1.00  0.00     0.124 S 
ATOM     71  O   UNL A   1      38.322  33.722  34.397  1.00  0.00    -0.237 OA
ATOM     72  O   UNL A   1      37.790  31.792  35.842  1.00  0.00    -0.237 OA
ATOM     73  O   UNL A   1      40.119  32.568  35.641  1.00  0.00    -0.744 OA
ENDBRANCH  69  70
ENDBRANCH  50  64
BRANCH  51  74
ATOM     74  C   UNL A   1      48.256  25.633  26.808  1.00  0.00    -0.014 A 
ATOM     75  C   UNL A   1      48.619  26.079  25.533  1.00  0.00     0.010 A 
ATOM     76  C   UNL A   1      49.312  25.095  27.600  1.00  0.00     0.010 A 
ATOM     77  C   UNL A   1      49.981  26.131  25.142  1.00  0.00     0.020 A 
ATOM     78  C   UNL A   1      50.659  25.193  27.252  1.00  0.00     0.020 A 
ATOM     79  C   UNL A   1      50.993  25.742  26.028  1.00  0.00     0.054 A 
BRANCH  79  80
ATOM     80  S   UNL A   1      52.741  26.086  25.676  1.00  0.00     0.124 S 
ATOM     81  O   UNL A   1      52.900  27.449  26.173  1.00  0.00    -0.237 OA
ATOM     82  O   UNL A   1      53.437  25.050  26.435  1.00  0.00    -0.237 OA
ATOM     83  O   UNL A   1      52.828  25.936  24.223  1.00  0.00    -0.744 OA
ENDBRANCH  79  80
ENDBRANCH  51  74
BRANCH  63  84
ATOM     84  C   UNL A   1      44.767  27.245  31.580  1.00  0.00    -0.014 A 
ATOM     85  C   UNL A   1      45.143  27.414  32.925  1.00  0.00     0.010 A 
ATOM     86  C   UNL A   1      44.274  25.979  31.203  1.00  0.00     0.010 A 
ATOM     87  C   UNL A   1      45.038  26.366  33.854  1.00  0.00     0.020 A 
ATOM     88  C   UNL A   1      44.165  24.921  32.125  1.00  0.00     0.020 A 
ATOM     89  C   UNL A   1      44.549  25.123  33.450  1.00  0.00     0.054 A 
BRANCH  89  90
ATOM     90  S   UNL A   1      44.442  23.783  34.675  1.00  0.00     0.124 S 
ATOM     91  O   UNL A   1      43.459  22.879  34.084  1.00  0.00    -0.237 OA
ATOM     92  O   UNL A   1      45.812  23.278  34.710  1.00  0.00    -0.237 OA
ATOM     93  O   UNL A   1      43.998  24.456  35.896  1.00  0.00    -0.744 OA
ENDBRANCH  89  90
ENDBRANCH  63  84
ENDBRANCH  37  38
ENDBRANCH  30  32
ENDBRANCH  29  30
ENDBRANCH  28  29
ENDBRANCH  27  28
ENDBRANCH  26  27
ENDBRANCH  25  26
ENDBRANCH   1  25
TORSDOF 25
ENDMDL
