MODEL 1
REMARK VINA RESULT:     -10.0      0.000      0.000
REMARK SMILES CSc1nc2nnc(C(=O)OCCOCCOCCOC(=O)c3ccc(-c4c5nc(c(-c6ccc(S(=O)(=O)[O-])cc6)c6ccc([nH]6)c(-c6ccc(S(=O)(=O)[O-])cc6)c6nc(c(-c7ccc(S(=O)(=O)[O-])cc7)c7ccc4[nH]7)C=C6)C=C5)cc3)c(O)n2n1
REMARK SMILES IDX 16 1 15 2 14 3 13 4 12 5 11 6 9 7 10 8 8 9 3 10 4 11 86 12
REMARK SMILES IDX 5 13 85 14 6 15 83 16 7 17 2 18 1 19 84 20 17 22 18 23 19 24
REMARK SMILES IDX 20 25 21 26 22 27 23 28 24 29 82 30 25 31 81 32 26 33 27 34
REMARK SMILES IDX 28 35 75 36 29 37 80 38 74 39 76 40 30 41 79 42 73 43 72 44
REMARK SMILES IDX 31 46 61 47 42 48 60 49 43 50 46 51 59 52 77 53 44 54 45 55
REMARK SMILES IDX 58 57 78 58 47 59 32 60 33 61 41 62 34 63 40 64 35 65 36 66
REMARK SMILES IDX 37 67 38 68 39 69 62 70 63 71 71 72 64 73 70 74 65 75 66 76
REMARK SMILES IDX 67 77 68 78 69 79 48 80 49 81 57 82 50 83 56 84 51 85 52 86
REMARK SMILES IDX 53 87 54 88 55 89
REMARK H PARENT 84 21 76 45 46 56
REMARK Flexibility Score: inf
ROOT
ATOM      1  C   UNL A   1      40.042  20.740  26.378  1.00  0.00     0.188 C 
ENDROOT
BRANCH   1   2
ATOM      2  C   UNL A   1      39.668  22.238  26.344  1.00  0.00     0.188 C 
BRANCH   2   3
ATOM      3  O   UNL A   1      38.324  22.678  26.485  1.00  0.00    -0.376 OA
BRANCH   3   4
ATOM      4  C   UNL A   1      37.851  23.853  25.848  1.00  0.00     0.202 C 
BRANCH   4   5
ATOM      5  C   UNL A   1      36.377  24.011  25.414  1.00  0.00     0.261 C 
BRANCH   5   6
ATOM      6  O   UNL A   1      35.397  23.241  26.121  1.00  0.00    -0.458 OA
BRANCH   6   7
ATOM      7  C   UNL A   1      34.124  23.379  25.682  1.00  0.00     0.364 C 
ATOM      8  O   UNL A   1      33.527  24.431  25.527  1.00  0.00    -0.244 OA
BRANCH   7   9
ATOM      9  C   UNL A   1      33.583  22.082  25.195  1.00  0.00     0.232 A 
ATOM     10  C   UNL A   1      32.575  17.860  25.227  1.00  0.00     0.210 A 
ATOM     11  N   UNL A   1      32.211  18.512  24.084  1.00  0.00    -0.182 NA
ATOM     12  N   UNL A   1      33.119  18.623  26.171  1.00  0.00    -0.134 NA
ATOM     13  C   UNL A   1      32.563  19.760  24.322  1.00  0.00     0.275 A 
ATOM     14  N   UNL A   1      33.138  19.837  25.583  1.00  0.00    -0.159 N 
ATOM     15  N   UNL A   1      32.484  20.888  23.550  1.00  0.00    -0.108 NA
ATOM     16  C   UNL A   1      33.672  21.037  26.045  1.00  0.00     0.251 A 
ATOM     17  N   UNL A   1      32.964  21.986  23.960  1.00  0.00    -0.134 NA
BRANCH  10  18
ATOM     18  S   UNL A   1      32.397  16.140  25.435  1.00  0.00    -0.088 SA
ATOM     19  C   UNL A   1      34.130  15.621  25.362  1.00  0.00     0.094 C 
ENDBRANCH  10  18
BRANCH  16  20
ATOM     20  O   UNL A   1      34.236  21.071  27.313  1.00  0.00    -0.491 OA
ATOM     21  H   UNL A   1      33.758  21.441  28.028  1.00  0.00     0.295 HD
ENDBRANCH  16  20
ENDBRANCH   7   9
ENDBRANCH   6   7
ENDBRANCH   5   6
ENDBRANCH   4   5
ENDBRANCH   3   4
ENDBRANCH   2   3
ENDBRANCH   1   2
BRANCH   1  22
ATOM     22  O   UNL A   1      40.768  20.356  27.523  1.00  0.00    -0.376 OA
BRANCH  22  23
ATOM     23  C   UNL A   1      42.032  19.729  27.392  1.00  0.00     0.202 C 
BRANCH  23  24
ATOM     24  C   UNL A   1      42.486  19.032  26.109  1.00  0.00     0.261 C 
BRANCH  24  25
ATOM     25  O   UNL A   1      42.945  19.857  25.054  1.00  0.00    -0.460 OA
BRANCH  25  26
ATOM     26  C   UNL A   1      44.243  20.176  25.126  1.00  0.00     0.338 C 
ATOM     27  O   UNL A   1      45.193  19.374  25.186  1.00  0.00    -0.246 OA
BRANCH  26  28
ATOM     28  C   UNL A   1      44.388  21.618  25.253  1.00  0.00     0.060 A 
ATOM     29  C   UNL A   1      45.318  22.092  26.177  1.00  0.00     0.016 A 
ATOM     30  C   UNL A   1      43.407  22.452  24.687  1.00  0.00     0.016 A 
ATOM     31  C   UNL A   1      45.134  23.353  26.693  1.00  0.00     0.010 A 
ATOM     32  C   UNL A   1      43.217  23.708  25.214  1.00  0.00     0.010 A 
ATOM     33  C   UNL A   1      44.030  24.107  26.268  1.00  0.00    -0.014 A 
BRANCH  33  34
ATOM     34  C   UNL A   1      43.796  25.369  26.932  1.00  0.00     0.031 A 
ATOM     35  C   UNL A   1      44.858  26.358  26.682  1.00  0.00     0.074 A 
ATOM     36  C   UNL A   1      42.705  25.626  27.675  1.00  0.00     0.049 A 
ATOM     37  N   UNL A   1      45.799  26.709  27.492  1.00  0.00    -0.248 NA
ATOM     38  C   UNL A   1      45.005  26.868  25.313  1.00  0.00     0.031 C 
ATOM     39  C   UNL A   1      41.479  24.834  27.791  1.00  0.00     0.029 A 
ATOM     40  N   UNL A   1      42.437  26.729  28.423  1.00  0.00    -0.354 N 
ATOM     41  C   UNL A   1      46.524  27.674  26.810  1.00  0.00     0.074 A 
ATOM     42  C   UNL A   1      46.128  27.578  25.427  1.00  0.00     0.031 C 
ATOM     43  C   UNL A   1      40.520  25.587  28.382  1.00  0.00     0.029 A 
ATOM     44  C   UNL A   1      41.110  26.845  28.812  1.00  0.00     0.049 A 
ATOM     45  H   UNL A   1      43.125  27.388  28.669  1.00  0.00     0.167 HD
ATOM     46  C   UNL A   1      47.164  28.671  27.480  1.00  0.00     0.031 A 
ATOM     47  C   UNL A   1      40.539  27.928  29.395  1.00  0.00     0.031 A 
ATOM     48  C   UNL A   1      47.296  28.374  28.883  1.00  0.00     0.049 A 
ATOM     49  C   UNL A   1      41.632  28.710  30.026  1.00  0.00     0.074 A 
ATOM     50  C   UNL A   1      47.909  27.385  29.624  1.00  0.00     0.029 A 
ATOM     51  N   UNL A   1      46.400  28.995  29.723  1.00  0.00    -0.354 N 
ATOM     52  N   UNL A   1      42.324  28.288  31.047  1.00  0.00    -0.248 NA
ATOM     53  C   UNL A   1      42.233  29.803  29.275  1.00  0.00     0.031 C 
ATOM     54  C   UNL A   1      47.071  27.192  30.759  1.00  0.00     0.029 A 
ATOM     55  C   UNL A   1      46.010  28.099  30.680  1.00  0.00     0.049 A 
ATOM     56  H   UNL A   1      46.091  29.926  29.647  1.00  0.00     0.167 HD
ATOM     57  C   UNL A   1      43.609  28.759  30.823  1.00  0.00     0.074 A 
ATOM     58  C   UNL A   1      43.465  29.779  29.790  1.00  0.00     0.031 C 
ATOM     59  C   UNL A   1      44.698  28.087  31.297  1.00  0.00     0.031 A 
BRANCH  46  60
ATOM     60  C   UNL A   1      47.223  30.088  26.962  1.00  0.00    -0.014 A 
ATOM     61  C   UNL A   1      48.406  30.827  27.168  1.00  0.00     0.010 A 
ATOM     62  C   UNL A   1      46.075  30.809  26.576  1.00  0.00     0.010 A 
ATOM     63  C   UNL A   1      48.408  32.224  27.086  1.00  0.00     0.020 A 
ATOM     64  C   UNL A   1      46.078  32.196  26.444  1.00  0.00     0.020 A 
ATOM     65  C   UNL A   1      47.236  32.898  26.742  1.00  0.00     0.054 A 
BRANCH  65  66
ATOM     66  S   UNL A   1      47.210  34.705  26.770  1.00  0.00     0.124 S 
ATOM     67  O   UNL A   1      45.799  34.978  27.021  1.00  0.00    -0.237 OA
ATOM     68  O   UNL A   1      48.124  35.007  27.868  1.00  0.00    -0.237 OA
ATOM     69  O   UNL A   1      47.695  35.072  25.441  1.00  0.00    -0.744 OA
ENDBRANCH  65  66
ENDBRANCH  46  60
BRANCH  47  70
ATOM     70  C   UNL A   1      39.176  28.476  29.183  1.00  0.00    -0.014 A 
ATOM     71  C   UNL A   1      38.351  28.795  30.278  1.00  0.00     0.010 A 
ATOM     72  C   UNL A   1      38.794  28.958  27.914  1.00  0.00     0.010 A 
ATOM     73  C   UNL A   1      37.228  29.625  30.123  1.00  0.00     0.020 A 
ATOM     74  C   UNL A   1      37.670  29.778  27.749  1.00  0.00     0.020 A 
ATOM     75  C   UNL A   1      36.908  30.130  28.859  1.00  0.00     0.054 A 
BRANCH  75  76
ATOM     76  S   UNL A   1      35.562  31.341  28.699  1.00  0.00     0.124 S 
ATOM     77  O   UNL A   1      35.219  31.612  30.092  1.00  0.00    -0.237 OA
ATOM     78  O   UNL A   1      36.207  32.437  27.982  1.00  0.00    -0.237 OA
ATOM     79  O   UNL A   1      34.541  30.622  27.938  1.00  0.00    -0.744 OA
ENDBRANCH  75  76
ENDBRANCH  47  70
BRANCH  59  80
ATOM     80  C   UNL A   1      44.504  27.068  32.393  1.00  0.00    -0.014 A 
ATOM     81  C   UNL A   1      44.265  25.701  32.159  1.00  0.00     0.010 A 
ATOM     82  C   UNL A   1      44.781  27.492  33.705  1.00  0.00     0.010 A 
ATOM     83  C   UNL A   1      44.323  24.779  33.216  1.00  0.00     0.020 A 
ATOM     84  C   UNL A   1      44.857  26.578  34.757  1.00  0.00     0.020 A 
ATOM     85  C   UNL A   1      44.633  25.223  34.507  1.00  0.00     0.054 A 
BRANCH  85  86
ATOM     86  S   UNL A   1      44.830  24.015  35.847  1.00  0.00     0.124 S 
ATOM     87  O   UNL A   1      43.922  22.943  35.446  1.00  0.00    -0.237 OA
ATOM     88  O   UNL A   1      46.253  23.690  35.784  1.00  0.00    -0.237 OA
ATOM     89  O   UNL A   1      44.425  24.751  37.045  1.00  0.00    -0.744 OA
ENDBRANCH  85  86
ENDBRANCH  59  80
ENDBRANCH  33  34
ENDBRANCH  26  28
ENDBRANCH  25  26
ENDBRANCH  24  25
ENDBRANCH  23  24
ENDBRANCH  22  23
ENDBRANCH   1  22
TORSDOF 22
ENDMDL
MODEL 2
REMARK VINA RESULT:     -10.0      2.042      3.082
REMARK SMILES CSc1nc2nnc(C(=O)OCCOCCOCCOC(=O)c3ccc(-c4c5nc(c(-c6ccc(S(=O)(=O)[O-])cc6)c6ccc([nH]6)c(-c6ccc(S(=O)(=O)[O-])cc6)c6nc(c(-c7ccc(S(=O)(=O)[O-])cc7)c7ccc4[nH]7)C=C6)C=C5)cc3)c(O)n2n1
REMARK SMILES IDX 16 1 15 2 14 3 13 4 12 5 11 6 9 7 10 8 8 9 3 10 4 11 86 12
REMARK SMILES IDX 5 13 85 14 6 15 83 16 7 17 2 18 1 19 84 20 17 22 18 23 19 24
REMARK SMILES IDX 20 25 21 26 22 27 23 28 24 29 82 30 25 31 81 32 26 33 27 34
REMARK SMILES IDX 28 35 75 36 29 37 80 38 74 39 76 40 30 41 79 42 73 43 72 44
REMARK SMILES IDX 31 46 61 47 42 48 60 49 43 50 46 51 59 52 77 53 44 54 45 55
REMARK SMILES IDX 58 57 78 58 47 59 32 60 33 61 41 62 34 63 40 64 35 65 36 66
REMARK SMILES IDX 37 67 38 68 39 69 62 70 63 71 71 72 64 73 70 74 65 75 66 76
REMARK SMILES IDX 67 77 68 78 69 79 48 80 49 81 57 82 50 83 56 84 51 85 52 86
REMARK SMILES IDX 53 87 54 88 55 89
REMARK H PARENT 84 21 76 45 46 56
REMARK Flexibility Score: inf
ROOT
ATOM      1  C   UNL A   1      39.931  22.427  26.349  1.00  0.00     0.188 C 
ENDROOT
BRANCH   1   2
ATOM      2  C   UNL A   1      38.454  22.828  26.149  1.00  0.00     0.188 C 
BRANCH   2   3
ATOM      3  O   UNL A   1      37.456  21.872  25.815  1.00  0.00    -0.376 OA
BRANCH   3   4
ATOM      4  C   UNL A   1      36.123  22.253  25.522  1.00  0.00     0.202 C 
BRANCH   4   5
ATOM      5  C   UNL A   1      34.928  21.307  25.770  1.00  0.00     0.261 C 
BRANCH   5   6
ATOM      6  O   UNL A   1      33.988  21.140  24.701  1.00  0.00    -0.458 OA
BRANCH   6   7
ATOM      7  C   UNL A   1      32.684  21.181  25.064  1.00  0.00     0.364 C 
ATOM      8  O   UNL A   1      31.930  20.226  25.146  1.00  0.00    -0.244 OA
BRANCH   7   9
ATOM      9  C   UNL A   1      32.312  22.530  25.568  1.00  0.00     0.232 A 
ATOM     10  C   UNL A   1      31.716  26.829  25.539  1.00  0.00     0.210 A 
ATOM     11  N   UNL A   1      31.385  26.228  26.720  1.00  0.00    -0.182 NA
ATOM     12  N   UNL A   1      32.104  26.007  24.569  1.00  0.00    -0.134 NA
ATOM     13  C   UNL A   1      31.595  24.949  26.478  1.00  0.00     0.275 A 
ATOM     14  N   UNL A   1      32.054  24.803  25.176  1.00  0.00    -0.159 N 
ATOM     15  N   UNL A   1      31.472  23.843  27.274  1.00  0.00    -0.108 NA
ATOM     16  C   UNL A   1      32.431  23.553  24.694  1.00  0.00     0.251 A 
ATOM     17  N   UNL A   1      31.808  22.699  26.847  1.00  0.00    -0.134 NA
BRANCH  10  18
ATOM     18  S   UNL A   1      31.687  28.557  25.314  1.00  0.00    -0.088 SA
ATOM     19  C   UNL A   1      33.174  28.779  24.305  1.00  0.00     0.094 C 
ENDBRANCH  10  18
BRANCH  16  20
ATOM     20  O   UNL A   1      32.883  23.450  23.386  1.00  0.00    -0.491 OA
ATOM     21  H   UNL A   1      33.763  23.177  23.215  1.00  0.00     0.295 HD
ENDBRANCH  16  20
ENDBRANCH   7   9
ENDBRANCH   6   7
ENDBRANCH   5   6
ENDBRANCH   4   5
ENDBRANCH   3   4
ENDBRANCH   2   3
ENDBRANCH   1   2
BRANCH   1  22
ATOM     22  O   UNL A   1      40.116  21.335  27.221  1.00  0.00    -0.376 OA
BRANCH  22  23
ATOM     23  C   UNL A   1      40.666  20.121  26.740  1.00  0.00     0.202 C 
BRANCH  23  24
ATOM     24  C   UNL A   1      42.165  19.915  26.521  1.00  0.00     0.261 C 
BRANCH  24  25
ATOM     25  O   UNL A   1      42.701  20.346  25.282  1.00  0.00    -0.460 OA
BRANCH  25  26
ATOM     26  C   UNL A   1      44.007  20.635  25.315  1.00  0.00     0.338 C 
ATOM     27  O   UNL A   1      44.941  19.811  25.327  1.00  0.00    -0.246 OA
BRANCH  26  28
ATOM     28  C   UNL A   1      44.189  22.070  25.465  1.00  0.00     0.060 A 
ATOM     29  C   UNL A   1      45.031  22.508  26.487  1.00  0.00     0.016 A 
ATOM     30  C   UNL A   1      43.306  22.940  24.801  1.00  0.00     0.016 A 
ATOM     31  C   UNL A   1      44.838  23.775  26.987  1.00  0.00     0.010 A 
ATOM     32  C   UNL A   1      43.106  24.201  25.312  1.00  0.00     0.010 A 
ATOM     33  C   UNL A   1      43.814  24.569  26.450  1.00  0.00    -0.014 A 
BRANCH  33  34
ATOM     34  C   UNL A   1      43.555  25.838  27.092  1.00  0.00     0.031 A 
ATOM     35  C   UNL A   1      44.596  26.843  26.822  1.00  0.00     0.074 A 
ATOM     36  C   UNL A   1      42.460  26.086  27.831  1.00  0.00     0.049 A 
ATOM     37  N   UNL A   1      45.531  27.228  27.624  1.00  0.00    -0.248 NA
ATOM     38  C   UNL A   1      44.732  27.332  25.444  1.00  0.00     0.031 C 
ATOM     39  C   UNL A   1      41.250  25.271  27.964  1.00  0.00     0.029 A 
ATOM     40  N   UNL A   1      42.171  27.196  28.561  1.00  0.00    -0.354 N 
ATOM     41  C   UNL A   1      46.236  28.195  26.924  1.00  0.00     0.074 A 
ATOM     42  C   UNL A   1      45.839  28.066  25.544  1.00  0.00     0.031 C 
ATOM     43  C   UNL A   1      40.278  26.015  28.543  1.00  0.00     0.029 A 
ATOM     44  C   UNL A   1      40.842  27.292  28.949  1.00  0.00     0.049 A 
ATOM     45  H   UNL A   1      42.846  27.873  28.794  1.00  0.00     0.167 HD
ATOM     46  C   UNL A   1      46.856  29.216  27.575  1.00  0.00     0.031 A 
ATOM     47  C   UNL A   1      40.250  28.373  29.514  1.00  0.00     0.031 A 
ATOM     48  C   UNL A   1      46.996  28.947  28.983  1.00  0.00     0.049 A 
ATOM     49  C   UNL A   1      41.328  29.188  30.129  1.00  0.00     0.074 A 
ATOM     50  C   UNL A   1      47.630  27.984  29.741  1.00  0.00     0.029 A 
ATOM     51  N   UNL A   1      46.089  29.564  29.813  1.00  0.00    -0.354 N 
ATOM     52  N   UNL A   1      42.030  28.798  31.157  1.00  0.00    -0.248 NA
ATOM     53  C   UNL A   1      41.906  30.279  29.358  1.00  0.00     0.031 C 
ATOM     54  C   UNL A   1      46.797  27.794  30.880  1.00  0.00     0.029 A 
ATOM     55  C   UNL A   1      45.718  28.678  30.787  1.00  0.00     0.049 A 
ATOM     56  H   UNL A   1      45.761  30.488  29.721  1.00  0.00     0.167 HD
ATOM     57  C   UNL A   1      43.305  29.292  30.922  1.00  0.00     0.074 A 
ATOM     58  C   UNL A   1      43.139  30.290  29.871  1.00  0.00     0.031 C 
ATOM     59  C   UNL A   1      44.408  28.650  31.406  1.00  0.00     0.031 A 
BRANCH  46  60
ATOM     60  C   UNL A   1      46.886  30.625  27.032  1.00  0.00    -0.014 A 
ATOM     61  C   UNL A   1      48.059  31.386  27.210  1.00  0.00     0.010 A 
ATOM     62  C   UNL A   1      45.721  31.320  26.648  1.00  0.00     0.010 A 
ATOM     63  C   UNL A   1      48.037  32.781  27.104  1.00  0.00     0.020 A 
ATOM     64  C   UNL A   1      45.700  32.705  26.492  1.00  0.00     0.020 A 
ATOM     65  C   UNL A   1      46.850  33.431  26.763  1.00  0.00     0.054 A 
BRANCH  65  66
ATOM     66  S   UNL A   1      46.796  35.237  26.760  1.00  0.00     0.124 S 
ATOM     67  O   UNL A   1      47.963  35.570  27.570  1.00  0.00    -0.237 OA
ATOM     68  O   UNL A   1      46.898  35.545  25.337  1.00  0.00    -0.237 OA
ATOM     69  O   UNL A   1      45.502  35.539  27.368  1.00  0.00    -0.744 OA
ENDBRANCH  65  66
ENDBRANCH  46  60
BRANCH  47  70
ATOM     70  C   UNL A   1      38.876  28.889  29.295  1.00  0.00    -0.014 A 
ATOM     71  C   UNL A   1      38.168  29.516  30.338  1.00  0.00     0.010 A 
ATOM     72  C   UNL A   1      38.370  29.029  27.986  1.00  0.00     0.010 A 
ATOM     73  C   UNL A   1      37.040  30.311  30.074  1.00  0.00     0.020 A 
ATOM     74  C   UNL A   1      37.240  29.812  27.716  1.00  0.00     0.020 A 
ATOM     75  C   UNL A   1      36.597  30.472  28.759  1.00  0.00     0.054 A 
BRANCH  75  76
ATOM     76  S   UNL A   1      35.248  31.640  28.409  1.00  0.00     0.124 S 
ATOM     77  O   UNL A   1      34.782  31.986  29.748  1.00  0.00    -0.237 OA
ATOM     78  O   UNL A   1      35.934  32.705  27.683  1.00  0.00    -0.237 OA
ATOM     79  O   UNL A   1      34.310  30.853  27.610  1.00  0.00    -0.744 OA
ENDBRANCH  75  76
ENDBRANCH  47  70
BRANCH  59  80
ATOM     80  C   UNL A   1      44.236  27.648  32.521  1.00  0.00    -0.014 A 
ATOM     81  C   UNL A   1      43.954  27.999  33.854  1.00  0.00     0.010 A 
ATOM     82  C   UNL A   1      44.155  26.294  32.145  1.00  0.00     0.010 A 
ATOM     83  C   UNL A   1      43.582  27.015  34.784  1.00  0.00     0.020 A 
ATOM     84  C   UNL A   1      43.770  25.314  33.062  1.00  0.00     0.020 A 
ATOM     85  C   UNL A   1      43.479  25.680  34.376  1.00  0.00     0.054 A 
BRANCH  85  86
ATOM     86  S   UNL A   1      42.877  24.429  35.547  1.00  0.00     0.124 S 
ATOM     87  O   UNL A   1      41.427  24.585  35.462  1.00  0.00    -0.237 OA
ATOM     88  O   UNL A   1      43.409  23.186  34.994  1.00  0.00    -0.237 OA
ATOM     89  O   UNL A   1      43.468  24.832  36.823  1.00  0.00    -0.744 OA
ENDBRANCH  85  86
ENDBRANCH  59  80
ENDBRANCH  33  34
ENDBRANCH  26  28
ENDBRANCH  25  26
ENDBRANCH  24  25
ENDBRANCH  23  24
ENDBRANCH  22  23
ENDBRANCH   1  22
TORSDOF 22
ENDMDL
MODEL 3
REMARK VINA RESULT:      -9.7      4.513     10.789
REMARK SMILES CSc1nc2nnc(C(=O)OCCOCCOCCOC(=O)c3ccc(-c4c5nc(c(-c6ccc(S(=O)(=O)[O-])cc6)c6ccc([nH]6)c(-c6ccc(S(=O)(=O)[O-])cc6)c6nc(c(-c7ccc(S(=O)(=O)[O-])cc7)c7ccc4[nH]7)C=C6)C=C5)cc3)c(O)n2n1
REMARK SMILES IDX 16 1 15 2 14 3 13 4 12 5 11 6 9 7 10 8 8 9 3 10 4 11 86 12
REMARK SMILES IDX 5 13 85 14 6 15 83 16 7 17 2 18 1 19 84 20 17 22 18 23 19 24
REMARK SMILES IDX 20 25 21 26 22 27 23 28 24 29 82 30 25 31 81 32 26 33 27 34
REMARK SMILES IDX 28 35 75 36 29 37 80 38 74 39 76 40 30 41 79 42 73 43 72 44
REMARK SMILES IDX 31 46 61 47 42 48 60 49 43 50 46 51 59 52 77 53 44 54 45 55
REMARK SMILES IDX 58 57 78 58 47 59 32 60 33 61 41 62 34 63 40 64 35 65 36 66
REMARK SMILES IDX 37 67 38 68 39 69 62 70 63 71 71 72 64 73 70 74 65 75 66 76
REMARK SMILES IDX 67 77 68 78 69 79 48 80 49 81 57 82 50 83 56 84 51 85 52 86
REMARK SMILES IDX 53 87 54 88 55 89
REMARK H PARENT 84 21 76 45 46 56
REMARK Flexibility Score: inf
ROOT
ATOM      1  C   UNL A   1      34.010  32.497  28.886  1.00  0.00     0.188 C 
ENDROOT
BRANCH   1   2
ATOM      2  C   UNL A   1      34.673  31.574  27.841  1.00  0.00     0.188 C 
BRANCH   2   3
ATOM      3  O   UNL A   1      33.907  30.843  26.893  1.00  0.00    -0.376 OA
BRANCH   3   4
ATOM      4  C   UNL A   1      32.498  30.727  26.998  1.00  0.00     0.202 C 
BRANCH   4   5
ATOM      5  C   UNL A   1      31.663  29.935  25.969  1.00  0.00     0.261 C 
BRANCH   5   6
ATOM      6  O   UNL A   1      32.221  28.713  25.470  1.00  0.00    -0.458 OA
BRANCH   6   7
ATOM      7  C   UNL A   1      31.320  27.783  25.074  1.00  0.00     0.364 C 
ATOM      8  O   UNL A   1      30.433  27.945  24.252  1.00  0.00    -0.244 OA
BRANCH   7   9
ATOM      9  C   UNL A   1      31.666  26.441  25.613  1.00  0.00     0.232 A 
ATOM     10  C   UNL A   1      33.920  22.775  26.178  1.00  0.00     0.210 A 
ATOM     11  N   UNL A   1      32.774  22.844  26.917  1.00  0.00    -0.182 NA
ATOM     12  N   UNL A   1      34.201  23.856  25.455  1.00  0.00    -0.134 NA
ATOM     13  C   UNL A   1      32.299  24.039  26.626  1.00  0.00     0.275 A 
ATOM     14  N   UNL A   1      33.148  24.658  25.719  1.00  0.00    -0.159 N 
ATOM     15  N   UNL A   1      31.161  24.685  27.028  1.00  0.00    -0.108 NA
ATOM     16  C   UNL A   1      32.829  25.903  25.185  1.00  0.00     0.251 A 
ATOM     17  N   UNL A   1      30.860  25.820  26.553  1.00  0.00    -0.134 NA
BRANCH  10  18
ATOM     18  S   UNL A   1      34.933  21.358  26.130  1.00  0.00    -0.088 SA
ATOM     19  C   UNL A   1      36.520  22.106  25.684  1.00  0.00     0.094 C 
ENDBRANCH  10  18
BRANCH  16  20
ATOM     20  O   UNL A   1      33.706  26.488  24.283  1.00  0.00    -0.491 OA
ATOM     21  H   UNL A   1      34.617  26.555  24.492  1.00  0.00     0.295 HD
ENDBRANCH  16  20
ENDBRANCH   7   9
ENDBRANCH   6   7
ENDBRANCH   5   6
ENDBRANCH   4   5
ENDBRANCH   3   4
ENDBRANCH   2   3
ENDBRANCH   1   2
BRANCH   1  22
ATOM     22  O   UNL A   1      33.627  33.755  28.378  1.00  0.00    -0.376 OA
BRANCH  22  23
ATOM     23  C   UNL A   1      34.016  34.944  29.044  1.00  0.00     0.202 C 
BRANCH  23  24
ATOM     24  C   UNL A   1      33.129  35.651  30.070  1.00  0.00     0.261 C 
BRANCH  24  25
ATOM     25  O   UNL A   1      32.724  34.898  31.199  1.00  0.00    -0.460 OA
BRANCH  25  26
ATOM     26  C   UNL A   1      33.155  35.381  32.370  1.00  0.00     0.338 C 
ATOM     27  O   UNL A   1      32.728  36.399  32.946  1.00  0.00    -0.246 OA
BRANCH  26  28
ATOM     28  C   UNL A   1      34.302  34.610  32.827  1.00  0.00     0.060 A 
ATOM     29  C   UNL A   1      35.501  35.296  33.021  1.00  0.00     0.016 A 
ATOM     30  C   UNL A   1      34.245  33.207  32.762  1.00  0.00     0.016 A 
ATOM     31  C   UNL A   1      36.674  34.582  32.941  1.00  0.00     0.010 A 
ATOM     32  C   UNL A   1      35.421  32.499  32.669  1.00  0.00     0.010 A 
ATOM     33  C   UNL A   1      36.616  33.207  32.675  1.00  0.00    -0.014 A 
BRANCH  33  34
ATOM     34  C   UNL A   1      37.871  32.521  32.464  1.00  0.00     0.031 A 
ATOM     35  C   UNL A   1      38.684  32.417  33.687  1.00  0.00     0.074 A 
ATOM     36  C   UNL A   1      38.244  32.001  31.281  1.00  0.00     0.049 A 
ATOM     37  N   UNL A   1      39.724  33.117  33.991  1.00  0.00    -0.248 NA
ATOM     38  C   UNL A   1      38.170  31.578  34.778  1.00  0.00     0.031 C 
ATOM     39  C   UNL A   1      37.434  31.817  30.075  1.00  0.00     0.029 A 
ATOM     40  N   UNL A   1      39.434  31.436  30.948  1.00  0.00    -0.354 N 
ATOM     41  C   UNL A   1      40.141  32.634  35.222  1.00  0.00     0.074 A 
ATOM     42  C   UNL A   1      39.047  31.853  35.743  1.00  0.00     0.031 C 
ATOM     43  C   UNL A   1      38.087  30.987  29.227  1.00  0.00     0.029 A 
ATOM     44  C   UNL A   1      39.409  30.710  29.765  1.00  0.00     0.049 A 
ATOM     45  H   UNL A   1      40.245  31.534  31.498  1.00  0.00     0.167 HD
ATOM     46  C   UNL A   1      41.454  32.664  35.576  1.00  0.00     0.031 A 
ATOM     47  C   UNL A   1      40.393  29.900  29.304  1.00  0.00     0.031 A 
ATOM     48  C   UNL A   1      42.216  33.549  34.733  1.00  0.00     0.049 A 
ATOM     49  C   UNL A   1      41.656  30.333  29.953  1.00  0.00     0.074 A 
ATOM     50  C   UNL A   1      42.189  34.898  34.447  1.00  0.00     0.029 A 
ATOM     51  N   UNL A   1      42.960  32.953  33.741  1.00  0.00    -0.354 N 
ATOM     52  N   UNL A   1      42.230  31.480  29.720  1.00  0.00    -0.248 NA
ATOM     53  C   UNL A   1      42.081  29.659  31.172  1.00  0.00     0.031 C 
ATOM     54  C   UNL A   1      42.578  35.001  33.081  1.00  0.00     0.029 A 
ATOM     55  C   UNL A   1      42.865  33.717  32.609  1.00  0.00     0.049 A 
ATOM     56  H   UNL A   1      43.473  32.117  33.829  1.00  0.00     0.167 HD
ATOM     57  C   UNL A   1      42.762  31.865  30.942  1.00  0.00     0.074 A 
ATOM     58  C   UNL A   1      42.745  30.658  31.761  1.00  0.00     0.031 C 
ATOM     59  C   UNL A   1      42.908  33.184  31.262  1.00  0.00     0.031 A 
BRANCH  46  60
ATOM     60  C   UNL A   1      42.112  31.544  36.346  1.00  0.00    -0.014 A 
ATOM     61  C   UNL A   1      43.025  31.880  37.367  1.00  0.00     0.010 A 
ATOM     62  C   UNL A   1      42.111  30.207  35.901  1.00  0.00     0.010 A 
ATOM     63  C   UNL A   1      43.952  30.946  37.843  1.00  0.00     0.020 A 
ATOM     64  C   UNL A   1      42.997  29.255  36.403  1.00  0.00     0.020 A 
ATOM     65  C   UNL A   1      43.941  29.643  37.341  1.00  0.00     0.054 A 
BRANCH  65  66
ATOM     66  S   UNL A   1      45.225  28.482  37.860  1.00  0.00     0.124 S 
ATOM     67  O   UNL A   1      46.439  29.173  37.436  1.00  0.00    -0.237 OA
ATOM     68  O   UNL A   1      45.005  28.406  39.301  1.00  0.00    -0.237 OA
ATOM     69  O   UNL A   1      44.902  27.265  37.118  1.00  0.00    -0.744 OA
ENDBRANCH  65  66
ENDBRANCH  46  60
BRANCH  47  70
ATOM     70  C   UNL A   1      40.260  28.608  28.586  1.00  0.00    -0.014 A 
ATOM     71  C   UNL A   1      41.115  28.289  27.514  1.00  0.00     0.010 A 
ATOM     72  C   UNL A   1      39.486  27.566  29.137  1.00  0.00     0.010 A 
ATOM     73  C   UNL A   1      41.246  26.966  27.059  1.00  0.00     0.020 A 
ATOM     74  C   UNL A   1      39.604  26.245  28.682  1.00  0.00     0.020 A 
ATOM     75  C   UNL A   1      40.504  25.947  27.663  1.00  0.00     0.054 A 
BRANCH  75  76
ATOM     76  S   UNL A   1      40.810  24.219  27.189  1.00  0.00     0.124 S 
ATOM     77  O   UNL A   1      41.657  24.366  26.009  1.00  0.00    -0.237 OA
ATOM     78  O   UNL A   1      41.467  23.678  28.375  1.00  0.00    -0.237 OA
ATOM     79  O   UNL A   1      39.472  23.692  26.929  1.00  0.00    -0.744 OA
ENDBRANCH  75  76
ENDBRANCH  47  70
BRANCH  59  80
ATOM     80  C   UNL A   1      42.874  34.209  30.155  1.00  0.00    -0.014 A 
ATOM     81  C   UNL A   1      41.688  34.738  29.613  1.00  0.00     0.010 A 
ATOM     82  C   UNL A   1      44.101  34.800  29.805  1.00  0.00     0.010 A 
ATOM     83  C   UNL A   1      41.733  35.847  28.754  1.00  0.00     0.020 A 
ATOM     84  C   UNL A   1      44.151  35.913  28.964  1.00  0.00     0.020 A 
ATOM     85  C   UNL A   1      42.965  36.436  28.447  1.00  0.00     0.054 A 
BRANCH  85  86
ATOM     86  S   UNL A   1      43.011  37.945  27.438  1.00  0.00     0.124 S 
ATOM     87  O   UNL A   1      42.668  38.985  28.404  1.00  0.00    -0.237 OA
ATOM     88  O   UNL A   1      44.389  37.967  26.952  1.00  0.00    -0.237 OA
ATOM     89  O   UNL A   1      42.004  37.705  26.405  1.00  0.00    -0.744 OA
ENDBRANCH  85  86
ENDBRANCH  59  80
ENDBRANCH  33  34
ENDBRANCH  26  28
ENDBRANCH  25  26
ENDBRANCH  24  25
ENDBRANCH  23  24
ENDBRANCH  22  23
ENDBRANCH   1  22
TORSDOF 22
ENDMDL
