MODEL 1
REMARK VINA RESULT:      -9.6      0.000      0.000
REMARK SMILES O=C(NCc1ccc(C(=O)OCCOCCOCCOC(=O)c2ccc(-c3c4nc(c(-c5ccc(S(=O)(=O)[O-])cc5)c5ccc([nH]5)c(-c5ccc(S(=O)(=O)[O-])cc5)c5nc(c(-c6ccc(S(=O)(=O)[O-])cc6)c6ccc3[nH]6)C=C5)C=C4)cc2)o1)c1ccc(Cl)cc1
REMARK SMILES IDX 15 1 14 2 13 3 12 4 11 5 9 6 10 7 8 8 5 9 6 10 83 11 7 12
REMARK SMILES IDX 4 13 3 14 1 15 2 16 84 18 85 19 90 20 86 21 89 22 87 23
REMARK SMILES IDX 88 24 16 25 17 26 18 27 19 28 20 29 21 30 22 31 23 32 24 33
REMARK SMILES IDX 82 34 25 35 81 36 26 37 27 38 28 39 75 40 29 41 80 42 74 43
REMARK SMILES IDX 76 44 30 45 79 46 73 47 72 48 31 50 61 51 42 52 60 53 43 54
REMARK SMILES IDX 46 55 59 56 77 57 44 58 45 59 58 61 78 62 47 63 32 64 33 65
REMARK SMILES IDX 41 66 34 67 40 68 35 69 36 70 37 71 38 72 39 73 62 74 63 75
REMARK SMILES IDX 71 76 64 77 70 78 65 79 66 80 67 81 68 82 69 83 48 84 49 85
REMARK SMILES IDX 57 86 50 87 56 88 51 89 52 90 53 91 54 92 55 93
REMARK H PARENT 3 17 76 49 46 60
REMARK Flexibility Score: inf
ROOT
ATOM      1  C   UNL A   1      38.895  23.233  26.536  1.00  0.00     0.188 C 
ENDROOT
BRANCH   1   2
ATOM      2  O   UNL A   1      37.804  23.591  25.692  1.00  0.00    -0.376 OA
BRANCH   2   3
ATOM      3  C   UNL A   1      37.176  22.586  24.902  1.00  0.00     0.202 C 
BRANCH   3   4
ATOM      4  C   UNL A   1      36.019  21.827  25.553  1.00  0.00     0.261 C 
BRANCH   4   5
ATOM      5  O   UNL A   1      35.075  22.722  26.167  1.00  0.00    -0.457 OA
BRANCH   5   6
ATOM      6  C   UNL A   1      33.976  22.125  26.717  1.00  0.00     0.374 C 
ATOM      7  O   UNL A   1      34.003  21.376  27.686  1.00  0.00    -0.242 OA
BRANCH   6   8
ATOM      8  C   UNL A   1      32.782  22.595  26.056  1.00  0.00     0.211 A 
ATOM      9  C   UNL A   1      31.105  24.005  25.787  1.00  0.00     0.124 A 
ATOM     10  C   UNL A   1      31.049  23.132  24.722  1.00  0.00     0.048 A 
ATOM     11  O   UNL A   1      32.138  23.670  26.606  1.00  0.00    -0.452 OA
ATOM     12  C   UNL A   1      32.127  22.226  24.892  1.00  0.00     0.058 A 
BRANCH   9  13
ATOM     13  C   UNL A   1      30.282  25.161  26.216  1.00  0.00     0.191 C 
BRANCH  13  14
ATOM     14  N   UNL A   1      31.144  26.301  26.464  1.00  0.00    -0.345 N 
ATOM     15  O   UNL A   1      32.809  27.771  26.158  1.00  0.00    -0.269 OA
ATOM     16  C   UNL A   1      32.048  26.943  25.662  1.00  0.00     0.251 C 
ATOM     17  H   UNL A   1      31.064  26.679  27.369  1.00  0.00     0.164 HD
BRANCH  16  18
ATOM     18  C   UNL A   1      32.170  26.625  24.219  1.00  0.00     0.039 A 
ATOM     19  C   UNL A   1      31.209  27.011  23.278  1.00  0.00     0.015 A 
ATOM     20  C   UNL A   1      33.330  25.965  23.790  1.00  0.00     0.015 A 
ATOM     21  C   UNL A   1      31.355  26.645  21.937  1.00  0.00     0.021 A 
ATOM     22  C   UNL A   1      33.488  25.621  22.444  1.00  0.00     0.021 A 
ATOM     23  C   UNL A   1      32.488  25.941  21.527  1.00  0.00     0.041 A 
ATOM     24  Cl  UNL A   1      32.656  25.476  19.880  1.00  0.00    -0.084 Cl
ENDBRANCH  16  18
ENDBRANCH  13  14
ENDBRANCH   9  13
ENDBRANCH   6   8
ENDBRANCH   5   6
ENDBRANCH   4   5
ENDBRANCH   3   4
ENDBRANCH   2   3
ENDBRANCH   1   2
BRANCH   1  25
ATOM     25  C   UNL A   1      39.663  21.935  26.222  1.00  0.00     0.188 C 
BRANCH  25  26
ATOM     26  O   UNL A   1      40.878  21.812  26.944  1.00  0.00    -0.376 OA
BRANCH  26  27
ATOM     27  C   UNL A   1      42.005  22.488  26.411  1.00  0.00     0.202 C 
BRANCH  27  28
ATOM     28  C   UNL A   1      42.525  23.665  27.241  1.00  0.00     0.261 C 
BRANCH  28  29
ATOM     29  O   UNL A   1      42.810  24.865  26.509  1.00  0.00    -0.460 OA
BRANCH  29  30
ATOM     30  C   UNL A   1      41.766  25.663  26.185  1.00  0.00     0.338 C 
ATOM     31  O   UNL A   1      41.089  25.609  25.176  1.00  0.00    -0.246 OA
BRANCH  30  32
ATOM     32  C   UNL A   1      41.496  26.521  27.360  1.00  0.00     0.060 A 
ATOM     33  C   UNL A   1      42.293  27.647  27.593  1.00  0.00     0.016 A 
ATOM     34  C   UNL A   1      40.427  26.222  28.213  1.00  0.00     0.016 A 
ATOM     35  C   UNL A   1      42.021  28.478  28.685  1.00  0.00     0.010 A 
ATOM     36  C   UNL A   1      40.168  27.045  29.310  1.00  0.00     0.010 A 
ATOM     37  C   UNL A   1      40.968  28.172  29.559  1.00  0.00    -0.014 A 
BRANCH  37  38
ATOM     38  C   UNL A   1      40.763  28.944  30.808  1.00  0.00     0.031 A 
ATOM     39  C   UNL A   1      39.709  30.015  30.835  1.00  0.00     0.074 A 
ATOM     40  C   UNL A   1      41.532  28.727  31.891  1.00  0.00     0.049 A 
ATOM     41  N   UNL A   1      39.417  30.866  31.783  1.00  0.00    -0.248 NA
ATOM     42  C   UNL A   1      38.880  30.145  29.626  1.00  0.00     0.031 C 
ATOM     43  C   UNL A   1      42.566  27.699  32.004  1.00  0.00     0.029 A 
ATOM     44  N   UNL A   1      41.567  29.376  33.101  1.00  0.00    -0.354 N 
ATOM     45  C   UNL A   1      38.366  31.630  31.292  1.00  0.00     0.074 A 
ATOM     46  C   UNL A   1      38.091  31.159  29.950  1.00  0.00     0.031 C 
ATOM     47  C   UNL A   1      43.142  27.794  33.217  1.00  0.00     0.029 A 
ATOM     48  C   UNL A   1      42.543  28.909  33.949  1.00  0.00     0.049 A 
ATOM     49  H   UNL A   1      40.952  30.107  33.339  1.00  0.00     0.167 HD
ATOM     50  C   UNL A   1      37.687  32.631  31.900  1.00  0.00     0.031 A 
ATOM     51  C   UNL A   1      42.926  29.347  35.165  1.00  0.00     0.031 A 
ATOM     52  C   UNL A   1      37.982  33.124  33.218  1.00  0.00     0.049 A 
ATOM     53  C   UNL A   1      42.226  30.530  35.782  1.00  0.00     0.074 A 
ATOM     54  C   UNL A   1      37.349  34.134  33.923  1.00  0.00     0.029 A 
ATOM     55  N   UNL A   1      39.008  32.656  34.025  1.00  0.00    -0.354 N 
ATOM     56  N   UNL A   1      41.218  31.227  35.315  1.00  0.00    -0.248 NA
ATOM     57  C   UNL A   1      42.721  30.990  37.089  1.00  0.00     0.031 C 
ATOM     58  C   UNL A   1      38.024  34.307  35.136  1.00  0.00     0.029 A 
ATOM     59  C   UNL A   1      39.045  33.374  35.208  1.00  0.00     0.049 A 
ATOM     60  H   UNL A   1      39.618  31.919  33.792  1.00  0.00     0.167 HD
ATOM     61  C   UNL A   1      40.945  32.194  36.279  1.00  0.00     0.074 A 
ATOM     62  C   UNL A   1      41.888  31.986  37.359  1.00  0.00     0.031 C 
ATOM     63  C   UNL A   1      39.994  33.161  36.272  1.00  0.00     0.031 A 
BRANCH  50  64
ATOM     64  C   UNL A   1      36.580  33.281  31.117  1.00  0.00    -0.014 A 
ATOM     65  C   UNL A   1      36.843  33.930  29.898  1.00  0.00     0.010 A 
ATOM     66  C   UNL A   1      35.262  33.240  31.606  1.00  0.00     0.010 A 
ATOM     67  C   UNL A   1      35.813  34.570  29.204  1.00  0.00     0.020 A 
ATOM     68  C   UNL A   1      34.226  33.860  30.903  1.00  0.00     0.020 A 
ATOM     69  C   UNL A   1      34.512  34.540  29.716  1.00  0.00     0.054 A 
BRANCH  69  70
ATOM     70  S   UNL A   1      33.192  35.384  28.802  1.00  0.00     0.124 S 
ATOM     71  O   UNL A   1      33.950  36.319  27.975  1.00  0.00    -0.237 OA
ATOM     72  O   UNL A   1      32.547  34.290  28.081  1.00  0.00    -0.237 OA
ATOM     73  O   UNL A   1      32.381  35.997  29.851  1.00  0.00    -0.744 OA
ENDBRANCH  69  70
ENDBRANCH  50  64
BRANCH  51  74
ATOM     74  C   UNL A   1      44.046  28.676  35.878  1.00  0.00    -0.014 A 
ATOM     75  C   UNL A   1      43.788  27.661  36.816  1.00  0.00     0.010 A 
ATOM     76  C   UNL A   1      45.379  29.046  35.618  1.00  0.00     0.010 A 
ATOM     77  C   UNL A   1      44.842  27.032  37.486  1.00  0.00     0.020 A 
ATOM     78  C   UNL A   1      46.435  28.404  36.271  1.00  0.00     0.020 A 
ATOM     79  C   UNL A   1      46.159  27.407  37.209  1.00  0.00     0.054 A 
BRANCH  79  80
ATOM     80  S   UNL A   1      47.514  26.537  38.048  1.00  0.00     0.124 S 
ATOM     81  O   UNL A   1      48.081  25.742  36.963  1.00  0.00    -0.237 OA
ATOM     82  O   UNL A   1      48.347  27.636  38.530  1.00  0.00    -0.237 OA
ATOM     83  O   UNL A   1      46.835  25.775  39.094  1.00  0.00    -0.744 OA
ENDBRANCH  79  80
ENDBRANCH  51  74
BRANCH  63  84
ATOM     84  C   UNL A   1      39.906  34.061  37.474  1.00  0.00    -0.014 A 
ATOM     85  C   UNL A   1      40.612  35.275  37.524  1.00  0.00     0.010 A 
ATOM     86  C   UNL A   1      39.046  33.722  38.535  1.00  0.00     0.010 A 
ATOM     87  C   UNL A   1      40.473  36.127  38.624  1.00  0.00     0.020 A 
ATOM     88  C   UNL A   1      38.888  34.581  39.625  1.00  0.00     0.020 A 
ATOM     89  C   UNL A   1      39.610  35.775  39.667  1.00  0.00     0.054 A 
BRANCH  89  90
ATOM     90  S   UNL A   1      39.396  36.926  41.054  1.00  0.00     0.124 S 
ATOM     91  O   UNL A   1      38.519  37.940  40.475  1.00  0.00    -0.237 OA
ATOM     92  O   UNL A   1      38.788  36.084  42.082  1.00  0.00    -0.237 OA
ATOM     93  O   UNL A   1      40.756  37.371  41.348  1.00  0.00    -0.744 OA
ENDBRANCH  89  90
ENDBRANCH  63  84
ENDBRANCH  37  38
ENDBRANCH  30  32
ENDBRANCH  29  30
ENDBRANCH  28  29
ENDBRANCH  27  28
ENDBRANCH  26  27
ENDBRANCH  25  26
ENDBRANCH   1  25
TORSDOF 23
ENDMDL
MODEL 2
REMARK VINA RESULT:      -9.4      2.419      8.779
REMARK SMILES O=C(NCc1ccc(C(=O)OCCOCCOCCOC(=O)c2ccc(-c3c4nc(c(-c5ccc(S(=O)(=O)[O-])cc5)c5ccc([nH]5)c(-c5ccc(S(=O)(=O)[O-])cc5)c5nc(c(-c6ccc(S(=O)(=O)[O-])cc6)c6ccc3[nH]6)C=C5)C=C4)cc2)o1)c1ccc(Cl)cc1
REMARK SMILES IDX 15 1 14 2 13 3 12 4 11 5 9 6 10 7 8 8 5 9 6 10 83 11 7 12
REMARK SMILES IDX 4 13 3 14 1 15 2 16 84 18 85 19 90 20 86 21 89 22 87 23
REMARK SMILES IDX 88 24 16 25 17 26 18 27 19 28 20 29 21 30 22 31 23 32 24 33
REMARK SMILES IDX 82 34 25 35 81 36 26 37 27 38 28 39 75 40 29 41 80 42 74 43
REMARK SMILES IDX 76 44 30 45 79 46 73 47 72 48 31 50 61 51 42 52 60 53 43 54
REMARK SMILES IDX 46 55 59 56 77 57 44 58 45 59 58 61 78 62 47 63 32 64 33 65
REMARK SMILES IDX 41 66 34 67 40 68 35 69 36 70 37 71 38 72 39 73 62 74 63 75
REMARK SMILES IDX 71 76 64 77 70 78 65 79 66 80 67 81 68 82 69 83 48 84 49 85
REMARK SMILES IDX 57 86 50 87 56 88 51 89 52 90 53 91 54 92 55 93
REMARK H PARENT 3 17 76 49 46 60
REMARK Flexibility Score: inf
ROOT
ATOM      1  C   UNL A   1      33.652  27.831  26.502  1.00  0.00     0.188 C 
ENDROOT
BRANCH   1   2
ATOM      2  O   UNL A   1      32.987  27.754  25.244  1.00  0.00    -0.376 OA
BRANCH   2   3
ATOM      3  C   UNL A   1      33.547  28.424  24.118  1.00  0.00     0.202 C 
BRANCH   3   4
ATOM      4  C   UNL A   1      32.596  28.721  22.958  1.00  0.00     0.261 C 
BRANCH   4   5
ATOM      5  O   UNL A   1      32.220  27.523  22.258  1.00  0.00    -0.457 OA
BRANCH   5   6
ATOM      6  C   UNL A   1      31.053  26.945  22.672  1.00  0.00     0.374 C 
ATOM      7  O   UNL A   1      29.966  27.511  22.694  1.00  0.00    -0.242 OA
BRANCH   6   8
ATOM      8  C   UNL A   1      31.276  25.551  22.973  1.00  0.00     0.211 A 
ATOM      9  C   UNL A   1      32.547  23.840  23.543  1.00  0.00     0.124 A 
ATOM     10  C   UNL A   1      31.252  23.369  23.526  1.00  0.00     0.048 A 
ATOM     11  O   UNL A   1      32.568  25.153  23.189  1.00  0.00    -0.452 OA
ATOM     12  C   UNL A   1      30.434  24.468  23.161  1.00  0.00     0.058 A 
BRANCH   9  13
ATOM     13  C   UNL A   1      33.864  23.220  23.825  1.00  0.00     0.191 C 
BRANCH  13  14
ATOM     14  N   UNL A   1      33.989  22.982  25.250  1.00  0.00    -0.345 N 
ATOM     15  O   UNL A   1      33.844  21.907  27.214  1.00  0.00    -0.269 OA
ATOM     16  C   UNL A   1      33.895  21.832  25.988  1.00  0.00     0.251 C 
ATOM     17  H   UNL A   1      34.174  23.789  25.781  1.00  0.00     0.164 HD
BRANCH  16  18
ATOM     18  C   UNL A   1      33.799  20.501  25.342  1.00  0.00     0.039 A 
ATOM     19  C   UNL A   1      32.575  19.927  24.978  1.00  0.00     0.015 A 
ATOM     20  C   UNL A   1      34.993  19.833  25.035  1.00  0.00     0.015 A 
ATOM     21  C   UNL A   1      32.542  18.649  24.412  1.00  0.00     0.021 A 
ATOM     22  C   UNL A   1      34.960  18.566  24.447  1.00  0.00     0.021 A 
ATOM     23  C   UNL A   1      33.734  17.969  24.159  1.00  0.00     0.041 A 
ATOM     24  Cl  UNL A   1      33.689  16.389  23.481  1.00  0.00    -0.084 Cl
ENDBRANCH  16  18
ENDBRANCH  13  14
ENDBRANCH   9  13
ENDBRANCH   6   8
ENDBRANCH   5   6
ENDBRANCH   4   5
ENDBRANCH   3   4
ENDBRANCH   2   3
ENDBRANCH   1   2
BRANCH   1  25
ATOM     25  C   UNL A   1      34.358  29.149  26.873  1.00  0.00     0.188 C 
BRANCH  25  26
ATOM     26  O   UNL A   1      33.471  30.142  27.365  1.00  0.00    -0.376 OA
BRANCH  26  27
ATOM     27  C   UNL A   1      33.962  31.471  27.400  1.00  0.00     0.202 C 
BRANCH  27  28
ATOM     28  C   UNL A   1      32.905  32.563  27.599  1.00  0.00     0.261 C 
BRANCH  28  29
ATOM     29  O   UNL A   1      33.410  33.895  27.763  1.00  0.00    -0.460 OA
BRANCH  29  30
ATOM     30  C   UNL A   1      33.414  34.413  29.013  1.00  0.00     0.338 C 
ATOM     31  O   UNL A   1      32.541  35.086  29.529  1.00  0.00    -0.246 OA
BRANCH  30  32
ATOM     32  C   UNL A   1      34.611  33.880  29.699  1.00  0.00     0.060 A 
ATOM     33  C   UNL A   1      34.456  33.033  30.802  1.00  0.00     0.016 A 
ATOM     34  C   UNL A   1      35.889  34.199  29.225  1.00  0.00     0.016 A 
ATOM     35  C   UNL A   1      35.586  32.502  31.435  1.00  0.00     0.010 A 
ATOM     36  C   UNL A   1      37.014  33.679  29.869  1.00  0.00     0.010 A 
ATOM     37  C   UNL A   1      36.870  32.836  30.982  1.00  0.00    -0.014 A 
BRANCH  37  38
ATOM     38  C   UNL A   1      38.077  32.417  31.734  1.00  0.00     0.031 A 
ATOM     39  C   UNL A   1      38.889  31.262  31.218  1.00  0.00     0.074 A 
ATOM     40  C   UNL A   1      38.425  33.026  32.883  1.00  0.00     0.049 A 
ATOM     41  N   UNL A   1      39.926  30.673  31.754  1.00  0.00    -0.248 NA
ATOM     42  C   UNL A   1      38.467  30.693  29.927  1.00  0.00     0.031 C 
ATOM     43  C   UNL A   1      37.742  34.175  33.473  1.00  0.00     0.029 A 
ATOM     44  N   UNL A   1      39.438  32.746  33.766  1.00  0.00    -0.354 N 
ATOM     45  C   UNL A   1      40.288  29.668  30.866  1.00  0.00     0.074 A 
ATOM     46  C   UNL A   1      39.341  29.710  29.770  1.00  0.00     0.031 C 
ATOM     47  C   UNL A   1      38.351  34.497  34.629  1.00  0.00     0.029 A 
ATOM     48  C   UNL A   1      39.442  33.556  34.876  1.00  0.00     0.049 A 
ATOM     49  H   UNL A   1      40.100  32.032  33.618  1.00  0.00     0.167 HD
ATOM     50  C   UNL A   1      41.315  28.790  30.950  1.00  0.00     0.031 A 
ATOM     51  C   UNL A   1      40.220  33.525  35.977  1.00  0.00     0.031 A 
ATOM     52  C   UNL A   1      42.233  28.723  32.055  1.00  0.00     0.049 A 
ATOM     53  C   UNL A   1      41.292  32.474  36.100  1.00  0.00     0.074 A 
ATOM     54  C   UNL A   1      43.309  27.870  32.231  1.00  0.00     0.029 A 
ATOM     55  N   UNL A   1      42.174  29.530  33.180  1.00  0.00    -0.354 N 
ATOM     56  N   UNL A   1      41.638  31.545  35.240  1.00  0.00    -0.248 NA
ATOM     57  C   UNL A   1      42.075  32.463  37.345  1.00  0.00     0.031 C 
ATOM     58  C   UNL A   1      43.870  28.130  33.486  1.00  0.00     0.029 A 
ATOM     59  C   UNL A   1      43.175  29.177  34.069  1.00  0.00     0.049 A 
ATOM     60  H   UNL A   1      41.517  30.250  33.325  1.00  0.00     0.167 HD
ATOM     61  C   UNL A   1      42.691  30.853  35.832  1.00  0.00     0.074 A 
ATOM     62  C   UNL A   1      42.932  31.475  37.117  1.00  0.00     0.031 C 
ATOM     63  C   UNL A   1      43.398  29.801  35.349  1.00  0.00     0.031 A 
BRANCH  50  64
ATOM     64  C   UNL A   1      41.467  27.806  29.823  1.00  0.00    -0.014 A 
ATOM     65  C   UNL A   1      42.690  27.675  29.140  1.00  0.00     0.010 A 
ATOM     66  C   UNL A   1      40.377  27.004  29.444  1.00  0.00     0.010 A 
ATOM     67  C   UNL A   1      42.804  26.791  28.064  1.00  0.00     0.020 A 
ATOM     68  C   UNL A   1      40.494  26.103  28.383  1.00  0.00     0.020 A 
ATOM     69  C   UNL A   1      41.702  26.017  27.686  1.00  0.00     0.054 A 
BRANCH  69  70
ATOM     70  S   UNL A   1      41.872  24.881  26.281  1.00  0.00     0.124 S 
ATOM     71  O   UNL A   1      41.272  23.659  26.809  1.00  0.00    -0.237 OA
ATOM     72  O   UNL A   1      41.112  25.551  25.230  1.00  0.00    -0.237 OA
ATOM     73  O   UNL A   1      43.315  24.820  26.059  1.00  0.00    -0.744 OA
ENDBRANCH  69  70
ENDBRANCH  50  64
BRANCH  51  74
ATOM     74  C   UNL A   1      40.002  34.513  37.069  1.00  0.00    -0.014 A 
ATOM     75  C   UNL A   1      40.666  35.751  37.053  1.00  0.00     0.010 A 
ATOM     76  C   UNL A   1      39.123  34.220  38.128  1.00  0.00     0.010 A 
ATOM     77  C   UNL A   1      40.461  36.677  38.081  1.00  0.00     0.020 A 
ATOM     78  C   UNL A   1      38.900  35.152  39.146  1.00  0.00     0.020 A 
ATOM     79  C   UNL A   1      39.579  36.372  39.120  1.00  0.00     0.054 A 
BRANCH  79  80
ATOM     80  S   UNL A   1      39.282  37.612  40.413  1.00  0.00     0.124 S 
ATOM     81  O   UNL A   1      38.954  36.778  41.564  1.00  0.00    -0.237 OA
ATOM     82  O   UNL A   1      40.563  38.311  40.482  1.00  0.00    -0.237 OA
ATOM     83  O   UNL A   1      38.177  38.405  39.877  1.00  0.00    -0.744 OA
ENDBRANCH  79  80
ENDBRANCH  51  74
BRANCH  63  84
ATOM     84  C   UNL A   1      44.516  29.263  36.201  1.00  0.00    -0.014 A 
ATOM     85  C   UNL A   1      45.777  29.885  36.219  1.00  0.00     0.010 A 
ATOM     86  C   UNL A   1      44.278  28.167  37.051  1.00  0.00     0.010 A 
ATOM     87  C   UNL A   1      46.787  29.407  37.060  1.00  0.00     0.020 A 
ATOM     88  C   UNL A   1      45.278  27.702  37.908  1.00  0.00     0.020 A 
ATOM     89  C   UNL A   1      46.530  28.320  37.901  1.00  0.00     0.054 A 
BRANCH  89  90
ATOM     90  S   UNL A   1      47.834  27.758  39.031  1.00  0.00     0.124 S 
ATOM     91  O   UNL A   1      48.855  27.281  38.103  1.00  0.00    -0.237 OA
ATOM     92  O   UNL A   1      48.173  28.975  39.765  1.00  0.00    -0.237 OA
ATOM     93  O   UNL A   1      47.180  26.721  39.826  1.00  0.00    -0.744 OA
ENDBRANCH  89  90
ENDBRANCH  63  84
ENDBRANCH  37  38
ENDBRANCH  30  32
ENDBRANCH  29  30
ENDBRANCH  28  29
ENDBRANCH  27  28
ENDBRANCH  26  27
ENDBRANCH  25  26
ENDBRANCH   1  25
TORSDOF 23
ENDMDL
MODEL 3
REMARK VINA RESULT:      -9.4      5.036      9.479
REMARK SMILES O=C(NCc1ccc(C(=O)OCCOCCOCCOC(=O)c2ccc(-c3c4nc(c(-c5ccc(S(=O)(=O)[O-])cc5)c5ccc([nH]5)c(-c5ccc(S(=O)(=O)[O-])cc5)c5nc(c(-c6ccc(S(=O)(=O)[O-])cc6)c6ccc3[nH]6)C=C5)C=C4)cc2)o1)c1ccc(Cl)cc1
REMARK SMILES IDX 15 1 14 2 13 3 12 4 11 5 9 6 10 7 8 8 5 9 6 10 83 11 7 12
REMARK SMILES IDX 4 13 3 14 1 15 2 16 84 18 85 19 90 20 86 21 89 22 87 23
REMARK SMILES IDX 88 24 16 25 17 26 18 27 19 28 20 29 21 30 22 31 23 32 24 33
REMARK SMILES IDX 82 34 25 35 81 36 26 37 27 38 28 39 75 40 29 41 80 42 74 43
REMARK SMILES IDX 76 44 30 45 79 46 73 47 72 48 31 50 61 51 42 52 60 53 43 54
REMARK SMILES IDX 46 55 59 56 77 57 44 58 45 59 58 61 78 62 47 63 32 64 33 65
REMARK SMILES IDX 41 66 34 67 40 68 35 69 36 70 37 71 38 72 39 73 62 74 63 75
REMARK SMILES IDX 71 76 64 77 70 78 65 79 66 80 67 81 68 82 69 83 48 84 49 85
REMARK SMILES IDX 57 86 50 87 56 88 51 89 52 90 53 91 54 92 55 93
REMARK H PARENT 3 17 76 49 46 60
REMARK Flexibility Score: inf
ROOT
ATOM      1  C   UNL A   1      34.465  23.100  26.154  1.00  0.00     0.188 C 
ENDROOT
BRANCH   1   2
ATOM      2  O   UNL A   1      33.139  23.619  26.194  1.00  0.00    -0.376 OA
BRANCH   2   3
ATOM      3  C   UNL A   1      32.098  22.923  25.515  1.00  0.00     0.202 C 
BRANCH   3   4
ATOM      4  C   UNL A   1      32.363  22.551  24.056  1.00  0.00     0.261 C 
BRANCH   4   5
ATOM      5  O   UNL A   1      32.060  23.639  23.165  1.00  0.00    -0.457 OA
BRANCH   5   6
ATOM      6  C   UNL A   1      33.112  24.100  22.426  1.00  0.00     0.374 C 
ATOM      7  O   UNL A   1      33.729  23.435  21.603  1.00  0.00    -0.242 OA
BRANCH   6   8
ATOM      8  C   UNL A   1      33.311  25.507  22.683  1.00  0.00     0.211 A 
ATOM      9  C   UNL A   1      33.805  27.219  23.985  1.00  0.00     0.124 A 
ATOM     10  C   UNL A   1      33.688  27.727  22.709  1.00  0.00     0.048 A 
ATOM     11  O   UNL A   1      33.558  25.882  23.977  1.00  0.00    -0.452 OA
ATOM     12  C   UNL A   1      33.371  26.627  21.871  1.00  0.00     0.058 A 
BRANCH   9  13
ATOM     13  C   UNL A   1      34.101  27.819  25.309  1.00  0.00     0.191 C 
BRANCH  13  14
ATOM     14  N   UNL A   1      33.137  27.340  26.281  1.00  0.00    -0.345 N 
ATOM     15  O   UNL A   1      31.181  27.124  27.358  1.00  0.00    -0.269 OA
ATOM     16  C   UNL A   1      31.773  27.441  26.328  1.00  0.00     0.251 C 
ATOM     17  H   UNL A   1      33.533  26.858  27.041  1.00  0.00     0.164 HD
BRANCH  16  18
ATOM     18  C   UNL A   1      30.993  27.976  25.185  1.00  0.00     0.039 A 
ATOM     19  C   UNL A   1      30.196  27.165  24.371  1.00  0.00     0.015 A 
ATOM     20  C   UNL A   1      31.020  29.361  24.965  1.00  0.00     0.015 A 
ATOM     21  C   UNL A   1      29.518  27.718  23.280  1.00  0.00     0.021 A 
ATOM     22  C   UNL A   1      30.323  29.917  23.889  1.00  0.00     0.021 A 
ATOM     23  C   UNL A   1      29.593  29.089  23.037  1.00  0.00     0.041 A 
ATOM     24  Cl  UNL A   1      28.774  29.763  21.683  1.00  0.00    -0.084 Cl
ENDBRANCH  16  18
ENDBRANCH  13  14
ENDBRANCH   9  13
ENDBRANCH   6   8
ENDBRANCH   5   6
ENDBRANCH   4   5
ENDBRANCH   3   4
ENDBRANCH   2   3
ENDBRANCH   1   2
BRANCH   1  25
ATOM     25  C   UNL A   1      34.680  21.622  26.534  1.00  0.00     0.188 C 
BRANCH  25  26
ATOM     26  O   UNL A   1      35.432  20.898  25.572  1.00  0.00    -0.376 OA
BRANCH  26  27
ATOM     27  C   UNL A   1      36.376  21.637  24.817  1.00  0.00     0.202 C 
BRANCH  27  28
ATOM     28  C   UNL A   1      37.846  21.401  25.179  1.00  0.00     0.261 C 
BRANCH  28  29
ATOM     29  O   UNL A   1      38.515  22.501  25.813  1.00  0.00    -0.460 OA
BRANCH  29  30
ATOM     30  C   UNL A   1      39.533  22.211  26.656  1.00  0.00     0.338 C 
ATOM     31  O   UNL A   1      39.934  21.106  26.966  1.00  0.00    -0.246 OA
BRANCH  30  32
ATOM     32  C   UNL A   1      40.175  23.495  27.016  1.00  0.00     0.060 A 
ATOM     33  C   UNL A   1      41.000  23.563  28.144  1.00  0.00     0.016 A 
ATOM     34  C   UNL A   1      39.982  24.623  26.211  1.00  0.00     0.016 A 
ATOM     35  C   UNL A   1      41.635  24.766  28.470  1.00  0.00     0.010 A 
ATOM     36  C   UNL A   1      40.605  25.827  26.548  1.00  0.00     0.010 A 
ATOM     37  C   UNL A   1      41.426  25.909  27.684  1.00  0.00    -0.014 A 
BRANCH  37  38
ATOM     38  C   UNL A   1      41.956  27.229  28.100  1.00  0.00     0.031 A 
ATOM     39  C   UNL A   1      43.444  27.445  28.107  1.00  0.00     0.074 A 
ATOM     40  C   UNL A   1      41.131  28.210  28.509  1.00  0.00     0.049 A 
ATOM     41  N   UNL A   1      44.129  28.482  28.513  1.00  0.00    -0.248 NA
ATOM     42  C   UNL A   1      44.267  26.338  27.593  1.00  0.00     0.031 C 
ATOM     43  C   UNL A   1      39.671  28.139  28.520  1.00  0.00     0.029 A 
ATOM     44  N   UNL A   1      41.412  29.458  29.008  1.00  0.00    -0.354 N 
ATOM     45  C   UNL A   1      45.463  28.159  28.297  1.00  0.00     0.074 A 
ATOM     46  C   UNL A   1      45.491  26.818  27.752  1.00  0.00     0.031 C 
ATOM     47  C   UNL A   1      39.183  29.292  29.013  1.00  0.00     0.029 A 
ATOM     48  C   UNL A   1      40.295  30.166  29.384  1.00  0.00     0.049 A 
ATOM     49  H   UNL A   1      42.327  29.813  29.090  1.00  0.00     0.167 HD
ATOM     50  C   UNL A   1      46.566  28.909  28.530  1.00  0.00     0.031 A 
ATOM     51  C   UNL A   1      40.184  31.370  29.981  1.00  0.00     0.031 A 
ATOM     52  C   UNL A   1      46.542  30.226  29.106  1.00  0.00     0.049 A 
ATOM     53  C   UNL A   1      41.430  32.145  30.327  1.00  0.00     0.074 A 
ATOM     54  C   UNL A   1      47.607  31.067  29.377  1.00  0.00     0.029 A 
ATOM     55  N   UNL A   1      45.395  30.888  29.515  1.00  0.00    -0.354 N 
ATOM     56  N   UNL A   1      42.683  31.836  30.096  1.00  0.00    -0.248 NA
ATOM     57  C   UNL A   1      41.244  33.428  31.020  1.00  0.00     0.031 C 
ATOM     58  C   UNL A   1      47.107  32.218  29.995  1.00  0.00     0.029 A 
ATOM     59  C   UNL A   1      45.727  32.114  30.064  1.00  0.00     0.049 A 
ATOM     60  H   UNL A   1      44.478  30.538  29.426  1.00  0.00     0.167 HD
ATOM     61  C   UNL A   1      43.434  32.896  30.596  1.00  0.00     0.074 A 
ATOM     62  C   UNL A   1      42.494  33.857  31.135  1.00  0.00     0.031 C 
ATOM     63  C   UNL A   1      44.780  33.059  30.603  1.00  0.00     0.031 A 
BRANCH  50  64
ATOM     64  C   UNL A   1      47.895  28.292  28.190  1.00  0.00    -0.014 A 
ATOM     65  C   UNL A   1      48.374  28.292  26.868  1.00  0.00     0.010 A 
ATOM     66  C   UNL A   1      48.674  27.709  29.205  1.00  0.00     0.010 A 
ATOM     67  C   UNL A   1      49.588  27.674  26.559  1.00  0.00     0.020 A 
ATOM     68  C   UNL A   1      49.899  27.110  28.902  1.00  0.00     0.020 A 
ATOM     69  C   UNL A   1      50.339  27.078  27.577  1.00  0.00     0.054 A 
BRANCH  69  70
ATOM     70  S   UNL A   1      51.909  26.276  27.150  1.00  0.00     0.124 S 
ATOM     71  O   UNL A   1      52.468  27.209  26.176  1.00  0.00    -0.237 OA
ATOM     72  O   UNL A   1      52.602  26.218  28.434  1.00  0.00    -0.237 OA
ATOM     73  O   UNL A   1      51.501  24.981  26.609  1.00  0.00    -0.744 OA
ENDBRANCH  69  70
ENDBRANCH  50  64
BRANCH  51  74
ATOM     74  C   UNL A   1      38.839  31.913  30.314  1.00  0.00    -0.014 A 
ATOM     75  C   UNL A   1      38.186  32.788  29.429  1.00  0.00     0.010 A 
ATOM     76  C   UNL A   1      38.204  31.553  31.516  1.00  0.00     0.010 A 
ATOM     77  C   UNL A   1      36.923  33.300  29.744  1.00  0.00     0.020 A 
ATOM     78  C   UNL A   1      36.932  32.046  31.824  1.00  0.00     0.020 A 
ATOM     79  C   UNL A   1      36.304  32.924  30.939  1.00  0.00     0.054 A 
BRANCH  79  80
ATOM     80  S   UNL A   1      34.639  33.553  31.300  1.00  0.00     0.124 S 
ATOM     81  O   UNL A   1      34.930  34.833  31.938  1.00  0.00    -0.237 OA
ATOM     82  O   UNL A   1      34.034  33.631  29.972  1.00  0.00    -0.237 OA
ATOM     83  O   UNL A   1      34.071  32.530  32.176  1.00  0.00    -0.744 OA
ENDBRANCH  79  80
ENDBRANCH  51  74
BRANCH  63  84
ATOM     84  C   UNL A   1      45.325  34.332  31.191  1.00  0.00    -0.014 A 
ATOM     85  C   UNL A   1      45.701  34.403  32.544  1.00  0.00     0.010 A 
ATOM     86  C   UNL A   1      45.534  35.449  30.361  1.00  0.00     0.010 A 
ATOM     87  C   UNL A   1      46.261  35.576  33.060  1.00  0.00     0.020 A 
ATOM     88  C   UNL A   1      46.113  36.614  30.868  1.00  0.00     0.020 A 
ATOM     89  C   UNL A   1      46.465  36.674  32.218  1.00  0.00     0.054 A 
BRANCH  89  90
ATOM     90  S   UNL A   1      47.251  38.163  32.894  1.00  0.00     0.124 S 
ATOM     91  O   UNL A   1      48.487  38.233  32.120  1.00  0.00    -0.237 OA
ATOM     92  O   UNL A   1      46.270  39.207  32.605  1.00  0.00    -0.237 OA
ATOM     93  O   UNL A   1      47.419  37.852  34.312  1.00  0.00    -0.744 OA
ENDBRANCH  89  90
ENDBRANCH  63  84
ENDBRANCH  37  38
ENDBRANCH  30  32
ENDBRANCH  29  30
ENDBRANCH  28  29
ENDBRANCH  27  28
ENDBRANCH  26  27
ENDBRANCH  25  26
ENDBRANCH   1  25
TORSDOF 23
ENDMDL
