MODEL 1
REMARK VINA RESULT:      -6.4      0.000      0.000
REMARK SMILES CC(C)[NH2+][C@@]1(C(=O)OCCOCCOCCOC(=O)c2ccc(-c3c4nc(c(-c5ccc(S(=O)(=O)[O-])cc5)c5ccc([nH]5)c(-c5ccc(S(=O)(=O)[O-])cc5)c5nc(c(-c6ccc(S(=O)(=O)[O-])cc6)c6ccc3[nH]6)C=C5)C=C4)cc2)CCC[C@H](SC2CCCCC2)C1
REMARK SMILES IDX 13 1 12 2 11 3 10 4 9 5 8 6 6 7 7 8 5 9 80 10 91 11 81 12
REMARK SMILES IDX 83 13 82 14 4 15 2 18 1 19 3 20 84 21 85 22 86 23 90 24
REMARK SMILES IDX 87 25 89 26 88 27 14 28 15 29 16 30 17 31 18 32 19 33 20 34
REMARK SMILES IDX 21 35 79 36 22 37 78 38 23 39 24 40 25 41 72 42 26 43 77 44
REMARK SMILES IDX 71 45 73 46 27 47 76 48 70 49 69 50 28 52 58 53 39 54 57 55
REMARK SMILES IDX 40 56 43 57 56 58 74 59 41 60 42 61 55 63 75 64 44 65 29 66
REMARK SMILES IDX 30 67 38 68 31 69 37 70 32 71 33 72 34 73 35 74 36 75 59 76
REMARK SMILES IDX 60 77 68 78 61 79 67 80 62 81 63 82 64 83 65 84 66 85 45 86
REMARK SMILES IDX 46 87 54 88 47 89 53 90 48 91 49 92 50 93 51 94 52 95
REMARK H PARENT 4 16 4 17 73 51 43 62
REMARK Flexibility Score: inf
ROOT
ATOM      1  C   UNL A   1      37.057  33.244  36.551  1.00  0.00     0.188 C 
ENDROOT
BRANCH   1   2
ATOM      2  C   UNL A   1      37.945  32.658  37.661  1.00  0.00     0.188 C 
BRANCH   2   3
ATOM      3  O   UNL A   1      39.312  33.044  37.543  1.00  0.00    -0.376 OA
BRANCH   3   4
ATOM      4  C   UNL A   1      39.576  34.403  37.883  1.00  0.00     0.202 C 
BRANCH   4   5
ATOM      5  C   UNL A   1      41.059  34.715  37.721  1.00  0.00     0.261 C 
BRANCH   5   6
ATOM      6  O   UNL A   1      41.345  34.835  36.315  1.00  0.00    -0.459 OA
BRANCH   6   7
ATOM      7  C   UNL A   1      42.375  34.151  35.792  1.00  0.00     0.368 C 
ATOM      8  O   UNL A   1      43.029  33.330  36.428  1.00  0.00    -0.245 OA
BRANCH   7   9
ATOM      9  C   UNL A   1      42.572  34.430  34.262  1.00  0.00     0.195 C 
ATOM     10  C   UNL A   1      41.255  35.122  33.807  1.00  0.00     0.081 C 
ATOM     11  C   UNL A   1      42.788  33.259  33.241  1.00  0.00     0.095 C 
ATOM     12  C   UNL A   1      40.081  34.135  33.698  1.00  0.00     0.008 C 
ATOM     13  C   UNL A   1      41.628  32.224  33.046  1.00  0.00     0.053 C 
ATOM     14  C   UNL A   1      40.365  33.009  32.702  1.00  0.00     0.015 C 
BRANCH   9  15
ATOM     15  N   UNL A   1      43.689  35.430  34.131  1.00  0.00    -0.330 N 
ATOM     16  H   UNL A   1      43.885  35.794  35.064  1.00  0.00     0.347 HD
ATOM     17  H   UNL A   1      44.452  34.912  33.695  1.00  0.00     0.347 HD
BRANCH  15  18
ATOM     18  C   UNL A   1      43.467  36.589  33.244  1.00  0.00     0.176 C 
ATOM     19  C   UNL A   1      43.594  37.860  34.090  1.00  0.00     0.075 C 
ATOM     20  C   UNL A   1      44.462  36.702  32.082  1.00  0.00     0.075 C 
ENDBRANCH  15  18
ENDBRANCH   9  15
BRANCH  13  21
ATOM     21  S   UNL A   1      41.473  31.203  34.557  1.00  0.00    -0.155 SA
BRANCH  21  22
ATOM     22  C   UNL A   1      41.770  29.455  34.230  1.00  0.00     0.047 C 
ATOM     23  C   UNL A   1      42.701  29.297  33.034  1.00  0.00     0.014 C 
ATOM     24  C   UNL A   1      42.096  28.527  35.396  1.00  0.00     0.014 C 
ATOM     25  C   UNL A   1      42.722  27.850  32.560  1.00  0.00     0.001 C 
ATOM     26  C   UNL A   1      42.138  27.073  34.895  1.00  0.00     0.001 C 
ATOM     27  C   UNL A   1      43.084  26.909  33.705  1.00  0.00     0.000 C 
ENDBRANCH  21  22
ENDBRANCH  13  21
ENDBRANCH   7   9
ENDBRANCH   6   7
ENDBRANCH   5   6
ENDBRANCH   4   5
ENDBRANCH   3   4
ENDBRANCH   2   3
ENDBRANCH   1   2
BRANCH   1  28
ATOM     28  O   UNL A   1      37.181  32.873  35.187  1.00  0.00    -0.376 OA
BRANCH  28  29
ATOM     29  C   UNL A   1      36.503  33.647  34.223  1.00  0.00     0.202 C 
BRANCH  29  30
ATOM     30  C   UNL A   1      36.682  33.204  32.767  1.00  0.00     0.261 C 
BRANCH  30  31
ATOM     31  O   UNL A   1      36.803  31.783  32.559  1.00  0.00    -0.460 OA
BRANCH  31  32
ATOM     32  C   UNL A   1      36.514  31.345  31.309  1.00  0.00     0.338 C 
ATOM     33  O   UNL A   1      35.485  31.559  30.678  1.00  0.00    -0.246 OA
BRANCH  32  34
ATOM     34  C   UNL A   1      37.691  30.671  30.709  1.00  0.00     0.060 A 
ATOM     35  C   UNL A   1      38.657  30.109  31.558  1.00  0.00     0.016 A 
ATOM     36  C   UNL A   1      37.894  30.666  29.327  1.00  0.00     0.016 A 
ATOM     37  C   UNL A   1      39.839  29.581  31.035  1.00  0.00     0.010 A 
ATOM     38  C   UNL A   1      39.096  30.166  28.805  1.00  0.00     0.010 A 
ATOM     39  C   UNL A   1      40.090  29.657  29.659  1.00  0.00    -0.014 A 
BRANCH  39  40
ATOM     40  C   UNL A   1      41.470  29.418  29.159  1.00  0.00     0.031 A 
ATOM     41  C   UNL A   1      41.810  28.047  28.635  1.00  0.00     0.074 A 
ATOM     42  C   UNL A   1      42.395  30.394  29.130  1.00  0.00     0.049 A 
ATOM     43  N   UNL A   1      42.940  27.599  28.151  1.00  0.00    -0.248 NA
ATOM     44  C   UNL A   1      40.731  27.045  28.672  1.00  0.00     0.031 C 
ATOM     45  C   UNL A   1      42.187  31.767  29.580  1.00  0.00     0.029 A 
ATOM     46  N   UNL A   1      43.696  30.379  28.690  1.00  0.00    -0.354 N 
ATOM     47  C   UNL A   1      42.714  26.262  27.841  1.00  0.00     0.074 A 
ATOM     48  C   UNL A   1      41.346  25.968  28.207  1.00  0.00     0.031 C 
ATOM     49  C   UNL A   1      43.311  32.473  29.363  1.00  0.00     0.029 A 
ATOM     50  C   UNL A   1      44.338  31.590  28.813  1.00  0.00     0.049 A 
ATOM     51  H   UNL A   1      44.130  29.577  28.320  1.00  0.00     0.167 HD
ATOM     52  C   UNL A   1      43.570  25.357  27.310  1.00  0.00     0.031 A 
ATOM     53  C   UNL A   1      45.611  31.939  28.535  1.00  0.00     0.031 A 
ATOM     54  C   UNL A   1      44.941  25.640  26.977  1.00  0.00     0.049 A 
ATOM     55  C   UNL A   1      46.562  30.898  27.996  1.00  0.00     0.074 A 
ATOM     56  C   UNL A   1      45.889  24.786  26.439  1.00  0.00     0.029 A 
ATOM     57  N   UNL A   1      45.565  26.865  27.158  1.00  0.00    -0.354 N 
ATOM     58  N   UNL A   1      46.330  29.639  27.700  1.00  0.00    -0.248 NA
ATOM     59  C   UNL A   1      47.949  31.324  27.758  1.00  0.00     0.031 C 
ATOM     60  C   UNL A   1      47.103  25.476  26.357  1.00  0.00     0.029 A 
ATOM     61  C   UNL A   1      46.892  26.783  26.768  1.00  0.00     0.049 A 
ATOM     62  H   UNL A   1      45.129  27.674  27.511  1.00  0.00     0.167 HD
ATOM     63  C   UNL A   1      47.536  29.133  27.221  1.00  0.00     0.074 A 
ATOM     64  C   UNL A   1      48.486  30.227  27.243  1.00  0.00     0.031 C 
ATOM     65  C   UNL A   1      47.832  27.875  26.802  1.00  0.00     0.031 A 
BRANCH  52  66
ATOM     66  C   UNL A   1      43.057  23.954  27.112  1.00  0.00    -0.014 A 
ATOM     67  C   UNL A   1      42.852  23.085  28.200  1.00  0.00     0.010 A 
ATOM     68  C   UNL A   1      42.752  23.505  25.813  1.00  0.00     0.010 A 
ATOM     69  C   UNL A   1      42.391  21.783  27.987  1.00  0.00     0.020 A 
ATOM     70  C   UNL A   1      42.263  22.215  25.600  1.00  0.00     0.020 A 
ATOM     71  C   UNL A   1      42.101  21.356  26.688  1.00  0.00     0.054 A 
BRANCH  71  72
ATOM     72  S   UNL A   1      41.485  19.667  26.444  1.00  0.00     0.124 S 
ATOM     73  O   UNL A   1      42.312  19.201  25.334  1.00  0.00    -0.237 OA
ATOM     74  O   UNL A   1      41.755  19.040  27.736  1.00  0.00    -0.237 OA
ATOM     75  O   UNL A   1      40.071  19.854  26.130  1.00  0.00    -0.744 OA
ENDBRANCH  71  72
ENDBRANCH  52  66
BRANCH  53  76
ATOM     76  C   UNL A   1      46.083  33.331  28.790  1.00  0.00    -0.014 A 
ATOM     77  C   UNL A   1      46.819  33.648  29.947  1.00  0.00     0.010 A 
ATOM     78  C   UNL A   1      45.776  34.361  27.879  1.00  0.00     0.010 A 
ATOM     79  C   UNL A   1      47.224  34.964  30.195  1.00  0.00     0.020 A 
ATOM     80  C   UNL A   1      46.209  35.671  28.106  1.00  0.00     0.020 A 
ATOM     81  C   UNL A   1      46.921  35.967  29.269  1.00  0.00     0.054 A 
BRANCH  81  82
ATOM     82  S   UNL A   1      47.501  37.657  29.583  1.00  0.00     0.124 S 
ATOM     83  O   UNL A   1      48.791  37.668  28.901  1.00  0.00    -0.237 OA
ATOM     84  O   UNL A   1      46.453  38.468  28.971  1.00  0.00    -0.237 OA
ATOM     85  O   UNL A   1      47.564  37.730  31.042  1.00  0.00    -0.744 OA
ENDBRANCH  81  82
ENDBRANCH  53  76
BRANCH  65  86
ATOM     86  C   UNL A   1      49.230  27.622  26.292  1.00  0.00    -0.014 A 
ATOM     87  C   UNL A   1      50.292  27.323  27.166  1.00  0.00     0.010 A 
ATOM     88  C   UNL A   1      49.476  27.652  24.907  1.00  0.00     0.010 A 
ATOM     89  C   UNL A   1      51.581  27.111  26.666  1.00  0.00     0.020 A 
ATOM     90  C   UNL A   1      50.755  27.406  24.401  1.00  0.00     0.020 A 
ATOM     91  C   UNL A   1      51.805  27.159  25.286  1.00  0.00     0.054 A 
BRANCH  91  92
ATOM     92  S   UNL A   1      53.484  26.871  24.661  1.00  0.00     0.124 S 
ATOM     93  O   UNL A   1      53.228  26.119  23.435  1.00  0.00    -0.237 OA
ATOM     94  O   UNL A   1      53.992  28.227  24.473  1.00  0.00    -0.237 OA
ATOM     95  O   UNL A   1      54.128  26.115  25.733  1.00  0.00    -0.744 OA
ENDBRANCH  91  92
ENDBRANCH  65  86
ENDBRANCH  39  40
ENDBRANCH  32  34
ENDBRANCH  31  32
ENDBRANCH  30  31
ENDBRANCH  29  30
ENDBRANCH  28  29
ENDBRANCH   1  28
TORSDOF 24
ENDMDL
MODEL 2
REMARK VINA RESULT:      -6.3      8.234     15.285
REMARK SMILES CC(C)[NH2+][C@@]1(C(=O)OCCOCCOCCOC(=O)c2ccc(-c3c4nc(c(-c5ccc(S(=O)(=O)[O-])cc5)c5ccc([nH]5)c(-c5ccc(S(=O)(=O)[O-])cc5)c5nc(c(-c6ccc(S(=O)(=O)[O-])cc6)c6ccc3[nH]6)C=C5)C=C4)cc2)CCC[C@H](SC2CCCCC2)C1
REMARK SMILES IDX 13 1 12 2 11 3 10 4 9 5 8 6 6 7 7 8 5 9 80 10 91 11 81 12
REMARK SMILES IDX 83 13 82 14 4 15 2 18 1 19 3 20 84 21 85 22 86 23 90 24
REMARK SMILES IDX 87 25 89 26 88 27 14 28 15 29 16 30 17 31 18 32 19 33 20 34
REMARK SMILES IDX 21 35 79 36 22 37 78 38 23 39 24 40 25 41 72 42 26 43 77 44
REMARK SMILES IDX 71 45 73 46 27 47 76 48 70 49 69 50 28 52 58 53 39 54 57 55
REMARK SMILES IDX 40 56 43 57 56 58 74 59 41 60 42 61 55 63 75 64 44 65 29 66
REMARK SMILES IDX 30 67 38 68 31 69 37 70 32 71 33 72 34 73 35 74 36 75 59 76
REMARK SMILES IDX 60 77 68 78 61 79 67 80 62 81 63 82 64 83 65 84 66 85 45 86
REMARK SMILES IDX 46 87 54 88 47 89 53 90 48 91 49 92 50 93 51 94 52 95
REMARK H PARENT 4 16 4 17 73 51 43 62
REMARK Flexibility Score: inf
ROOT
ATOM      1  C   UNL A   1      48.550  22.377  39.054  1.00  0.00     0.188 C 
ENDROOT
BRANCH   1   2
ATOM      2  C   UNL A   1      47.765  21.117  39.453  1.00  0.00     0.188 C 
BRANCH   2   3
ATOM      3  O   UNL A   1      48.093  19.980  38.658  1.00  0.00    -0.376 OA
BRANCH   3   4
ATOM      4  C   UNL A   1      47.525  18.755  39.112  1.00  0.00     0.202 C 
BRANCH   4   5
ATOM      5  C   UNL A   1      46.286  19.023  39.959  1.00  0.00     0.261 C 
BRANCH   5   6
ATOM      6  O   UNL A   1      46.539  18.543  41.293  1.00  0.00    -0.459 OA
BRANCH   6   7
ATOM      7  C   UNL A   1      45.595  18.695  42.237  1.00  0.00     0.368 C 
ATOM      8  O   UNL A   1      44.473  19.130  42.001  1.00  0.00    -0.245 OA
BRANCH   7   9
ATOM      9  C   UNL A   1      46.047  18.152  43.637  1.00  0.00     0.195 C 
ATOM     10  C   UNL A   1      47.187  17.139  43.327  1.00  0.00     0.081 C 
ATOM     11  C   UNL A   1      45.054  17.372  44.567  1.00  0.00     0.095 C 
ATOM     12  C   UNL A   1      46.655  15.820  42.742  1.00  0.00     0.008 C 
ATOM     13  C   UNL A   1      44.488  16.001  44.062  1.00  0.00     0.053 C 
ATOM     14  C   UNL A   1      45.679  15.121  43.691  1.00  0.00     0.015 C 
BRANCH   9  15
ATOM     15  N   UNL A   1      46.647  19.308  44.391  1.00  0.00    -0.330 N 
ATOM     16  H   UNL A   1      47.656  19.157  44.431  1.00  0.00     0.347 HD
ATOM     17  H   UNL A   1      46.349  20.137  43.877  1.00  0.00     0.347 HD
BRANCH  15  18
ATOM     18  C   UNL A   1      46.181  19.536  45.773  1.00  0.00     0.176 C 
ATOM     19  C   UNL A   1      47.417  19.689  46.666  1.00  0.00     0.075 C 
ATOM     20  C   UNL A   1      45.317  20.791  45.956  1.00  0.00     0.075 C 
ENDBRANCH  15  18
ENDBRANCH   9  15
BRANCH  13  21
ATOM     21  S   UNL A   1      43.334  16.302  42.673  1.00  0.00    -0.155 SA
BRANCH  21  22
ATOM     22  C   UNL A   1      42.309  14.862  42.316  1.00  0.00     0.047 C 
ATOM     23  C   UNL A   1      42.340  14.555  40.824  1.00  0.00     0.014 C 
ATOM     24  C   UNL A   1      42.429  13.628  43.205  1.00  0.00     0.014 C 
ATOM     25  C   UNL A   1      41.258  13.545  40.463  1.00  0.00     0.001 C 
ATOM     26  C   UNL A   1      41.346  12.609  42.811  1.00  0.00     0.001 C 
ATOM     27  C   UNL A   1      41.384  12.287  41.317  1.00  0.00     0.000 C 
ENDBRANCH  21  22
ENDBRANCH  13  21
ENDBRANCH   7   9
ENDBRANCH   6   7
ENDBRANCH   5   6
ENDBRANCH   4   5
ENDBRANCH   3   4
ENDBRANCH   2   3
ENDBRANCH   1   2
BRANCH   1  28
ATOM     28  O   UNL A   1      47.927  23.628  38.809  1.00  0.00    -0.376 OA
BRANCH  28  29
ATOM     29  C   UNL A   1      48.627  24.582  38.041  1.00  0.00     0.202 C 
BRANCH  29  30
ATOM     30  C   UNL A   1      49.122  25.816  38.801  1.00  0.00     0.261 C 
BRANCH  30  31
ATOM     31  O   UNL A   1      48.733  27.087  38.245  1.00  0.00    -0.460 OA
BRANCH  31  32
ATOM     32  C   UNL A   1      47.606  27.636  38.763  1.00  0.00     0.338 C 
ATOM     33  O   UNL A   1      47.433  27.993  39.923  1.00  0.00    -0.246 OA
BRANCH  32  34
ATOM     34  C   UNL A   1      46.616  27.900  37.691  1.00  0.00     0.060 A 
ATOM     35  C   UNL A   1      46.871  28.927  36.769  1.00  0.00     0.016 A 
ATOM     36  C   UNL A   1      45.404  27.207  37.641  1.00  0.00     0.016 A 
ATOM     37  C   UNL A   1      45.906  29.289  35.827  1.00  0.00     0.010 A 
ATOM     38  C   UNL A   1      44.423  27.593  36.717  1.00  0.00     0.010 A 
ATOM     39  C   UNL A   1      44.654  28.661  35.831  1.00  0.00    -0.014 A 
BRANCH  39  40
ATOM     40  C   UNL A   1      43.531  29.276  35.075  1.00  0.00     0.031 A 
ATOM     41  C   UNL A   1      42.716  30.345  35.757  1.00  0.00     0.074 A 
ATOM     42  C   UNL A   1      43.256  28.933  33.805  1.00  0.00     0.049 A 
ATOM     43  N   UNL A   1      41.692  31.023  35.306  1.00  0.00    -0.248 NA
ATOM     44  C   UNL A   1      43.103  30.686  37.136  1.00  0.00     0.031 C 
ATOM     45  C   UNL A   1      43.982  27.936  33.024  1.00  0.00     0.029 A 
ATOM     46  N   UNL A   1      42.292  29.396  32.942  1.00  0.00    -0.354 N 
ATOM     47  C   UNL A   1      41.303  31.857  36.348  1.00  0.00     0.074 A 
ATOM     48  C   UNL A   1      42.190  31.589  37.458  1.00  0.00     0.031 C 
ATOM     49  C   UNL A   1      43.461  27.885  31.786  1.00  0.00     0.029 A 
ATOM     50  C   UNL A   1      42.325  28.802  31.702  1.00  0.00     0.049 A 
ATOM     51  H   UNL A   1      41.637  30.088  33.189  1.00  0.00     0.167 HD
ATOM     52  C   UNL A   1      40.293  32.759  36.383  1.00  0.00     0.031 A 
ATOM     53  C   UNL A   1      41.520  28.964  30.631  1.00  0.00     0.031 A 
ATOM     54  C   UNL A   1      39.389  33.003  35.290  1.00  0.00     0.049 A 
ATOM     55  C   UNL A   1      40.366  29.934  30.715  1.00  0.00     0.074 A 
ATOM     56  C   UNL A   1      38.330  33.892  35.232  1.00  0.00     0.029 A 
ATOM     57  N   UNL A   1      39.428  32.350  34.067  1.00  0.00    -0.354 N 
ATOM     58  N   UNL A   1      40.017  30.722  31.705  1.00  0.00    -0.248 NA
ATOM     59  C   UNL A   1      39.494  30.031  29.534  1.00  0.00     0.031 C 
ATOM     60  C   UNL A   1      37.689  33.730  34.000  1.00  0.00     0.029 A 
ATOM     61  C   UNL A   1      38.396  32.797  33.258  1.00  0.00     0.049 A 
ATOM     62  H   UNL A   1      40.092  31.669  33.812  1.00  0.00     0.167 HD
ATOM     63  C   UNL A   1      38.900  31.424  31.258  1.00  0.00     0.074 A 
ATOM     64  C   UNL A   1      38.649  30.985  29.900  1.00  0.00     0.031 C 
ATOM     65  C   UNL A   1      38.149  32.347  31.911  1.00  0.00     0.031 A 
BRANCH  52  66
ATOM     66  C   UNL A   1      40.078  33.507  37.673  1.00  0.00    -0.014 A 
ATOM     67  C   UNL A   1      40.681  34.756  37.908  1.00  0.00     0.010 A 
ATOM     68  C   UNL A   1      39.237  32.959  38.660  1.00  0.00     0.010 A 
ATOM     69  C   UNL A   1      40.479  35.423  39.120  1.00  0.00     0.020 A 
ATOM     70  C   UNL A   1      39.008  33.636  39.859  1.00  0.00     0.020 A 
ATOM     71  C   UNL A   1      39.644  34.857  40.089  1.00  0.00     0.054 A 
BRANCH  71  72
ATOM     72  S   UNL A   1      39.385  35.754  41.644  1.00  0.00     0.124 S 
ATOM     73  O   UNL A   1      39.434  34.674  42.627  1.00  0.00    -0.237 OA
ATOM     74  O   UNL A   1      40.514  36.680  41.670  1.00  0.00    -0.237 OA
ATOM     75  O   UNL A   1      38.075  36.378  41.471  1.00  0.00    -0.744 OA
ENDBRANCH  71  72
ENDBRANCH  52  66
BRANCH  53  76
ATOM     76  C   UNL A   1      41.747  28.166  29.391  1.00  0.00    -0.014 A 
ATOM     77  C   UNL A   1      42.401  28.727  28.277  1.00  0.00     0.010 A 
ATOM     78  C   UNL A   1      41.289  26.837  29.310  1.00  0.00     0.010 A 
ATOM     79  C   UNL A   1      42.575  27.982  27.106  1.00  0.00     0.020 A 
ATOM     80  C   UNL A   1      41.493  26.078  28.154  1.00  0.00     0.020 A 
ATOM     81  C   UNL A   1      42.124  26.660  27.053  1.00  0.00     0.054 A 
BRANCH  81  82
ATOM     82  S   UNL A   1      42.409  25.694  25.544  1.00  0.00     0.124 S 
ATOM     83  O   UNL A   1      43.434  26.482  24.867  1.00  0.00    -0.237 OA
ATOM     84  O   UNL A   1      42.845  24.405  26.072  1.00  0.00    -0.237 OA
ATOM     85  O   UNL A   1      41.099  25.682  24.894  1.00  0.00    -0.744 OA
ENDBRANCH  81  82
ENDBRANCH  53  76
BRANCH  65  86
ATOM     86  C   UNL A   1      37.006  32.978  31.153  1.00  0.00    -0.014 A 
ATOM     87  C   UNL A   1      37.192  33.558  29.885  1.00  0.00     0.010 A 
ATOM     88  C   UNL A   1      35.714  32.960  31.711  1.00  0.00     0.010 A 
ATOM     89  C   UNL A   1      36.117  34.154  29.215  1.00  0.00     0.020 A 
ATOM     90  C   UNL A   1      34.632  33.523  31.030  1.00  0.00     0.020 A 
ATOM     91  C   UNL A   1      34.845  34.135  29.794  1.00  0.00     0.054 A 
BRANCH  91  92
ATOM     92  S   UNL A   1      33.466  34.905  28.901  1.00  0.00     0.124 S 
ATOM     93  O   UNL A   1      33.121  33.873  27.926  1.00  0.00    -0.237 OA
ATOM     94  O   UNL A   1      32.482  35.124  29.959  1.00  0.00    -0.237 OA
ATOM     95  O   UNL A   1      34.050  36.121  28.341  1.00  0.00    -0.744 OA
ENDBRANCH  91  92
ENDBRANCH  65  86
ENDBRANCH  39  40
ENDBRANCH  32  34
ENDBRANCH  31  32
ENDBRANCH  30  31
ENDBRANCH  29  30
ENDBRANCH  28  29
ENDBRANCH   1  28
TORSDOF 24
ENDMDL
MODEL 3
REMARK VINA RESULT:      -6.3      5.943     12.557
REMARK SMILES CC(C)[NH2+][C@@]1(C(=O)OCCOCCOCCOC(=O)c2ccc(-c3c4nc(c(-c5ccc(S(=O)(=O)[O-])cc5)c5ccc([nH]5)c(-c5ccc(S(=O)(=O)[O-])cc5)c5nc(c(-c6ccc(S(=O)(=O)[O-])cc6)c6ccc3[nH]6)C=C5)C=C4)cc2)CCC[C@H](SC2CCCCC2)C1
REMARK SMILES IDX 13 1 12 2 11 3 10 4 9 5 8 6 6 7 7 8 5 9 80 10 91 11 81 12
REMARK SMILES IDX 83 13 82 14 4 15 2 18 1 19 3 20 84 21 85 22 86 23 90 24
REMARK SMILES IDX 87 25 89 26 88 27 14 28 15 29 16 30 17 31 18 32 19 33 20 34
REMARK SMILES IDX 21 35 79 36 22 37 78 38 23 39 24 40 25 41 72 42 26 43 77 44
REMARK SMILES IDX 71 45 73 46 27 47 76 48 70 49 69 50 28 52 58 53 39 54 57 55
REMARK SMILES IDX 40 56 43 57 56 58 74 59 41 60 42 61 55 63 75 64 44 65 29 66
REMARK SMILES IDX 30 67 38 68 31 69 37 70 32 71 33 72 34 73 35 74 36 75 59 76
REMARK SMILES IDX 60 77 68 78 61 79 67 80 62 81 63 82 64 83 65 84 66 85 45 86
REMARK SMILES IDX 46 87 54 88 47 89 53 90 48 91 49 92 50 93 51 94 52 95
REMARK H PARENT 4 16 4 17 73 51 43 62
REMARK Flexibility Score: inf
ROOT
ATOM      1  C   UNL A   1      31.689  27.469  26.496  1.00  0.00     0.188 C 
ENDROOT
BRANCH   1   2
ATOM      2  C   UNL A   1      30.732  26.639  27.368  1.00  0.00     0.188 C 
BRANCH   2   3
ATOM      3  O   UNL A   1      30.047  25.626  26.636  1.00  0.00    -0.376 OA
BRANCH   3   4
ATOM      4  C   UNL A   1      29.711  25.986  25.299  1.00  0.00     0.202 C 
BRANCH   4   5
ATOM      5  C   UNL A   1      30.246  24.950  24.317  1.00  0.00     0.261 C 
BRANCH   5   6
ATOM      6  O   UNL A   1      31.660  25.172  24.153  1.00  0.00    -0.459 OA
BRANCH   6   7
ATOM      7  C   UNL A   1      32.528  24.264  24.626  1.00  0.00     0.368 C 
ATOM      8  O   UNL A   1      32.244  23.457  25.506  1.00  0.00    -0.245 OA
BRANCH   7   9
ATOM      9  C   UNL A   1      33.894  24.273  23.855  1.00  0.00     0.195 C 
ATOM     10  C   UNL A   1      33.779  25.453  22.849  1.00  0.00     0.081 C 
ATOM     11  C   UNL A   1      34.349  23.047  22.991  1.00  0.00     0.095 C 
ATOM     12  C   UNL A   1      32.861  25.123  21.660  1.00  0.00     0.008 C 
ATOM     13  C   UNL A   1      33.487  22.660  21.742  1.00  0.00     0.053 C 
ATOM     14  C   UNL A   1      33.352  23.907  20.873  1.00  0.00     0.015 C 
BRANCH   9  15
ATOM     15  N   UNL A   1      34.966  24.618  24.853  1.00  0.00    -0.330 N 
ATOM     16  H   UNL A   1      35.614  25.261  24.397  1.00  0.00     0.347 HD
ATOM     17  H   UNL A   1      34.463  25.000  25.654  1.00  0.00     0.347 HD
BRANCH  15  18
ATOM     18  C   UNL A   1      35.765  23.507  25.407  1.00  0.00     0.176 C 
ATOM     19  C   UNL A   1      37.172  24.040  25.699  1.00  0.00     0.075 C 
ATOM     20  C   UNL A   1      35.214  22.913  26.710  1.00  0.00     0.075 C 
ENDBRANCH  15  18
ENDBRANCH   9  15
BRANCH  13  21
ATOM     21  S   UNL A   1      31.885  21.977  22.305  1.00  0.00    -0.155 SA
BRANCH  21  22
ATOM     22  C   UNL A   1      32.075  20.380  23.120  1.00  0.00     0.047 C 
ATOM     23  C   UNL A   1      32.417  19.306  22.094  1.00  0.00     0.014 C 
ATOM     24  C   UNL A   1      32.895  20.294  24.403  1.00  0.00     0.014 C 
ATOM     25  C   UNL A   1      32.284  17.918  22.707  1.00  0.00     0.001 C 
ATOM     26  C   UNL A   1      32.771  18.880  24.995  1.00  0.00     0.001 C 
ATOM     27  C   UNL A   1      33.129  17.801  23.973  1.00  0.00     0.000 C 
ENDBRANCH  21  22
ENDBRANCH  13  21
ENDBRANCH   7   9
ENDBRANCH   6   7
ENDBRANCH   5   6
ENDBRANCH   4   5
ENDBRANCH   3   4
ENDBRANCH   2   3
ENDBRANCH   1   2
BRANCH   1  28
ATOM     28  O   UNL A   1      31.988  28.831  26.760  1.00  0.00    -0.376 OA
BRANCH  28  29
ATOM     29  C   UNL A   1      33.004  29.448  26.002  1.00  0.00     0.202 C 
BRANCH  29  30
ATOM     30  C   UNL A   1      34.019  30.276  26.796  1.00  0.00     0.261 C 
BRANCH  30  31
ATOM     31  O   UNL A   1      33.472  31.069  27.869  1.00  0.00    -0.460 OA
BRANCH  31  32
ATOM     32  C   UNL A   1      34.329  31.948  28.445  1.00  0.00     0.338 C 
ATOM     33  O   UNL A   1      34.056  33.064  28.871  1.00  0.00    -0.246 OA
BRANCH  32  34
ATOM     34  C   UNL A   1      35.661  31.324  28.641  1.00  0.00     0.060 A 
ATOM     35  C   UNL A   1      35.742  30.100  29.323  1.00  0.00     0.016 A 
ATOM     36  C   UNL A   1      36.829  31.974  28.238  1.00  0.00     0.016 A 
ATOM     37  C   UNL A   1      36.985  29.546  29.639  1.00  0.00     0.010 A 
ATOM     38  C   UNL A   1      38.076  31.434  28.585  1.00  0.00     0.010 A 
ATOM     39  C   UNL A   1      38.160  30.239  29.321  1.00  0.00    -0.014 A 
BRANCH  39  40
ATOM     40  C   UNL A   1      39.440  29.827  29.956  1.00  0.00     0.031 A 
ATOM     41  C   UNL A   1      39.808  30.446  31.280  1.00  0.00     0.074 A 
ATOM     42  C   UNL A   1      40.243  28.901  29.403  1.00  0.00     0.049 A 
ATOM     43  N   UNL A   1      40.867  30.249  32.023  1.00  0.00    -0.248 NA
ATOM     44  C   UNL A   1      38.858  31.425  31.833  1.00  0.00     0.031 C 
ATOM     45  C   UNL A   1      39.991  28.209  28.144  1.00  0.00     0.029 A 
ATOM     46  N   UNL A   1      41.436  28.377  29.840  1.00  0.00    -0.354 N 
ATOM     47  C   UNL A   1      40.719  31.089  33.121  1.00  0.00     0.074 A 
ATOM     48  C   UNL A   1      39.477  31.809  32.938  1.00  0.00     0.031 C 
ATOM     49  C   UNL A   1      40.980  27.325  27.924  1.00  0.00     0.029 A 
ATOM     50  C   UNL A   1      41.968  27.429  28.996  1.00  0.00     0.049 A 
ATOM     51  H   UNL A   1      41.870  28.653  30.679  1.00  0.00     0.167 HD
ATOM     52  C   UNL A   1      41.545  31.256  34.180  1.00  0.00     0.031 A 
ATOM     53  C   UNL A   1      43.128  26.743  29.070  1.00  0.00     0.031 A 
ATOM     54  C   UNL A   1      42.797  30.565  34.346  1.00  0.00     0.049 A 
ATOM     55  C   UNL A   1      44.058  26.988  30.233  1.00  0.00     0.074 A 
ATOM     56  C   UNL A   1      43.707  30.672  35.384  1.00  0.00     0.029 A 
ATOM     57  N   UNL A   1      43.321  29.647  33.449  1.00  0.00    -0.354 N 
ATOM     58  N   UNL A   1      43.900  27.781  31.268  1.00  0.00    -0.248 NA
ATOM     59  C   UNL A   1      45.329  26.248  30.234  1.00  0.00     0.031 C 
ATOM     60  C   UNL A   1      44.811  29.869  35.081  1.00  0.00     0.029 A 
ATOM     61  C   UNL A   1      44.554  29.201  33.895  1.00  0.00     0.049 A 
ATOM     62  H   UNL A   1      42.881  29.356  32.617  1.00  0.00     0.167 HD
ATOM     63  C   UNL A   1      45.039  27.616  32.052  1.00  0.00     0.074 A 
ATOM     64  C   UNL A   1      45.865  26.630  31.384  1.00  0.00     0.031 C 
ATOM     65  C   UNL A   1      45.373  28.226  33.218  1.00  0.00     0.031 A 
BRANCH  52  66
ATOM     66  C   UNL A   1      41.144  32.274  35.217  1.00  0.00    -0.014 A 
ATOM     67  C   UNL A   1      40.349  31.923  36.324  1.00  0.00     0.010 A 
ATOM     68  C   UNL A   1      41.591  33.603  35.092  1.00  0.00     0.010 A 
ATOM     69  C   UNL A   1      39.977  32.889  37.262  1.00  0.00     0.020 A 
ATOM     70  C   UNL A   1      41.247  34.564  36.044  1.00  0.00     0.020 A 
ATOM     71  C   UNL A   1      40.428  34.205  37.116  1.00  0.00     0.054 A 
BRANCH  71  72
ATOM     72  S   UNL A   1      39.946  35.434  38.360  1.00  0.00     0.124 S 
ATOM     73  O   UNL A   1      41.132  35.482  39.212  1.00  0.00    -0.237 OA
ATOM     74  O   UNL A   1      39.703  36.626  37.553  1.00  0.00    -0.237 OA
ATOM     75  O   UNL A   1      38.758  34.852  38.981  1.00  0.00    -0.744 OA
ENDBRANCH  71  72
ENDBRANCH  52  66
BRANCH  53  76
ATOM     76  C   UNL A   1      43.500  25.778  27.995  1.00  0.00    -0.014 A 
ATOM     77  C   UNL A   1      44.174  26.208  26.836  1.00  0.00     0.010 A 
ATOM     78  C   UNL A   1      43.162  24.417  28.117  1.00  0.00     0.010 A 
ATOM     79  C   UNL A   1      44.485  25.301  25.817  1.00  0.00     0.020 A 
ATOM     80  C   UNL A   1      43.502  23.501  27.117  1.00  0.00     0.020 A 
ATOM     81  C   UNL A   1      44.152  23.952  25.966  1.00  0.00     0.054 A 
BRANCH  81  82
ATOM     82  S   UNL A   1      44.612  22.783  24.657  1.00  0.00     0.124 S 
ATOM     83  O   UNL A   1      45.047  21.620  25.426  1.00  0.00    -0.237 OA
ATOM     84  O   UNL A   1      43.361  22.625  23.922  1.00  0.00    -0.237 OA
ATOM     85  O   UNL A   1      45.670  23.483  23.931  1.00  0.00    -0.744 OA
ENDBRANCH  81  82
ENDBRANCH  53  76
BRANCH  65  86
ATOM     86  C   UNL A   1      46.670  27.816  33.873  1.00  0.00    -0.014 A 
ATOM     87  C   UNL A   1      46.724  26.771  34.814  1.00  0.00     0.010 A 
ATOM     88  C   UNL A   1      47.863  28.469  33.512  1.00  0.00     0.010 A 
ATOM     89  C   UNL A   1      47.938  26.426  35.419  1.00  0.00     0.020 A 
ATOM     90  C   UNL A   1      49.082  28.104  34.088  1.00  0.00     0.020 A 
ATOM     91  C   UNL A   1      49.109  27.098  35.054  1.00  0.00     0.054 A 
BRANCH  91  92
ATOM     92  S   UNL A   1      50.671  26.625  35.845  1.00  0.00     0.124 S 
ATOM     93  O   UNL A   1      50.746  27.566  36.960  1.00  0.00    -0.237 OA
ATOM     94  O   UNL A   1      50.435  25.232  36.212  1.00  0.00    -0.237 OA
ATOM     95  O   UNL A   1      51.667  26.825  34.794  1.00  0.00    -0.744 OA
ENDBRANCH  91  92
ENDBRANCH  65  86
ENDBRANCH  39  40
ENDBRANCH  32  34
ENDBRANCH  31  32
ENDBRANCH  30  31
ENDBRANCH  29  30
ENDBRANCH  28  29
ENDBRANCH   1  28
TORSDOF 24
ENDMDL
