MODEL 1
REMARK VINA RESULT:      -8.2      0.000      0.000
REMARK SMILES CN(C)C(=O)c1cccc(NCc2cc(C(=O)OCCOCCOCCOC(=O)c3ccc(-c4c5nc(c(-c6ccc(S(=O)(=O)[O-])cc6)c6ccc([nH]6)c(-c6ccc(S(=O)(=O)[O-])cc6)c6nc(c(-c7ccc(S(=O)(=O)[O-])cc7)c7ccc4[nH]7)C=C6)C=C5)cc3)cs2)c1
REMARK SMILES IDX 22 1 21 2 20 3 19 4 18 5 16 6 17 7 15 8 13 9 14 10 91 11
REMARK SMILES IDX 90 12 12 13 11 14 10 16 6 17 7 18 92 19 8 20 9 21 4 22 1 23
REMARK SMILES IDX 2 24 3 25 5 26 23 27 24 28 25 29 26 30 27 31 28 32 29 33
REMARK SMILES IDX 30 34 31 35 89 36 32 37 88 38 33 39 34 40 35 41 82 42 36 43
REMARK SMILES IDX 87 44 81 45 83 46 37 47 86 48 80 49 79 50 38 52 68 53 49 54
REMARK SMILES IDX 67 55 50 56 53 57 66 58 84 59 51 60 52 61 65 63 85 64 54 65
REMARK SMILES IDX 39 66 40 67 48 68 41 69 47 70 42 71 43 72 44 73 45 74 46 75
REMARK SMILES IDX 69 76 70 77 78 78 71 79 77 80 72 81 73 82 74 83 75 84 76 85
REMARK SMILES IDX 55 86 56 87 64 88 57 89 63 90 58 91 59 92 60 93 61 94 62 95
REMARK H PARENT 11 15 83 51 53 62
REMARK Flexibility Score: inf
ROOT
ATOM      1  C   UNL A   1      33.225  36.474  29.525  1.00  0.00     0.188 C 
ENDROOT
BRANCH   1   2
ATOM      2  O   UNL A   1      33.047  35.794  30.764  1.00  0.00    -0.376 OA
BRANCH   2   3
ATOM      3  C   UNL A   1      33.820  36.171  31.897  1.00  0.00     0.202 C 
BRANCH   3   4
ATOM      4  C   UNL A   1      34.094  35.097  32.953  1.00  0.00     0.261 C 
BRANCH   4   5
ATOM      5  O   UNL A   1      35.292  35.339  33.710  1.00  0.00    -0.460 OA
BRANCH   5   6
ATOM      6  C   UNL A   1      36.120  34.262  33.850  1.00  0.00     0.339 C 
ATOM      7  O   UNL A   1      35.845  33.249  34.481  1.00  0.00    -0.246 OA
BRANCH   6   8
ATOM      8  C   UNL A   1      37.342  34.380  33.060  1.00  0.00     0.071 A 
ATOM      9  C   UNL A   1      38.814  34.463  31.221  1.00  0.00     0.025 A 
ATOM     10  C   UNL A   1      37.497  34.316  31.631  1.00  0.00     0.033 A 
ATOM     11  S   UNL A   1      39.864  34.602  32.568  1.00  0.00    -0.146 S 
ATOM     12  C   UNL A   1      38.570  34.554  33.671  1.00  0.00     0.080 A 
BRANCH   9  13
ATOM     13  C   UNL A   1      39.357  34.470  29.809  1.00  0.00     0.159 C 
BRANCH  13  14
ATOM     14  N   UNL A   1      40.478  35.369  29.571  1.00  0.00    -0.380 N 
ATOM     15  H   UNL A   1      40.493  36.200  30.098  1.00  0.00     0.160 HD
BRANCH  14  16
ATOM     16  C   UNL A   1      41.522  35.182  28.686  1.00  0.00     0.035 A 
ATOM     17  C   UNL A   1      43.660  34.092  28.203  1.00  0.00     0.042 A 
ATOM     18  C   UNL A   1      43.747  34.761  26.982  1.00  0.00     0.014 A 
ATOM     19  C   UNL A   1      42.569  34.321  29.055  1.00  0.00     0.039 A 
ATOM     20  C   UNL A   1      42.731  35.633  26.608  1.00  0.00     0.003 A 
ATOM     21  C   UNL A   1      41.635  35.841  27.456  1.00  0.00     0.026 A 
BRANCH  17  22
ATOM     22  C   UNL A   1      44.790  33.221  28.607  1.00  0.00     0.253 C 
ATOM     23  C   UNL A   1      45.928  31.067  28.638  1.00  0.00     0.146 C 
ATOM     24  N   UNL A   1      44.868  31.916  28.125  1.00  0.00    -0.345 N 
ATOM     25  C   UNL A   1      44.072  31.377  27.031  1.00  0.00     0.146 C 
ATOM     26  O   UNL A   1      45.629  33.703  29.368  1.00  0.00    -0.269 OA
ENDBRANCH  17  22
ENDBRANCH  14  16
ENDBRANCH  13  14
ENDBRANCH   9  13
ENDBRANCH   6   8
ENDBRANCH   5   6
ENDBRANCH   4   5
ENDBRANCH   3   4
ENDBRANCH   2   3
ENDBRANCH   1   2
BRANCH   1  27
ATOM     27  C   UNL A   1      34.145  35.857  28.453  1.00  0.00     0.188 C 
BRANCH  27  28
ATOM     28  O   UNL A   1      34.526  34.521  28.738  1.00  0.00    -0.376 OA
BRANCH  28  29
ATOM     29  C   UNL A   1      33.850  33.494  28.032  1.00  0.00     0.202 C 
BRANCH  29  30
ATOM     30  C   UNL A   1      34.181  32.051  28.435  1.00  0.00     0.261 C 
BRANCH  30  31
ATOM     31  O   UNL A   1      34.457  31.142  27.361  1.00  0.00    -0.460 OA
BRANCH  31  32
ATOM     32  C   UNL A   1      34.625  29.840  27.681  1.00  0.00     0.338 C 
ATOM     33  O   UNL A   1      33.839  28.932  27.482  1.00  0.00    -0.246 OA
BRANCH  32  34
ATOM     34  C   UNL A   1      36.006  29.676  28.186  1.00  0.00     0.060 A 
ATOM     35  C   UNL A   1      37.081  29.877  27.314  1.00  0.00     0.016 A 
ATOM     36  C   UNL A   1      36.233  29.319  29.519  1.00  0.00     0.016 A 
ATOM     37  C   UNL A   1      38.390  29.688  27.767  1.00  0.00     0.010 A 
ATOM     38  C   UNL A   1      37.541  29.115  29.966  1.00  0.00     0.010 A 
ATOM     39  C   UNL A   1      38.624  29.271  29.085  1.00  0.00    -0.014 A 
BRANCH  39  40
ATOM     40  C   UNL A   1      39.975  28.823  29.503  1.00  0.00     0.031 A 
ATOM     41  C   UNL A   1      40.814  29.755  30.336  1.00  0.00     0.074 A 
ATOM     42  C   UNL A   1      40.460  27.620  29.142  1.00  0.00     0.049 A 
ATOM     43  N   UNL A   1      42.038  29.606  30.768  1.00  0.00    -0.248 NA
ATOM     44  C   UNL A   1      40.184  31.026  30.730  1.00  0.00     0.031 C 
ATOM     45  C   UNL A   1      39.740  26.612  28.366  1.00  0.00     0.029 A 
ATOM     46  N   UNL A   1      41.688  27.051  29.377  1.00  0.00    -0.354 N 
ATOM     47  C   UNL A   1      42.328  30.764  31.482  1.00  0.00     0.074 A 
ATOM     48  C   UNL A   1      41.160  31.613  31.406  1.00  0.00     0.031 C 
ATOM     49  C   UNL A   1      40.545  25.551  28.178  1.00  0.00     0.029 A 
ATOM     50  C   UNL A   1      41.844  25.816  28.794  1.00  0.00     0.049 A 
ATOM     51  H   UNL A   1      42.390  27.487  29.913  1.00  0.00     0.167 HD
ATOM     52  C   UNL A   1      43.463  31.092  32.143  1.00  0.00     0.031 A 
ATOM     53  C   UNL A   1      42.920  25.004  28.745  1.00  0.00     0.031 A 
ATOM     54  C   UNL A   1      44.637  30.264  32.197  1.00  0.00     0.049 A 
ATOM     55  C   UNL A   1      44.198  25.423  29.425  1.00  0.00     0.074 A 
ATOM     56  C   UNL A   1      45.837  30.510  32.841  1.00  0.00     0.029 A 
ATOM     57  N   UNL A   1      44.761  29.033  31.573  1.00  0.00    -0.354 N 
ATOM     58  N   UNL A   1      44.448  26.510  30.116  1.00  0.00    -0.248 NA
ATOM     59  C   UNL A   1      45.339  24.499  29.322  1.00  0.00     0.031 C 
ATOM     60  C   UNL A   1      46.703  29.446  32.570  1.00  0.00     0.029 A 
ATOM     61  C   UNL A   1      46.025  28.515  31.799  1.00  0.00     0.049 A 
ATOM     62  H   UNL A   1      44.056  28.592  31.046  1.00  0.00     0.167 HD
ATOM     63  C   UNL A   1      45.764  26.388  30.551  1.00  0.00     0.074 A 
ATOM     64  C   UNL A   1      46.256  25.121  30.053  1.00  0.00     0.031 C 
ATOM     65  C   UNL A   1      46.497  27.248  31.301  1.00  0.00     0.031 A 
BRANCH  52  66
ATOM     66  C   UNL A   1      43.493  32.429  32.831  1.00  0.00    -0.014 A 
ATOM     67  C   UNL A   1      43.979  33.572  32.171  1.00  0.00     0.010 A 
ATOM     68  C   UNL A   1      43.021  32.545  34.151  1.00  0.00     0.010 A 
ATOM     69  C   UNL A   1      44.032  34.800  32.834  1.00  0.00     0.020 A 
ATOM     70  C   UNL A   1      43.051  33.777  34.809  1.00  0.00     0.020 A 
ATOM     71  C   UNL A   1      43.575  34.893  34.152  1.00  0.00     0.054 A 
BRANCH  71  72
ATOM     72  S   UNL A   1      43.650  36.499  34.991  1.00  0.00     0.124 S 
ATOM     73  O   UNL A   1      43.466  36.116  36.389  1.00  0.00    -0.237 OA
ATOM     74  O   UNL A   1      44.984  36.982  34.643  1.00  0.00    -0.237 OA
ATOM     75  O   UNL A   1      42.545  37.251  34.400  1.00  0.00    -0.744 OA
ENDBRANCH  71  72
ENDBRANCH  52  66
BRANCH  53  76
ATOM     76  C   UNL A   1      42.844  23.714  28.008  1.00  0.00    -0.014 A 
ATOM     77  C   UNL A   1      43.282  23.624  26.675  1.00  0.00     0.010 A 
ATOM     78  C   UNL A   1      42.326  22.566  28.636  1.00  0.00     0.010 A 
ATOM     79  C   UNL A   1      43.190  22.415  25.979  1.00  0.00     0.020 A 
ATOM     80  C   UNL A   1      42.254  21.350  27.951  1.00  0.00     0.020 A 
ATOM     81  C   UNL A   1      42.678  21.284  26.623  1.00  0.00     0.054 A 
BRANCH  81  82
ATOM     82  S   UNL A   1      42.614  19.712  25.719  1.00  0.00     0.124 S 
ATOM     83  O   UNL A   1      43.082  18.764  26.725  1.00  0.00    -0.237 OA
ATOM     84  O   UNL A   1      41.202  19.609  25.360  1.00  0.00    -0.237 OA
ATOM     85  O   UNL A   1      43.520  19.930  24.594  1.00  0.00    -0.744 OA
ENDBRANCH  81  82
ENDBRANCH  53  76
BRANCH  65  86
ATOM     86  C   UNL A   1      47.897  26.835  31.666  1.00  0.00    -0.014 A 
ATOM     87  C   UNL A   1      48.159  26.094  32.831  1.00  0.00     0.010 A 
ATOM     88  C   UNL A   1      48.957  27.136  30.791  1.00  0.00     0.010 A 
ATOM     89  C   UNL A   1      49.462  25.680  33.127  1.00  0.00     0.020 A 
ATOM     90  C   UNL A   1      50.257  26.704  31.071  1.00  0.00     0.020 A 
ATOM     91  C   UNL A   1      50.503  25.989  32.245  1.00  0.00     0.054 A 
BRANCH  91  92
ATOM     92  S   UNL A   1      52.176  25.397  32.620  1.00  0.00     0.124 S 
ATOM     93  O   UNL A   1      52.812  25.431  31.307  1.00  0.00    -0.237 OA
ATOM     94  O   UNL A   1      52.661  26.387  33.579  1.00  0.00    -0.237 OA
ATOM     95  O   UNL A   1      51.955  24.063  33.171  1.00  0.00    -0.744 OA
ENDBRANCH  91  92
ENDBRANCH  65  86
ENDBRANCH  39  40
ENDBRANCH  32  34
ENDBRANCH  31  32
ENDBRANCH  30  31
ENDBRANCH  29  30
ENDBRANCH  28  29
ENDBRANCH  27  28
ENDBRANCH   1  27
TORSDOF 24
ENDMDL
MODEL 2
REMARK VINA RESULT:      -8.2      1.941      3.793
REMARK SMILES CN(C)C(=O)c1cccc(NCc2cc(C(=O)OCCOCCOCCOC(=O)c3ccc(-c4c5nc(c(-c6ccc(S(=O)(=O)[O-])cc6)c6ccc([nH]6)c(-c6ccc(S(=O)(=O)[O-])cc6)c6nc(c(-c7ccc(S(=O)(=O)[O-])cc7)c7ccc4[nH]7)C=C6)C=C5)cc3)cs2)c1
REMARK SMILES IDX 22 1 21 2 20 3 19 4 18 5 16 6 17 7 15 8 13 9 14 10 91 11
REMARK SMILES IDX 90 12 12 13 11 14 10 16 6 17 7 18 92 19 8 20 9 21 4 22 1 23
REMARK SMILES IDX 2 24 3 25 5 26 23 27 24 28 25 29 26 30 27 31 28 32 29 33
REMARK SMILES IDX 30 34 31 35 89 36 32 37 88 38 33 39 34 40 35 41 82 42 36 43
REMARK SMILES IDX 87 44 81 45 83 46 37 47 86 48 80 49 79 50 38 52 68 53 49 54
REMARK SMILES IDX 67 55 50 56 53 57 66 58 84 59 51 60 52 61 65 63 85 64 54 65
REMARK SMILES IDX 39 66 40 67 48 68 41 69 47 70 42 71 43 72 44 73 45 74 46 75
REMARK SMILES IDX 69 76 70 77 78 78 71 79 77 80 72 81 73 82 74 83 75 84 76 85
REMARK SMILES IDX 55 86 56 87 64 88 57 89 63 90 58 91 59 92 60 93 61 94 62 95
REMARK H PARENT 11 15 83 51 53 62
REMARK Flexibility Score: inf
ROOT
ATOM      1  C   UNL A   1      32.830  35.851  30.573  1.00  0.00     0.188 C 
ENDROOT
BRANCH   1   2
ATOM      2  O   UNL A   1      33.858  35.904  31.558  1.00  0.00    -0.376 OA
BRANCH   2   3
ATOM      3  C   UNL A   1      34.072  34.792  32.419  1.00  0.00     0.202 C 
BRANCH   3   4
ATOM      4  C   UNL A   1      35.217  33.839  32.069  1.00  0.00     0.261 C 
BRANCH   4   5
ATOM      5  O   UNL A   1      35.322  32.724  32.972  1.00  0.00    -0.460 OA
BRANCH   5   6
ATOM      6  C   UNL A   1      36.068  32.952  34.093  1.00  0.00     0.339 C 
ATOM      7  O   UNL A   1      35.677  33.568  35.076  1.00  0.00    -0.246 OA
BRANCH   6   8
ATOM      8  C   UNL A   1      37.362  32.275  34.060  1.00  0.00     0.071 A 
ATOM      9  C   UNL A   1      39.010  30.624  33.734  1.00  0.00     0.025 A 
ATOM     10  C   UNL A   1      37.665  30.941  33.617  1.00  0.00     0.033 A 
ATOM     11  S   UNL A   1      39.885  31.912  34.450  1.00  0.00    -0.146 S 
ATOM     12  C   UNL A   1      38.504  32.903  34.518  1.00  0.00     0.080 A 
BRANCH   9  13
ATOM     13  C   UNL A   1      39.702  29.333  33.353  1.00  0.00     0.159 C 
BRANCH  13  14
ATOM     14  N   UNL A   1      40.370  28.632  34.441  1.00  0.00    -0.380 N 
ATOM     15  H   UNL A   1      39.806  28.368  35.203  1.00  0.00     0.160 HD
BRANCH  14  16
ATOM     16  C   UNL A   1      41.707  28.298  34.520  1.00  0.00     0.035 A 
ATOM     17  C   UNL A   1      43.791  28.373  35.804  1.00  0.00     0.042 A 
ATOM     18  C   UNL A   1      44.471  27.721  34.776  1.00  0.00     0.014 A 
ATOM     19  C   UNL A   1      42.429  28.679  35.664  1.00  0.00     0.039 A 
ATOM     20  C   UNL A   1      43.779  27.354  33.627  1.00  0.00     0.003 A 
ATOM     21  C   UNL A   1      42.414  27.645  33.504  1.00  0.00     0.026 A 
BRANCH  17  22
ATOM     22  C   UNL A   1      44.567  28.815  36.988  1.00  0.00     0.253 C 
ATOM     23  C   UNL A   1      46.192  30.284  38.056  1.00  0.00     0.146 C 
ATOM     24  N   UNL A   1      45.363  29.956  36.909  1.00  0.00    -0.345 N 
ATOM     25  C   UNL A   1      45.317  30.939  35.835  1.00  0.00     0.146 C 
ATOM     26  O   UNL A   1      44.470  28.137  38.011  1.00  0.00    -0.269 OA
ENDBRANCH  17  22
ENDBRANCH  14  16
ENDBRANCH  13  14
ENDBRANCH   9  13
ENDBRANCH   6   8
ENDBRANCH   5   6
ENDBRANCH   4   5
ENDBRANCH   3   4
ENDBRANCH   2   3
ENDBRANCH   1   2
BRANCH   1  27
ATOM     27  C   UNL A   1      33.217  35.693  29.089  1.00  0.00     0.188 C 
BRANCH  27  28
ATOM     28  O   UNL A   1      34.142  34.645  28.855  1.00  0.00    -0.376 OA
BRANCH  28  29
ATOM     29  C   UNL A   1      33.733  33.608  27.979  1.00  0.00     0.202 C 
BRANCH  29  30
ATOM     30  C   UNL A   1      34.139  32.180  28.368  1.00  0.00     0.261 C 
BRANCH  30  31
ATOM     31  O   UNL A   1      34.303  31.253  27.288  1.00  0.00    -0.460 OA
BRANCH  31  32
ATOM     32  C   UNL A   1      34.496  29.955  27.610  1.00  0.00     0.338 C 
ATOM     33  O   UNL A   1      33.713  29.037  27.444  1.00  0.00    -0.246 OA
BRANCH  32  34
ATOM     34  C   UNL A   1      35.894  29.810  28.070  1.00  0.00     0.060 A 
ATOM     35  C   UNL A   1      36.937  29.997  27.156  1.00  0.00     0.016 A 
ATOM     36  C   UNL A   1      36.171  29.482  29.401  1.00  0.00     0.016 A 
ATOM     37  C   UNL A   1      38.262  29.826  27.567  1.00  0.00     0.010 A 
ATOM     38  C   UNL A   1      37.495  29.296  29.806  1.00  0.00     0.010 A 
ATOM     39  C   UNL A   1      38.545  29.439  28.885  1.00  0.00    -0.014 A 
BRANCH  39  40
ATOM     40  C   UNL A   1      39.913  29.007  29.264  1.00  0.00     0.031 A 
ATOM     41  C   UNL A   1      40.802  29.989  29.980  1.00  0.00     0.074 A 
ATOM     42  C   UNL A   1      40.368  27.776  28.970  1.00  0.00     0.049 A 
ATOM     43  N   UNL A   1      42.046  29.858  30.358  1.00  0.00    -0.248 NA
ATOM     44  C   UNL A   1      40.203  31.293  30.310  1.00  0.00     0.031 C 
ATOM     45  C   UNL A   1      39.600  26.721  28.310  1.00  0.00     0.029 A 
ATOM     46  N   UNL A   1      41.602  27.211  29.182  1.00  0.00    -0.354 N 
ATOM     47  C   UNL A   1      42.382  31.062  30.967  1.00  0.00     0.074 A 
ATOM     48  C   UNL A   1      41.218  31.917  30.888  1.00  0.00     0.031 C 
ATOM     49  C   UNL A   1      40.386  25.639  28.160  1.00  0.00     0.029 A 
ATOM     50  C   UNL A   1      41.718  25.935  28.686  1.00  0.00     0.049 A 
ATOM     51  H   UNL A   1      42.335  27.677  29.647  1.00  0.00     0.167 HD
ATOM     52  C   UNL A   1      43.553  31.425  31.542  1.00  0.00     0.031 A 
ATOM     53  C   UNL A   1      42.784  25.109  28.642  1.00  0.00     0.031 A 
ATOM     54  C   UNL A   1      44.721  30.590  31.596  1.00  0.00     0.049 A 
ATOM     55  C   UNL A   1      44.100  25.562  29.221  1.00  0.00     0.074 A 
ATOM     56  C   UNL A   1      45.955  30.869  32.157  1.00  0.00     0.029 A 
ATOM     57  N   UNL A   1      44.803  29.315  31.060  1.00  0.00    -0.354 N 
ATOM     58  N   UNL A   1      44.393  26.694  29.815  1.00  0.00    -0.248 NA
ATOM     59  C   UNL A   1      45.226  24.620  29.129  1.00  0.00     0.031 C 
ATOM     60  C   UNL A   1      46.797  29.778  31.922  1.00  0.00     0.029 A 
ATOM     61  C   UNL A   1      46.073  28.800  31.259  1.00  0.00     0.049 A 
ATOM     62  H   UNL A   1      44.068  28.844  30.606  1.00  0.00     0.167 HD
ATOM     63  C   UNL A   1      45.730  26.590  30.189  1.00  0.00     0.074 A 
ATOM     64  C   UNL A   1      46.185  25.283  29.762  1.00  0.00     0.031 C 
ATOM     65  C   UNL A   1      46.508  27.495  30.833  1.00  0.00     0.031 A 
BRANCH  52  66
ATOM     66  C   UNL A   1      43.629  32.809  32.125  1.00  0.00    -0.014 A 
ATOM     67  C   UNL A   1      43.939  33.919  31.319  1.00  0.00     0.010 A 
ATOM     68  C   UNL A   1      43.379  33.004  33.495  1.00  0.00     0.010 A 
ATOM     69  C   UNL A   1      44.039  35.194  31.881  1.00  0.00     0.020 A 
ATOM     70  C   UNL A   1      43.456  34.280  34.056  1.00  0.00     0.020 A 
ATOM     71  C   UNL A   1      43.805  35.365  33.248  1.00  0.00     0.054 A 
BRANCH  71  72
ATOM     72  S   UNL A   1      43.938  37.030  33.954  1.00  0.00     0.124 S 
ATOM     73  O   UNL A   1      42.555  37.304  34.338  1.00  0.00    -0.237 OA
ATOM     74  O   UNL A   1      44.870  36.838  35.062  1.00  0.00    -0.237 OA
ATOM     75  O   UNL A   1      44.449  37.836  32.848  1.00  0.00    -0.744 OA
ENDBRANCH  71  72
ENDBRANCH  52  66
BRANCH  53  76
ATOM     76  C   UNL A   1      42.660  23.768  28.008  1.00  0.00    -0.014 A 
ATOM     77  C   UNL A   1      42.186  22.669  28.745  1.00  0.00     0.010 A 
ATOM     78  C   UNL A   1      43.022  23.583  26.661  1.00  0.00     0.010 A 
ATOM     79  C   UNL A   1      42.091  21.406  28.153  1.00  0.00     0.020 A 
ATOM     80  C   UNL A   1      42.907  22.327  26.059  1.00  0.00     0.020 A 
ATOM     81  C   UNL A   1      42.451  21.244  26.812  1.00  0.00     0.054 A 
BRANCH  81  82
ATOM     82  S   UNL A   1      42.271  19.608  26.046  1.00  0.00     0.124 S 
ATOM     83  O   UNL A   1      43.104  19.738  24.854  1.00  0.00    -0.237 OA
ATOM     84  O   UNL A   1      42.783  18.715  27.082  1.00  0.00    -0.237 OA
ATOM     85  O   UNL A   1      40.835  19.504  25.799  1.00  0.00    -0.744 OA
ENDBRANCH  81  82
ENDBRANCH  53  76
BRANCH  65  86
ATOM     86  C   UNL A   1      47.922  27.094  31.155  1.00  0.00    -0.014 A 
ATOM     87  C   UNL A   1      48.992  27.454  30.317  1.00  0.00     0.010 A 
ATOM     88  C   UNL A   1      48.190  26.406  32.353  1.00  0.00     0.010 A 
ATOM     89  C   UNL A   1      50.304  27.112  30.660  1.00  0.00     0.020 A 
ATOM     90  C   UNL A   1      49.501  26.081  32.711  1.00  0.00     0.020 A 
ATOM     91  C   UNL A   1      50.550  26.426  31.855  1.00  0.00     0.054 A 
BRANCH  91  92
ATOM     92  S   UNL A   1      52.263  26.038  32.307  1.00  0.00     0.124 S 
ATOM     93  O   UNL A   1      52.752  27.330  32.780  1.00  0.00    -0.237 OA
ATOM     94  O   UNL A   1      52.101  25.013  33.336  1.00  0.00    -0.237 OA
ATOM     95  O   UNL A   1      52.853  25.567  31.057  1.00  0.00    -0.744 OA
ENDBRANCH  91  92
ENDBRANCH  65  86
ENDBRANCH  39  40
ENDBRANCH  32  34
ENDBRANCH  31  32
ENDBRANCH  30  31
ENDBRANCH  29  30
ENDBRANCH  28  29
ENDBRANCH  27  28
ENDBRANCH   1  27
TORSDOF 24
ENDMDL
MODEL 3
REMARK VINA RESULT:      -8.1      4.260     11.343
REMARK SMILES CN(C)C(=O)c1cccc(NCc2cc(C(=O)OCCOCCOCCOC(=O)c3ccc(-c4c5nc(c(-c6ccc(S(=O)(=O)[O-])cc6)c6ccc([nH]6)c(-c6ccc(S(=O)(=O)[O-])cc6)c6nc(c(-c7ccc(S(=O)(=O)[O-])cc7)c7ccc4[nH]7)C=C6)C=C5)cc3)cs2)c1
REMARK SMILES IDX 22 1 21 2 20 3 19 4 18 5 16 6 17 7 15 8 13 9 14 10 91 11
REMARK SMILES IDX 90 12 12 13 11 14 10 16 6 17 7 18 92 19 8 20 9 21 4 22 1 23
REMARK SMILES IDX 2 24 3 25 5 26 23 27 24 28 25 29 26 30 27 31 28 32 29 33
REMARK SMILES IDX 30 34 31 35 89 36 32 37 88 38 33 39 34 40 35 41 82 42 36 43
REMARK SMILES IDX 87 44 81 45 83 46 37 47 86 48 80 49 79 50 38 52 68 53 49 54
REMARK SMILES IDX 67 55 50 56 53 57 66 58 84 59 51 60 52 61 65 63 85 64 54 65
REMARK SMILES IDX 39 66 40 67 48 68 41 69 47 70 42 71 43 72 44 73 45 74 46 75
REMARK SMILES IDX 69 76 70 77 78 78 71 79 77 80 72 81 73 82 74 83 75 84 76 85
REMARK SMILES IDX 55 86 56 87 64 88 57 89 63 90 58 91 59 92 60 93 61 94 62 95
REMARK H PARENT 11 15 83 51 53 62
REMARK Flexibility Score: inf
ROOT
ATOM      1  C   UNL A   1      32.230  28.793  23.791  1.00  0.00     0.188 C 
ENDROOT
BRANCH   1   2
ATOM      2  O   UNL A   1      33.235  27.825  23.507  1.00  0.00    -0.376 OA
BRANCH   2   3
ATOM      3  C   UNL A   1      33.434  27.381  22.169  1.00  0.00     0.202 C 
BRANCH   3   4
ATOM      4  C   UNL A   1      33.117  25.917  21.858  1.00  0.00     0.261 C 
BRANCH   4   5
ATOM      5  O   UNL A   1      33.335  25.039  22.977  1.00  0.00    -0.460 OA
BRANCH   5   6
ATOM      6  C   UNL A   1      33.728  23.772  22.654  1.00  0.00     0.339 C 
ATOM      7  O   UNL A   1      33.424  23.189  21.621  1.00  0.00    -0.246 OA
BRANCH   6   8
ATOM      8  C   UNL A   1      34.665  23.205  23.621  1.00  0.00     0.071 A 
ATOM      9  C   UNL A   1      36.518  22.961  25.056  1.00  0.00     0.025 A 
ATOM     10  C   UNL A   1      35.864  23.791  24.157  1.00  0.00     0.033 A 
ATOM     11  S   UNL A   1      35.720  21.450  25.188  1.00  0.00    -0.146 S 
ATOM     12  C   UNL A   1      34.478  21.935  24.131  1.00  0.00     0.080 A 
BRANCH   9  13
ATOM     13  C   UNL A   1      37.787  23.238  25.830  1.00  0.00     0.159 C 
BRANCH  13  14
ATOM     14  N   UNL A   1      38.459  22.068  26.377  1.00  0.00    -0.380 N 
ATOM     15  H   UNL A   1      37.906  21.264  26.504  1.00  0.00     0.160 HD
BRANCH  14  16
ATOM     16  C   UNL A   1      39.789  21.963  26.738  1.00  0.00     0.035 A 
ATOM     17  C   UNL A   1      41.931  20.812  26.448  1.00  0.00     0.042 A 
ATOM     18  C   UNL A   1      42.513  21.609  27.433  1.00  0.00     0.014 A 
ATOM     19  C   UNL A   1      40.575  20.974  26.123  1.00  0.00     0.039 A 
ATOM     20  C   UNL A   1      41.746  22.579  28.067  1.00  0.00     0.003 A 
ATOM     21  C   UNL A   1      40.399  22.748  27.723  1.00  0.00     0.026 A 
BRANCH  17  22
ATOM     22  C   UNL A   1      42.752  19.740  25.836  1.00  0.00     0.253 C 
ATOM     23  C   UNL A   1      44.654  18.994  24.508  1.00  0.00     0.146 C 
ATOM     24  N   UNL A   1      43.943  20.062  25.189  1.00  0.00    -0.345 N 
ATOM     25  C   UNL A   1      44.620  21.348  25.269  1.00  0.00     0.146 C 
ATOM     26  O   UNL A   1      42.334  18.586  25.932  1.00  0.00    -0.269 OA
ENDBRANCH  17  22
ENDBRANCH  14  16
ENDBRANCH  13  14
ENDBRANCH   9  13
ENDBRANCH   6   8
ENDBRANCH   5   6
ENDBRANCH   4   5
ENDBRANCH   3   4
ENDBRANCH   2   3
ENDBRANCH   1   2
BRANCH   1  27
ATOM     27  C   UNL A   1      32.030  29.267  25.244  1.00  0.00     0.188 C 
BRANCH  27  28
ATOM     28  O   UNL A   1      33.204  29.177  26.033  1.00  0.00    -0.376 OA
BRANCH  28  29
ATOM     29  C   UNL A   1      33.169  29.788  27.312  1.00  0.00     0.202 C 
BRANCH  29  30
ATOM     30  C   UNL A   1      32.812  31.280  27.352  1.00  0.00     0.261 C 
BRANCH  30  31
ATOM     31  O   UNL A   1      33.915  32.195  27.330  1.00  0.00    -0.460 OA
BRANCH  31  32
ATOM     32  C   UNL A   1      33.864  33.246  28.179  1.00  0.00     0.338 C 
ATOM     33  O   UNL A   1      32.990  34.090  28.243  1.00  0.00    -0.246 OA
BRANCH  32  34
ATOM     34  C   UNL A   1      34.991  33.111  29.127  1.00  0.00     0.060 A 
ATOM     35  C   UNL A   1      36.009  34.070  29.121  1.00  0.00     0.016 A 
ATOM     36  C   UNL A   1      35.042  32.032  30.016  1.00  0.00     0.016 A 
ATOM     37  C   UNL A   1      37.099  33.935  29.985  1.00  0.00     0.010 A 
ATOM     38  C   UNL A   1      36.140  31.890  30.868  1.00  0.00     0.010 A 
ATOM     39  C   UNL A   1      37.188  32.825  30.837  1.00  0.00    -0.014 A 
BRANCH  39  40
ATOM     40  C   UNL A   1      38.446  32.535  31.566  1.00  0.00     0.031 A 
ATOM     41  C   UNL A   1      39.424  31.569  30.952  1.00  0.00     0.074 A 
ATOM     42  C   UNL A   1      38.715  33.101  32.757  1.00  0.00     0.049 A 
ATOM     43  N   UNL A   1      40.556  31.120  31.427  1.00  0.00    -0.248 NA
ATOM     44  C   UNL A   1      39.074  31.040  29.623  1.00  0.00     0.031 C 
ATOM     45  C   UNL A   1      37.870  34.074  33.445  1.00  0.00     0.029 A 
ATOM     46  N   UNL A   1      39.782  32.922  33.604  1.00  0.00    -0.354 N 
ATOM     47  C   UNL A   1      41.052  30.253  30.460  1.00  0.00     0.074 A 
ATOM     48  C   UNL A   1      40.088  30.224  29.381  1.00  0.00     0.031 C 
ATOM     49  C   UNL A   1      38.446  34.399  34.617  1.00  0.00     0.029 A 
ATOM     50  C   UNL A   1      39.683  33.636  34.774  1.00  0.00     0.049 A 
ATOM     51  H   UNL A   1      40.546  32.339  33.392  1.00  0.00     0.167 HD
ATOM     52  C   UNL A   1      42.207  29.546  30.465  1.00  0.00     0.031 A 
ATOM     53  C   UNL A   1      40.487  33.653  35.857  1.00  0.00     0.031 A 
ATOM     54  C   UNL A   1      43.153  29.550  31.547  1.00  0.00     0.049 A 
ATOM     55  C   UNL A   1      41.730  32.800  35.874  1.00  0.00     0.074 A 
ATOM     56  C   UNL A   1      44.351  28.865  31.646  1.00  0.00     0.029 A 
ATOM     57  N   UNL A   1      43.002  30.266  32.723  1.00  0.00    -0.354 N 
ATOM     58  N   UNL A   1      42.196  32.004  34.941  1.00  0.00    -0.248 NA
ATOM     59  C   UNL A   1      42.556  32.853  37.089  1.00  0.00     0.031 C 
ATOM     60  C   UNL A   1      44.905  29.134  32.902  1.00  0.00     0.029 A 
ATOM     61  C   UNL A   1      44.075  30.026  33.564  1.00  0.00     0.049 A 
ATOM     62  H   UNL A   1      42.244  30.859  32.931  1.00  0.00     0.167 HD
ATOM     63  C   UNL A   1      43.383  31.483  35.446  1.00  0.00     0.074 A 
ATOM     64  C   UNL A   1      43.567  32.058  36.763  1.00  0.00     0.031 C 
ATOM     65  C   UNL A   1      44.246  30.610  34.869  1.00  0.00     0.031 A 
BRANCH  52  66
ATOM     66  C   UNL A   1      42.484  28.678  29.269  1.00  0.00    -0.014 A 
ATOM     67  C   UNL A   1      42.107  27.323  29.255  1.00  0.00     0.010 A 
ATOM     68  C   UNL A   1      43.121  29.225  28.142  1.00  0.00     0.010 A 
ATOM     69  C   UNL A   1      42.400  26.520  28.149  1.00  0.00     0.020 A 
ATOM     70  C   UNL A   1      43.396  28.432  27.026  1.00  0.00     0.020 A 
ATOM     71  C   UNL A   1      43.051  27.079  27.046  1.00  0.00     0.054 A 
BRANCH  71  72
ATOM     72  S   UNL A   1      43.418  26.017  25.621  1.00  0.00     0.124 S 
ATOM     73  O   UNL A   1      43.699  24.737  26.266  1.00  0.00    -0.237 OA
ATOM     74  O   UNL A   1      42.180  26.073  24.849  1.00  0.00    -0.237 OA
ATOM     75  O   UNL A   1      44.569  26.665  24.995  1.00  0.00    -0.744 OA
ENDBRANCH  71  72
ENDBRANCH  52  66
BRANCH  53  76
ATOM     76  C   UNL A   1      40.135  34.497  37.032  1.00  0.00    -0.014 A 
ATOM     77  C   UNL A   1      40.658  35.795  37.163  1.00  0.00     0.010 A 
ATOM     78  C   UNL A   1      39.277  34.001  38.031  1.00  0.00     0.010 A 
ATOM     79  C   UNL A   1      40.343  36.577  38.279  1.00  0.00     0.020 A 
ATOM     80  C   UNL A   1      38.941  34.788  39.135  1.00  0.00     0.020 A 
ATOM     81  C   UNL A   1      39.484  36.068  39.258  1.00  0.00     0.054 A 
BRANCH  81  82
ATOM     82  S   UNL A   1      39.045  37.118  40.672  1.00  0.00     0.124 S 
ATOM     83  O   UNL A   1      38.271  38.178  40.034  1.00  0.00    -0.237 OA
ATOM     84  O   UNL A   1      38.286  36.204  41.522  1.00  0.00    -0.237 OA
ATOM     85  O   UNL A   1      40.341  37.523  41.209  1.00  0.00    -0.744 OA
ENDBRANCH  81  82
ENDBRANCH  53  76
BRANCH  65  86
ATOM     86  C   UNL A   1      45.490  30.250  35.635  1.00  0.00    -0.014 A 
ATOM     87  C   UNL A   1      46.660  31.023  35.533  1.00  0.00     0.010 A 
ATOM     88  C   UNL A   1      45.463  29.160  36.525  1.00  0.00     0.010 A 
ATOM     89  C   UNL A   1      47.789  30.698  36.290  1.00  0.00     0.020 A 
ATOM     90  C   UNL A   1      46.582  28.845  37.300  1.00  0.00     0.020 A 
ATOM     91  C   UNL A   1      47.743  29.609  37.169  1.00  0.00     0.054 A 
BRANCH  91  92
ATOM     92  S   UNL A   1      49.202  29.236  38.181  1.00  0.00     0.124 S 
ATOM     93  O   UNL A   1      49.061  30.188  39.279  1.00  0.00    -0.237 OA
ATOM     94  O   UNL A   1      48.999  27.833  38.535  1.00  0.00    -0.237 OA
ATOM     95  O   UNL A   1      50.322  29.487  37.278  1.00  0.00    -0.744 OA
ENDBRANCH  91  92
ENDBRANCH  65  86
ENDBRANCH  39  40
ENDBRANCH  32  34
ENDBRANCH  31  32
ENDBRANCH  30  31
ENDBRANCH  29  30
ENDBRANCH  28  29
ENDBRANCH  27  28
ENDBRANCH   1  27
TORSDOF 24
ENDMDL
