MODEL 1
REMARK VINA RESULT:      -8.1      0.000      0.000
REMARK SMILES O=C(OCCOCCOCCOC(=O)[C@@H](Cc1ccccc1)N1C(=O)/C(=C/c2ccncc2)SC1=S)c1ccc(-c2c3nc(c(-c4ccc(S(=O)(=O)[O-])cc4)c4ccc([nH]4)c(-c4ccc(S(=O)(=O)[O-])cc4)c4nc(c(-c5ccc(S(=O)(=O)[O-])cc5)c5ccc2[nH]5)C=C4)C=C3)cc1
REMARK SMILES IDX 7 1 6 2 5 3 4 4 3 5 2 6 1 7 37 8 38 9 96 10 39 11 95 12
REMARK SMILES IDX 40 13 41 14 42 15 89 16 43 17 94 18 88 19 90 20 44 21 93 22
REMARK SMILES IDX 87 23 86 24 45 26 75 27 56 28 74 29 57 30 60 31 73 32 91 33
REMARK SMILES IDX 58 34 59 35 72 37 92 38 61 39 46 40 47 41 55 42 48 43 54 44
REMARK SMILES IDX 49 45 50 46 51 47 52 48 53 49 76 50 77 51 85 52 78 53 84 54
REMARK SMILES IDX 79 55 80 56 81 57 82 58 83 59 62 60 63 61 71 62 64 63 70 64
REMARK SMILES IDX 65 65 66 66 67 67 68 68 69 69 8 70 9 71 10 72 11 73 12 74
REMARK SMILES IDX 13 75 14 76 15 77 16 78 17 79 18 80 22 81 19 82 21 83 20 84
REMARK SMILES IDX 23 85 24 86 35 87 25 88 26 89 34 90 36 91 27 92 28 93 29 94
REMARK SMILES IDX 33 95 30 96 32 97 31 98
REMARK H PARENT 90 25 60 36
REMARK Flexibility Score: inf
ROOT
ATOM      1  C   UNL A   1      32.762  36.439  32.170  1.00  0.00     0.188 C 
ENDROOT
BRANCH   1   2
ATOM      2  O   UNL A   1      32.497  35.370  31.253  1.00  0.00    -0.376 OA
BRANCH   2   3
ATOM      3  C   UNL A   1      33.535  35.160  30.289  1.00  0.00     0.202 C 
BRANCH   3   4
ATOM      4  C   UNL A   1      34.188  33.766  30.254  1.00  0.00     0.261 C 
BRANCH   4   5
ATOM      5  O   UNL A   1      34.088  33.077  28.998  1.00  0.00    -0.460 OA
BRANCH   5   6
ATOM      6  C   UNL A   1      34.429  31.812  28.653  1.00  0.00     0.338 C 
ATOM      7  O   UNL A   1      33.561  31.112  28.132  1.00  0.00    -0.246 OA
BRANCH   6   8
ATOM      8  C   UNL A   1      35.773  31.191  28.894  1.00  0.00     0.060 A 
ATOM      9  C   UNL A   1      36.002  30.001  29.578  1.00  0.00     0.016 A 
ATOM     10  C   UNL A   1      36.899  31.870  28.379  1.00  0.00     0.016 A 
ATOM     11  C   UNL A   1      37.289  29.527  29.798  1.00  0.00     0.010 A 
ATOM     12  C   UNL A   1      38.204  31.403  28.599  1.00  0.00     0.010 A 
ATOM     13  C   UNL A   1      38.395  30.242  29.346  1.00  0.00    -0.014 A 
BRANCH  13  14
ATOM     14  C   UNL A   1      39.689  29.845  29.936  1.00  0.00     0.031 A 
ATOM     15  C   UNL A   1      40.314  28.590  29.411  1.00  0.00     0.074 A 
ATOM     16  C   UNL A   1      40.379  30.696  30.712  1.00  0.00     0.049 A 
ATOM     17  N   UNL A   1      41.519  28.132  29.597  1.00  0.00    -0.248 NA
ATOM     18  C   UNL A   1      39.463  27.743  28.555  1.00  0.00     0.031 C 
ATOM     19  C   UNL A   1      39.860  31.960  31.216  1.00  0.00     0.029 A 
ATOM     20  N   UNL A   1      41.680  30.670  31.144  1.00  0.00    -0.354 N 
ATOM     21  C   UNL A   1      41.555  26.915  28.932  1.00  0.00     0.074 A 
ATOM     22  C   UNL A   1      40.270  26.726  28.300  1.00  0.00     0.031 C 
ATOM     23  C   UNL A   1      40.862  32.643  31.793  1.00  0.00     0.029 A 
ATOM     24  C   UNL A   1      42.083  31.851  31.731  1.00  0.00     0.049 A 
ATOM     25  H   UNL A   1      42.269  29.888  31.044  1.00  0.00     0.167 HD
ATOM     26  C   UNL A   1      42.560  26.011  28.905  1.00  0.00     0.031 A 
ATOM     27  C   UNL A   1      43.304  32.240  32.152  1.00  0.00     0.031 A 
ATOM     28  C   UNL A   1      43.809  26.204  29.586  1.00  0.00     0.049 A 
ATOM     29  C   UNL A   1      44.410  31.217  32.103  1.00  0.00     0.074 A 
ATOM     30  C   UNL A   1      44.862  25.319  29.723  1.00  0.00     0.029 A 
ATOM     31  N   UNL A   1      44.167  27.367  30.253  1.00  0.00    -0.354 N 
ATOM     32  N   UNL A   1      44.412  30.031  31.543  1.00  0.00    -0.248 NA
ATOM     33  C   UNL A   1      45.658  31.561  32.798  1.00  0.00     0.031 C 
ATOM     34  C   UNL A   1      45.832  25.927  30.527  1.00  0.00     0.029 A 
ATOM     35  C   UNL A   1      45.420  27.219  30.819  1.00  0.00     0.049 A 
ATOM     36  H   UNL A   1      43.611  28.177  30.315  1.00  0.00     0.167 HD
ATOM     37  C   UNL A   1      45.652  29.478  31.835  1.00  0.00     0.074 A 
ATOM     38  C   UNL A   1      46.396  30.483  32.568  1.00  0.00     0.031 C 
ATOM     39  C   UNL A   1      46.128  28.240  31.550  1.00  0.00     0.031 A 
BRANCH  26  40
ATOM     40  C   UNL A   1      42.262  24.693  28.250  1.00  0.00    -0.014 A 
ATOM     41  C   UNL A   1      41.009  24.067  28.367  1.00  0.00     0.010 A 
ATOM     42  C   UNL A   1      43.295  24.044  27.550  1.00  0.00     0.010 A 
ATOM     43  C   UNL A   1      40.810  22.791  27.831  1.00  0.00     0.020 A 
ATOM     44  C   UNL A   1      43.091  22.784  26.987  1.00  0.00     0.020 A 
ATOM     45  C   UNL A   1      41.854  22.158  27.148  1.00  0.00     0.054 A 
BRANCH  45  46
ATOM     46  S   UNL A   1      41.571  20.504  26.462  1.00  0.00     0.124 S 
ATOM     47  O   UNL A   1      41.767  19.654  27.634  1.00  0.00    -0.237 OA
ATOM     48  O   UNL A   1      40.197  20.594  25.974  1.00  0.00    -0.237 OA
ATOM     49  O   UNL A   1      42.591  20.380  25.424  1.00  0.00    -0.744 OA
ENDBRANCH  45  46
ENDBRANCH  26  40
BRANCH  27  50
ATOM     50  C   UNL A   1      43.552  33.603  32.710  1.00  0.00    -0.014 A 
ATOM     51  C   UNL A   1      43.649  33.811  34.101  1.00  0.00     0.010 A 
ATOM     52  C   UNL A   1      43.620  34.720  31.859  1.00  0.00     0.010 A 
ATOM     53  C   UNL A   1      43.761  35.106  34.625  1.00  0.00     0.020 A 
ATOM     54  C   UNL A   1      43.778  36.009  32.374  1.00  0.00     0.020 A 
ATOM     55  C   UNL A   1      43.824  36.196  33.755  1.00  0.00     0.054 A 
BRANCH  55  56
ATOM     56  S   UNL A   1      43.907  37.870  34.444  1.00  0.00     0.124 S 
ATOM     57  O   UNL A   1      44.921  38.502  33.607  1.00  0.00    -0.237 OA
ATOM     58  O   UNL A   1      42.539  38.342  34.257  1.00  0.00    -0.237 OA
ATOM     59  O   UNL A   1      44.303  37.640  35.833  1.00  0.00    -0.744 OA
ENDBRANCH  55  56
ENDBRANCH  27  50
BRANCH  39  60
ATOM     60  C   UNL A   1      47.524  27.920  32.008  1.00  0.00    -0.014 A 
ATOM     61  C   UNL A   1      47.769  27.325  33.257  1.00  0.00     0.010 A 
ATOM     62  C   UNL A   1      48.602  28.177  31.142  1.00  0.00     0.010 A 
ATOM     63  C   UNL A   1      49.075  27.029  33.651  1.00  0.00     0.020 A 
ATOM     64  C   UNL A   1      49.905  27.852  31.517  1.00  0.00     0.020 A 
ATOM     65  C   UNL A   1      50.135  27.296  32.777  1.00  0.00     0.054 A 
BRANCH  65  66
ATOM     66  S   UNL A   1      51.819  26.873  33.294  1.00  0.00     0.124 S 
ATOM     67  O   UNL A   1      51.608  26.408  34.662  1.00  0.00    -0.237 OA
ATOM     68  O   UNL A   1      52.202  25.844  32.331  1.00  0.00    -0.237 OA
ATOM     69  O   UNL A   1      52.547  28.135  33.171  1.00  0.00    -0.744 OA
ENDBRANCH  65  66
ENDBRANCH  39  60
ENDBRANCH  13  14
ENDBRANCH   6   8
ENDBRANCH   5   6
ENDBRANCH   4   5
ENDBRANCH   3   4
ENDBRANCH   2   3
ENDBRANCH   1   2
BRANCH   1  70
ATOM     70  C   UNL A   1      34.231  36.569  32.577  1.00  0.00     0.188 C 
BRANCH  70  71
ATOM     71  O   UNL A   1      34.626  35.931  33.789  1.00  0.00    -0.376 OA
BRANCH  71  72
ATOM     72  C   UNL A   1      35.423  34.758  33.694  1.00  0.00     0.202 C 
BRANCH  72  73
ATOM     73  C   UNL A   1      35.860  34.088  34.996  1.00  0.00     0.261 C 
BRANCH  73  74
ATOM     74  O   UNL A   1      36.730  32.966  34.812  1.00  0.00    -0.462 OA
BRANCH  74  75
ATOM     75  C   UNL A   1      38.058  33.253  34.823  1.00  0.00     0.329 C 
ATOM     76  O   UNL A   1      38.603  34.085  34.103  1.00  0.00    -0.250 OA
BRANCH  75  77
ATOM     77  C   UNL A   1      38.836  32.393  35.808  1.00  0.00     0.206 C 
BRANCH  77  78
ATOM     78  C   UNL A   1      40.358  32.276  35.651  1.00  0.00     0.073 C 
BRANCH  78  79
ATOM     79  C   UNL A   1      40.932  30.967  35.170  1.00  0.00    -0.045 A 
ATOM     80  C   UNL A   1      42.278  30.664  35.398  1.00  0.00     0.004 A 
ATOM     81  C   UNL A   1      40.165  30.073  34.413  1.00  0.00     0.004 A 
ATOM     82  C   UNL A   1      42.854  29.520  34.842  1.00  0.00     0.000 A 
ATOM     83  C   UNL A   1      40.730  28.913  33.883  1.00  0.00     0.000 A 
ATOM     84  C   UNL A   1      42.080  28.646  34.083  1.00  0.00     0.000 A 
ENDBRANCH  78  79
ENDBRANCH  77  78
BRANCH  77  85
ATOM     85  N   UNL A   1      38.375  32.602  37.190  1.00  0.00    -0.278 N 
ATOM     86  C   UNL A   1      37.730  31.539  37.811  1.00  0.00     0.267 C 
ATOM     87  C   UNL A   1      38.660  33.705  37.981  1.00  0.00     0.149 C 
ATOM     88  O   UNL A   1      37.474  30.460  37.304  1.00  0.00    -0.268 OA
ATOM     89  C   UNL A   1      37.397  31.896  39.210  1.00  0.00     0.081 C 
ATOM     90  S   UNL A   1      38.051  33.437  39.597  1.00  0.00    -0.054 SA
ATOM     91  S   UNL A   1      39.404  35.152  37.601  1.00  0.00    -0.052 S 
ATOM     92  C   UNL A   1      36.656  31.118  40.012  1.00  0.00     0.029 C 
BRANCH  92  93
ATOM     93  C   UNL A   1      36.226  31.561  41.342  1.00  0.00    -0.021 A 
ATOM     94  C   UNL A   1      35.119  32.408  41.457  1.00  0.00     0.028 A 
ATOM     95  C   UNL A   1      36.956  31.245  42.481  1.00  0.00     0.028 A 
ATOM     96  C   UNL A   1      34.812  32.928  42.700  1.00  0.00     0.111 A 
ATOM     97  C   UNL A   1      36.558  31.808  43.685  1.00  0.00     0.111 A 
ATOM     98  N   UNL A   1      35.484  32.624  43.823  1.00  0.00    -0.265 NA
ENDBRANCH  92  93
ENDBRANCH  77  85
ENDBRANCH  75  77
ENDBRANCH  74  75
ENDBRANCH  73  74
ENDBRANCH  72  73
ENDBRANCH  71  72
ENDBRANCH  70  71
ENDBRANCH   1  70
TORSDOF 24
ENDMDL
MODEL 2
REMARK VINA RESULT:      -7.5     10.389     16.162
REMARK SMILES O=C(OCCOCCOCCOC(=O)[C@@H](Cc1ccccc1)N1C(=O)/C(=C/c2ccncc2)SC1=S)c1ccc(-c2c3nc(c(-c4ccc(S(=O)(=O)[O-])cc4)c4ccc([nH]4)c(-c4ccc(S(=O)(=O)[O-])cc4)c4nc(c(-c5ccc(S(=O)(=O)[O-])cc5)c5ccc2[nH]5)C=C4)C=C3)cc1
REMARK SMILES IDX 7 1 6 2 5 3 4 4 3 5 2 6 1 7 37 8 38 9 96 10 39 11 95 12
REMARK SMILES IDX 40 13 41 14 42 15 89 16 43 17 94 18 88 19 90 20 44 21 93 22
REMARK SMILES IDX 87 23 86 24 45 26 75 27 56 28 74 29 57 30 60 31 73 32 91 33
REMARK SMILES IDX 58 34 59 35 72 37 92 38 61 39 46 40 47 41 55 42 48 43 54 44
REMARK SMILES IDX 49 45 50 46 51 47 52 48 53 49 76 50 77 51 85 52 78 53 84 54
REMARK SMILES IDX 79 55 80 56 81 57 82 58 83 59 62 60 63 61 71 62 64 63 70 64
REMARK SMILES IDX 65 65 66 66 67 67 68 68 69 69 8 70 9 71 10 72 11 73 12 74
REMARK SMILES IDX 13 75 14 76 15 77 16 78 17 79 18 80 22 81 19 82 21 83 20 84
REMARK SMILES IDX 23 85 24 86 35 87 25 88 26 89 34 90 36 91 27 92 28 93 29 94
REMARK SMILES IDX 33 95 30 96 32 97 31 98
REMARK H PARENT 90 25 60 36
REMARK Flexibility Score: inf
ROOT
ATOM      1  C   UNL A   1      43.115  15.717  39.404  1.00  0.00     0.188 C 
ENDROOT
BRANCH   1   2
ATOM      2  O   UNL A   1      43.339  17.011  38.831  1.00  0.00    -0.376 OA
BRANCH   2   3
ATOM      3  C   UNL A   1      44.704  17.260  38.473  1.00  0.00     0.202 C 
BRANCH   3   4
ATOM      4  C   UNL A   1      44.955  18.143  37.238  1.00  0.00     0.261 C 
BRANCH   4   5
ATOM      5  O   UNL A   1      46.183  18.888  37.260  1.00  0.00    -0.460 OA
BRANCH   5   6
ATOM      6  C   UNL A   1      46.481  20.085  37.821  1.00  0.00     0.338 C 
ATOM      7  O   UNL A   1      46.760  20.097  39.020  1.00  0.00    -0.246 OA
BRANCH   6   8
ATOM      8  C   UNL A   1      46.459  21.399  37.099  1.00  0.00     0.060 A 
ATOM      9  C   UNL A   1      45.633  22.476  37.405  1.00  0.00     0.016 A 
ATOM     10  C   UNL A   1      47.357  21.557  36.020  1.00  0.00     0.016 A 
ATOM     11  C   UNL A   1      45.647  23.639  36.645  1.00  0.00     0.010 A 
ATOM     12  C   UNL A   1      47.376  22.726  35.243  1.00  0.00     0.010 A 
ATOM     13  C   UNL A   1      46.486  23.756  35.541  1.00  0.00    -0.014 A 
BRANCH  13  14
ATOM     14  C   UNL A   1      46.165  24.861  34.616  1.00  0.00     0.031 A 
ATOM     15  C   UNL A   1      46.901  26.148  34.821  1.00  0.00     0.074 A 
ATOM     16  C   UNL A   1      45.444  24.639  33.505  1.00  0.00     0.049 A 
ATOM     17  N   UNL A   1      46.966  27.191  34.042  1.00  0.00    -0.248 NA
ATOM     18  C   UNL A   1      47.671  26.271  36.072  1.00  0.00     0.031 C 
ATOM     19  C   UNL A   1      44.746  23.395  33.209  1.00  0.00     0.029 A 
ATOM     20  N   UNL A   1      45.245  25.410  32.389  1.00  0.00    -0.354 N 
ATOM     21  C   UNL A   1      47.734  28.117  34.732  1.00  0.00     0.074 A 
ATOM     22  C   UNL A   1      48.152  27.499  35.970  1.00  0.00     0.031 C 
ATOM     23  C   UNL A   1      44.290  23.442  31.947  1.00  0.00     0.029 A 
ATOM     24  C   UNL A   1      44.631  24.730  31.359  1.00  0.00     0.049 A 
ATOM     25  H   UNL A   1      45.515  26.354  32.329  1.00  0.00     0.167 HD
ATOM     26  C   UNL A   1      48.015  29.391  34.382  1.00  0.00     0.031 A 
ATOM     27  C   UNL A   1      44.392  25.110  30.088  1.00  0.00     0.031 A 
ATOM     28  C   UNL A   1      47.543  29.995  33.167  1.00  0.00     0.049 A 
ATOM     29  C   UNL A   1      44.722  26.534  29.718  1.00  0.00     0.074 A 
ATOM     30  C   UNL A   1      47.669  31.307  32.750  1.00  0.00     0.029 A 
ATOM     31  N   UNL A   1      46.844  29.320  32.177  1.00  0.00    -0.354 N 
ATOM     32  N   UNL A   1      45.379  27.434  30.411  1.00  0.00    -0.248 NA
ATOM     33  C   UNL A   1      44.223  27.013  28.422  1.00  0.00     0.031 C 
ATOM     34  C   UNL A   1      46.991  31.438  31.535  1.00  0.00     0.029 A 
ATOM     35  C   UNL A   1      46.517  30.191  31.154  1.00  0.00     0.049 A 
ATOM     36  H   UNL A   1      46.615  28.363  32.198  1.00  0.00     0.167 HD
ATOM     37  C   UNL A   1      45.355  28.592  29.643  1.00  0.00     0.074 A 
ATOM     38  C   UNL A   1      44.673  28.260  28.409  1.00  0.00     0.031 C 
ATOM     39  C   UNL A   1      45.829  29.828  29.941  1.00  0.00     0.031 A 
BRANCH  26  40
ATOM     40  C   UNL A   1      48.725  30.229  35.405  1.00  0.00    -0.014 A 
ATOM     41  C   UNL A   1      50.120  30.400  35.394  1.00  0.00     0.010 A 
ATOM     42  C   UNL A   1      47.968  30.809  36.440  1.00  0.00     0.010 A 
ATOM     43  C   UNL A   1      50.749  31.100  36.428  1.00  0.00     0.020 A 
ATOM     44  C   UNL A   1      48.589  31.534  37.457  1.00  0.00     0.020 A 
ATOM     45  C   UNL A   1      49.979  31.658  37.453  1.00  0.00     0.054 A 
BRANCH  45  46
ATOM     46  S   UNL A   1      50.819  32.561  38.782  1.00  0.00     0.124 S 
ATOM     47  O   UNL A   1      51.327  31.472  39.612  1.00  0.00    -0.237 OA
ATOM     48  O   UNL A   1      51.833  33.323  38.056  1.00  0.00    -0.237 OA
ATOM     49  O   UNL A   1      49.756  33.362  39.384  1.00  0.00    -0.744 OA
ENDBRANCH  45  46
ENDBRANCH  26  40
BRANCH  27  50
ATOM     50  C   UNL A   1      43.764  24.193  29.090  1.00  0.00    -0.014 A 
ATOM     51  C   UNL A   1      42.375  23.951  29.101  1.00  0.00     0.010 A 
ATOM     52  C   UNL A   1      44.559  23.491  28.167  1.00  0.00     0.010 A 
ATOM     53  C   UNL A   1      41.808  22.999  28.244  1.00  0.00     0.020 A 
ATOM     54  C   UNL A   1      43.991  22.574  27.279  1.00  0.00     0.020 A 
ATOM     55  C   UNL A   1      42.623  22.317  27.339  1.00  0.00     0.054 A 
BRANCH  55  56
ATOM     56  S   UNL A   1      41.889  21.043  26.278  1.00  0.00     0.124 S 
ATOM     57  O   UNL A   1      40.723  21.728  25.730  1.00  0.00    -0.237 OA
ATOM     58  O   UNL A   1      42.971  20.773  25.337  1.00  0.00    -0.237 OA
ATOM     59  O   UNL A   1      41.591  19.960  27.214  1.00  0.00    -0.744 OA
ENDBRANCH  55  56
ENDBRANCH  27  50
BRANCH  39  60
ATOM     60  C   UNL A   1      45.647  30.899  28.902  1.00  0.00    -0.014 A 
ATOM     61  C   UNL A   1      46.672  31.227  27.998  1.00  0.00     0.010 A 
ATOM     62  C   UNL A   1      44.403  31.548  28.801  1.00  0.00     0.010 A 
ATOM     63  C   UNL A   1      46.470  32.219  27.036  1.00  0.00     0.020 A 
ATOM     64  C   UNL A   1      44.187  32.515  27.820  1.00  0.00     0.020 A 
ATOM     65  C   UNL A   1      45.227  32.857  26.954  1.00  0.00     0.054 A 
BRANCH  65  66
ATOM     66  S   UNL A   1      44.975  34.116  25.677  1.00  0.00     0.124 S 
ATOM     67  O   UNL A   1      43.903  33.528  24.880  1.00  0.00    -0.237 OA
ATOM     68  O   UNL A   1      44.607  35.295  26.456  1.00  0.00    -0.237 OA
ATOM     69  O   UNL A   1      46.274  34.198  25.010  1.00  0.00    -0.744 OA
ENDBRANCH  65  66
ENDBRANCH  39  60
ENDBRANCH  13  14
ENDBRANCH   6   8
ENDBRANCH   5   6
ENDBRANCH   4   5
ENDBRANCH   3   4
ENDBRANCH   2   3
ENDBRANCH   1   2
BRANCH   1  70
ATOM     70  C   UNL A   1      42.383  15.742  40.747  1.00  0.00     0.188 C 
BRANCH  70  71
ATOM     71  O   UNL A   1      41.281  14.851  40.899  1.00  0.00    -0.376 OA
BRANCH  71  72
ATOM     72  C   UNL A   1      41.544  13.454  40.859  1.00  0.00     0.202 C 
BRANCH  72  73
ATOM     73  C   UNL A   1      41.522  12.688  42.180  1.00  0.00     0.261 C 
BRANCH  73  74
ATOM     74  O   UNL A   1      42.817  12.308  42.657  1.00  0.00    -0.462 OA
BRANCH  74  75
ATOM     75  C   UNL A   1      42.846  11.808  43.920  1.00  0.00     0.329 C 
ATOM     76  O   UNL A   1      42.521  10.666  44.232  1.00  0.00    -0.250 OA
BRANCH  75  77
ATOM     77  C   UNL A   1      43.293  12.836  44.949  1.00  0.00     0.206 C 
BRANCH  77  78
ATOM     78  C   UNL A   1      43.408  12.415  46.420  1.00  0.00     0.073 C 
BRANCH  78  79
ATOM     79  C   UNL A   1      43.466  13.491  47.474  1.00  0.00    -0.045 A 
ATOM     80  C   UNL A   1      42.493  14.494  47.509  1.00  0.00     0.004 A 
ATOM     81  C   UNL A   1      44.533  13.565  48.378  1.00  0.00     0.004 A 
ATOM     82  C   UNL A   1      42.609  15.569  48.393  1.00  0.00     0.000 A 
ATOM     83  C   UNL A   1      44.636  14.621  49.283  1.00  0.00     0.000 A 
ATOM     84  C   UNL A   1      43.682  15.633  49.278  1.00  0.00     0.000 A 
ENDBRANCH  78  79
ENDBRANCH  77  78
BRANCH  77  85
ATOM     85  N   UNL A   1      44.417  13.646  44.452  1.00  0.00    -0.278 N 
ATOM     86  C   UNL A   1      44.133  14.944  44.046  1.00  0.00     0.267 C 
ATOM     87  C   UNL A   1      45.756  13.286  44.496  1.00  0.00     0.149 C 
ATOM     88  O   UNL A   1      43.030  15.464  44.025  1.00  0.00    -0.268 OA
ATOM     89  C   UNL A   1      45.381  15.634  43.642  1.00  0.00     0.081 C 
ATOM     90  S   UNL A   1      46.738  14.627  43.955  1.00  0.00    -0.054 SA
ATOM     91  S   UNL A   1      46.479  11.840  44.917  1.00  0.00    -0.052 S 
ATOM     92  C   UNL A   1      45.401  16.851  43.082  1.00  0.00     0.029 C 
BRANCH  92  93
ATOM     93  C   UNL A   1      46.638  17.447  42.566  1.00  0.00    -0.021 A 
ATOM     94  C   UNL A   1      47.066  17.126  41.274  1.00  0.00     0.028 A 
ATOM     95  C   UNL A   1      47.449  18.240  43.369  1.00  0.00     0.028 A 
ATOM     96  C   UNL A   1      48.300  17.583  40.854  1.00  0.00     0.111 A 
ATOM     97  C   UNL A   1      48.665  18.660  42.850  1.00  0.00     0.111 A 
ATOM     98  N   UNL A   1      49.098  18.369  41.598  1.00  0.00    -0.265 NA
ENDBRANCH  92  93
ENDBRANCH  77  85
ENDBRANCH  75  77
ENDBRANCH  74  75
ENDBRANCH  73  74
ENDBRANCH  72  73
ENDBRANCH  71  72
ENDBRANCH  70  71
ENDBRANCH   1  70
TORSDOF 24
ENDMDL
MODEL 3
REMARK VINA RESULT:      -6.8      5.859     11.313
REMARK SMILES O=C(OCCOCCOCCOC(=O)[C@@H](Cc1ccccc1)N1C(=O)/C(=C/c2ccncc2)SC1=S)c1ccc(-c2c3nc(c(-c4ccc(S(=O)(=O)[O-])cc4)c4ccc([nH]4)c(-c4ccc(S(=O)(=O)[O-])cc4)c4nc(c(-c5ccc(S(=O)(=O)[O-])cc5)c5ccc2[nH]5)C=C4)C=C3)cc1
REMARK SMILES IDX 7 1 6 2 5 3 4 4 3 5 2 6 1 7 37 8 38 9 96 10 39 11 95 12
REMARK SMILES IDX 40 13 41 14 42 15 89 16 43 17 94 18 88 19 90 20 44 21 93 22
REMARK SMILES IDX 87 23 86 24 45 26 75 27 56 28 74 29 57 30 60 31 73 32 91 33
REMARK SMILES IDX 58 34 59 35 72 37 92 38 61 39 46 40 47 41 55 42 48 43 54 44
REMARK SMILES IDX 49 45 50 46 51 47 52 48 53 49 76 50 77 51 85 52 78 53 84 54
REMARK SMILES IDX 79 55 80 56 81 57 82 58 83 59 62 60 63 61 71 62 64 63 70 64
REMARK SMILES IDX 65 65 66 66 67 67 68 68 69 69 8 70 9 71 10 72 11 73 12 74
REMARK SMILES IDX 13 75 14 76 15 77 16 78 17 79 18 80 22 81 19 82 21 83 20 84
REMARK SMILES IDX 23 85 24 86 35 87 25 88 26 89 34 90 36 91 27 92 28 93 29 94
REMARK SMILES IDX 33 95 30 96 32 97 31 98
REMARK H PARENT 90 25 60 36
REMARK Flexibility Score: inf
ROOT
ATOM      1  C   UNL A   1      42.048  26.641  27.867  1.00  0.00     0.188 C 
ENDROOT
BRANCH   1   2
ATOM      2  O   UNL A   1      41.888  25.350  28.469  1.00  0.00    -0.376 OA
BRANCH   2   3
ATOM      3  C   UNL A   1      41.307  24.372  27.600  1.00  0.00     0.202 C 
BRANCH   3   4
ATOM      4  C   UNL A   1      41.649  22.897  27.876  1.00  0.00     0.261 C 
BRANCH   4   5
ATOM      5  O   UNL A   1      42.906  22.452  27.343  1.00  0.00    -0.460 OA
BRANCH   5   6
ATOM      6  C   UNL A   1      43.638  22.913  26.301  1.00  0.00     0.338 C 
ATOM      7  O   UNL A   1      43.702  22.207  25.294  1.00  0.00    -0.246 OA
BRANCH   6   8
ATOM      8  C   UNL A   1      44.407  24.201  26.297  1.00  0.00     0.060 A 
ATOM      9  C   UNL A   1      44.452  25.111  25.246  1.00  0.00     0.016 A 
ATOM     10  C   UNL A   1      45.142  24.517  27.460  1.00  0.00     0.016 A 
ATOM     11  C   UNL A   1      45.235  26.257  25.312  1.00  0.00     0.010 A 
ATOM     12  C   UNL A   1      45.940  25.669  27.536  1.00  0.00     0.010 A 
ATOM     13  C   UNL A   1      46.011  26.523  26.437  1.00  0.00    -0.014 A 
BRANCH  13  14
ATOM     14  C   UNL A   1      47.055  27.550  26.257  1.00  0.00     0.031 A 
ATOM     15  C   UNL A   1      46.673  28.963  26.570  1.00  0.00     0.074 A 
ATOM     16  C   UNL A   1      48.338  27.200  26.070  1.00  0.00     0.049 A 
ATOM     17  N   UNL A   1      47.435  30.012  26.698  1.00  0.00    -0.248 NA
ATOM     18  C   UNL A   1      45.236  29.224  26.771  1.00  0.00     0.031 C 
ATOM     19  C   UNL A   1      48.794  25.840  25.817  1.00  0.00     0.029 A 
ATOM     20  N   UNL A   1      49.494  27.934  26.144  1.00  0.00    -0.354 N 
ATOM     21  C   UNL A   1      46.568  31.069  26.935  1.00  0.00     0.074 A 
ATOM     22  C   UNL A   1      45.228  30.530  26.980  1.00  0.00     0.031 C 
ATOM     23  C   UNL A   1      50.136  25.814  25.868  1.00  0.00     0.029 A 
ATOM     24  C   UNL A   1      50.634  27.159  26.121  1.00  0.00     0.049 A 
ATOM     25  H   UNL A   1      49.508  28.916  26.209  1.00  0.00     0.167 HD
ATOM     26  C   UNL A   1      46.869  32.382  27.047  1.00  0.00     0.031 A 
ATOM     27  C   UNL A   1      51.925  27.507  26.300  1.00  0.00     0.031 A 
ATOM     28  C   UNL A   1      48.206  32.894  26.948  1.00  0.00     0.049 A 
ATOM     29  C   UNL A   1      52.233  28.976  26.432  1.00  0.00     0.074 A 
ATOM     30  C   UNL A   1      48.627  34.210  26.937  1.00  0.00     0.029 A 
ATOM     31  N   UNL A   1      49.341  32.104  26.832  1.00  0.00    -0.354 N 
ATOM     32  N   UNL A   1      51.403  29.983  26.573  1.00  0.00    -0.248 NA
ATOM     33  C   UNL A   1      53.649  29.363  26.365  1.00  0.00     0.031 C 
ATOM     34  C   UNL A   1      50.013  34.217  26.752  1.00  0.00     0.029 A 
ATOM     35  C   UNL A   1      50.464  32.905  26.733  1.00  0.00     0.049 A 
ATOM     36  H   UNL A   1      49.347  31.120  26.821  1.00  0.00     0.167 HD
ATOM     37  C   UNL A   1      52.196  31.124  26.592  1.00  0.00     0.074 A 
ATOM     38  C   UNL A   1      53.572  30.679  26.509  1.00  0.00     0.031 C 
ATOM     39  C   UNL A   1      51.821  32.427  26.644  1.00  0.00     0.031 A 
BRANCH  26  40
ATOM     40  C   UNL A   1      45.709  33.332  27.127  1.00  0.00    -0.014 A 
ATOM     41  C   UNL A   1      45.099  33.866  25.979  1.00  0.00     0.010 A 
ATOM     42  C   UNL A   1      45.264  33.742  28.397  1.00  0.00     0.010 A 
ATOM     43  C   UNL A   1      44.093  34.828  26.102  1.00  0.00     0.020 A 
ATOM     44  C   UNL A   1      44.239  34.680  28.524  1.00  0.00     0.020 A 
ATOM     45  C   UNL A   1      43.674  35.231  27.374  1.00  0.00     0.054 A 
BRANCH  45  46
ATOM     46  S   UNL A   1      42.367  36.481  27.507  1.00  0.00     0.124 S 
ATOM     47  O   UNL A   1      41.160  35.672  27.357  1.00  0.00    -0.237 OA
ATOM     48  O   UNL A   1      42.592  37.034  28.840  1.00  0.00    -0.237 OA
ATOM     49  O   UNL A   1      42.648  37.394  26.401  1.00  0.00    -0.744 OA
ENDBRANCH  45  46
ENDBRANCH  26  40
BRANCH  27  50
ATOM     50  C   UNL A   1      53.025  26.496  26.302  1.00  0.00    -0.014 A 
ATOM     51  C   UNL A   1      53.833  26.306  27.441  1.00  0.00     0.010 A 
ATOM     52  C   UNL A   1      53.325  25.766  25.138  1.00  0.00     0.010 A 
ATOM     53  C   UNL A   1      54.938  25.445  27.399  1.00  0.00     0.020 A 
ATOM     54  C   UNL A   1      54.398  24.873  25.106  1.00  0.00     0.020 A 
ATOM     55  C   UNL A   1      55.211  24.735  26.228  1.00  0.00     0.054 A 
BRANCH  55  56
ATOM     56  S   UNL A   1      56.679  23.673  26.164  1.00  0.00     0.124 S 
ATOM     57  O   UNL A   1      56.128  22.360  26.483  1.00  0.00    -0.237 OA
ATOM     58  O   UNL A   1      57.128  23.860  24.789  1.00  0.00    -0.237 OA
ATOM     59  O   UNL A   1      57.551  24.246  27.189  1.00  0.00    -0.744 OA
ENDBRANCH  55  56
ENDBRANCH  27  50
BRANCH  39  60
ATOM     60  C   UNL A   1      52.917  33.455  26.641  1.00  0.00    -0.014 A 
ATOM     61  C   UNL A   1      53.509  33.903  27.835  1.00  0.00     0.010 A 
ATOM     62  C   UNL A   1      53.395  33.939  25.409  1.00  0.00     0.010 A 
ATOM     63  C   UNL A   1      54.534  34.850  27.799  1.00  0.00     0.020 A 
ATOM     64  C   UNL A   1      54.442  34.859  25.368  1.00  0.00     0.020 A 
ATOM     65  C   UNL A   1      54.993  35.323  26.564  1.00  0.00     0.054 A 
BRANCH  65  66
ATOM     66  S   UNL A   1      56.347  36.526  26.539  1.00  0.00     0.124 S 
ATOM     67  O   UNL A   1      55.950  37.450  27.598  1.00  0.00    -0.237 OA
ATOM     68  O   UNL A   1      57.516  35.700  26.830  1.00  0.00    -0.237 OA
ATOM     69  O   UNL A   1      56.299  37.074  25.185  1.00  0.00    -0.744 OA
ENDBRANCH  65  66
ENDBRANCH  39  60
ENDBRANCH  13  14
ENDBRANCH   6   8
ENDBRANCH   5   6
ENDBRANCH   4   5
ENDBRANCH   3   4
ENDBRANCH   2   3
ENDBRANCH   1   2
BRANCH   1  70
ATOM     70  C   UNL A   1      41.032  26.954  26.767  1.00  0.00     0.188 C 
BRANCH  70  71
ATOM     71  O   UNL A   1      39.839  27.626  27.161  1.00  0.00    -0.376 OA
BRANCH  71  72
ATOM     72  C   UNL A   1      39.961  28.742  28.033  1.00  0.00     0.202 C 
BRANCH  72  73
ATOM     73  C   UNL A   1      38.848  29.789  28.011  1.00  0.00     0.261 C 
BRANCH  73  74
ATOM     74  O   UNL A   1      38.249  30.033  29.287  1.00  0.00    -0.462 OA
BRANCH  74  75
ATOM     75  C   UNL A   1      38.611  31.197  29.885  1.00  0.00     0.329 C 
ATOM     76  O   UNL A   1      39.748  31.660  29.894  1.00  0.00    -0.250 OA
BRANCH  75  77
ATOM     77  C   UNL A   1      37.451  31.875  30.601  1.00  0.00     0.206 C 
BRANCH  77  78
ATOM     78  C   UNL A   1      36.017  31.441  30.269  1.00  0.00     0.073 C 
BRANCH  78  79
ATOM     79  C   UNL A   1      35.030  32.494  29.831  1.00  0.00    -0.045 A 
ATOM     80  C   UNL A   1      34.541  32.498  28.522  1.00  0.00     0.004 A 
ATOM     81  C   UNL A   1      34.651  33.535  30.688  1.00  0.00     0.004 A 
ATOM     82  C   UNL A   1      33.733  33.541  28.066  1.00  0.00     0.000 A 
ATOM     83  C   UNL A   1      33.819  34.563  30.245  1.00  0.00     0.000 A 
ATOM     84  C   UNL A   1      33.374  34.574  28.928  1.00  0.00     0.000 A 
ENDBRANCH  78  79
ENDBRANCH  77  78
BRANCH  77  85
ATOM     85  N   UNL A   1      37.725  32.043  32.037  1.00  0.00    -0.278 N 
ATOM     86  C   UNL A   1      37.845  33.343  32.512  1.00  0.00     0.267 C 
ATOM     87  C   UNL A   1      37.722  31.031  32.986  1.00  0.00     0.149 C 
ATOM     88  O   UNL A   1      37.785  34.360  31.842  1.00  0.00    -0.268 OA
ATOM     89  C   UNL A   1      38.051  33.330  33.980  1.00  0.00     0.081 C 
ATOM     90  S   UNL A   1      37.927  31.724  34.577  1.00  0.00    -0.054 SA
ATOM     91  S   UNL A   1      37.606  29.374  32.807  1.00  0.00    -0.052 S 
ATOM     92  C   UNL A   1      38.331  34.429  34.693  1.00  0.00     0.029 C 
BRANCH  92  93
ATOM     93  C   UNL A   1      38.667  34.364  36.120  1.00  0.00    -0.021 A 
ATOM     94  C   UNL A   1      39.865  34.930  36.567  1.00  0.00     0.028 A 
ATOM     95  C   UNL A   1      37.875  33.659  37.018  1.00  0.00     0.028 A 
ATOM     96  C   UNL A   1      40.234  34.738  37.885  1.00  0.00     0.111 A 
ATOM     97  C   UNL A   1      38.328  33.534  38.324  1.00  0.00     0.111 A 
ATOM     98  N   UNL A   1      39.480  34.081  38.783  1.00  0.00    -0.265 NA
ENDBRANCH  92  93
ENDBRANCH  77  85
ENDBRANCH  75  77
ENDBRANCH  74  75
ENDBRANCH  73  74
ENDBRANCH  72  73
ENDBRANCH  71  72
ENDBRANCH  70  71
ENDBRANCH   1  70
TORSDOF 24
ENDMDL
