MODEL 1
REMARK VINA RESULT:      -8.2      0.000      0.000
REMARK SMILES O=C(N[C@]1(C(=O)OCCOCCOCCOC(=O)c2ccc(-c3c4nc(c(-c5ccc(S(=O)(=O)[O-])cc5)c5ccc([nH]5)c(-c5ccc(S(=O)(=O)[O-])cc5)c5nc(c(-c6ccc(S(=O)(=O)[O-])cc6)c6ccc3[nH]6)C=C5)C=C4)cc2)CC[C@H](c2ccccc2)CC1)OCC1c2ccccc2-c2ccccc21
REMARK SMILES IDX 11 1 10 2 9 3 8 4 7 5 5 6 6 7 4 8 79 9 89 10 80 11 88 12
REMARK SMILES IDX 81 13 3 14 1 15 2 16 90 18 91 19 92 20 93 21 104 22 94 23
REMARK SMILES IDX 98 24 99 25 103 26 95 27 97 28 100 29 102 30 96 31 101 32
REMARK SMILES IDX 82 33 83 34 87 35 84 36 86 37 85 38 12 39 13 40 14 41 15 42
REMARK SMILES IDX 16 43 17 44 18 45 19 46 20 47 78 48 21 49 77 50 22 51 23 52
REMARK SMILES IDX 24 53 71 54 25 55 76 56 70 57 72 58 26 59 75 60 69 61 68 62
REMARK SMILES IDX 27 64 57 65 38 66 56 67 39 68 42 69 55 70 73 71 40 72 41 73
REMARK SMILES IDX 54 75 74 76 43 77 28 78 29 79 37 80 30 81 36 82 31 83 32 84
REMARK SMILES IDX 33 85 34 86 35 87 58 88 59 89 67 90 60 91 66 92 61 93 62 94
REMARK SMILES IDX 63 95 64 96 65 97 44 98 45 99 53 100 46 101 52 102 47 103
REMARK SMILES IDX 48 104 49 105 50 106 51 107
REMARK H PARENT 3 17 72 63 42 74
REMARK Flexibility Score: inf
ROOT
ATOM      1  C   UNL A   1      37.981  23.063  26.171  1.00  0.00     0.188 C 
ENDROOT
BRANCH   1   2
ATOM      2  O   UNL A   1      38.669  24.298  26.284  1.00  0.00    -0.376 OA
BRANCH   2   3
ATOM      3  C   UNL A   1      38.806  24.861  27.582  1.00  0.00     0.202 C 
BRANCH   3   4
ATOM      4  C   UNL A   1      39.668  26.121  27.709  1.00  0.00     0.261 C 
BRANCH   4   5
ATOM      5  O   UNL A   1      39.231  27.035  28.723  1.00  0.00    -0.461 OA
BRANCH   5   6
ATOM      6  C   UNL A   1      39.245  28.342  28.357  1.00  0.00     0.332 C 
ATOM      7  O   UNL A   1      39.565  28.753  27.243  1.00  0.00    -0.249 OA
BRANCH   6   8
ATOM      8  C   UNL A   1      38.865  29.299  29.513  1.00  0.00     0.141 C 
ATOM      9  C   UNL A   1      40.221  29.890  29.907  1.00  0.00     0.041 C 
ATOM     10  C   UNL A   1      38.067  28.621  30.638  1.00  0.00     0.041 C 
ATOM     11  C   UNL A   1      40.959  29.102  30.995  1.00  0.00     0.011 C 
ATOM     12  C   UNL A   1      38.845  27.960  31.777  1.00  0.00     0.011 C 
ATOM     13  C   UNL A   1      40.150  28.943  32.610  1.00  0.00     0.019 C 
BRANCH   8  14
ATOM     14  N   UNL A   1      37.991  30.299  28.837  1.00  0.00    -0.305 N 
ATOM     15  O   UNL A   1      37.182  32.359  28.336  1.00  0.00    -0.225 OA
ATOM     16  C   UNL A   1      37.978  31.655  28.939  1.00  0.00     0.408 C 
ATOM     17  H   UNL A   1      37.320  29.920  28.223  1.00  0.00     0.168 HD
BRANCH  16  18
ATOM     18  O   UNL A   1      38.940  32.154  29.748  1.00  0.00    -0.449 OA
BRANCH  18  19
ATOM     19  C   UNL A   1      38.450  33.246  30.515  1.00  0.00     0.248 C 
BRANCH  19  20
ATOM     20  C   UNL A   1      38.721  33.057  32.016  1.00  0.00     0.088 C 
ATOM     21  C   UNL A   1      39.589  34.103  32.720  1.00  0.00    -0.029 A 
ATOM     22  C   UNL A   1      37.356  33.107  32.806  1.00  0.00    -0.029 A 
ATOM     23  C   UNL A   1      41.335  34.527  32.645  1.00  0.00     0.005 A 
ATOM     24  C   UNL A   1      38.606  34.595  34.138  1.00  0.00    -0.014 A 
ATOM     25  C   UNL A   1      37.304  34.011  33.910  1.00  0.00    -0.014 A 
ATOM     26  C   UNL A   1      36.198  32.434  32.427  1.00  0.00     0.005 A 
ATOM     27  C   UNL A   1      42.109  35.435  34.072  1.00  0.00     0.000 A 
ATOM     28  C   UNL A   1      39.366  35.456  35.554  1.00  0.00     0.009 A 
ATOM     29  C   UNL A   1      36.113  34.316  34.548  1.00  0.00     0.009 A 
ATOM     30  C   UNL A   1      34.995  32.745  33.069  1.00  0.00     0.000 A 
ATOM     31  C   UNL A   1      41.146  35.792  35.564  1.00  0.00     0.001 A 
ATOM     32  C   UNL A   1      34.949  33.695  34.102  1.00  0.00     0.001 A 
ENDBRANCH  19  20
ENDBRANCH  18  19
ENDBRANCH  16  18
ENDBRANCH   8  14
BRANCH  13  33
ATOM     33  C   UNL A   1      40.157  30.115  34.429  1.00  0.00    -0.045 A 
ATOM     34  C   UNL A   1      41.284  30.879  35.139  1.00  0.00     0.004 A 
ATOM     35  C   UNL A   1      38.970  30.537  35.350  1.00  0.00     0.004 A 
ATOM     36  C   UNL A   1      41.191  31.958  36.064  1.00  0.00     0.000 A 
ATOM     37  C   UNL A   1      38.896  31.567  36.325  1.00  0.00     0.000 A 
ATOM     38  C   UNL A   1      39.989  32.342  36.606  1.00  0.00     0.000 A 
ENDBRANCH  13  33
ENDBRANCH   6   8
ENDBRANCH   5   6
ENDBRANCH   4   5
ENDBRANCH   3   4
ENDBRANCH   2   3
ENDBRANCH   1   2
BRANCH   1  39
ATOM     39  C   UNL A   1      38.814  21.825  25.865  1.00  0.00     0.188 C 
BRANCH  39  40
ATOM     40  O   UNL A   1      39.821  21.451  26.798  1.00  0.00    -0.376 OA
BRANCH  40  41
ATOM     41  C   UNL A   1      40.670  20.379  26.355  1.00  0.00     0.202 C 
BRANCH  41  42
ATOM     42  C   UNL A   1      42.152  20.731  26.076  1.00  0.00     0.261 C 
BRANCH  42  43
ATOM     43  O   UNL A   1      42.377  21.922  25.284  1.00  0.00    -0.460 OA
BRANCH  43  44
ATOM     44  C   UNL A   1      43.625  22.454  25.269  1.00  0.00     0.338 C 
ATOM     45  O   UNL A   1      44.471  22.254  24.415  1.00  0.00    -0.246 OA
BRANCH  44  46
ATOM     46  C   UNL A   1      43.702  23.543  26.297  1.00  0.00     0.060 A 
ATOM     47  C   UNL A   1      44.791  24.429  26.243  1.00  0.00     0.016 A 
ATOM     48  C   UNL A   1      42.685  23.770  27.231  1.00  0.00     0.016 A 
ATOM     49  C   UNL A   1      44.897  25.491  27.154  1.00  0.00     0.010 A 
ATOM     50  C   UNL A   1      42.797  24.828  28.149  1.00  0.00     0.010 A 
ATOM     51  C   UNL A   1      43.925  25.671  28.146  1.00  0.00    -0.014 A 
BRANCH  51  52
ATOM     52  C   UNL A   1      44.192  26.562  29.313  1.00  0.00     0.031 A 
ATOM     53  C   UNL A   1      44.564  25.912  30.625  1.00  0.00     0.074 A 
ATOM     54  C   UNL A   1      44.139  27.907  29.243  1.00  0.00     0.049 A 
ATOM     55  N   UNL A   1      44.790  26.457  31.793  1.00  0.00    -0.248 NA
ATOM     56  C   UNL A   1      44.695  24.445  30.611  1.00  0.00     0.031 C 
ATOM     57  C   UNL A   1      43.855  28.687  28.041  1.00  0.00     0.029 A 
ATOM     58  N   UNL A   1      44.320  28.857  30.224  1.00  0.00    -0.354 N 
ATOM     59  C   UNL A   1      45.084  25.403  32.651  1.00  0.00     0.074 A 
ATOM     60  C   UNL A   1      44.971  24.185  31.879  1.00  0.00     0.031 C 
ATOM     61  C   UNL A   1      43.870  29.996  28.358  1.00  0.00     0.029 A 
ATOM     62  C   UNL A   1      44.130  30.148  29.790  1.00  0.00     0.049 A 
ATOM     63  H   UNL A   1      44.562  28.631  31.151  1.00  0.00     0.167 HD
ATOM     64  C   UNL A   1      45.424  25.434  33.962  1.00  0.00     0.031 A 
ATOM     65  C   UNL A   1      44.144  31.317  30.468  1.00  0.00     0.031 A 
ATOM     66  C   UNL A   1      45.526  26.635  34.749  1.00  0.00     0.049 A 
ATOM     67  C   UNL A   1      44.436  31.326  31.952  1.00  0.00     0.074 A 
ATOM     68  C   UNL A   1      45.866  26.759  36.085  1.00  0.00     0.029 A 
ATOM     69  N   UNL A   1      45.282  27.915  34.278  1.00  0.00    -0.354 N 
ATOM     70  N   UNL A   1      44.721  30.321  32.744  1.00  0.00    -0.248 NA
ATOM     71  C   UNL A   1      44.414  32.632  32.629  1.00  0.00     0.031 C 
ATOM     72  C   UNL A   1      45.768  28.109  36.438  1.00  0.00     0.029 A 
ATOM     73  C   UNL A   1      45.436  28.833  35.304  1.00  0.00     0.049 A 
ATOM     74  H   UNL A   1      45.035  28.139  33.352  1.00  0.00     0.167 HD
ATOM     75  C   UNL A   1      44.943  30.878  34.004  1.00  0.00     0.074 A 
ATOM     76  C   UNL A   1      44.770  32.307  33.865  1.00  0.00     0.031 C 
ATOM     77  C   UNL A   1      45.265  30.257  35.166  1.00  0.00     0.031 A 
BRANCH  64  78
ATOM     78  C   UNL A   1      45.679  24.114  34.641  1.00  0.00    -0.014 A 
ATOM     79  C   UNL A   1      44.659  23.443  35.340  1.00  0.00     0.010 A 
ATOM     80  C   UNL A   1      46.953  23.525  34.557  1.00  0.00     0.010 A 
ATOM     81  C   UNL A   1      44.922  22.230  35.979  1.00  0.00     0.020 A 
ATOM     82  C   UNL A   1      47.213  22.296  35.170  1.00  0.00     0.020 A 
ATOM     83  C   UNL A   1      46.199  21.666  35.893  1.00  0.00     0.054 A 
BRANCH  83  84
ATOM     84  S   UNL A   1      46.509  20.084  36.724  1.00  0.00     0.124 S 
ATOM     85  O   UNL A   1      45.837  19.139  35.834  1.00  0.00    -0.237 OA
ATOM     86  O   UNL A   1      47.968  20.007  36.733  1.00  0.00    -0.237 OA
ATOM     87  O   UNL A   1      45.888  20.252  38.035  1.00  0.00    -0.744 OA
ENDBRANCH  83  84
ENDBRANCH  64  78
BRANCH  65  88
ATOM     88  C   UNL A   1      43.839  32.597  29.760  1.00  0.00    -0.014 A 
ATOM     89  C   UNL A   1      42.550  33.159  29.802  1.00  0.00     0.010 A 
ATOM     90  C   UNL A   1      44.839  33.247  29.014  1.00  0.00     0.010 A 
ATOM     91  C   UNL A   1      42.265  34.337  29.100  1.00  0.00     0.020 A 
ATOM     92  C   UNL A   1      44.567  34.440  28.336  1.00  0.00     0.020 A 
ATOM     93  C   UNL A   1      43.277  34.972  28.375  1.00  0.00     0.054 A 
BRANCH  93  94
ATOM     94  S   UNL A   1      42.898  36.526  27.516  1.00  0.00     0.124 S 
ATOM     95  O   UNL A   1      42.738  36.080  26.135  1.00  0.00    -0.237 OA
ATOM     96  O   UNL A   1      41.677  36.968  28.183  1.00  0.00    -0.237 OA
ATOM     97  O   UNL A   1      44.075  37.355  27.771  1.00  0.00    -0.744 OA
ENDBRANCH  93  94
ENDBRANCH  65  88
BRANCH  77  98
ATOM     98  C   UNL A   1      45.497  31.114  36.388  1.00  0.00    -0.014 A 
ATOM     99  C   UNL A   1      44.492  31.309  37.352  1.00  0.00     0.010 A 
ATOM    100  C   UNL A   1      46.770  31.676  36.608  1.00  0.00     0.010 A 
ATOM    101  C   UNL A   1      44.746  32.073  38.496  1.00  0.00     0.020 A 
ATOM    102  C   UNL A   1      47.035  32.417  37.763  1.00  0.00     0.020 A 
ATOM    103  C   UNL A   1      46.017  32.622  38.695  1.00  0.00     0.054 A 
BRANCH 103 104
ATOM    104  S   UNL A   1      46.333  33.572  40.210  1.00  0.00     0.124 S 
ATOM    105  O   UNL A   1      47.172  32.654  40.975  1.00  0.00    -0.237 OA
ATOM    106  O   UNL A   1      47.005  34.766  39.705  1.00  0.00    -0.237 OA
ATOM    107  O   UNL A   1      44.999  33.802  40.760  1.00  0.00    -0.744 OA
ENDBRANCH 103 104
ENDBRANCH  77  98
ENDBRANCH  51  52
ENDBRANCH  44  46
ENDBRANCH  43  44
ENDBRANCH  42  43
ENDBRANCH  41  42
ENDBRANCH  40  41
ENDBRANCH  39  40
ENDBRANCH   1  39
TORSDOF 25
ENDMDL
MODEL 2
REMARK VINA RESULT:      -8.2      4.265      9.886
REMARK SMILES O=C(N[C@]1(C(=O)OCCOCCOCCOC(=O)c2ccc(-c3c4nc(c(-c5ccc(S(=O)(=O)[O-])cc5)c5ccc([nH]5)c(-c5ccc(S(=O)(=O)[O-])cc5)c5nc(c(-c6ccc(S(=O)(=O)[O-])cc6)c6ccc3[nH]6)C=C5)C=C4)cc2)CC[C@H](c2ccccc2)CC1)OCC1c2ccccc2-c2ccccc21
REMARK SMILES IDX 11 1 10 2 9 3 8 4 7 5 5 6 6 7 4 8 79 9 89 10 80 11 88 12
REMARK SMILES IDX 81 13 3 14 1 15 2 16 90 18 91 19 92 20 93 21 104 22 94 23
REMARK SMILES IDX 98 24 99 25 103 26 95 27 97 28 100 29 102 30 96 31 101 32
REMARK SMILES IDX 82 33 83 34 87 35 84 36 86 37 85 38 12 39 13 40 14 41 15 42
REMARK SMILES IDX 16 43 17 44 18 45 19 46 20 47 78 48 21 49 77 50 22 51 23 52
REMARK SMILES IDX 24 53 71 54 25 55 76 56 70 57 72 58 26 59 75 60 69 61 68 62
REMARK SMILES IDX 27 64 57 65 38 66 56 67 39 68 42 69 55 70 73 71 40 72 41 73
REMARK SMILES IDX 54 75 74 76 43 77 28 78 29 79 37 80 30 81 36 82 31 83 32 84
REMARK SMILES IDX 33 85 34 86 35 87 58 88 59 89 67 90 60 91 66 92 61 93 62 94
REMARK SMILES IDX 63 95 64 96 65 97 44 98 45 99 53 100 46 101 52 102 47 103
REMARK SMILES IDX 48 104 49 105 50 106 51 107
REMARK H PARENT 3 17 72 63 42 74
REMARK Flexibility Score: inf
ROOT
ATOM      1  C   UNL A   1      35.521  18.532  24.508  1.00  0.00     0.188 C 
ENDROOT
BRANCH   1   2
ATOM      2  O   UNL A   1      34.673  19.567  24.981  1.00  0.00    -0.376 OA
BRANCH   2   3
ATOM      3  C   UNL A   1      33.273  19.418  24.776  1.00  0.00     0.202 C 
BRANCH   3   4
ATOM      4  C   UNL A   1      32.476  20.686  24.455  1.00  0.00     0.261 C 
BRANCH   4   5
ATOM      5  O   UNL A   1      33.213  21.903  24.622  1.00  0.00    -0.461 OA
BRANCH   5   6
ATOM      6  C   UNL A   1      33.513  22.552  23.468  1.00  0.00     0.332 C 
ATOM      7  O   UNL A   1      33.016  22.296  22.373  1.00  0.00    -0.249 OA
BRANCH   6   8
ATOM      8  C   UNL A   1      34.606  23.634  23.647  1.00  0.00     0.141 C 
ATOM      9  C   UNL A   1      35.896  22.816  23.550  1.00  0.00     0.041 C 
ATOM     10  C   UNL A   1      34.432  24.482  24.918  1.00  0.00     0.041 C 
ATOM     11  C   UNL A   1      36.406  22.285  24.895  1.00  0.00     0.011 C 
ATOM     12  C   UNL A   1      35.073  23.979  26.213  1.00  0.00     0.011 C 
ATOM     13  C   UNL A   1      36.843  23.502  26.166  1.00  0.00     0.019 C 
BRANCH   8  14
ATOM     14  N   UNL A   1      34.402  24.505  22.455  1.00  0.00    -0.305 N 
ATOM     15  O   UNL A   1      33.417  26.115  21.195  1.00  0.00    -0.225 OA
ATOM     16  C   UNL A   1      33.486  25.487  22.241  1.00  0.00     0.408 C 
ATOM     17  H   UNL A   1      35.024  24.344  21.709  1.00  0.00     0.168 HD
BRANCH  16  18
ATOM     18  O   UNL A   1      32.676  25.723  23.298  1.00  0.00    -0.449 OA
BRANCH  18  19
ATOM     19  C   UNL A   1      31.715  26.725  22.994  1.00  0.00     0.248 C 
BRANCH  19  20
ATOM     20  C   UNL A   1      31.239  27.461  24.258  1.00  0.00     0.088 C 
ATOM     21  C   UNL A   1      32.268  28.298  25.023  1.00  0.00    -0.029 A 
ATOM     22  C   UNL A   1      30.121  28.504  23.867  1.00  0.00    -0.029 A 
ATOM     23  C   UNL A   1      33.706  27.893  26.023  1.00  0.00     0.005 A 
ATOM     24  C   UNL A   1      31.479  29.901  25.194  1.00  0.00    -0.014 A 
ATOM     25  C   UNL A   1      30.321  29.840  24.330  1.00  0.00    -0.014 A 
ATOM     26  C   UNL A   1      29.048  28.233  23.023  1.00  0.00     0.005 A 
ATOM     27  C   UNL A   1      34.329  29.136  27.260  1.00  0.00     0.000 A 
ATOM     28  C   UNL A   1      32.063  31.109  26.427  1.00  0.00     0.009 A 
ATOM     29  C   UNL A   1      29.541  30.892  23.881  1.00  0.00     0.009 A 
ATOM     30  C   UNL A   1      28.263  29.297  22.567  1.00  0.00     0.000 A 
ATOM     31  C   UNL A   1      33.435  30.687  27.532  1.00  0.00     0.001 A 
ATOM     32  C   UNL A   1      28.523  30.616  22.971  1.00  0.00     0.001 A 
ENDBRANCH  19  20
ENDBRANCH  18  19
ENDBRANCH  16  18
ENDBRANCH   8  14
BRANCH  13  33
ATOM     33  C   UNL A   1      38.655  24.563  26.686  1.00  0.00    -0.045 A 
ATOM     34  C   UNL A   1      39.952  24.801  25.900  1.00  0.00     0.004 A 
ATOM     35  C   UNL A   1      38.981  25.427  27.944  1.00  0.00     0.004 A 
ATOM     36  C   UNL A   1      40.931  25.822  26.073  1.00  0.00     0.000 A 
ATOM     37  C   UNL A   1      40.000  26.395  28.145  1.00  0.00     0.000 A 
ATOM     38  C   UNL A   1      40.915  26.658  27.162  1.00  0.00     0.000 A 
ENDBRANCH  13  33
ENDBRANCH   6   8
ENDBRANCH   5   6
ENDBRANCH   4   5
ENDBRANCH   3   4
ENDBRANCH   2   3
ENDBRANCH   1   2
BRANCH   1  39
ATOM     39  C   UNL A   1      36.926  18.461  25.092  1.00  0.00     0.188 C 
BRANCH  39  40
ATOM     40  O   UNL A   1      37.817  19.536  24.818  1.00  0.00    -0.376 OA
BRANCH  40  41
ATOM     41  C   UNL A   1      39.096  19.425  25.466  1.00  0.00     0.202 C 
BRANCH  41  42
ATOM     42  C   UNL A   1      39.716  20.731  26.018  1.00  0.00     0.261 C 
BRANCH  42  43
ATOM     43  O   UNL A   1      40.809  20.561  26.952  1.00  0.00    -0.460 OA
BRANCH  43  44
ATOM     44  C   UNL A   1      42.054  20.926  26.552  1.00  0.00     0.338 C 
ATOM     45  O   UNL A   1      42.603  20.568  25.524  1.00  0.00    -0.246 OA
BRANCH  44  46
ATOM     46  C   UNL A   1      42.531  22.056  27.415  1.00  0.00     0.060 A 
ATOM     47  C   UNL A   1      43.829  22.549  27.205  1.00  0.00     0.016 A 
ATOM     48  C   UNL A   1      41.700  22.699  28.340  1.00  0.00     0.016 A 
ATOM     49  C   UNL A   1      44.316  23.630  27.954  1.00  0.00     0.010 A 
ATOM     50  C   UNL A   1      42.193  23.776  29.096  1.00  0.00     0.010 A 
ATOM     51  C   UNL A   1      43.519  24.222  28.942  1.00  0.00    -0.014 A 
BRANCH  51  52
ATOM     52  C   UNL A   1      44.126  25.124  29.963  1.00  0.00     0.031 A 
ATOM     53  C   UNL A   1      44.388  26.559  29.569  1.00  0.00     0.074 A 
ATOM     54  C   UNL A   1      44.429  24.725  31.214  1.00  0.00     0.049 A 
ATOM     55  N   UNL A   1      44.954  27.522  30.250  1.00  0.00    -0.248 NA
ATOM     56  C   UNL A   1      43.951  26.953  28.219  1.00  0.00     0.031 C 
ATOM     57  C   UNL A   1      44.183  23.396  31.768  1.00  0.00     0.029 A 
ATOM     58  N   UNL A   1      45.020  25.415  32.250  1.00  0.00    -0.354 N 
ATOM     59  C   UNL A   1      44.947  28.632  29.412  1.00  0.00     0.074 A 
ATOM     60  C   UNL A   1      44.353  28.214  28.161  1.00  0.00     0.031 C 
ATOM     61  C   UNL A   1      44.631  23.364  33.038  1.00  0.00     0.029 A 
ATOM     62  C   UNL A   1      45.225  24.657  33.379  1.00  0.00     0.049 A 
ATOM     63  H   UNL A   1      45.273  26.365  32.186  1.00  0.00     0.167 HD
ATOM     64  C   UNL A   1      45.383  29.892  29.654  1.00  0.00     0.031 A 
ATOM     65  C   UNL A   1      45.836  24.960  34.545  1.00  0.00     0.031 A 
ATOM     66  C   UNL A   1      45.990  30.321  30.886  1.00  0.00     0.049 A 
ATOM     67  C   UNL A   1      46.401  26.345  34.764  1.00  0.00     0.074 A 
ATOM     68  C   UNL A   1      46.461  31.580  31.217  1.00  0.00     0.029 A 
ATOM     69  N   UNL A   1      46.217  29.508  31.984  1.00  0.00    -0.354 N 
ATOM     70  N   UNL A   1      46.375  27.385  33.965  1.00  0.00    -0.248 NA
ATOM     71  C   UNL A   1      47.072  26.598  36.050  1.00  0.00     0.031 C 
ATOM     72  C   UNL A   1      47.028  31.513  32.494  1.00  0.00     0.029 A 
ATOM     73  C   UNL A   1      46.846  30.230  32.985  1.00  0.00     0.049 A 
ATOM     74  H   UNL A   1      45.967  28.557  32.045  1.00  0.00     0.167 HD
ATOM     75  C   UNL A   1      46.996  28.420  34.663  1.00  0.00     0.074 A 
ATOM     76  C   UNL A   1      47.377  27.885  35.952  1.00  0.00     0.031 C 
ATOM     77  C   UNL A   1      47.224  29.698  34.270  1.00  0.00     0.031 A 
BRANCH  64  78
ATOM     78  C   UNL A   1      45.251  30.894  28.537  1.00  0.00    -0.014 A 
ATOM     79  C   UNL A   1      46.180  30.938  27.481  1.00  0.00     0.010 A 
ATOM     80  C   UNL A   1      44.167  31.790  28.533  1.00  0.00     0.010 A 
ATOM     81  C   UNL A   1      46.051  31.889  26.466  1.00  0.00     0.020 A 
ATOM     82  C   UNL A   1      44.017  32.723  27.504  1.00  0.00     0.020 A 
ATOM     83  C   UNL A   1      44.971  32.778  26.487  1.00  0.00     0.054 A 
BRANCH  83  84
ATOM     84  S   UNL A   1      44.822  33.995  25.151  1.00  0.00     0.124 S 
ATOM     85  O   UNL A   1      43.819  34.912  25.688  1.00  0.00    -0.237 OA
ATOM     86  O   UNL A   1      46.176  34.533  25.055  1.00  0.00    -0.237 OA
ATOM     87  O   UNL A   1      44.387  33.202  24.004  1.00  0.00    -0.744 OA
ENDBRANCH  83  84
ENDBRANCH  64  78
BRANCH  65  88
ATOM     88  C   UNL A   1      45.985  23.918  35.605  1.00  0.00    -0.014 A 
ATOM     89  C   UNL A   1      45.459  24.116  36.895  1.00  0.00     0.010 A 
ATOM     90  C   UNL A   1      46.682  22.726  35.332  1.00  0.00     0.010 A 
ATOM     91  C   UNL A   1      45.640  23.150  37.893  1.00  0.00     0.020 A 
ATOM     92  C   UNL A   1      46.839  21.746  36.317  1.00  0.00     0.020 A 
ATOM     93  C   UNL A   1      46.326  21.969  37.596  1.00  0.00     0.054 A 
BRANCH  93  94
ATOM     94  S   UNL A   1      46.504  20.708  38.890  1.00  0.00     0.124 S 
ATOM     95  O   UNL A   1      45.617  21.214  39.934  1.00  0.00    -0.237 OA
ATOM     96  O   UNL A   1      46.055  19.494  38.213  1.00  0.00    -0.237 OA
ATOM     97  O   UNL A   1      47.930  20.744  39.210  1.00  0.00    -0.744 OA
ENDBRANCH  93  94
ENDBRANCH  65  88
BRANCH  77  98
ATOM     98  C   UNL A   1      47.884  30.637  35.252  1.00  0.00    -0.014 A 
ATOM     99  C   UNL A   1      47.137  31.560  36.003  1.00  0.00     0.010 A 
ATOM    100  C   UNL A   1      49.272  30.541  35.476  1.00  0.00     0.010 A 
ATOM    101  C   UNL A   1      47.768  32.390  36.937  1.00  0.00     0.020 A 
ATOM    102  C   UNL A   1      49.901  31.348  36.428  1.00  0.00     0.020 A 
ATOM    103  C   UNL A   1      49.146  32.278  37.144  1.00  0.00     0.054 A 
BRANCH 103 104
ATOM    104  S   UNL A   1      49.932  33.335  38.394  1.00  0.00     0.124 S 
ATOM    105  O   UNL A   1      51.335  33.289  37.992  1.00  0.00    -0.237 OA
ATOM    106  O   UNL A   1      49.263  34.618  38.196  1.00  0.00    -0.237 OA
ATOM    107  O   UNL A   1      49.624  32.667  39.657  1.00  0.00    -0.744 OA
ENDBRANCH 103 104
ENDBRANCH  77  98
ENDBRANCH  51  52
ENDBRANCH  44  46
ENDBRANCH  43  44
ENDBRANCH  42  43
ENDBRANCH  41  42
ENDBRANCH  40  41
ENDBRANCH  39  40
ENDBRANCH   1  39
TORSDOF 25
ENDMDL
MODEL 3
REMARK VINA RESULT:      -7.7      5.834     11.506
REMARK SMILES O=C(N[C@]1(C(=O)OCCOCCOCCOC(=O)c2ccc(-c3c4nc(c(-c5ccc(S(=O)(=O)[O-])cc5)c5ccc([nH]5)c(-c5ccc(S(=O)(=O)[O-])cc5)c5nc(c(-c6ccc(S(=O)(=O)[O-])cc6)c6ccc3[nH]6)C=C5)C=C4)cc2)CC[C@H](c2ccccc2)CC1)OCC1c2ccccc2-c2ccccc21
REMARK SMILES IDX 11 1 10 2 9 3 8 4 7 5 5 6 6 7 4 8 79 9 89 10 80 11 88 12
REMARK SMILES IDX 81 13 3 14 1 15 2 16 90 18 91 19 92 20 93 21 104 22 94 23
REMARK SMILES IDX 98 24 99 25 103 26 95 27 97 28 100 29 102 30 96 31 101 32
REMARK SMILES IDX 82 33 83 34 87 35 84 36 86 37 85 38 12 39 13 40 14 41 15 42
REMARK SMILES IDX 16 43 17 44 18 45 19 46 20 47 78 48 21 49 77 50 22 51 23 52
REMARK SMILES IDX 24 53 71 54 25 55 76 56 70 57 72 58 26 59 75 60 69 61 68 62
REMARK SMILES IDX 27 64 57 65 38 66 56 67 39 68 42 69 55 70 73 71 40 72 41 73
REMARK SMILES IDX 54 75 74 76 43 77 28 78 29 79 37 80 30 81 36 82 31 83 32 84
REMARK SMILES IDX 33 85 34 86 35 87 58 88 59 89 67 90 60 91 66 92 61 93 62 94
REMARK SMILES IDX 63 95 64 96 65 97 44 98 45 99 53 100 46 101 52 102 47 103
REMARK SMILES IDX 48 104 49 105 50 106 51 107
REMARK H PARENT 3 17 72 63 42 74
REMARK Flexibility Score: inf
ROOT
ATOM      1  C   UNL A   1      36.135  21.252  25.776  1.00  0.00     0.188 C 
ENDROOT
BRANCH   1   2
ATOM      2  O   UNL A   1      36.512  22.585  25.468  1.00  0.00    -0.376 OA
BRANCH   2   3
ATOM      3  C   UNL A   1      35.551  23.408  24.819  1.00  0.00     0.202 C 
BRANCH   3   4
ATOM      4  C   UNL A   1      35.296  24.792  25.425  1.00  0.00     0.261 C 
BRANCH   4   5
ATOM      5  O   UNL A   1      34.725  25.738  24.513  1.00  0.00    -0.461 OA
BRANCH   5   6
ATOM      6  C   UNL A   1      33.591  26.342  24.953  1.00  0.00     0.332 C 
ATOM      7  O   UNL A   1      33.275  26.459  26.135  1.00  0.00    -0.249 OA
BRANCH   6   8
ATOM      8  C   UNL A   1      32.680  26.833  23.801  1.00  0.00     0.141 C 
ATOM      9  C   UNL A   1      33.079  28.305  23.673  1.00  0.00     0.041 C 
ATOM     10  C   UNL A   1      31.186  26.551  24.033  1.00  0.00     0.041 C 
ATOM     11  C   UNL A   1      32.250  29.259  24.541  1.00  0.00     0.011 C 
ATOM     12  C   UNL A   1      30.365  27.595  24.791  1.00  0.00     0.011 C 
ATOM     13  C   UNL A   1      30.465  29.339  24.231  1.00  0.00     0.019 C 
BRANCH   8  14
ATOM     14  N   UNL A   1      33.150  26.020  22.644  1.00  0.00    -0.305 N 
ATOM     15  O   UNL A   1      33.473  24.144  21.410  1.00  0.00    -0.225 OA
ATOM     16  C   UNL A   1      33.014  24.689  22.402  1.00  0.00     0.408 C 
ATOM     17  H   UNL A   1      33.633  26.524  21.949  1.00  0.00     0.168 HD
BRANCH  16  18
ATOM     18  O   UNL A   1      32.304  24.030  23.345  1.00  0.00    -0.449 OA
BRANCH  18  19
ATOM     19  C   UNL A   1      31.427  23.078  22.755  1.00  0.00     0.248 C 
BRANCH  19  20
ATOM     20  C   UNL A   1      31.228  21.850  23.658  1.00  0.00     0.088 C 
ATOM     21  C   UNL A   1      32.084  20.613  23.375  1.00  0.00    -0.029 A 
ATOM     22  C   UNL A   1      31.592  22.228  25.146  1.00  0.00    -0.029 A 
ATOM     23  C   UNL A   1      32.123  19.401  22.047  1.00  0.00     0.005 A 
ATOM     24  C   UNL A   1      32.816  20.222  24.967  1.00  0.00    -0.014 A 
ATOM     25  C   UNL A   1      32.517  21.363  25.804  1.00  0.00    -0.014 A 
ATOM     26  C   UNL A   1      31.170  23.387  25.792  1.00  0.00     0.005 A 
ATOM     27  C   UNL A   1      32.885  17.734  22.363  1.00  0.00     0.000 A 
ATOM     28  C   UNL A   1      33.534  18.580  25.293  1.00  0.00     0.009 A 
ATOM     29  C   UNL A   1      33.087  21.695  27.021  1.00  0.00     0.009 A 
ATOM     30  C   UNL A   1      31.749  23.723  27.021  1.00  0.00     0.000 A 
ATOM     31  C   UNL A   1      33.483  17.296  24.015  1.00  0.00     0.001 A 
ATOM     32  C   UNL A   1      32.717  22.899  27.616  1.00  0.00     0.001 A 
ENDBRANCH  19  20
ENDBRANCH  18  19
ENDBRANCH  16  18
ENDBRANCH   8  14
BRANCH  13  33
ATOM     33  C   UNL A   1      29.205  30.532  22.938  1.00  0.00    -0.045 A 
ATOM     34  C   UNL A   1      28.781  32.005  23.015  1.00  0.00     0.004 A 
ATOM     35  C   UNL A   1      28.552  30.169  21.568  1.00  0.00     0.004 A 
ATOM     36  C   UNL A   1      28.320  32.861  21.973  1.00  0.00     0.000 A 
ATOM     37  C   UNL A   1      28.028  31.017  20.557  1.00  0.00     0.000 A 
ATOM     38  C   UNL A   1      28.007  32.375  20.727  1.00  0.00     0.000 A 
ENDBRANCH  13  33
ENDBRANCH   6   8
ENDBRANCH   5   6
ENDBRANCH   4   5
ENDBRANCH   3   4
ENDBRANCH   2   3
ENDBRANCH   1   2
BRANCH   1  39
ATOM     39  C   UNL A   1      36.797  20.137  24.976  1.00  0.00     0.188 C 
BRANCH  39  40
ATOM     40  O   UNL A   1      38.117  20.358  24.492  1.00  0.00    -0.376 OA
BRANCH  40  41
ATOM     41  C   UNL A   1      39.118  20.447  25.521  1.00  0.00     0.202 C 
BRANCH  41  42
ATOM     42  C   UNL A   1      39.993  19.192  25.755  1.00  0.00     0.261 C 
BRANCH  42  43
ATOM     43  O   UNL A   1      41.417  19.375  25.564  1.00  0.00    -0.460 OA
BRANCH  43  44
ATOM     44  C   UNL A   1      42.205  19.456  26.666  1.00  0.00     0.338 C 
ATOM     45  O   UNL A   1      42.717  18.512  27.243  1.00  0.00    -0.246 OA
BRANCH  44  46
ATOM     46  C   UNL A   1      42.585  20.889  26.889  1.00  0.00     0.060 A 
ATOM     47  C   UNL A   1      42.673  21.734  25.770  1.00  0.00     0.016 A 
ATOM     48  C   UNL A   1      42.748  21.434  28.167  1.00  0.00     0.016 A 
ATOM     49  C   UNL A   1      42.985  23.094  25.920  1.00  0.00     0.010 A 
ATOM     50  C   UNL A   1      43.071  22.794  28.315  1.00  0.00     0.010 A 
ATOM     51  C   UNL A   1      43.235  23.625  27.191  1.00  0.00    -0.014 A 
BRANCH  51  52
ATOM     52  C   UNL A   1      43.894  24.956  27.337  1.00  0.00     0.031 A 
ATOM     53  C   UNL A   1      43.026  26.134  27.712  1.00  0.00     0.074 A 
ATOM     54  C   UNL A   1      45.218  25.147  27.173  1.00  0.00     0.049 A 
ATOM     55  N   UNL A   1      43.343  27.397  27.846  1.00  0.00    -0.248 NA
ATOM     56  C   UNL A   1      41.605  25.841  27.967  1.00  0.00     0.031 C 
ATOM     57  C   UNL A   1      46.198  24.107  26.870  1.00  0.00     0.029 A 
ATOM     58  N   UNL A   1      45.965  26.303  27.235  1.00  0.00    -0.354 N 
ATOM     59  C   UNL A   1      42.164  28.047  28.194  1.00  0.00     0.074 A 
ATOM     60  C   UNL A   1      41.120  27.047  28.215  1.00  0.00     0.031 C 
ATOM     61  C   UNL A   1      47.415  24.674  26.762  1.00  0.00     0.029 A 
ATOM     62  C   UNL A   1      47.299  26.120  26.953  1.00  0.00     0.049 A 
ATOM     63  H   UNL A   1      45.578  27.180  27.460  1.00  0.00     0.167 HD
ATOM     64  C   UNL A   1      41.960  29.356  28.480  1.00  0.00     0.031 A 
ATOM     65  C   UNL A   1      48.307  27.013  26.842  1.00  0.00     0.031 A 
ATOM     66  C   UNL A   1      42.984  30.366  28.449  1.00  0.00     0.049 A 
ATOM     67  C   UNL A   1      48.042  28.483  27.075  1.00  0.00     0.074 A 
ATOM     68  C   UNL A   1      42.865  31.717  28.726  1.00  0.00     0.029 A 
ATOM     69  N   UNL A   1      44.310  30.142  28.116  1.00  0.00    -0.354 N 
ATOM     70  N   UNL A   1      46.924  29.079  27.413  1.00  0.00    -0.248 NA
ATOM     71  C   UNL A   1      49.182  29.400  26.916  1.00  0.00     0.031 C 
ATOM     72  C   UNL A   1      44.106  32.321  28.501  1.00  0.00     0.029 A 
ATOM     73  C   UNL A   1      45.014  31.334  28.153  1.00  0.00     0.049 A 
ATOM     74  H   UNL A   1      44.695  29.264  27.887  1.00  0.00     0.167 HD
ATOM     75  C   UNL A   1      47.234  30.433  27.539  1.00  0.00     0.074 A 
ATOM     76  C   UNL A   1      48.645  30.567  27.251  1.00  0.00     0.031 C 
ATOM     77  C   UNL A   1      46.421  31.467  27.867  1.00  0.00     0.031 A 
BRANCH  64  78
ATOM     78  C   UNL A   1      40.554  29.776  28.820  1.00  0.00    -0.014 A 
ATOM     79  C   UNL A   1      39.484  29.523  27.942  1.00  0.00     0.010 A 
ATOM     80  C   UNL A   1      40.297  30.414  30.046  1.00  0.00     0.010 A 
ATOM     81  C   UNL A   1      38.191  29.939  28.267  1.00  0.00     0.020 A 
ATOM     82  C   UNL A   1      39.000  30.805  30.389  1.00  0.00     0.020 A 
ATOM     83  C   UNL A   1      37.958  30.581  29.488  1.00  0.00     0.054 A 
BRANCH  83  84
ATOM     84  S   UNL A   1      36.268  31.102  29.888  1.00  0.00     0.124 S 
ATOM     85  O   UNL A   1      36.344  32.548  29.694  1.00  0.00    -0.237 OA
ATOM     86  O   UNL A   1      35.468  30.379  28.902  1.00  0.00    -0.237 OA
ATOM     87  O   UNL A   1      36.088  30.669  31.271  1.00  0.00    -0.744 OA
ENDBRANCH  83  84
ENDBRANCH  64  78
BRANCH  65  88
ATOM     88  C   UNL A   1      49.675  26.553  26.457  1.00  0.00    -0.014 A 
ATOM     89  C   UNL A   1      50.260  26.954  25.242  1.00  0.00     0.010 A 
ATOM     90  C   UNL A   1      50.391  25.683  27.300  1.00  0.00     0.010 A 
ATOM     91  C   UNL A   1      51.525  26.484  24.873  1.00  0.00     0.020 A 
ATOM     92  C   UNL A   1      51.668  25.234  26.949  1.00  0.00     0.020 A 
ATOM     93  C   UNL A   1      52.223  25.630  25.731  1.00  0.00     0.054 A 
BRANCH  93  94
ATOM     94  S   UNL A   1      53.885  25.073  25.256  1.00  0.00     0.124 S 
ATOM     95  O   UNL A   1      54.076  25.740  23.971  1.00  0.00    -0.237 OA
ATOM     96  O   UNL A   1      54.711  25.569  26.354  1.00  0.00    -0.237 OA
ATOM     97  O   UNL A   1      53.755  23.619  25.191  1.00  0.00    -0.744 OA
ENDBRANCH  93  94
ENDBRANCH  65  88
BRANCH  77  98
ATOM     98  C   UNL A   1      47.032  32.844  27.978  1.00  0.00    -0.014 A 
ATOM     99  C   UNL A   1      47.471  33.357  29.211  1.00  0.00     0.010 A 
ATOM    100  C   UNL A   1      47.233  33.608  26.812  1.00  0.00     0.010 A 
ATOM    101  C   UNL A   1      48.072  34.619  29.279  1.00  0.00     0.020 A 
ATOM    102  C   UNL A   1      47.859  34.856  26.872  1.00  0.00     0.020 A 
ATOM    103  C   UNL A   1      48.263  35.361  28.109  1.00  0.00     0.054 A 
BRANCH 103 104
ATOM    104  S   UNL A   1      49.087  36.975  28.220  1.00  0.00     0.124 S 
ATOM    105  O   UNL A   1      48.952  37.480  26.857  1.00  0.00    -0.237 OA
ATOM    106  O   UNL A   1      48.294  37.671  29.230  1.00  0.00    -0.237 OA
ATOM    107  O   UNL A   1      50.450  36.642  28.629  1.00  0.00    -0.744 OA
ENDBRANCH 103 104
ENDBRANCH  77  98
ENDBRANCH  51  52
ENDBRANCH  44  46
ENDBRANCH  43  44
ENDBRANCH  42  43
ENDBRANCH  41  42
ENDBRANCH  40  41
ENDBRANCH  39  40
ENDBRANCH   1  39
TORSDOF 25
ENDMDL
