MODEL 1
REMARK VINA RESULT:      -9.1      0.000      0.000
REMARK SMILES CC(C)(C)OC(=O)N1CCC[C@]1(Cc1ccccc1)C(=O)OCCOCCOCCOC(=O)c1ccc(-c2c3nc(c(-c4ccc(S(=O)(=O)[O-])cc4)c4ccc([nH]4)c(-c4ccc(S(=O)(=O)[O-])cc4)c4nc(c(-c5ccc(S(=O)(=O)[O-])cc5)c5ccc2[nH]5)C=C4)C=C3)cc1
REMARK SMILES IDX 26 1 25 2 24 3 23 4 22 5 20 6 21 7 12 8 8 9 9 10 10 11 11 12
REMARK SMILES IDX 6 13 7 14 5 15 2 16 1 17 3 18 4 19 13 20 14 21 15 22 19 23
REMARK SMILES IDX 16 24 18 25 17 26 27 27 28 28 29 29 30 30 31 31 32 32 33 33
REMARK SMILES IDX 34 34 35 35 93 36 36 37 92 38 37 39 38 40 39 41 86 42 40 43
REMARK SMILES IDX 91 44 85 45 87 46 41 47 90 48 84 49 83 50 42 52 72 53 53 54
REMARK SMILES IDX 71 55 54 56 57 57 70 58 88 59 55 60 56 61 69 63 89 64 58 65
REMARK SMILES IDX 43 66 44 67 52 68 45 69 51 70 46 71 47 72 48 73 49 74 50 75
REMARK SMILES IDX 73 76 74 77 82 78 75 79 81 80 76 81 77 82 78 83 79 84 80 85
REMARK SMILES IDX 59 86 60 87 68 88 61 89 67 90 62 91 63 92 64 93 65 94 66 95
REMARK H PARENT 87 51 57 62
REMARK Flexibility Score: inf
ROOT
ATOM      1  C   UNL A   1      30.479  26.401  26.392  1.00  0.00     0.188 C 
ENDROOT
BRANCH   1   2
ATOM      2  O   UNL A   1      30.963  25.093  26.608  1.00  0.00    -0.376 OA
BRANCH   2   3
ATOM      3  C   UNL A   1      30.625  24.141  25.621  1.00  0.00     0.202 C 
BRANCH   3   4
ATOM      4  C   UNL A   1      31.691  23.528  24.677  1.00  0.00     0.261 C 
BRANCH   4   5
ATOM      5  O   UNL A   1      33.097  23.799  24.881  1.00  0.00    -0.461 OA
BRANCH   5   6
ATOM      6  C   UNL A   1      33.989  23.006  24.226  1.00  0.00     0.332 C 
ATOM      7  O   UNL A   1      34.061  22.985  22.998  1.00  0.00    -0.249 OA
BRANCH   6   8
ATOM      8  C   UNL A   1      34.874  22.080  25.156  1.00  0.00     0.147 C 
ATOM      9  N   UNL A   1      34.022  20.915  25.474  1.00  0.00    -0.291 N 
ATOM     10  C   UNL A   1      33.629  20.873  26.864  1.00  0.00     0.124 C 
ATOM     11  C   UNL A   1      33.786  22.298  27.339  1.00  0.00     0.025 C 
ATOM     12  C   UNL A   1      34.968  22.817  26.524  1.00  0.00     0.043 C 
BRANCH   9  13
ATOM     13  C   UNL A   1      33.572  20.031  24.528  1.00  0.00     0.411 C 
ATOM     14  O   UNL A   1      32.546  20.184  23.905  1.00  0.00    -0.224 OA
BRANCH  13  15
ATOM     15  O   UNL A   1      34.378  18.941  24.458  1.00  0.00    -0.444 OA
BRANCH  15  16
ATOM     16  C   UNL A   1      33.792  17.616  24.480  1.00  0.00     0.106 C 
ATOM     17  C   UNL A   1      34.939  16.668  24.850  1.00  0.00     0.056 C 
ATOM     18  C   UNL A   1      33.297  17.312  23.068  1.00  0.00     0.056 C 
ATOM     19  C   UNL A   1      32.720  17.480  25.570  1.00  0.00     0.056 C 
ENDBRANCH  15  16
ENDBRANCH  13  15
ENDBRANCH   9  13
BRANCH   8  20
ATOM     20  C   UNL A   1      36.322  21.769  24.662  1.00  0.00     0.076 C 
BRANCH  20  21
ATOM     21  C   UNL A   1      37.496  22.339  25.450  1.00  0.00    -0.045 A 
ATOM     22  C   UNL A   1      37.595  23.717  25.683  1.00  0.00     0.004 A 
ATOM     23  C   UNL A   1      38.557  21.523  25.870  1.00  0.00     0.004 A 
ATOM     24  C   UNL A   1      38.693  24.248  26.367  1.00  0.00     0.000 A 
ATOM     25  C   UNL A   1      39.642  22.047  26.573  1.00  0.00     0.000 A 
ATOM     26  C   UNL A   1      39.708  23.410  26.828  1.00  0.00     0.000 A 
ENDBRANCH  20  21
ENDBRANCH   8  20
ENDBRANCH   6   8
ENDBRANCH   5   6
ENDBRANCH   4   5
ENDBRANCH   3   4
ENDBRANCH   2   3
ENDBRANCH   1   2
BRANCH   1  27
ATOM     27  C   UNL A   1      31.617  27.419  26.305  1.00  0.00     0.188 C 
BRANCH  27  28
ATOM     28  O   UNL A   1      32.974  27.009  26.254  1.00  0.00    -0.376 OA
BRANCH  28  29
ATOM     29  C   UNL A   1      33.974  27.965  26.554  1.00  0.00     0.202 C 
BRANCH  29  30
ATOM     30  C   UNL A   1      33.604  29.453  26.687  1.00  0.00     0.261 C 
BRANCH  30  31
ATOM     31  O   UNL A   1      34.689  30.395  26.759  1.00  0.00    -0.460 OA
BRANCH  31  32
ATOM     32  C   UNL A   1      34.701  31.191  27.862  1.00  0.00     0.338 C 
ATOM     33  O   UNL A   1      33.814  31.947  28.223  1.00  0.00    -0.246 OA
BRANCH  32  34
ATOM     34  C   UNL A   1      35.896  30.891  28.692  1.00  0.00     0.060 A 
ATOM     35  C   UNL A   1      37.006  31.740  28.598  1.00  0.00     0.016 A 
ATOM     36  C   UNL A   1      35.955  29.766  29.518  1.00  0.00     0.016 A 
ATOM     37  C   UNL A   1      38.169  31.459  29.323  1.00  0.00     0.010 A 
ATOM     38  C   UNL A   1      37.136  29.472  30.223  1.00  0.00     0.010 A 
ATOM     39  C   UNL A   1      38.259  30.309  30.126  1.00  0.00    -0.014 A 
BRANCH  39  40
ATOM     40  C   UNL A   1      39.587  29.905  30.681  1.00  0.00     0.031 A 
ATOM     41  C   UNL A   1      40.019  30.513  31.982  1.00  0.00     0.074 A 
ATOM     42  C   UNL A   1      40.403  29.015  30.079  1.00  0.00     0.049 A 
ATOM     43  N   UNL A   1      41.143  30.352  32.627  1.00  0.00    -0.248 NA
ATOM     44  C   UNL A   1      39.088  31.466  32.606  1.00  0.00     0.031 C 
ATOM     45  C   UNL A   1      40.145  28.404  28.788  1.00  0.00     0.029 A 
ATOM     46  N   UNL A   1      41.582  28.427  30.483  1.00  0.00    -0.354 N 
ATOM     47  C   UNL A   1      41.092  31.245  33.688  1.00  0.00     0.074 A 
ATOM     48  C   UNL A   1      39.803  31.899  33.633  1.00  0.00     0.031 C 
ATOM     49  C   UNL A   1      41.029  27.416  28.575  1.00  0.00     0.029 A 
ATOM     50  C   UNL A   1      42.017  27.414  29.649  1.00  0.00     0.049 A 
ATOM     51  H   UNL A   1      42.070  28.703  31.292  1.00  0.00     0.167 HD
ATOM     52  C   UNL A   1      42.062  31.543  34.581  1.00  0.00     0.031 A 
ATOM     53  C   UNL A   1      43.103  26.610  29.717  1.00  0.00     0.031 A 
ATOM     54  C   UNL A   1      43.365  30.933  34.592  1.00  0.00     0.049 A 
ATOM     55  C   UNL A   1      44.152  26.928  30.756  1.00  0.00     0.074 A 
ATOM     56  C   UNL A   1      44.434  31.213  35.424  1.00  0.00     0.029 A 
ATOM     57  N   UNL A   1      43.781  29.931  33.728  1.00  0.00    -0.354 N 
ATOM     58  N   UNL A   1      44.109  27.817  31.719  1.00  0.00    -0.248 NA
ATOM     59  C   UNL A   1      45.427  26.200  30.669  1.00  0.00     0.031 C 
ATOM     60  C   UNL A   1      45.514  30.419  35.028  1.00  0.00     0.029 A 
ATOM     61  C   UNL A   1      45.093  29.585  34.004  1.00  0.00     0.049 A 
ATOM     62  H   UNL A   1      43.226  29.525  33.024  1.00  0.00     0.167 HD
ATOM     63  C   UNL A   1      45.356  27.773  32.333  1.00  0.00     0.074 A 
ATOM     64  C   UNL A   1      46.114  26.734  31.669  1.00  0.00     0.031 C 
ATOM     65  C   UNL A   1      45.837  28.545  33.338  1.00  0.00     0.031 A 
BRANCH  52  66
ATOM     66  C   UNL A   1      41.777  32.666  35.538  1.00  0.00    -0.014 A 
ATOM     67  C   UNL A   1      42.123  33.994  35.241  1.00  0.00     0.010 A 
ATOM     68  C   UNL A   1      41.160  32.372  36.769  1.00  0.00     0.010 A 
ATOM     69  C   UNL A   1      41.897  35.005  36.178  1.00  0.00     0.020 A 
ATOM     70  C   UNL A   1      40.901  33.385  37.693  1.00  0.00     0.020 A 
ATOM     71  C   UNL A   1      41.287  34.693  37.398  1.00  0.00     0.054 A 
BRANCH  71  72
ATOM     72  S   UNL A   1      40.986  36.029  38.586  1.00  0.00     0.124 S 
ATOM     73  O   UNL A   1      42.314  36.625  38.712  1.00  0.00    -0.237 OA
ATOM     74  O   UNL A   1      39.992  36.847  37.897  1.00  0.00    -0.237 OA
ATOM     75  O   UNL A   1      40.500  35.333  39.775  1.00  0.00    -0.744 OA
ENDBRANCH  71  72
ENDBRANCH  52  66
BRANCH  53  76
ATOM     76  C   UNL A   1      43.333  25.500  28.733  1.00  0.00    -0.014 A 
ATOM     77  C   UNL A   1      44.043  25.727  27.536  1.00  0.00     0.010 A 
ATOM     78  C   UNL A   1      42.817  24.211  28.961  1.00  0.00     0.010 A 
ATOM     79  C   UNL A   1      44.229  24.699  26.600  1.00  0.00     0.020 A 
ATOM     80  C   UNL A   1      43.043  23.167  28.055  1.00  0.00     0.020 A 
ATOM     81  C   UNL A   1      43.736  23.421  26.872  1.00  0.00     0.054 A 
BRANCH  81  82
ATOM     82  S   UNL A   1      44.045  22.078  25.689  1.00  0.00     0.124 S 
ATOM     83  O   UNL A   1      45.503  22.060  25.622  1.00  0.00    -0.237 OA
ATOM     84  O   UNL A   1      43.428  20.928  26.344  1.00  0.00    -0.237 OA
ATOM     85  O   UNL A   1      43.368  22.530  24.476  1.00  0.00    -0.744 OA
ENDBRANCH  81  82
ENDBRANCH  53  76
BRANCH  65  86
ATOM     86  C   UNL A   1      47.237  28.274  33.821  1.00  0.00    -0.014 A 
ATOM     87  C   UNL A   1      47.503  27.329  34.826  1.00  0.00     0.010 A 
ATOM     88  C   UNL A   1      48.313  28.928  33.193  1.00  0.00     0.010 A 
ATOM     89  C   UNL A   1      48.820  27.057  35.209  1.00  0.00     0.020 A 
ATOM     90  C   UNL A   1      49.631  28.638  33.551  1.00  0.00     0.020 A 
ATOM     91  C   UNL A   1      49.876  27.711  34.565  1.00  0.00     0.054 A 
BRANCH  91  92
ATOM     92  S   UNL A   1      51.579  27.297  35.036  1.00  0.00     0.124 S 
ATOM     93  O   UNL A   1      52.303  27.524  33.789  1.00  0.00    -0.237 OA
ATOM     94  O   UNL A   1      51.854  28.251  36.107  1.00  0.00    -0.237 OA
ATOM     95  O   UNL A   1      51.492  25.902  35.460  1.00  0.00    -0.744 OA
ENDBRANCH  91  92
ENDBRANCH  65  86
ENDBRANCH  39  40
ENDBRANCH  32  34
ENDBRANCH  31  32
ENDBRANCH  30  31
ENDBRANCH  29  30
ENDBRANCH  28  29
ENDBRANCH  27  28
ENDBRANCH   1  27
TORSDOF 25
ENDMDL
MODEL 2
REMARK VINA RESULT:      -9.1      1.558      8.310
REMARK SMILES CC(C)(C)OC(=O)N1CCC[C@]1(Cc1ccccc1)C(=O)OCCOCCOCCOC(=O)c1ccc(-c2c3nc(c(-c4ccc(S(=O)(=O)[O-])cc4)c4ccc([nH]4)c(-c4ccc(S(=O)(=O)[O-])cc4)c4nc(c(-c5ccc(S(=O)(=O)[O-])cc5)c5ccc2[nH]5)C=C4)C=C3)cc1
REMARK SMILES IDX 26 1 25 2 24 3 23 4 22 5 20 6 21 7 12 8 8 9 9 10 10 11 11 12
REMARK SMILES IDX 6 13 7 14 5 15 2 16 1 17 3 18 4 19 13 20 14 21 15 22 19 23
REMARK SMILES IDX 16 24 18 25 17 26 27 27 28 28 29 29 30 30 31 31 32 32 33 33
REMARK SMILES IDX 34 34 35 35 93 36 36 37 92 38 37 39 38 40 39 41 86 42 40 43
REMARK SMILES IDX 91 44 85 45 87 46 41 47 90 48 84 49 83 50 42 52 72 53 53 54
REMARK SMILES IDX 71 55 54 56 57 57 70 58 88 59 55 60 56 61 69 63 89 64 58 65
REMARK SMILES IDX 43 66 44 67 52 68 45 69 51 70 46 71 47 72 48 73 49 74 50 75
REMARK SMILES IDX 73 76 74 77 82 78 75 79 81 80 76 81 77 82 78 83 79 84 80 85
REMARK SMILES IDX 59 86 60 87 68 88 61 89 67 90 62 91 63 92 64 93 65 94 66 95
REMARK H PARENT 87 51 57 62
REMARK Flexibility Score: inf
ROOT
ATOM      1  C   UNL A   1      30.360  27.037  25.437  1.00  0.00     0.188 C 
ENDROOT
BRANCH   1   2
ATOM      2  O   UNL A   1      30.427  26.135  26.519  1.00  0.00    -0.376 OA
BRANCH   2   3
ATOM      3  C   UNL A   1      31.264  25.013  26.333  1.00  0.00     0.202 C 
BRANCH   3   4
ATOM      4  C   UNL A   1      30.870  23.604  26.847  1.00  0.00     0.261 C 
BRANCH   4   5
ATOM      5  O   UNL A   1      31.308  22.417  26.147  1.00  0.00    -0.461 OA
BRANCH   5   6
ATOM      6  C   UNL A   1      32.639  22.133  26.166  1.00  0.00     0.332 C 
ATOM      7  O   UNL A   1      33.291  22.147  27.209  1.00  0.00    -0.249 OA
BRANCH   6   8
ATOM      8  C   UNL A   1      33.286  21.844  24.751  1.00  0.00     0.147 C 
ATOM      9  N   UNL A   1      34.028  20.576  24.911  1.00  0.00    -0.291 N 
ATOM     10  C   UNL A   1      35.461  20.753  24.835  1.00  0.00     0.124 C 
ATOM     11  C   UNL A   1      35.673  22.214  25.158  1.00  0.00     0.025 C 
ATOM     12  C   UNL A   1      34.429  22.889  24.585  1.00  0.00     0.043 C 
BRANCH   9  13
ATOM     13  C   UNL A   1      33.422  19.382  25.202  1.00  0.00     0.411 C 
ATOM     14  O   UNL A   1      32.456  19.282  25.924  1.00  0.00    -0.224 OA
BRANCH  13  15
ATOM     15  O   UNL A   1      34.101  18.344  24.651  1.00  0.00    -0.444 OA
BRANCH  15  16
ATOM     16  C   UNL A   1      33.377  17.319  23.927  1.00  0.00     0.106 C 
ATOM     17  C   UNL A   1      34.445  16.519  23.172  1.00  0.00     0.056 C 
ATOM     18  C   UNL A   1      32.456  18.026  22.935  1.00  0.00     0.056 C 
ATOM     19  C   UNL A   1      32.661  16.344  24.872  1.00  0.00     0.056 C 
ENDBRANCH  15  16
ENDBRANCH  13  15
ENDBRANCH   9  13
BRANCH   8  20
ATOM     20  C   UNL A   1      32.341  21.947  23.513  1.00  0.00     0.076 C 
BRANCH  20  21
ATOM     21  C   UNL A   1      32.349  23.235  22.698  1.00  0.00    -0.045 A 
ATOM     22  C   UNL A   1      33.182  23.364  21.579  1.00  0.00     0.004 A 
ATOM     23  C   UNL A   1      31.610  24.357  23.100  1.00  0.00     0.004 A 
ATOM     24  C   UNL A   1      33.224  24.560  20.855  1.00  0.00     0.000 A 
ATOM     25  C   UNL A   1      31.632  25.544  22.367  1.00  0.00     0.000 A 
ATOM     26  C   UNL A   1      32.435  25.643  21.239  1.00  0.00     0.000 A 
ENDBRANCH  20  21
ENDBRANCH   8  20
ENDBRANCH   6   8
ENDBRANCH   5   6
ENDBRANCH   4   5
ENDBRANCH   3   4
ENDBRANCH   2   3
ENDBRANCH   1   2
BRANCH   1  27
ATOM     27  C   UNL A   1      31.627  27.885  25.326  1.00  0.00     0.188 C 
BRANCH  27  28
ATOM     28  O   UNL A   1      31.586  29.218  24.841  1.00  0.00    -0.376 OA
BRANCH  28  29
ATOM     29  C   UNL A   1      31.629  30.275  25.781  1.00  0.00     0.202 C 
BRANCH  29  30
ATOM     30  C   UNL A   1      32.388  30.097  27.108  1.00  0.00     0.261 C 
BRANCH  30  31
ATOM     31  O   UNL A   1      33.819  30.232  27.069  1.00  0.00    -0.460 OA
BRANCH  31  32
ATOM     32  C   UNL A   1      34.325  31.307  27.732  1.00  0.00     0.338 C 
ATOM     33  O   UNL A   1      33.739  32.347  27.985  1.00  0.00    -0.246 OA
BRANCH  32  34
ATOM     34  C   UNL A   1      35.669  30.982  28.277  1.00  0.00     0.060 A 
ATOM     35  C   UNL A   1      35.903  29.685  28.749  1.00  0.00     0.016 A 
ATOM     36  C   UNL A   1      36.676  31.945  28.373  1.00  0.00     0.016 A 
ATOM     37  C   UNL A   1      37.138  29.357  29.319  1.00  0.00     0.010 A 
ATOM     38  C   UNL A   1      37.906  31.618  28.972  1.00  0.00     0.010 A 
ATOM     39  C   UNL A   1      38.147  30.325  29.461  1.00  0.00    -0.014 A 
BRANCH  39  40
ATOM     40  C   UNL A   1      39.348  30.014  30.295  1.00  0.00     0.031 A 
ATOM     41  C   UNL A   1      40.376  29.083  29.726  1.00  0.00     0.074 A 
ATOM     42  C   UNL A   1      39.557  30.539  31.520  1.00  0.00     0.049 A 
ATOM     43  N   UNL A   1      41.469  28.632  30.282  1.00  0.00    -0.248 NA
ATOM     44  C   UNL A   1      40.111  28.548  28.381  1.00  0.00     0.031 C 
ATOM     45  C   UNL A   1      38.617  31.396  32.220  1.00  0.00     0.029 A 
ATOM     46  N   UNL A   1      40.635  30.481  32.376  1.00  0.00    -0.354 N 
ATOM     47  C   UNL A   1      41.978  27.697  29.392  1.00  0.00     0.074 A 
ATOM     48  C   UNL A   1      41.109  27.691  28.236  1.00  0.00     0.031 C 
ATOM     49  C   UNL A   1      39.208  31.917  33.307  1.00  0.00     0.029 A 
ATOM     50  C   UNL A   1      40.529  31.318  33.470  1.00  0.00     0.049 A 
ATOM     51  H   UNL A   1      41.412  29.896  32.221  1.00  0.00     0.167 HD
ATOM     52  C   UNL A   1      43.034  26.869  29.558  1.00  0.00     0.031 A 
ATOM     53  C   UNL A   1      41.372  31.544  34.505  1.00  0.00     0.031 A 
ATOM     54  C   UNL A   1      43.858  26.837  30.737  1.00  0.00     0.049 A 
ATOM     55  C   UNL A   1      42.574  30.640  34.643  1.00  0.00     0.074 A 
ATOM     56  C   UNL A   1      44.915  25.990  31.020  1.00  0.00     0.029 A 
ATOM     57  N   UNL A   1      43.713  27.678  31.831  1.00  0.00    -0.354 N 
ATOM     58  N   UNL A   1      43.009  29.721  33.816  1.00  0.00    -0.248 NA
ATOM     59  C   UNL A   1      43.349  30.740  35.890  1.00  0.00     0.031 C 
ATOM     60  C   UNL A   1      45.375  26.283  32.307  1.00  0.00     0.029 A 
ATOM     61  C   UNL A   1      44.660  27.366  32.793  1.00  0.00     0.049 A 
ATOM     62  H   UNL A   1      43.039  28.391  31.911  1.00  0.00     0.167 HD
ATOM     63  C   UNL A   1      44.089  29.118  34.452  1.00  0.00     0.074 A 
ATOM     64  C   UNL A   1      44.276  29.810  35.709  1.00  0.00     0.031 C 
ATOM     65  C   UNL A   1      44.838  28.066  34.040  1.00  0.00     0.031 A 
BRANCH  52  66
ATOM     66  C   UNL A   1      43.268  25.850  28.479  1.00  0.00    -0.014 A 
ATOM     67  C   UNL A   1      42.675  24.577  28.526  1.00  0.00     0.010 A 
ATOM     68  C   UNL A   1      44.117  26.177  27.405  1.00  0.00     0.010 A 
ATOM     69  C   UNL A   1      42.962  23.633  27.536  1.00  0.00     0.020 A 
ATOM     70  C   UNL A   1      44.377  25.249  26.397  1.00  0.00     0.020 A 
ATOM     71  C   UNL A   1      43.811  23.976  26.479  1.00  0.00     0.054 A 
BRANCH  71  72
ATOM     72  S   UNL A   1      44.147  22.738  25.198  1.00  0.00     0.124 S 
ATOM     73  O   UNL A   1      45.096  21.856  25.873  1.00  0.00    -0.237 OA
ATOM     74  O   UNL A   1      42.824  22.168  24.953  1.00  0.00    -0.237 OA
ATOM     75  O   UNL A   1      44.700  23.520  24.095  1.00  0.00    -0.744 OA
ENDBRANCH  71  72
ENDBRANCH  52  66
BRANCH  53  76
ATOM     76  C   UNL A   1      41.086  32.580  35.551  1.00  0.00    -0.014 A 
ATOM     77  C   UNL A   1      41.517  33.913  35.388  1.00  0.00     0.010 A 
ATOM     78  C   UNL A   1      40.411  32.245  36.739  1.00  0.00     0.010 A 
ATOM     79  C   UNL A   1      41.280  34.876  36.380  1.00  0.00     0.020 A 
ATOM     80  C   UNL A   1      40.127  33.212  37.711  1.00  0.00     0.020 A 
ATOM     81  C   UNL A   1      40.575  34.520  37.532  1.00  0.00     0.054 A 
BRANCH  81  82
ATOM     82  S   UNL A   1      40.209  35.789  38.779  1.00  0.00     0.124 S 
ATOM     83  O   UNL A   1      38.834  35.466  39.147  1.00  0.00    -0.237 OA
ATOM     84  O   UNL A   1      41.215  35.529  39.804  1.00  0.00    -0.237 OA
ATOM     85  O   UNL A   1      40.385  37.043  38.050  1.00  0.00    -0.744 OA
ENDBRANCH  81  82
ENDBRANCH  53  76
BRANCH  65  86
ATOM     86  C   UNL A   1      45.965  27.617  34.933  1.00  0.00    -0.014 A 
ATOM     87  C   UNL A   1      47.248  28.183  34.846  1.00  0.00     0.010 A 
ATOM     88  C   UNL A   1      45.703  26.662  35.933  1.00  0.00     0.010 A 
ATOM     89  C   UNL A   1      48.256  27.787  35.732  1.00  0.00     0.020 A 
ATOM     90  C   UNL A   1      46.698  26.285  36.838  1.00  0.00     0.020 A 
ATOM     91  C   UNL A   1      47.972  26.843  36.725  1.00  0.00     0.054 A 
BRANCH  91  92
ATOM     92  S   UNL A   1      49.278  26.390  37.900  1.00  0.00     0.124 S 
ATOM     93  O   UNL A   1      49.185  24.932  37.910  1.00  0.00    -0.237 OA
ATOM     94  O   UNL A   1      50.477  26.939  37.272  1.00  0.00    -0.237 OA
ATOM     95  O   UNL A   1      48.873  27.049  39.139  1.00  0.00    -0.744 OA
ENDBRANCH  91  92
ENDBRANCH  65  86
ENDBRANCH  39  40
ENDBRANCH  32  34
ENDBRANCH  31  32
ENDBRANCH  30  31
ENDBRANCH  29  30
ENDBRANCH  28  29
ENDBRANCH  27  28
ENDBRANCH   1  27
TORSDOF 25
ENDMDL
MODEL 3
REMARK VINA RESULT:      -9.0      5.025      9.954
REMARK SMILES CC(C)(C)OC(=O)N1CCC[C@]1(Cc1ccccc1)C(=O)OCCOCCOCCOC(=O)c1ccc(-c2c3nc(c(-c4ccc(S(=O)(=O)[O-])cc4)c4ccc([nH]4)c(-c4ccc(S(=O)(=O)[O-])cc4)c4nc(c(-c5ccc(S(=O)(=O)[O-])cc5)c5ccc2[nH]5)C=C4)C=C3)cc1
REMARK SMILES IDX 26 1 25 2 24 3 23 4 22 5 20 6 21 7 12 8 8 9 9 10 10 11 11 12
REMARK SMILES IDX 6 13 7 14 5 15 2 16 1 17 3 18 4 19 13 20 14 21 15 22 19 23
REMARK SMILES IDX 16 24 18 25 17 26 27 27 28 28 29 29 30 30 31 31 32 32 33 33
REMARK SMILES IDX 34 34 35 35 93 36 36 37 92 38 37 39 38 40 39 41 86 42 40 43
REMARK SMILES IDX 91 44 85 45 87 46 41 47 90 48 84 49 83 50 42 52 72 53 53 54
REMARK SMILES IDX 71 55 54 56 57 57 70 58 88 59 55 60 56 61 69 63 89 64 58 65
REMARK SMILES IDX 43 66 44 67 52 68 45 69 51 70 46 71 47 72 48 73 49 74 50 75
REMARK SMILES IDX 73 76 74 77 82 78 75 79 81 80 76 81 77 82 78 83 79 84 80 85
REMARK SMILES IDX 59 86 60 87 68 88 61 89 67 90 62 91 63 92 64 93 65 94 66 95
REMARK H PARENT 87 51 57 62
REMARK Flexibility Score: inf
ROOT
ATOM      1  C   UNL A   1      35.388  31.190  27.671  1.00  0.00     0.188 C 
ENDROOT
BRANCH   1   2
ATOM      2  O   UNL A   1      34.502  30.411  26.897  1.00  0.00    -0.376 OA
BRANCH   2   3
ATOM      3  C   UNL A   1      33.128  30.595  27.164  1.00  0.00     0.202 C 
BRANCH   3   4
ATOM      4  C   UNL A   1      32.119  29.419  27.109  1.00  0.00     0.261 C 
BRANCH   4   5
ATOM      5  O   UNL A   1      31.479  29.057  25.863  1.00  0.00    -0.461 OA
BRANCH   5   6
ATOM      6  C   UNL A   1      32.278  28.620  24.852  1.00  0.00     0.332 C 
ATOM      7  O   UNL A   1      33.043  29.377  24.255  1.00  0.00    -0.249 OA
BRANCH   6   8
ATOM      8  C   UNL A   1      32.107  27.094  24.470  1.00  0.00     0.147 C 
ATOM      9  N   UNL A   1      30.706  26.958  24.018  1.00  0.00    -0.291 N 
ATOM     10  C   UNL A   1      29.898  26.177  24.928  1.00  0.00     0.124 C 
ATOM     11  C   UNL A   1      30.641  26.250  26.242  1.00  0.00     0.025 C 
ATOM     12  C   UNL A   1      32.106  26.315  25.819  1.00  0.00     0.043 C 
BRANCH   9  13
ATOM     13  C   UNL A   1      30.209  27.592  22.910  1.00  0.00     0.411 C 
ATOM     14  O   UNL A   1      30.664  27.448  21.797  1.00  0.00    -0.224 OA
BRANCH  13  15
ATOM     15  O   UNL A   1      29.216  28.454  23.247  1.00  0.00    -0.444 OA
BRANCH  15  16
ATOM     16  C   UNL A   1      29.193  29.781  22.665  1.00  0.00     0.106 C 
ATOM     17  C   UNL A   1      30.498  29.900  21.868  1.00  0.00     0.056 C 
ATOM     18  C   UNL A   1      29.193  30.784  23.817  1.00  0.00     0.056 C 
ATOM     19  C   UNL A   1      28.036  29.955  21.673  1.00  0.00     0.056 C 
ENDBRANCH  15  16
ENDBRANCH  13  15
ENDBRANCH   9  13
BRANCH   8  20
ATOM     20  C   UNL A   1      33.200  26.475  23.544  1.00  0.00     0.076 C 
BRANCH  20  21
ATOM     21  C   UNL A   1      33.404  24.965  23.570  1.00  0.00    -0.045 A 
ATOM     22  C   UNL A   1      34.531  24.409  24.190  1.00  0.00     0.004 A 
ATOM     23  C   UNL A   1      32.534  24.099  22.889  1.00  0.00     0.004 A 
ATOM     24  C   UNL A   1      34.744  23.027  24.177  1.00  0.00     0.000 A 
ATOM     25  C   UNL A   1      32.732  22.718  22.895  1.00  0.00     0.000 A 
ATOM     26  C   UNL A   1      33.834  22.180  23.545  1.00  0.00     0.000 A 
ENDBRANCH  20  21
ENDBRANCH   8  20
ENDBRANCH   6   8
ENDBRANCH   5   6
ENDBRANCH   4   5
ENDBRANCH   3   4
ENDBRANCH   2   3
ENDBRANCH   1   2
BRANCH   1  27
ATOM     27  C   UNL A   1      34.664  31.904  28.813  1.00  0.00     0.188 C 
BRANCH  27  28
ATOM     28  O   UNL A   1      35.248  33.011  29.481  1.00  0.00    -0.376 OA
BRANCH  28  29
ATOM     29  C   UNL A   1      34.920  33.222  30.842  1.00  0.00     0.202 C 
BRANCH  29  30
ATOM     30  C   UNL A   1      35.714  32.502  31.947  1.00  0.00     0.261 C 
BRANCH  30  31
ATOM     31  O   UNL A   1      36.356  31.265  31.593  1.00  0.00    -0.460 OA
BRANCH  31  32
ATOM     32  C   UNL A   1      37.404  30.902  32.383  1.00  0.00     0.338 C 
ATOM     33  O   UNL A   1      37.402  30.819  33.600  1.00  0.00    -0.246 OA
BRANCH  32  34
ATOM     34  C   UNL A   1      38.538  30.441  31.541  1.00  0.00     0.060 A 
ATOM     35  C   UNL A   1      39.464  29.550  32.097  1.00  0.00     0.016 A 
ATOM     36  C   UNL A   1      38.727  30.911  30.239  1.00  0.00     0.016 A 
ATOM     37  C   UNL A   1      40.575  29.136  31.354  1.00  0.00     0.010 A 
ATOM     38  C   UNL A   1      39.860  30.514  29.506  1.00  0.00     0.010 A 
ATOM     39  C   UNL A   1      40.801  29.632  30.058  1.00  0.00    -0.014 A 
BRANCH  39  40
ATOM     40  C   UNL A   1      42.116  29.372  29.394  1.00  0.00     0.031 A 
ATOM     41  C   UNL A   1      42.300  28.061  28.691  1.00  0.00     0.074 A 
ATOM     42  C   UNL A   1      43.130  30.261  29.384  1.00  0.00     0.049 A 
ATOM     43  N   UNL A   1      43.364  27.596  28.091  1.00  0.00    -0.248 NA
ATOM     44  C   UNL A   1      41.160  27.131  28.718  1.00  0.00     0.031 C 
ATOM     45  C   UNL A   1      43.115  31.535  30.079  1.00  0.00     0.029 A 
ATOM     46  N   UNL A   1      44.345  30.265  28.734  1.00  0.00    -0.354 N 
ATOM     47  C   UNL A   1      43.051  26.291  27.741  1.00  0.00     0.074 A 
ATOM     48  C   UNL A   1      41.681  26.058  28.142  1.00  0.00     0.031 C 
ATOM     49  C   UNL A   1      44.173  32.268  29.696  1.00  0.00     0.029 A 
ATOM     50  C   UNL A   1      45.031  31.461  28.835  1.00  0.00     0.049 A 
ATOM     51  H   UNL A   1      44.693  29.487  28.241  1.00  0.00     0.167 HD
ATOM     52  C   UNL A   1      43.858  25.351  27.201  1.00  0.00     0.031 A 
ATOM     53  C   UNL A   1      46.227  31.846  28.333  1.00  0.00     0.031 A 
ATOM     54  C   UNL A   1      45.239  25.570  26.861  1.00  0.00     0.049 A 
ATOM     55  C   UNL A   1      47.093  30.791  27.686  1.00  0.00     0.074 A 
ATOM     56  C   UNL A   1      46.153  24.660  26.362  1.00  0.00     0.029 A 
ATOM     57  N   UNL A   1      45.908  26.779  26.993  1.00  0.00    -0.354 N 
ATOM     58  N   UNL A   1      46.799  29.542  27.415  1.00  0.00    -0.248 NA
ATOM     59  C   UNL A   1      48.477  31.166  27.358  1.00  0.00     0.031 C 
ATOM     60  C   UNL A   1      47.388  25.303  26.243  1.00  0.00     0.029 A 
ATOM     61  C   UNL A   1      47.224  26.635  26.589  1.00  0.00     0.049 A 
ATOM     62  H   UNL A   1      45.506  27.614  27.324  1.00  0.00     0.167 HD
ATOM     63  C   UNL A   1      47.965  28.979  26.909  1.00  0.00     0.074 A 
ATOM     64  C   UNL A   1      48.956  30.033  26.862  1.00  0.00     0.031 C 
ATOM     65  C   UNL A   1      48.201  27.694  26.544  1.00  0.00     0.031 A 
BRANCH  52  66
ATOM     66  C   UNL A   1      43.287  23.968  27.065  1.00  0.00    -0.014 A 
ATOM     67  C   UNL A   1      43.203  23.093  28.161  1.00  0.00     0.010 A 
ATOM     68  C   UNL A   1      42.840  23.536  25.802  1.00  0.00     0.010 A 
ATOM     69  C   UNL A   1      42.721  21.794  27.987  1.00  0.00     0.020 A 
ATOM     70  C   UNL A   1      42.326  22.250  25.632  1.00  0.00     0.020 A 
ATOM     71  C   UNL A   1      42.286  21.381  26.723  1.00  0.00     0.054 A 
BRANCH  71  72
ATOM     72  S   UNL A   1      41.645  19.697  26.531  1.00  0.00     0.124 S 
ATOM     73  O   UNL A   1      40.202  19.918  26.564  1.00  0.00    -0.237 OA
ATOM     74  O   UNL A   1      42.190  19.296  25.237  1.00  0.00    -0.237 OA
ATOM     75  O   UNL A   1      42.193  18.983  27.683  1.00  0.00    -0.744 OA
ENDBRANCH  71  72
ENDBRANCH  52  66
BRANCH  53  76
ATOM     76  C   UNL A   1      46.744  33.245  28.497  1.00  0.00    -0.014 A 
ATOM     77  C   UNL A   1      47.488  33.614  29.638  1.00  0.00     0.010 A 
ATOM     78  C   UNL A   1      46.473  34.236  27.536  1.00  0.00     0.010 A 
ATOM     79  C   UNL A   1      47.943  34.930  29.809  1.00  0.00     0.020 A 
ATOM     80  C   UNL A   1      46.967  35.539  27.676  1.00  0.00     0.020 A 
ATOM     81  C   UNL A   1      47.688  35.882  28.819  1.00  0.00     0.054 A 
BRANCH  81  82
ATOM     82  S   UNL A   1      48.344  37.565  29.013  1.00  0.00     0.124 S 
ATOM     83  O   UNL A   1      49.772  37.363  28.794  1.00  0.00    -0.237 OA
ATOM     84  O   UNL A   1      47.641  38.303  27.968  1.00  0.00    -0.237 OA
ATOM     85  O   UNL A   1      47.964  37.922  30.378  1.00  0.00    -0.744 OA
ENDBRANCH  81  82
ENDBRANCH  53  76
BRANCH  65  86
ATOM     86  C   UNL A   1      49.569  27.355  26.017  1.00  0.00    -0.014 A 
ATOM     87  C   UNL A   1      50.640  27.053  26.876  1.00  0.00     0.010 A 
ATOM     88  C   UNL A   1      49.760  27.261  24.625  1.00  0.00     0.010 A 
ATOM     89  C   UNL A   1      51.882  26.682  26.353  1.00  0.00     0.020 A 
ATOM     90  C   UNL A   1      50.991  26.863  24.099  1.00  0.00     0.020 A 
ATOM     91  C   UNL A   1      52.048  26.586  24.967  1.00  0.00     0.054 A 
BRANCH  91  92
ATOM     92  S   UNL A   1      53.652  26.044  24.313  1.00  0.00     0.124 S 
ATOM     93  O   UNL A   1      54.578  26.942  24.998  1.00  0.00    -0.237 OA
ATOM     94  O   UNL A   1      53.709  24.645  24.727  1.00  0.00    -0.237 OA
ATOM     95  O   UNL A   1      53.529  26.258  22.873  1.00  0.00    -0.744 OA
ENDBRANCH  91  92
ENDBRANCH  65  86
ENDBRANCH  39  40
ENDBRANCH  32  34
ENDBRANCH  31  32
ENDBRANCH  30  31
ENDBRANCH  29  30
ENDBRANCH  28  29
ENDBRANCH  27  28
ENDBRANCH   1  27
TORSDOF 25
ENDMDL
