MODEL 1
REMARK VINA RESULT:      -8.4      0.000      0.000
REMARK SMILES CC(C)(C)OC(=O)N1CCSC[C@@H]1CC(=O)OCCOCCOCCOC(=O)c1ccc(-c2c3nc(c(-c4ccc(S(=O)(=O)[O-])cc4)c4ccc([nH]4)c(-c4ccc(S(=O)(=O)[O-])cc4)c4nc(c(-c5ccc(S(=O)(=O)[O-])cc5)c5ccc2[nH]5)C=C4)C=C3)cc1
REMARK SMILES IDX 21 1 20 2 19 3 18 4 17 5 15 6 16 7 14 8 13 9 8 10 9 11 10 12
REMARK SMILES IDX 12 13 11 14 6 15 7 16 5 17 2 18 1 19 3 20 4 21 22 22 23 23
REMARK SMILES IDX 24 24 25 25 26 26 27 27 28 28 29 29 30 30 88 31 31 32 87 33
REMARK SMILES IDX 32 34 33 35 34 36 81 37 35 38 86 39 80 40 82 41 36 42 85 43
REMARK SMILES IDX 79 44 78 45 37 47 67 48 48 49 66 50 49 51 52 52 65 53 83 54
REMARK SMILES IDX 50 55 51 56 64 58 84 59 53 60 38 61 39 62 47 63 40 64 46 65
REMARK SMILES IDX 41 66 42 67 43 68 44 69 45 70 68 71 69 72 77 73 70 74 76 75
REMARK SMILES IDX 71 76 72 77 73 78 74 79 75 80 54 81 55 82 63 83 56 84 62 85
REMARK SMILES IDX 57 86 58 87 59 88 60 89 61 90
REMARK H PARENT 82 46 52 57
REMARK Flexibility Score: inf
ROOT
ATOM      1  C   UNL A   1      40.160  20.918  26.156  1.00  0.00     0.188 C 
ENDROOT
BRANCH   1   2
ATOM      2  O   UNL A   1      39.433  21.848  26.953  1.00  0.00    -0.376 OA
BRANCH   2   3
ATOM      3  C   UNL A   1      39.390  23.214  26.546  1.00  0.00     0.202 C 
BRANCH   3   4
ATOM      4  C   UNL A   1      38.015  23.747  26.141  1.00  0.00     0.261 C 
BRANCH   4   5
ATOM      5  O   UNL A   1      37.103  22.658  25.887  1.00  0.00    -0.463 OA
BRANCH   5   6
ATOM      6  C   UNL A   1      36.985  22.278  24.599  1.00  0.00     0.307 C 
ATOM      7  O   UNL A   1      37.441  21.224  24.162  1.00  0.00    -0.252 OA
BRANCH   6   8
ATOM      8  C   UNL A   1      36.081  23.150  23.756  1.00  0.00     0.148 C 
BRANCH   8   9
ATOM      9  C   UNL A   1      34.555  23.351  23.928  1.00  0.00     0.109 C 
ATOM     10  N   UNL A   1      34.043  24.462  24.733  1.00  0.00    -0.303 N 
ATOM     11  C   UNL A   1      33.894  24.269  26.178  1.00  0.00     0.134 C 
ATOM     12  C   UNL A   1      32.879  23.167  26.504  1.00  0.00     0.091 C 
ATOM     13  C   UNL A   1      33.744  22.047  24.104  1.00  0.00     0.095 C 
ATOM     14  S   UNL A   1      33.369  21.557  25.812  1.00  0.00    -0.158 SA
BRANCH  10  15
ATOM     15  C   UNL A   1      33.073  25.260  24.134  1.00  0.00     0.410 C 
ATOM     16  O   UNL A   1      31.875  25.058  24.251  1.00  0.00    -0.224 OA
BRANCH  15  17
ATOM     17  O   UNL A   1      33.636  26.232  23.379  1.00  0.00    -0.444 OA
BRANCH  17  18
ATOM     18  C   UNL A   1      33.328  27.628  23.626  1.00  0.00     0.106 C 
ATOM     19  C   UNL A   1      34.201  28.398  22.628  1.00  0.00     0.056 C 
ATOM     20  C   UNL A   1      33.746  27.967  25.057  1.00  0.00     0.056 C 
ATOM     21  C   UNL A   1      31.862  28.013  23.363  1.00  0.00     0.056 C 
ENDBRANCH  17  18
ENDBRANCH  15  17
ENDBRANCH  10  15
ENDBRANCH   8   9
ENDBRANCH   6   8
ENDBRANCH   5   6
ENDBRANCH   4   5
ENDBRANCH   3   4
ENDBRANCH   2   3
ENDBRANCH   1   2
BRANCH   1  22
ATOM     22  C   UNL A   1      41.686  21.007  26.174  1.00  0.00     0.188 C 
BRANCH  22  23
ATOM     23  O   UNL A   1      42.297  21.378  27.406  1.00  0.00    -0.376 OA
BRANCH  23  24
ATOM     24  C   UNL A   1      43.206  22.475  27.331  1.00  0.00     0.202 C 
BRANCH  24  25
ATOM     25  C   UNL A   1      43.159  23.170  25.970  1.00  0.00     0.261 C 
BRANCH  25  26
ATOM     26  O   UNL A   1      42.575  24.475  26.121  1.00  0.00    -0.460 OA
BRANCH  26  27
ATOM     27  C   UNL A   1      43.452  25.474  26.388  1.00  0.00     0.338 C 
ATOM     28  O   UNL A   1      44.489  25.727  25.808  1.00  0.00    -0.246 OA
BRANCH  27  29
ATOM     29  C   UNL A   1      42.867  26.325  27.440  1.00  0.00     0.060 A 
ATOM     30  C   UNL A   1      43.422  27.591  27.663  1.00  0.00     0.016 A 
ATOM     31  C   UNL A   1      41.811  25.863  28.227  1.00  0.00     0.016 A 
ATOM     32  C   UNL A   1      42.946  28.394  28.696  1.00  0.00     0.010 A 
ATOM     33  C   UNL A   1      41.348  26.659  29.277  1.00  0.00     0.010 A 
ATOM     34  C   UNL A   1      41.934  27.912  29.533  1.00  0.00    -0.014 A 
BRANCH  34  35
ATOM     35  C   UNL A   1      41.611  28.621  30.791  1.00  0.00     0.031 A 
ATOM     36  C   UNL A   1      40.452  29.576  30.789  1.00  0.00     0.074 A 
ATOM     37  C   UNL A   1      42.330  28.419  31.908  1.00  0.00     0.049 A 
ATOM     38  N   UNL A   1      40.081  30.429  31.707  1.00  0.00    -0.248 NA
ATOM     39  C   UNL A   1      39.599  29.568  29.588  1.00  0.00     0.031 C 
ATOM     40  C   UNL A   1      43.422  27.455  32.055  1.00  0.00     0.029 A 
ATOM     41  N   UNL A   1      42.252  29.029  33.134  1.00  0.00    -0.354 N 
ATOM     42  C   UNL A   1      38.967  31.077  31.186  1.00  0.00     0.074 A 
ATOM     43  C   UNL A   1      38.726  30.525  29.871  1.00  0.00     0.031 C 
ATOM     44  C   UNL A   1      43.920  27.551  33.301  1.00  0.00     0.029 A 
ATOM     45  C   UNL A   1      43.218  28.613  34.016  1.00  0.00     0.049 A 
ATOM     46  H   UNL A   1      41.569  29.701  33.358  1.00  0.00     0.167 HD
ATOM     47  C   UNL A   1      38.217  32.051  31.752  1.00  0.00     0.031 A 
ATOM     48  C   UNL A   1      43.522  29.069  35.247  1.00  0.00     0.031 A 
ATOM     49  C   UNL A   1      38.469  32.602  33.054  1.00  0.00     0.049 A 
ATOM     50  C   UNL A   1      42.731  30.214  35.822  1.00  0.00     0.074 A 
ATOM     51  C   UNL A   1      37.793  33.616  33.709  1.00  0.00     0.029 A 
ATOM     52  N   UNL A   1      39.479  32.179  33.904  1.00  0.00    -0.354 N 
ATOM     53  N   UNL A   1      41.713  30.859  35.300  1.00  0.00    -0.248 NA
ATOM     54  C   UNL A   1      43.136  30.702  37.148  1.00  0.00     0.031 C 
ATOM     55  C   UNL A   1      38.417  33.828  34.944  1.00  0.00     0.029 A 
ATOM     56  C   UNL A   1      39.452  32.915  35.074  1.00  0.00     0.049 A 
ATOM     57  H   UNL A   1      40.121  31.460  33.704  1.00  0.00     0.167 HD
ATOM     58  C   UNL A   1      41.342  31.810  36.244  1.00  0.00     0.074 A 
ATOM     59  C   UNL A   1      42.238  31.652  37.372  1.00  0.00     0.031 C 
ATOM     60  C   UNL A   1      40.351  32.733  36.185  1.00  0.00     0.031 A 
BRANCH  47  61
ATOM     61  C   UNL A   1      37.084  32.608  30.936  1.00  0.00    -0.014 A 
ATOM     62  C   UNL A   1      37.298  33.637  30.001  1.00  0.00     0.010 A 
ATOM     63  C   UNL A   1      35.787  32.089  31.101  1.00  0.00     0.010 A 
ATOM     64  C   UNL A   1      36.228  34.162  29.273  1.00  0.00     0.020 A 
ATOM     65  C   UNL A   1      34.718  32.597  30.359  1.00  0.00     0.020 A 
ATOM     66  C   UNL A   1      34.943  33.644  29.462  1.00  0.00     0.054 A 
BRANCH  66  67
ATOM     67  S   UNL A   1      33.570  34.334  28.498  1.00  0.00     0.124 S 
ATOM     68  O   UNL A   1      33.134  33.174  27.724  1.00  0.00    -0.237 OA
ATOM     69  O   UNL A   1      32.642  34.784  29.532  1.00  0.00    -0.237 OA
ATOM     70  O   UNL A   1      34.196  35.402  27.720  1.00  0.00    -0.744 OA
ENDBRANCH  66  67
ENDBRANCH  47  61
BRANCH  48  71
ATOM     71  C   UNL A   1      44.656  28.475  36.006  1.00  0.00    -0.014 A 
ATOM     72  C   UNL A   1      44.442  27.402  36.887  1.00  0.00     0.010 A 
ATOM     73  C   UNL A   1      45.957  28.990  35.858  1.00  0.00     0.010 A 
ATOM     74  C   UNL A   1      45.503  26.866  37.622  1.00  0.00     0.020 A 
ATOM     75  C   UNL A   1      47.026  28.442  36.572  1.00  0.00     0.020 A 
ATOM     76  C   UNL A   1      46.789  27.391  37.460  1.00  0.00     0.054 A 
BRANCH  76  77
ATOM     77  S   UNL A   1      48.164  26.656  38.391  1.00  0.00     0.124 S 
ATOM     78  O   UNL A   1      47.529  26.337  39.665  1.00  0.00    -0.237 OA
ATOM     79  O   UNL A   1      48.533  25.510  37.563  1.00  0.00    -0.237 OA
ATOM     80  O   UNL A   1      49.155  27.728  38.433  1.00  0.00    -0.744 OA
ENDBRANCH  76  77
ENDBRANCH  48  71
BRANCH  60  81
ATOM     81  C   UNL A   1      40.154  33.612  37.389  1.00  0.00    -0.014 A 
ATOM     82  C   UNL A   1      40.875  34.808  37.542  1.00  0.00     0.010 A 
ATOM     83  C   UNL A   1      39.190  33.258  38.352  1.00  0.00     0.010 A 
ATOM     84  C   UNL A   1      40.654  35.625  38.654  1.00  0.00     0.020 A 
ATOM     85  C   UNL A   1      38.953  34.083  39.453  1.00  0.00     0.020 A 
ATOM     86  C   UNL A   1      39.696  35.256  39.604  1.00  0.00     0.054 A 
BRANCH  86  87
ATOM     87  S   UNL A   1      39.391  36.353  41.016  1.00  0.00     0.124 S 
ATOM     88  O   UNL A   1      38.760  35.447  41.973  1.00  0.00    -0.237 OA
ATOM     89  O   UNL A   1      40.735  36.804  41.371  1.00  0.00    -0.237 OA
ATOM     90  O   UNL A   1      38.519  37.388  40.468  1.00  0.00    -0.744 OA
ENDBRANCH  86  87
ENDBRANCH  60  81
ENDBRANCH  34  35
ENDBRANCH  27  29
ENDBRANCH  26  27
ENDBRANCH  25  26
ENDBRANCH  24  25
ENDBRANCH  23  24
ENDBRANCH  22  23
ENDBRANCH   1  22
TORSDOF 24
ENDMDL
MODEL 2
REMARK VINA RESULT:      -8.4      1.485      2.304
REMARK SMILES CC(C)(C)OC(=O)N1CCSC[C@@H]1CC(=O)OCCOCCOCCOC(=O)c1ccc(-c2c3nc(c(-c4ccc(S(=O)(=O)[O-])cc4)c4ccc([nH]4)c(-c4ccc(S(=O)(=O)[O-])cc4)c4nc(c(-c5ccc(S(=O)(=O)[O-])cc5)c5ccc2[nH]5)C=C4)C=C3)cc1
REMARK SMILES IDX 21 1 20 2 19 3 18 4 17 5 15 6 16 7 14 8 13 9 8 10 9 11 10 12
REMARK SMILES IDX 12 13 11 14 6 15 7 16 5 17 2 18 1 19 3 20 4 21 22 22 23 23
REMARK SMILES IDX 24 24 25 25 26 26 27 27 28 28 29 29 30 30 88 31 31 32 87 33
REMARK SMILES IDX 32 34 33 35 34 36 81 37 35 38 86 39 80 40 82 41 36 42 85 43
REMARK SMILES IDX 79 44 78 45 37 47 67 48 48 49 66 50 49 51 52 52 65 53 83 54
REMARK SMILES IDX 50 55 51 56 64 58 84 59 53 60 38 61 39 62 47 63 40 64 46 65
REMARK SMILES IDX 41 66 42 67 43 68 44 69 45 70 68 71 69 72 77 73 70 74 76 75
REMARK SMILES IDX 71 76 72 77 73 78 74 79 75 80 54 81 55 82 63 83 56 84 62 85
REMARK SMILES IDX 57 86 58 87 59 88 60 89 61 90
REMARK H PARENT 82 46 52 57
REMARK Flexibility Score: inf
ROOT
ATOM      1  C   UNL A   1      37.536  20.869  24.675  1.00  0.00     0.188 C 
ENDROOT
BRANCH   1   2
ATOM      2  O   UNL A   1      37.479  22.292  24.651  1.00  0.00    -0.376 OA
BRANCH   2   3
ATOM      3  C   UNL A   1      36.648  22.930  23.684  1.00  0.00     0.202 C 
BRANCH   3   4
ATOM      4  C   UNL A   1      35.199  23.174  24.108  1.00  0.00     0.261 C 
BRANCH   4   5
ATOM      5  O   UNL A   1      34.288  22.724  23.085  1.00  0.00    -0.463 OA
BRANCH   5   6
ATOM      6  C   UNL A   1      33.675  23.693  22.375  1.00  0.00     0.307 C 
ATOM      7  O   UNL A   1      33.433  23.599  21.174  1.00  0.00    -0.252 OA
BRANCH   6   8
ATOM      8  C   UNL A   1      33.126  24.838  23.198  1.00  0.00     0.148 C 
BRANCH   8   9
ATOM      9  C   UNL A   1      31.907  24.800  24.151  1.00  0.00     0.109 C 
ATOM     10  N   UNL A   1      32.002  25.371  25.497  1.00  0.00    -0.303 N 
ATOM     11  C   UNL A   1      32.517  24.530  26.580  1.00  0.00     0.134 C 
ATOM     12  C   UNL A   1      31.621  23.313  26.833  1.00  0.00     0.091 C 
ATOM     13  C   UNL A   1      31.086  23.490  24.105  1.00  0.00     0.095 C 
ATOM     14  S   UNL A   1      31.483  22.245  25.366  1.00  0.00    -0.158 SA
BRANCH  10  15
ATOM     15  C   UNL A   1      30.997  26.262  25.858  1.00  0.00     0.410 C 
ATOM     16  O   UNL A   1      29.990  25.926  26.461  1.00  0.00    -0.224 OA
BRANCH  15  17
ATOM     17  O   UNL A   1      31.264  27.511  25.412  1.00  0.00    -0.444 OA
BRANCH  17  18
ATOM     18  C   UNL A   1      32.082  28.415  26.197  1.00  0.00     0.106 C 
ATOM     19  C   UNL A   1      31.619  28.198  27.643  1.00  0.00     0.056 C 
ATOM     20  C   UNL A   1      31.772  29.847  25.760  1.00  0.00     0.056 C 
ATOM     21  C   UNL A   1      33.591  28.125  26.138  1.00  0.00     0.056 C 
ENDBRANCH  17  18
ENDBRANCH  15  17
ENDBRANCH  10  15
ENDBRANCH   8   9
ENDBRANCH   6   8
ENDBRANCH   5   6
ENDBRANCH   4   5
ENDBRANCH   3   4
ENDBRANCH   2   3
ENDBRANCH   1   2
BRANCH   1  22
ATOM     22  C   UNL A   1      38.525  20.213  25.639  1.00  0.00     0.188 C 
BRANCH  22  23
ATOM     23  O   UNL A   1      39.832  20.775  25.706  1.00  0.00    -0.376 OA
BRANCH  23  24
ATOM     24  C   UNL A   1      40.062  21.659  26.801  1.00  0.00     0.202 C 
BRANCH  24  25
ATOM     25  C   UNL A   1      40.992  22.812  26.423  1.00  0.00     0.261 C 
BRANCH  25  26
ATOM     26  O   UNL A   1      40.495  24.033  26.996  1.00  0.00    -0.460 OA
BRANCH  26  27
ATOM     27  C   UNL A   1      41.237  25.138  26.736  1.00  0.00     0.338 C 
ATOM     28  O   UNL A   1      41.956  25.342  25.777  1.00  0.00    -0.246 OA
BRANCH  27  29
ATOM     29  C   UNL A   1      40.922  26.151  27.760  1.00  0.00     0.060 A 
ATOM     30  C   UNL A   1      41.804  27.224  27.934  1.00  0.00     0.016 A 
ATOM     31  C   UNL A   1      39.792  26.021  28.568  1.00  0.00     0.016 A 
ATOM     32  C   UNL A   1      41.579  28.160  28.940  1.00  0.00     0.010 A 
ATOM     33  C   UNL A   1      39.578  26.947  29.591  1.00  0.00     0.010 A 
ATOM     34  C   UNL A   1      40.486  28.000  29.799  1.00  0.00    -0.014 A 
BRANCH  34  35
ATOM     35  C   UNL A   1      40.388  28.812  31.032  1.00  0.00     0.031 A 
ATOM     36  C   UNL A   1      39.387  29.932  31.066  1.00  0.00     0.074 A 
ATOM     37  C   UNL A   1      41.167  28.557  32.097  1.00  0.00     0.049 A 
ATOM     38  N   UNL A   1      39.232  30.875  31.956  1.00  0.00    -0.248 NA
ATOM     39  C   UNL A   1      38.437  29.995  29.942  1.00  0.00     0.031 C 
ATOM     40  C   UNL A   1      42.113  27.446  32.214  1.00  0.00     0.029 A 
ATOM     41  N   UNL A   1      41.292  29.232  33.285  1.00  0.00    -0.354 N 
ATOM     42  C   UNL A   1      38.183  31.660  31.489  1.00  0.00     0.074 A 
ATOM     43  C   UNL A   1      37.746  31.088  30.235  1.00  0.00     0.031 C 
ATOM     44  C   UNL A   1      42.730  27.526  33.406  1.00  0.00     0.029 A 
ATOM     45  C   UNL A   1      42.261  28.718  34.110  1.00  0.00     0.049 A 
ATOM     46  H   UNL A   1      40.739  30.012  33.522  1.00  0.00     0.167 HD
ATOM     47  C   UNL A   1      37.641  32.764  32.052  1.00  0.00     0.031 A 
ATOM     48  C   UNL A   1      42.740  29.182  35.280  1.00  0.00     0.031 A 
ATOM     49  C   UNL A   1      38.089  33.334  33.293  1.00  0.00     0.049 A 
ATOM     50  C   UNL A   1      42.183  30.462  35.846  1.00  0.00     0.074 A 
ATOM     51  C   UNL A   1      37.632  34.470  33.936  1.00  0.00     0.029 A 
ATOM     52  N   UNL A   1      39.098  32.803  34.082  1.00  0.00    -0.354 N 
ATOM     53  N   UNL A   1      41.229  31.227  35.369  1.00  0.00    -0.248 NA
ATOM     54  C   UNL A   1      42.774  30.946  37.101  1.00  0.00     0.031 C 
ATOM     55  C   UNL A   1      38.391  34.645  35.100  1.00  0.00     0.029 A 
ATOM     56  C   UNL A   1      39.286  33.592  35.202  1.00  0.00     0.049 A 
ATOM     57  H   UNL A   1      39.606  31.986  33.875  1.00  0.00     0.167 HD
ATOM     58  C   UNL A   1      41.090  32.270  36.279  1.00  0.00     0.074 A 
ATOM     59  C   UNL A   1      42.051  32.032  37.338  1.00  0.00     0.031 C 
ATOM     60  C   UNL A   1      40.245  33.330  36.244  1.00  0.00     0.031 A 
BRANCH  47  61
ATOM     61  C   UNL A   1      36.534  33.447  31.299  1.00  0.00    -0.014 A 
ATOM     62  C   UNL A   1      35.277  33.664  31.891  1.00  0.00     0.010 A 
ATOM     63  C   UNL A   1      36.757  33.885  29.981  1.00  0.00     0.010 A 
ATOM     64  C   UNL A   1      34.251  34.274  31.165  1.00  0.00     0.020 A 
ATOM     65  C   UNL A   1      35.741  34.514  29.259  1.00  0.00     0.020 A 
ATOM     66  C   UNL A   1      34.487  34.689  29.850  1.00  0.00     0.054 A 
BRANCH  66  67
ATOM     67  S   UNL A   1      33.143  35.489  28.930  1.00  0.00     0.124 S 
ATOM     68  O   UNL A   1      32.587  34.368  28.177  1.00  0.00    -0.237 OA
ATOM     69  O   UNL A   1      32.293  36.016  29.993  1.00  0.00    -0.237 OA
ATOM     70  O   UNL A   1      33.829  36.499  28.126  1.00  0.00    -0.744 OA
ENDBRANCH  66  67
ENDBRANCH  47  61
BRANCH  48  71
ATOM     71  C   UNL A   1      43.838  28.459  35.979  1.00  0.00    -0.014 A 
ATOM     72  C   UNL A   1      45.181  28.795  35.737  1.00  0.00     0.010 A 
ATOM     73  C   UNL A   1      43.544  27.422  36.882  1.00  0.00     0.010 A 
ATOM     74  C   UNL A   1      46.211  28.094  36.370  1.00  0.00     0.020 A 
ATOM     75  C   UNL A   1      44.570  26.735  37.537  1.00  0.00     0.020 A 
ATOM     76  C   UNL A   1      45.898  27.067  37.266  1.00  0.00     0.054 A 
BRANCH  76  77
ATOM     77  S   UNL A   1      47.247  26.196  38.112  1.00  0.00     0.124 S 
ATOM     78  O   UNL A   1      48.416  26.954  37.677  1.00  0.00    -0.237 OA
ATOM     79  O   UNL A   1      46.886  26.339  39.520  1.00  0.00    -0.237 OA
ATOM     80  O   UNL A   1      47.151  24.835  37.589  1.00  0.00    -0.744 OA
ENDBRANCH  76  77
ENDBRANCH  48  71
BRANCH  60  81
ATOM     81  C   UNL A   1      40.291  34.286  37.404  1.00  0.00    -0.014 A 
ATOM     82  C   UNL A   1      39.476  34.100  38.533  1.00  0.00     0.010 A 
ATOM     83  C   UNL A   1      41.207  35.354  37.381  1.00  0.00     0.010 A 
ATOM     84  C   UNL A   1      39.558  34.984  39.612  1.00  0.00     0.020 A 
ATOM     85  C   UNL A   1      41.305  36.227  38.468  1.00  0.00     0.020 A 
ATOM     86  C   UNL A   1      40.470  36.043  39.571  1.00  0.00     0.054 A 
BRANCH  86  87
ATOM     87  S   UNL A   1      40.594  37.152  41.002  1.00  0.00     0.124 S 
ATOM     88  O   UNL A   1      39.285  36.984  41.630  1.00  0.00    -0.237 OA
ATOM     89  O   UNL A   1      41.723  36.596  41.746  1.00  0.00    -0.237 OA
ATOM     90  O   UNL A   1      40.836  38.461  40.404  1.00  0.00    -0.744 OA
ENDBRANCH  86  87
ENDBRANCH  60  81
ENDBRANCH  34  35
ENDBRANCH  27  29
ENDBRANCH  26  27
ENDBRANCH  25  26
ENDBRANCH  24  25
ENDBRANCH  23  24
ENDBRANCH  22  23
ENDBRANCH   1  22
TORSDOF 24
ENDMDL
MODEL 3
REMARK VINA RESULT:      -7.4      4.114      7.325
REMARK SMILES CC(C)(C)OC(=O)N1CCSC[C@@H]1CC(=O)OCCOCCOCCOC(=O)c1ccc(-c2c3nc(c(-c4ccc(S(=O)(=O)[O-])cc4)c4ccc([nH]4)c(-c4ccc(S(=O)(=O)[O-])cc4)c4nc(c(-c5ccc(S(=O)(=O)[O-])cc5)c5ccc2[nH]5)C=C4)C=C3)cc1
REMARK SMILES IDX 21 1 20 2 19 3 18 4 17 5 15 6 16 7 14 8 13 9 8 10 9 11 10 12
REMARK SMILES IDX 12 13 11 14 6 15 7 16 5 17 2 18 1 19 3 20 4 21 22 22 23 23
REMARK SMILES IDX 24 24 25 25 26 26 27 27 28 28 29 29 30 30 88 31 31 32 87 33
REMARK SMILES IDX 32 34 33 35 34 36 81 37 35 38 86 39 80 40 82 41 36 42 85 43
REMARK SMILES IDX 79 44 78 45 37 47 67 48 48 49 66 50 49 51 52 52 65 53 83 54
REMARK SMILES IDX 50 55 51 56 64 58 84 59 53 60 38 61 39 62 47 63 40 64 46 65
REMARK SMILES IDX 41 66 42 67 43 68 44 69 45 70 68 71 69 72 77 73 70 74 76 75
REMARK SMILES IDX 71 76 72 77 73 78 74 79 75 80 54 81 55 82 63 83 56 84 62 85
REMARK SMILES IDX 57 86 58 87 59 88 60 89 61 90
REMARK H PARENT 82 46 52 57
REMARK Flexibility Score: inf
ROOT
ATOM      1  C   UNL A   1      48.129  25.579  24.708  1.00  0.00     0.188 C 
ENDROOT
BRANCH   1   2
ATOM      2  O   UNL A   1      48.093  26.675  23.799  1.00  0.00    -0.376 OA
BRANCH   2   3
ATOM      3  C   UNL A   1      49.304  27.372  23.515  1.00  0.00     0.202 C 
BRANCH   3   4
ATOM      4  C   UNL A   1      50.186  27.695  24.722  1.00  0.00     0.261 C 
BRANCH   4   5
ATOM      5  O   UNL A   1      49.812  28.962  25.300  1.00  0.00    -0.463 OA
BRANCH   5   6
ATOM      6  C   UNL A   1      49.397  28.924  26.583  1.00  0.00     0.307 C 
ATOM      7  O   UNL A   1      50.134  28.637  27.523  1.00  0.00    -0.252 OA
BRANCH   6   8
ATOM      8  C   UNL A   1      47.996  29.448  26.816  1.00  0.00     0.148 C 
BRANCH   8   9
ATOM      9  C   UNL A   1      46.914  28.836  27.739  1.00  0.00     0.109 C 
ATOM     10  N   UNL A   1      46.883  29.170  29.165  1.00  0.00    -0.303 N 
ATOM     11  C   UNL A   1      47.709  28.385  30.085  1.00  0.00     0.134 C 
ATOM     12  C   UNL A   1      47.289  26.911  30.113  1.00  0.00     0.091 C 
ATOM     13  C   UNL A   1      46.582  27.353  27.455  1.00  0.00     0.095 C 
ATOM     14  S   UNL A   1      47.441  26.124  28.479  1.00  0.00    -0.158 SA
BRANCH  10  15
ATOM     15  C   UNL A   1      45.658  29.590  29.671  1.00  0.00     0.410 C 
ATOM     16  O   UNL A   1      45.038  28.972  30.522  1.00  0.00    -0.224 OA
BRANCH  15  17
ATOM     17  O   UNL A   1      45.238  30.723  29.062  1.00  0.00    -0.444 OA
BRANCH  17  18
ATOM     18  C   UNL A   1      43.937  30.778  28.423  1.00  0.00     0.106 C 
ATOM     19  C   UNL A   1      44.145  31.682  27.202  1.00  0.00     0.056 C 
ATOM     20  C   UNL A   1      42.952  31.430  29.394  1.00  0.00     0.056 C 
ATOM     21  C   UNL A   1      43.416  29.422  27.920  1.00  0.00     0.056 C 
ENDBRANCH  17  18
ENDBRANCH  15  17
ENDBRANCH  10  15
ENDBRANCH   8   9
ENDBRANCH   6   8
ENDBRANCH   5   6
ENDBRANCH   4   5
ENDBRANCH   3   4
ENDBRANCH   2   3
ENDBRANCH   1   2
BRANCH   1  22
ATOM     22  C   UNL A   1      46.865  24.730  24.848  1.00  0.00     0.188 C 
BRANCH  22  23
ATOM     23  O   UNL A   1      46.655  23.716  23.871  1.00  0.00    -0.376 OA
BRANCH  23  24
ATOM     24  C   UNL A   1      46.017  22.532  24.345  1.00  0.00     0.202 C 
BRANCH  24  25
ATOM     25  C   UNL A   1      44.699  22.259  23.619  1.00  0.00     0.261 C 
BRANCH  25  26
ATOM     26  O   UNL A   1      43.652  23.036  24.224  1.00  0.00    -0.460 OA
BRANCH  26  27
ATOM     27  C   UNL A   1      42.965  22.411  25.211  1.00  0.00     0.338 C 
ATOM     28  O   UNL A   1      42.683  21.232  25.290  1.00  0.00    -0.246 OA
BRANCH  27  29
ATOM     29  C   UNL A   1      42.720  23.390  26.287  1.00  0.00     0.060 A 
ATOM     30  C   UNL A   1      43.441  24.590  26.277  1.00  0.00     0.016 A 
ATOM     31  C   UNL A   1      41.821  23.110  27.316  1.00  0.00     0.016 A 
ATOM     32  C   UNL A   1      43.292  25.506  27.315  1.00  0.00     0.010 A 
ATOM     33  C   UNL A   1      41.687  24.018  28.368  1.00  0.00     0.010 A 
ATOM     34  C   UNL A   1      42.444  25.203  28.386  1.00  0.00    -0.014 A 
BRANCH  34  35
ATOM     35  C   UNL A   1      42.484  26.022  29.617  1.00  0.00     0.031 A 
ATOM     36  C   UNL A   1      41.462  27.110  29.779  1.00  0.00     0.074 A 
ATOM     37  C   UNL A   1      43.405  25.801  30.571  1.00  0.00     0.049 A 
ATOM     38  N   UNL A   1      41.395  28.056  30.678  1.00  0.00    -0.248 NA
ATOM     39  C   UNL A   1      40.369  27.135  28.790  1.00  0.00     0.031 C 
ATOM     40  C   UNL A   1      44.393  24.721  30.566  1.00  0.00     0.029 A 
ATOM     41  N   UNL A   1      43.664  26.490  31.728  1.00  0.00    -0.354 N 
ATOM     42  C   UNL A   1      40.270  28.804  30.350  1.00  0.00     0.074 A 
ATOM     43  C   UNL A   1      39.688  28.208  29.168  1.00  0.00     0.031 C 
ATOM     44  C   UNL A   1      45.160  24.830  31.665  1.00  0.00     0.029 A 
ATOM     45  C   UNL A   1      44.750  26.012  32.419  1.00  0.00     0.049 A 
ATOM     46  H   UNL A   1      43.123  27.253  32.033  1.00  0.00     0.167 HD
ATOM     47  C   UNL A   1      39.771  29.895  30.976  1.00  0.00     0.031 A 
ATOM     48  C   UNL A   1      45.365  26.501  33.514  1.00  0.00     0.031 A 
ATOM     49  C   UNL A   1      40.361  30.489  32.144  1.00  0.00     0.049 A 
ATOM     50  C   UNL A   1      44.847  27.768  34.143  1.00  0.00     0.074 A 
ATOM     51  C   UNL A   1      39.958  31.617  32.837  1.00  0.00     0.029 A 
ATOM     52  N   UNL A   1      41.483  29.997  32.794  1.00  0.00    -0.354 N 
ATOM     53  N   UNL A   1      43.814  28.499  33.794  1.00  0.00    -0.248 NA
ATOM     54  C   UNL A   1      45.583  28.281  35.306  1.00  0.00     0.031 C 
ATOM     55  C   UNL A   1      40.858  31.824  33.889  1.00  0.00     0.029 A 
ATOM     56  C   UNL A   1      41.792  30.801  33.876  1.00  0.00     0.049 A 
ATOM     57  H   UNL A   1      41.984  29.194  32.525  1.00  0.00     0.167 HD
ATOM     58  C   UNL A   1      43.764  29.545  34.710  1.00  0.00     0.074 A 
ATOM     59  C   UNL A   1      44.863  29.346  35.632  1.00  0.00     0.031 C 
ATOM     60  C   UNL A   1      42.888  30.577  34.783  1.00  0.00     0.031 A 
BRANCH  47  61
ATOM     61  C   UNL A   1      38.553  30.537  30.373  1.00  0.00    -0.014 A 
ATOM     62  C   UNL A   1      37.259  30.102  30.710  1.00  0.00     0.010 A 
ATOM     63  C   UNL A   1      38.705  31.597  29.460  1.00  0.00     0.010 A 
ATOM     64  C   UNL A   1      36.140  30.691  30.117  1.00  0.00     0.020 A 
ATOM     65  C   UNL A   1      37.588  32.202  28.881  1.00  0.00     0.020 A 
ATOM     66  C   UNL A   1      36.311  31.733  29.200  1.00  0.00     0.054 A 
BRANCH  66  67
ATOM     67  S   UNL A   1      34.843  32.490  28.450  1.00  0.00     0.124 S 
ATOM     68  O   UNL A   1      34.267  31.366  27.717  1.00  0.00    -0.237 OA
ATOM     69  O   UNL A   1      34.082  32.939  29.613  1.00  0.00    -0.237 OA
ATOM     70  O   UNL A   1      35.392  33.559  27.619  1.00  0.00    -0.744 OA
ENDBRANCH  66  67
ENDBRANCH  47  61
BRANCH  48  71
ATOM     71  C   UNL A   1      46.568  25.819  34.064  1.00  0.00    -0.014 A 
ATOM     72  C   UNL A   1      47.854  26.179  33.629  1.00  0.00     0.010 A 
ATOM     73  C   UNL A   1      46.430  24.796  35.019  1.00  0.00     0.010 A 
ATOM     74  C   UNL A   1      48.981  25.516  34.123  1.00  0.00     0.020 A 
ATOM     75  C   UNL A   1      47.555  24.146  35.535  1.00  0.00     0.020 A 
ATOM     76  C   UNL A   1      48.824  24.502  35.073  1.00  0.00     0.054 A 
BRANCH  76  77
ATOM     77  S   UNL A   1      50.300  23.680  35.736  1.00  0.00     0.124 S 
ATOM     78  O   UNL A   1      50.165  22.333  35.192  1.00  0.00    -0.237 OA
ATOM     79  O   UNL A   1      51.388  24.482  35.182  1.00  0.00    -0.237 OA
ATOM     80  O   UNL A   1      50.129  23.793  37.183  1.00  0.00    -0.744 OA
ENDBRANCH  76  77
ENDBRANCH  48  71
BRANCH  60  81
ATOM     81  C   UNL A   1      43.057  31.545  35.922  1.00  0.00    -0.014 A 
ATOM     82  C   UNL A   1      43.861  32.689  35.791  1.00  0.00     0.010 A 
ATOM     83  C   UNL A   1      42.350  31.331  37.119  1.00  0.00     0.010 A 
ATOM     84  C   UNL A   1      43.979  33.591  36.852  1.00  0.00     0.020 A 
ATOM     85  C   UNL A   1      42.449  32.242  38.174  1.00  0.00     0.020 A 
ATOM     86  C   UNL A   1      43.274  33.360  38.037  1.00  0.00     0.054 A 
BRANCH  86  87
ATOM     87  S   UNL A   1      43.404  34.567  39.385  1.00  0.00     0.124 S 
ATOM     88  O   UNL A   1      44.162  33.822  40.387  1.00  0.00    -0.237 OA
ATOM     89  O   UNL A   1      44.116  35.678  38.757  1.00  0.00    -0.237 OA
ATOM     90  O   UNL A   1      42.013  34.845  39.734  1.00  0.00    -0.744 OA
ENDBRANCH  86  87
ENDBRANCH  60  81
ENDBRANCH  34  35
ENDBRANCH  27  29
ENDBRANCH  26  27
ENDBRANCH  25  26
ENDBRANCH  24  25
ENDBRANCH  23  24
ENDBRANCH  22  23
ENDBRANCH   1  22
TORSDOF 24
ENDMDL
