MODEL 1
REMARK VINA RESULT:      -9.3      0.000      0.000
REMARK SMILES N#CCSc1nnnn1-c1ccc(C(=O)OCCOCCOCCOC(=O)c2ccc(-c3c4nc(c(-c5ccc(S(=O)(=O)[O-])cc5)c5ccc([nH]5)c(-c5ccc(S(=O)(=O)[O-])cc5)c5nc(c(-c6ccc(S(=O)(=O)[O-])cc6)c6ccc3[nH]6)C=C5)C=C4)cc2)cc1
REMARK SMILES IDX 20 1 19 2 18 3 17 4 16 5 14 6 15 7 13 8 10 9 11 10 89 11
REMARK SMILES IDX 12 12 88 13 9 14 5 15 6 16 7 17 8 18 4 19 3 20 2 21 1 22
REMARK SMILES IDX 21 23 22 24 23 25 24 26 25 27 26 28 27 29 28 30 29 31 87 32
REMARK SMILES IDX 30 33 86 34 31 35 32 36 33 37 80 38 34 39 85 40 79 41 81 42
REMARK SMILES IDX 35 43 84 44 78 45 77 46 36 48 66 49 47 50 65 51 48 52 51 53
REMARK SMILES IDX 64 54 82 55 49 56 50 57 63 59 83 60 52 61 37 62 38 63 46 64
REMARK SMILES IDX 39 65 45 66 40 67 41 68 42 69 43 70 44 71 67 72 68 73 76 74
REMARK SMILES IDX 69 75 75 76 70 77 71 78 72 79 73 80 74 81 53 82 54 83 62 84
REMARK SMILES IDX 55 85 61 86 56 87 57 88 58 89 59 90 60 91
REMARK H PARENT 81 47 51 58
REMARK Flexibility Score: inf
ROOT
ATOM      1  C   UNL A   1      31.430  28.202  25.271  1.00  0.00     0.188 C 
ENDROOT
BRANCH   1   2
ATOM      2  O   UNL A   1      31.329  27.971  23.871  1.00  0.00    -0.376 OA
BRANCH   2   3
ATOM      3  C   UNL A   1      30.123  27.434  23.338  1.00  0.00     0.202 C 
BRANCH   3   4
ATOM      4  C   UNL A   1      29.471  26.231  24.039  1.00  0.00     0.261 C 
BRANCH   4   5
ATOM      5  O   UNL A   1      30.317  25.072  24.085  1.00  0.00    -0.460 OA
BRANCH   5   6
ATOM      6  C   UNL A   1      30.610  24.591  25.312  1.00  0.00     0.338 C 
ATOM      7  O   UNL A   1      30.239  25.039  26.383  1.00  0.00    -0.246 OA
BRANCH   6   8
ATOM      8  C   UNL A   1      31.407  23.341  25.199  1.00  0.00     0.060 A 
ATOM      9  C   UNL A   1      33.062  21.118  25.092  1.00  0.00     0.069 A 
ATOM     10  C   UNL A   1      32.721  21.650  26.337  1.00  0.00     0.029 A 
ATOM     11  C   UNL A   1      32.484  21.589  23.913  1.00  0.00     0.029 A 
ATOM     12  C   UNL A   1      31.866  22.749  26.385  1.00  0.00     0.018 A 
ATOM     13  C   UNL A   1      31.713  22.750  23.964  1.00  0.00     0.018 A 
BRANCH   9  14
ATOM     14  N   UNL A   1      34.232  20.361  24.986  1.00  0.00    -0.187 N 
ATOM     15  C   UNL A   1      34.368  19.036  24.614  1.00  0.00     0.215 A 
ATOM     16  N   UNL A   1      35.654  18.754  24.582  1.00  0.00    -0.101 NA
ATOM     17  N   UNL A   1      36.309  19.909  24.939  1.00  0.00    -0.022 NA
ATOM     18  N   UNL A   1      35.452  20.895  25.170  1.00  0.00    -0.039 NA
BRANCH  15  19
ATOM     19  S   UNL A   1      33.140  17.946  24.037  1.00  0.00    -0.069 SA
BRANCH  19  20
ATOM     20  C   UNL A   1      32.489  17.011  25.454  1.00  0.00     0.198 C 
BRANCH  20  21
ATOM     21  C   UNL A   1      32.863  15.538  25.459  1.00  0.00     0.074 C 
ATOM     22  N   UNL A   1      33.174  14.316  25.463  1.00  0.00    -0.197 NA
ENDBRANCH  20  21
ENDBRANCH  19  20
ENDBRANCH  15  19
ENDBRANCH   9  14
ENDBRANCH   6   8
ENDBRANCH   5   6
ENDBRANCH   4   5
ENDBRANCH   3   4
ENDBRANCH   2   3
ENDBRANCH   1   2
BRANCH   1  23
ATOM     23  C   UNL A   1      32.735  28.751  25.882  1.00  0.00     0.188 C 
BRANCH  23  24
ATOM     24  O   UNL A   1      32.942  30.150  25.748  1.00  0.00    -0.376 OA
BRANCH  24  25
ATOM     25  C   UNL A   1      32.095  30.984  26.538  1.00  0.00     0.202 C 
BRANCH  25  26
ATOM     26  C   UNL A   1      32.805  32.155  27.227  1.00  0.00     0.261 C 
BRANCH  26  27
ATOM     27  O   UNL A   1      33.767  31.759  28.200  1.00  0.00    -0.460 OA
BRANCH  27  28
ATOM     28  C   UNL A   1      34.991  32.315  28.077  1.00  0.00     0.338 C 
ATOM     29  O   UNL A   1      35.315  33.215  27.326  1.00  0.00    -0.246 OA
BRANCH  28  30
ATOM     30  C   UNL A   1      35.882  31.692  29.067  1.00  0.00     0.060 A 
ATOM     31  C   UNL A   1      36.741  32.530  29.782  1.00  0.00     0.016 A 
ATOM     32  C   UNL A   1      36.002  30.295  29.108  1.00  0.00     0.016 A 
ATOM     33  C   UNL A   1      37.880  31.984  30.333  1.00  0.00     0.010 A 
ATOM     34  C   UNL A   1      37.145  29.751  29.643  1.00  0.00     0.010 A 
ATOM     35  C   UNL A   1      38.116  30.620  30.142  1.00  0.00    -0.014 A 
BRANCH  35  36
ATOM     36  C   UNL A   1      39.487  30.161  30.247  1.00  0.00     0.031 A 
ATOM     37  C   UNL A   1      40.111  30.222  31.578  1.00  0.00     0.074 A 
ATOM     38  C   UNL A   1      40.077  29.584  29.181  1.00  0.00     0.049 A 
ATOM     39  N   UNL A   1      41.174  30.868  31.925  1.00  0.00    -0.248 NA
ATOM     40  C   UNL A   1      39.422  29.539  32.682  1.00  0.00     0.031 C 
ATOM     41  C   UNL A   1      39.429  29.189  27.923  1.00  0.00     0.029 A 
ATOM     42  N   UNL A   1      41.338  29.087  29.053  1.00  0.00    -0.354 N 
ATOM     43  C   UNL A   1      41.411  30.505  33.244  1.00  0.00     0.074 A 
ATOM     44  C   UNL A   1      40.222  29.830  33.705  1.00  0.00     0.031 C 
ATOM     45  C   UNL A   1      40.220  28.304  27.283  1.00  0.00     0.029 A 
ATOM     46  C   UNL A   1      41.460  28.160  28.026  1.00  0.00     0.049 A 
ATOM     47  H   UNL A   1      42.088  29.358  29.629  1.00  0.00     0.167 HD
ATOM     48  C   UNL A   1      42.657  30.544  33.788  1.00  0.00     0.031 A 
ATOM     49  C   UNL A   1      42.452  27.248  27.875  1.00  0.00     0.031 A 
ATOM     50  C   UNL A   1      43.569  31.354  33.026  1.00  0.00     0.049 A 
ATOM     51  C   UNL A   1      43.615  27.712  28.672  1.00  0.00     0.074 A 
ATOM     52  C   UNL A   1      43.581  32.668  32.603  1.00  0.00     0.029 A 
ATOM     53  N   UNL A   1      44.530  30.708  32.284  1.00  0.00    -0.354 N 
ATOM     54  N   UNL A   1      44.306  28.784  28.396  1.00  0.00    -0.248 NA
ATOM     55  C   UNL A   1      43.790  27.196  30.020  1.00  0.00     0.031 C 
ATOM     56  C   UNL A   1      44.232  32.651  31.337  1.00  0.00     0.029 A 
ATOM     57  C   UNL A   1      44.603  31.332  31.066  1.00  0.00     0.049 A 
ATOM     58  H   UNL A   1      45.068  29.936  32.576  1.00  0.00     0.167 HD
ATOM     59  C   UNL A   1      44.668  29.307  29.629  1.00  0.00     0.074 A 
ATOM     60  C   UNL A   1      44.437  28.222  30.578  1.00  0.00     0.031 C 
ATOM     61  C   UNL A   1      44.847  30.651  29.808  1.00  0.00     0.031 A 
BRANCH  48  62
ATOM     62  C   UNL A   1      43.127  29.518  34.789  1.00  0.00    -0.014 A 
ATOM     63  C   UNL A   1      43.476  28.231  34.341  1.00  0.00     0.010 A 
ATOM     64  C   UNL A   1      42.967  29.695  36.181  1.00  0.00     0.010 A 
ATOM     65  C   UNL A   1      43.584  27.160  35.239  1.00  0.00     0.020 A 
ATOM     66  C   UNL A   1      43.125  28.649  37.088  1.00  0.00     0.020 A 
ATOM     67  C   UNL A   1      43.386  27.375  36.604  1.00  0.00     0.054 A 
BRANCH  67  68
ATOM     68  S   UNL A   1      43.378  25.969  37.740  1.00  0.00     0.124 S 
ATOM     69  O   UNL A   1      43.955  24.918  36.908  1.00  0.00    -0.237 OA
ATOM     70  O   UNL A   1      44.217  26.446  38.836  1.00  0.00    -0.237 OA
ATOM     71  O   UNL A   1      41.963  25.806  38.070  1.00  0.00    -0.744 OA
ENDBRANCH  67  68
ENDBRANCH  48  62
BRANCH  49  72
ATOM     72  C   UNL A   1      42.296  25.858  27.373  1.00  0.00    -0.014 A 
ATOM     73  C   UNL A   1      42.944  25.430  26.200  1.00  0.00     0.010 A 
ATOM     74  C   UNL A   1      41.697  24.866  28.181  1.00  0.00     0.010 A 
ATOM     75  C   UNL A   1      43.025  24.064  25.876  1.00  0.00     0.020 A 
ATOM     76  C   UNL A   1      41.753  23.509  27.855  1.00  0.00     0.020 A 
ATOM     77  C   UNL A   1      42.438  23.111  26.713  1.00  0.00     0.054 A 
BRANCH  77  78
ATOM     78  S   UNL A   1      42.674  21.343  26.376  1.00  0.00     0.124 S 
ATOM     79  O   UNL A   1      41.686  21.092  25.331  1.00  0.00    -0.237 OA
ATOM     80  O   UNL A   1      44.071  21.284  25.954  1.00  0.00    -0.237 OA
ATOM     81  O   UNL A   1      42.393  20.706  27.662  1.00  0.00    -0.744 OA
ENDBRANCH  77  78
ENDBRANCH  49  72
BRANCH  61  82
ATOM     82  C   UNL A   1      45.000  31.533  28.588  1.00  0.00    -0.014 A 
ATOM     83  C   UNL A   1      43.914  32.169  27.956  1.00  0.00     0.010 A 
ATOM     84  C   UNL A   1      46.302  31.860  28.167  1.00  0.00     0.010 A 
ATOM     85  C   UNL A   1      44.125  33.088  26.918  1.00  0.00     0.020 A 
ATOM     86  C   UNL A   1      46.520  32.790  27.145  1.00  0.00     0.020 A 
ATOM     87  C   UNL A   1      45.429  33.394  26.520  1.00  0.00     0.054 A 
BRANCH  87  88
ATOM     88  S   UNL A   1      45.691  34.643  25.228  1.00  0.00     0.124 S 
ATOM     89  O   UNL A   1      44.913  34.111  24.112  1.00  0.00    -0.237 OA
ATOM     90  O   UNL A   1      45.164  35.861  25.839  1.00  0.00    -0.237 OA
ATOM     91  O   UNL A   1      47.140  34.639  25.030  1.00  0.00    -0.744 OA
ENDBRANCH  87  88
ENDBRANCH  61  82
ENDBRANCH  35  36
ENDBRANCH  28  30
ENDBRANCH  27  28
ENDBRANCH  26  27
ENDBRANCH  25  26
ENDBRANCH  24  25
ENDBRANCH  23  24
ENDBRANCH   1  23
TORSDOF 24
ENDMDL
MODEL 2
REMARK VINA RESULT:      -9.3      5.328      8.718
REMARK SMILES N#CCSc1nnnn1-c1ccc(C(=O)OCCOCCOCCOC(=O)c2ccc(-c3c4nc(c(-c5ccc(S(=O)(=O)[O-])cc5)c5ccc([nH]5)c(-c5ccc(S(=O)(=O)[O-])cc5)c5nc(c(-c6ccc(S(=O)(=O)[O-])cc6)c6ccc3[nH]6)C=C5)C=C4)cc2)cc1
REMARK SMILES IDX 20 1 19 2 18 3 17 4 16 5 14 6 15 7 13 8 10 9 11 10 89 11
REMARK SMILES IDX 12 12 88 13 9 14 5 15 6 16 7 17 8 18 4 19 3 20 2 21 1 22
REMARK SMILES IDX 21 23 22 24 23 25 24 26 25 27 26 28 27 29 28 30 29 31 87 32
REMARK SMILES IDX 30 33 86 34 31 35 32 36 33 37 80 38 34 39 85 40 79 41 81 42
REMARK SMILES IDX 35 43 84 44 78 45 77 46 36 48 66 49 47 50 65 51 48 52 51 53
REMARK SMILES IDX 64 54 82 55 49 56 50 57 63 59 83 60 52 61 37 62 38 63 46 64
REMARK SMILES IDX 39 65 45 66 40 67 41 68 42 69 43 70 44 71 67 72 68 73 76 74
REMARK SMILES IDX 69 75 75 76 70 77 71 78 72 79 73 80 74 81 53 82 54 83 62 84
REMARK SMILES IDX 55 85 61 86 56 87 57 88 58 89 59 90 60 91
REMARK H PARENT 81 47 51 58
REMARK Flexibility Score: inf
ROOT
ATOM      1  C   UNL A   1      32.777  35.788  31.221  1.00  0.00     0.188 C 
ENDROOT
BRANCH   1   2
ATOM      2  O   UNL A   1      32.960  34.941  32.350  1.00  0.00    -0.376 OA
BRANCH   2   3
ATOM      3  C   UNL A   1      33.983  33.952  32.321  1.00  0.00     0.202 C 
BRANCH   3   4
ATOM      4  C   UNL A   1      34.750  33.637  33.617  1.00  0.00     0.261 C 
BRANCH   4   5
ATOM      5  O   UNL A   1      35.760  32.631  33.450  1.00  0.00    -0.460 OA
BRANCH   5   6
ATOM      6  C   UNL A   1      36.841  32.727  34.253  1.00  0.00     0.338 C 
ATOM      7  O   UNL A   1      36.900  32.455  35.440  1.00  0.00    -0.246 OA
BRANCH   6   8
ATOM      8  C   UNL A   1      38.033  33.141  33.467  1.00  0.00     0.060 A 
ATOM      9  C   UNL A   1      40.362  33.951  32.197  1.00  0.00     0.069 A 
ATOM     10  C   UNL A   1      40.401  32.839  33.039  1.00  0.00     0.029 A 
ATOM     11  C   UNL A   1      39.160  34.580  31.872  1.00  0.00     0.029 A 
ATOM     12  C   UNL A   1      39.222  32.420  33.651  1.00  0.00     0.018 A 
ATOM     13  C   UNL A   1      38.007  34.218  32.567  1.00  0.00     0.018 A 
BRANCH   9  14
ATOM     14  N   UNL A   1      41.548  34.652  31.960  1.00  0.00    -0.187 N 
ATOM     15  C   UNL A   1      42.258  35.460  32.829  1.00  0.00     0.215 A 
ATOM     16  N   UNL A   1      43.349  35.861  32.210  1.00  0.00    -0.101 NA
ATOM     17  N   UNL A   1      43.306  35.301  30.955  1.00  0.00    -0.022 NA
ATOM     18  N   UNL A   1      42.222  34.550  30.802  1.00  0.00    -0.039 NA
BRANCH  15  19
ATOM     19  S   UNL A   1      41.966  35.744  34.521  1.00  0.00    -0.069 SA
BRANCH  19  20
ATOM     20  C   UNL A   1      42.557  34.301  35.457  1.00  0.00     0.198 C 
BRANCH  20  21
ATOM     21  C   UNL A   1      43.880  34.517  36.174  1.00  0.00     0.074 C 
ATOM     22  N   UNL A   1      44.978  34.697  36.768  1.00  0.00    -0.197 NA
ENDBRANCH  20  21
ENDBRANCH  19  20
ENDBRANCH  15  19
ENDBRANCH   9  14
ENDBRANCH   6   8
ENDBRANCH   5   6
ENDBRANCH   4   5
ENDBRANCH   3   4
ENDBRANCH   2   3
ENDBRANCH   1   2
BRANCH   1  23
ATOM     23  C   UNL A   1      33.490  35.482  29.889  1.00  0.00     0.188 C 
BRANCH  23  24
ATOM     24  O   UNL A   1      32.725  34.771  28.925  1.00  0.00    -0.376 OA
BRANCH  24  25
ATOM     25  C   UNL A   1      33.451  33.848  28.114  1.00  0.00     0.202 C 
BRANCH  25  26
ATOM     26  C   UNL A   1      34.721  33.281  28.759  1.00  0.00     0.261 C 
BRANCH  26  27
ATOM     27  O   UNL A   1      35.594  32.628  27.844  1.00  0.00    -0.460 OA
BRANCH  27  28
ATOM     28  C   UNL A   1      35.603  31.279  27.900  1.00  0.00     0.338 C 
ATOM     29  O   UNL A   1      34.963  30.513  27.204  1.00  0.00    -0.246 OA
BRANCH  28  30
ATOM     30  C   UNL A   1      36.583  30.865  28.915  1.00  0.00     0.060 A 
ATOM     31  C   UNL A   1      37.460  31.838  29.400  1.00  0.00     0.016 A 
ATOM     32  C   UNL A   1      36.755  29.502  29.196  1.00  0.00     0.016 A 
ATOM     33  C   UNL A   1      38.653  31.426  29.953  1.00  0.00     0.010 A 
ATOM     34  C   UNL A   1      37.951  29.090  29.732  1.00  0.00     0.010 A 
ATOM     35  C   UNL A   1      38.923  30.056  29.992  1.00  0.00    -0.014 A 
BRANCH  35  36
ATOM     36  C   UNL A   1      40.314  29.655  30.074  1.00  0.00     0.031 A 
ATOM     37  C   UNL A   1      40.919  29.612  31.413  1.00  0.00     0.074 A 
ATOM     38  C   UNL A   1      40.944  29.215  28.965  1.00  0.00     0.049 A 
ATOM     39  N   UNL A   1      41.945  30.270  31.840  1.00  0.00    -0.248 NA
ATOM     40  C   UNL A   1      40.252  28.790  32.433  1.00  0.00     0.031 C 
ATOM     41  C   UNL A   1      40.330  28.917  27.664  1.00  0.00     0.029 A 
ATOM     42  N   UNL A   1      42.229  28.794  28.809  1.00  0.00    -0.354 N 
ATOM     43  C   UNL A   1      42.184  29.788  33.120  1.00  0.00     0.074 A 
ATOM     44  C   UNL A   1      41.025  29.015  33.493  1.00  0.00     0.031 C 
ATOM     45  C   UNL A   1      41.171  28.139  26.952  1.00  0.00     0.029 A 
ATOM     46  C   UNL A   1      42.408  27.980  27.697  1.00  0.00     0.049 A 
ATOM     47  H   UNL A   1      42.958  29.041  29.421  1.00  0.00     0.167 HD
ATOM     48  C   UNL A   1      43.421  29.832  33.686  1.00  0.00     0.031 A 
ATOM     49  C   UNL A   1      43.444  27.136  27.473  1.00  0.00     0.031 A 
ATOM     50  C   UNL A   1      44.301  30.756  33.022  1.00  0.00     0.049 A 
ATOM     51  C   UNL A   1      44.575  27.573  28.330  1.00  0.00     0.074 A 
ATOM     52  C   UNL A   1      44.254  32.105  32.732  1.00  0.00     0.029 A 
ATOM     53  N   UNL A   1      45.301  30.234  32.236  1.00  0.00    -0.354 N 
ATOM     54  N   UNL A   1      45.215  28.699  28.173  1.00  0.00    -0.248 NA
ATOM     55  C   UNL A   1      44.759  26.934  29.624  1.00  0.00     0.031 C 
ATOM     56  C   UNL A   1      44.919  32.245  31.481  1.00  0.00     0.029 A 
ATOM     57  C   UNL A   1      45.357  30.979  31.087  1.00  0.00     0.049 A 
ATOM     58  H   UNL A   1      45.873  29.463  32.459  1.00  0.00     0.167 HD
ATOM     59  C   UNL A   1      45.538  29.113  29.458  1.00  0.00     0.074 A 
ATOM     60  C   UNL A   1      45.349  27.929  30.291  1.00  0.00     0.031 C 
ATOM     61  C   UNL A   1      45.648  30.439  29.772  1.00  0.00     0.031 A 
BRANCH  48  62
ATOM     62  C   UNL A   1      43.929  28.735  34.588  1.00  0.00    -0.014 A 
ATOM     63  C   UNL A   1      44.432  27.552  34.015  1.00  0.00     0.010 A 
ATOM     64  C   UNL A   1      43.667  28.718  35.976  1.00  0.00     0.010 A 
ATOM     65  C   UNL A   1      44.591  26.391  34.782  1.00  0.00     0.020 A 
ATOM     66  C   UNL A   1      43.873  27.585  36.759  1.00  0.00     0.020 A 
ATOM     67  C   UNL A   1      44.289  26.412  36.145  1.00  0.00     0.054 A 
BRANCH  67  68
ATOM     68  S   UNL A   1      44.353  24.878  37.100  1.00  0.00     0.124 S 
ATOM     69  O   UNL A   1      44.709  25.374  38.426  1.00  0.00    -0.237 OA
ATOM     70  O   UNL A   1      42.995  24.362  36.957  1.00  0.00    -0.237 OA
ATOM     71  O   UNL A   1      45.386  24.098  36.421  1.00  0.00    -0.744 OA
ENDBRANCH  67  68
ENDBRANCH  48  62
BRANCH  49  72
ATOM     72  C   UNL A   1      43.363  25.797  26.834  1.00  0.00    -0.014 A 
ATOM     73  C   UNL A   1      43.483  25.647  25.440  1.00  0.00     0.010 A 
ATOM     74  C   UNL A   1      43.405  24.623  27.619  1.00  0.00     0.010 A 
ATOM     75  C   UNL A   1      43.682  24.379  24.865  1.00  0.00     0.020 A 
ATOM     76  C   UNL A   1      43.580  23.358  27.053  1.00  0.00     0.020 A 
ATOM     77  C   UNL A   1      43.741  23.243  25.677  1.00  0.00     0.054 A 
BRANCH  77  78
ATOM     78  S   UNL A   1      44.150  21.631  24.950  1.00  0.00     0.124 S 
ATOM     79  O   UNL A   1      45.385  21.283  25.646  1.00  0.00    -0.237 OA
ATOM     80  O   UNL A   1      42.982  20.823  25.289  1.00  0.00    -0.237 OA
ATOM     81  O   UNL A   1      44.303  21.924  23.526  1.00  0.00    -0.744 OA
ENDBRANCH  77  78
ENDBRANCH  49  72
BRANCH  61  82
ATOM     82  C   UNL A   1      45.772  31.445  28.648  1.00  0.00    -0.014 A 
ATOM     83  C   UNL A   1      44.662  31.976  27.964  1.00  0.00     0.010 A 
ATOM     84  C   UNL A   1      47.042  31.992  28.387  1.00  0.00     0.010 A 
ATOM     85  C   UNL A   1      44.821  33.010  27.029  1.00  0.00     0.020 A 
ATOM     86  C   UNL A   1      47.205  33.035  27.469  1.00  0.00     0.020 A 
ATOM     87  C   UNL A   1      46.094  33.534  26.789  1.00  0.00     0.054 A 
BRANCH  87  88
ATOM     88  S   UNL A   1      46.276  34.923  25.634  1.00  0.00     0.124 S 
ATOM     89  O   UNL A   1      47.727  35.044  25.511  1.00  0.00    -0.237 OA
ATOM     90  O   UNL A   1      45.581  34.449  24.440  1.00  0.00    -0.237 OA
ATOM     91  O   UNL A   1      45.618  36.035  26.320  1.00  0.00    -0.744 OA
ENDBRANCH  87  88
ENDBRANCH  61  82
ENDBRANCH  35  36
ENDBRANCH  28  30
ENDBRANCH  27  28
ENDBRANCH  26  27
ENDBRANCH  25  26
ENDBRANCH  24  25
ENDBRANCH  23  24
ENDBRANCH   1  23
TORSDOF 24
ENDMDL
MODEL 3
REMARK VINA RESULT:      -9.0      5.633      8.165
REMARK SMILES N#CCSc1nnnn1-c1ccc(C(=O)OCCOCCOCCOC(=O)c2ccc(-c3c4nc(c(-c5ccc(S(=O)(=O)[O-])cc5)c5ccc([nH]5)c(-c5ccc(S(=O)(=O)[O-])cc5)c5nc(c(-c6ccc(S(=O)(=O)[O-])cc6)c6ccc3[nH]6)C=C5)C=C4)cc2)cc1
REMARK SMILES IDX 20 1 19 2 18 3 17 4 16 5 14 6 15 7 13 8 10 9 11 10 89 11
REMARK SMILES IDX 12 12 88 13 9 14 5 15 6 16 7 17 8 18 4 19 3 20 2 21 1 22
REMARK SMILES IDX 21 23 22 24 23 25 24 26 25 27 26 28 27 29 28 30 29 31 87 32
REMARK SMILES IDX 30 33 86 34 31 35 32 36 33 37 80 38 34 39 85 40 79 41 81 42
REMARK SMILES IDX 35 43 84 44 78 45 77 46 36 48 66 49 47 50 65 51 48 52 51 53
REMARK SMILES IDX 64 54 82 55 49 56 50 57 63 59 83 60 52 61 37 62 38 63 46 64
REMARK SMILES IDX 39 65 45 66 40 67 41 68 42 69 43 70 44 71 67 72 68 73 76 74
REMARK SMILES IDX 69 75 75 76 70 77 71 78 72 79 73 80 74 81 53 82 54 83 62 84
REMARK SMILES IDX 55 85 61 86 56 87 57 88 58 89 59 90 60 91
REMARK H PARENT 81 47 51 58
REMARK Flexibility Score: inf
ROOT
ATOM      1  C   UNL A   1      33.095  36.088  29.040  1.00  0.00     0.188 C 
ENDROOT
BRANCH   1   2
ATOM      2  O   UNL A   1      33.155  36.877  30.223  1.00  0.00    -0.376 OA
BRANCH   2   3
ATOM      3  C   UNL A   1      32.467  36.440  31.390  1.00  0.00     0.202 C 
BRANCH   3   4
ATOM      4  C   UNL A   1      32.788  35.050  31.965  1.00  0.00     0.261 C 
BRANCH   4   5
ATOM      5  O   UNL A   1      34.177  34.701  31.868  1.00  0.00    -0.460 OA
BRANCH   5   6
ATOM      6  C   UNL A   1      34.982  35.165  32.848  1.00  0.00     0.338 C 
ATOM      7  O   UNL A   1      35.047  36.308  33.264  1.00  0.00    -0.246 OA
BRANCH   6   8
ATOM      8  C   UNL A   1      35.758  34.048  33.449  1.00  0.00     0.060 A 
ATOM      9  C   UNL A   1      37.360  32.119  34.635  1.00  0.00     0.069 A 
ATOM     10  C   UNL A   1      36.841  33.148  35.423  1.00  0.00     0.029 A 
ATOM     11  C   UNL A   1      36.983  31.960  33.301  1.00  0.00     0.029 A 
ATOM     12  C   UNL A   1      36.014  34.097  34.827  1.00  0.00     0.018 A 
ATOM     13  C   UNL A   1      36.240  32.969  32.691  1.00  0.00     0.018 A 
BRANCH   9  14
ATOM     14  N   UNL A   1      38.515  31.462  35.068  1.00  0.00    -0.187 N 
ATOM     15  C   UNL A   1      39.835  31.838  34.894  1.00  0.00     0.215 A 
ATOM     16  N   UNL A   1      40.591  30.964  35.523  1.00  0.00    -0.101 NA
ATOM     17  N   UNL A   1      39.734  30.046  36.082  1.00  0.00    -0.022 NA
ATOM     18  N   UNL A   1      38.468  30.352  35.824  1.00  0.00    -0.039 NA
BRANCH  15  19
ATOM     19  S   UNL A   1      40.455  33.309  34.201  1.00  0.00    -0.069 SA
BRANCH  19  20
ATOM     20  C   UNL A   1      41.265  32.906  32.624  1.00  0.00     0.198 C 
BRANCH  20  21
ATOM     21  C   UNL A   1      41.927  34.090  31.939  1.00  0.00     0.074 C 
ATOM     22  N   UNL A   1      42.477  35.072  31.371  1.00  0.00    -0.197 NA
ENDBRANCH  20  21
ENDBRANCH  19  20
ENDBRANCH  15  19
ENDBRANCH   9  14
ENDBRANCH   6   8
ENDBRANCH   5   6
ENDBRANCH   4   5
ENDBRANCH   3   4
ENDBRANCH   2   3
ENDBRANCH   1   2
BRANCH   1  23
ATOM     23  C   UNL A   1      34.373  35.449  28.461  1.00  0.00     0.188 C 
BRANCH  23  24
ATOM     24  O   UNL A   1      34.172  34.431  27.490  1.00  0.00    -0.376 OA
BRANCH  24  25
ATOM     25  C   UNL A   1      33.776  33.157  27.997  1.00  0.00     0.202 C 
BRANCH  25  26
ATOM     26  C   UNL A   1      34.784  32.499  28.947  1.00  0.00     0.261 C 
BRANCH  26  27
ATOM     27  O   UNL A   1      36.027  32.172  28.334  1.00  0.00    -0.460 OA
BRANCH  27  28
ATOM     28  C   UNL A   1      36.293  30.854  28.209  1.00  0.00     0.338 C 
ATOM     29  O   UNL A   1      35.875  30.101  27.349  1.00  0.00    -0.246 OA
BRANCH  28  30
ATOM     30  C   UNL A   1      37.245  30.472  29.262  1.00  0.00     0.060 A 
ATOM     31  C   UNL A   1      38.171  31.433  29.675  1.00  0.00     0.016 A 
ATOM     32  C   UNL A   1      37.343  29.129  29.653  1.00  0.00     0.016 A 
ATOM     33  C   UNL A   1      39.338  31.004  30.269  1.00  0.00     0.010 A 
ATOM     34  C   UNL A   1      38.513  28.698  30.229  1.00  0.00     0.010 A 
ATOM     35  C   UNL A   1      39.534  29.630  30.420  1.00  0.00    -0.014 A 
BRANCH  35  36
ATOM     36  C   UNL A   1      40.901  29.163  30.545  1.00  0.00     0.031 A 
ATOM     37  C   UNL A   1      41.397  28.907  31.906  1.00  0.00     0.074 A 
ATOM     38  C   UNL A   1      41.603  28.859  29.435  1.00  0.00     0.049 A 
ATOM     39  N   UNL A   1      42.406  29.455  32.497  1.00  0.00    -0.248 NA
ATOM     40  C   UNL A   1      40.627  27.978  32.745  1.00  0.00     0.031 C 
ATOM     41  C   UNL A   1      41.085  28.773  28.062  1.00  0.00     0.029 A 
ATOM     42  N   UNL A   1      42.883  28.411  29.314  1.00  0.00    -0.354 N 
ATOM     43  C   UNL A   1      42.529  28.788  33.709  1.00  0.00     0.074 A 
ATOM     44  C   UNL A   1      41.320  28.019  33.880  1.00  0.00     0.031 C 
ATOM     45  C   UNL A   1      41.955  28.069  27.310  1.00  0.00     0.029 A 
ATOM     46  C   UNL A   1      43.124  27.756  28.114  1.00  0.00     0.049 A 
ATOM     47  H   UNL A   1      43.569  28.539  30.008  1.00  0.00     0.167 HD
ATOM     48  C   UNL A   1      43.717  28.700  34.365  1.00  0.00     0.031 A 
ATOM     49  C   UNL A   1      44.149  26.909  27.847  1.00  0.00     0.031 A 
ATOM     50  C   UNL A   1      44.675  29.671  33.908  1.00  0.00     0.049 A 
ATOM     51  C   UNL A   1      45.221  27.174  28.840  1.00  0.00     0.074 A 
ATOM     52  C   UNL A   1      44.692  31.048  33.812  1.00  0.00     0.029 A 
ATOM     53  N   UNL A   1      45.718  29.224  33.130  1.00  0.00    -0.354 N 
ATOM     54  N   UNL A   1      45.905  28.282  28.894  1.00  0.00    -0.248 NA
ATOM     55  C   UNL A   1      45.283  26.351  30.038  1.00  0.00     0.031 C 
ATOM     56  C   UNL A   1      45.458  31.336  32.647  1.00  0.00     0.029 A 
ATOM     57  C   UNL A   1      45.887  30.121  32.108  1.00  0.00     0.049 A 
ATOM     58  H   UNL A   1      46.246  28.406  33.281  1.00  0.00     0.167 HD
ATOM     59  C   UNL A   1      46.138  28.497  30.245  1.00  0.00     0.074 A 
ATOM     60  C   UNL A   1      45.848  27.217  30.883  1.00  0.00     0.031 C 
ATOM     61  C   UNL A   1      46.264  29.760  30.754  1.00  0.00     0.031 A 
BRANCH  48  62
ATOM     62  C   UNL A   1      44.119  27.467  35.135  1.00  0.00    -0.014 A 
ATOM     63  C   UNL A   1      44.472  27.589  36.492  1.00  0.00     0.010 A 
ATOM     64  C   UNL A   1      44.431  26.247  34.495  1.00  0.00     0.010 A 
ATOM     65  C   UNL A   1      45.170  26.567  37.150  1.00  0.00     0.020 A 
ATOM     66  C   UNL A   1      45.077  25.204  35.155  1.00  0.00     0.020 A 
ATOM     67  C   UNL A   1      45.485  25.391  36.467  1.00  0.00     0.054 A 
BRANCH  67  68
ATOM     68  S   UNL A   1      46.512  24.138  37.270  1.00  0.00     0.124 S 
ATOM     69  O   UNL A   1      46.814  23.248  36.153  1.00  0.00    -0.237 OA
ATOM     70  O   UNL A   1      47.632  24.926  37.776  1.00  0.00    -0.237 OA
ATOM     71  O   UNL A   1      45.632  23.584  38.297  1.00  0.00    -0.744 OA
ENDBRANCH  67  68
ENDBRANCH  48  62
BRANCH  49  72
ATOM     72  C   UNL A   1      44.077  25.678  27.018  1.00  0.00    -0.014 A 
ATOM     73  C   UNL A   1      44.161  25.739  25.615  1.00  0.00     0.010 A 
ATOM     74  C   UNL A   1      44.166  24.402  27.618  1.00  0.00     0.010 A 
ATOM     75  C   UNL A   1      44.370  24.576  24.852  1.00  0.00     0.020 A 
ATOM     76  C   UNL A   1      44.351  23.240  26.866  1.00  0.00     0.020 A 
ATOM     77  C   UNL A   1      44.475  23.335  25.484  1.00  0.00     0.054 A 
BRANCH  77  78
ATOM     78  S   UNL A   1      44.897  21.859  24.515  1.00  0.00     0.124 S 
ATOM     79  O   UNL A   1      44.204  22.108  23.255  1.00  0.00    -0.237 OA
ATOM     80  O   UNL A   1      46.355  21.921  24.460  1.00  0.00    -0.237 OA
ATOM     81  O   UNL A   1      44.358  20.757  25.312  1.00  0.00    -0.744 OA
ENDBRANCH  77  78
ENDBRANCH  49  72
BRANCH  61  82
ATOM     82  C   UNL A   1      46.507  30.908  29.798  1.00  0.00    -0.014 A 
ATOM     83  C   UNL A   1      47.769  31.508  29.620  1.00  0.00     0.010 A 
ATOM     84  C   UNL A   1      45.462  31.282  28.934  1.00  0.00     0.010 A 
ATOM     85  C   UNL A   1      47.972  32.471  28.620  1.00  0.00     0.020 A 
ATOM     86  C   UNL A   1      45.662  32.228  27.924  1.00  0.00     0.020 A 
ATOM     87  C   UNL A   1      46.916  32.824  27.777  1.00  0.00     0.054 A 
BRANCH  87  88
ATOM     88  S   UNL A   1      47.211  34.014  26.437  1.00  0.00     0.124 S 
ATOM     89  O   UNL A   1      47.524  35.240  27.167  1.00  0.00    -0.237 OA
ATOM     90  O   UNL A   1      48.325  33.414  25.707  1.00  0.00    -0.237 OA
ATOM     91  O   UNL A   1      45.945  34.036  25.706  1.00  0.00    -0.744 OA
ENDBRANCH  87  88
ENDBRANCH  61  82
ENDBRANCH  35  36
ENDBRANCH  28  30
ENDBRANCH  27  28
ENDBRANCH  26  27
ENDBRANCH  25  26
ENDBRANCH  24  25
ENDBRANCH  23  24
ENDBRANCH   1  23
TORSDOF 24
ENDMDL
