MODEL 1
REMARK VINA RESULT:      -9.3      0.000      0.000
REMARK SMILES C[C@@H](C(=O)OCCOCCOCCOC(=O)c1ccc(-c2c3nc(c(-c4ccc(S(=O)(=O)[O-])cc4)c4ccc([nH]4)c(-c4ccc(S(=O)(=O)[O-])cc4)c4nc(c(-c5ccc(S(=O)(=O)[O-])cc5)c5ccc2[nH]5)C=C4)C=C3)cc1)c1cccc(C(=O)c2ccccc2)c1
REMARK SMILES IDX 9 1 8 2 7 3 6 4 5 5 3 6 4 7 2 8 1 9 77 10 78 11 90 12 79 13
REMARK SMILES IDX 81 14 80 15 82 16 83 17 84 18 85 19 89 20 86 21 88 22 87 23
REMARK SMILES IDX 10 24 11 25 12 26 13 27 14 28 15 29 16 30 17 31 18 32 76 33
REMARK SMILES IDX 19 34 75 35 20 36 21 37 22 38 69 39 23 40 74 41 68 42 70 43
REMARK SMILES IDX 24 44 73 45 67 46 66 47 25 49 55 50 36 51 54 52 37 53 40 54
REMARK SMILES IDX 53 55 71 56 38 57 39 58 52 60 72 61 41 62 26 63 27 64 35 65
REMARK SMILES IDX 28 66 34 67 29 68 30 69 31 70 32 71 33 72 56 73 57 74 65 75
REMARK SMILES IDX 58 76 64 77 59 78 60 79 61 80 62 81 63 82 42 83 43 84 51 85
REMARK SMILES IDX 44 86 50 87 45 88 46 89 47 90 48 91 49 92
REMARK H PARENT 70 48 40 59
REMARK Flexibility Score: inf
ROOT
ATOM      1  C   UNL A   1      33.518  35.031  28.819  1.00  0.00     0.188 C 
ENDROOT
BRANCH   1   2
ATOM      2  O   UNL A   1      34.020  34.017  27.981  1.00  0.00    -0.376 OA
BRANCH   2   3
ATOM      3  C   UNL A   1      33.641  32.674  28.271  1.00  0.00     0.202 C 
BRANCH   3   4
ATOM      4  C   UNL A   1      34.167  31.505  27.421  1.00  0.00     0.261 C 
BRANCH   4   5
ATOM      5  O   UNL A   1      33.345  30.323  27.534  1.00  0.00    -0.463 OA
BRANCH   5   6
ATOM      6  C   UNL A   1      33.567  29.374  26.577  1.00  0.00     0.313 C 
ATOM      7  O   UNL A   1      34.253  28.374  26.763  1.00  0.00    -0.252 OA
BRANCH   6   8
ATOM      8  C   UNL A   1      32.868  29.657  25.247  1.00  0.00     0.126 C 
ATOM      9  C   UNL A   1      31.402  30.089  25.351  1.00  0.00     0.025 C 
BRANCH   8  10
ATOM     10  C   UNL A   1      32.998  28.544  24.205  1.00  0.00    -0.033 A 
ATOM     11  C   UNL A   1      33.805  28.769  23.076  1.00  0.00     0.004 A 
ATOM     12  C   UNL A   1      32.303  27.322  24.292  1.00  0.00     0.016 A 
ATOM     13  C   UNL A   1      33.889  27.827  22.051  1.00  0.00     0.001 A 
ATOM     14  C   UNL A   1      32.371  26.378  23.261  1.00  0.00     0.023 A 
ATOM     15  C   UNL A   1      33.162  26.642  22.137  1.00  0.00     0.012 A 
BRANCH  14  16
ATOM     16  C   UNL A   1      31.745  25.037  23.369  1.00  0.00     0.193 C 
ATOM     17  O   UNL A   1      30.522  24.974  23.291  1.00  0.00    -0.289 OA
BRANCH  16  18
ATOM     18  C   UNL A   1      32.497  23.770  23.563  1.00  0.00     0.022 A 
ATOM     19  C   UNL A   1      31.918  22.569  23.135  1.00  0.00     0.012 A 
ATOM     20  C   UNL A   1      33.638  23.714  24.358  1.00  0.00     0.012 A 
ATOM     21  C   UNL A   1      32.484  21.337  23.486  1.00  0.00     0.001 A 
ATOM     22  C   UNL A   1      34.210  22.477  24.700  1.00  0.00     0.001 A 
ATOM     23  C   UNL A   1      33.636  21.290  24.264  1.00  0.00     0.000 A 
ENDBRANCH  16  18
ENDBRANCH  14  16
ENDBRANCH   8  10
ENDBRANCH   6   8
ENDBRANCH   5   6
ENDBRANCH   4   5
ENDBRANCH   3   4
ENDBRANCH   2   3
ENDBRANCH   1   2
BRANCH   1  24
ATOM     24  C   UNL A   1      33.468  34.719  30.317  1.00  0.00     0.188 C 
BRANCH  24  25
ATOM     25  O   UNL A   1      34.572  35.018  31.145  1.00  0.00    -0.376 OA
BRANCH  25  26
ATOM     26  C   UNL A   1      35.224  33.912  31.752  1.00  0.00     0.202 C 
BRANCH  26  27
ATOM     27  C   UNL A   1      35.024  32.473  31.212  1.00  0.00     0.261 C 
BRANCH  27  28
ATOM     28  O   UNL A   1      36.162  31.730  30.755  1.00  0.00    -0.460 OA
BRANCH  28  29
ATOM     29  C   UNL A   1      36.723  30.824  31.602  1.00  0.00     0.338 C 
ATOM     30  O   UNL A   1      36.195  30.305  32.554  1.00  0.00    -0.246 OA
BRANCH  29  31
ATOM     31  C   UNL A   1      38.071  30.473  31.049  1.00  0.00     0.060 A 
ATOM     32  C   UNL A   1      38.937  29.681  31.812  1.00  0.00     0.016 A 
ATOM     33  C   UNL A   1      38.452  30.846  29.752  1.00  0.00     0.016 A 
ATOM     34  C   UNL A   1      40.152  29.229  31.261  1.00  0.00     0.010 A 
ATOM     35  C   UNL A   1      39.664  30.392  29.203  1.00  0.00     0.010 A 
ATOM     36  C   UNL A   1      40.530  29.577  29.949  1.00  0.00    -0.014 A 
BRANCH  36  37
ATOM     37  C   UNL A   1      41.914  29.275  29.463  1.00  0.00     0.031 A 
ATOM     38  C   UNL A   1      42.135  27.977  28.759  1.00  0.00     0.074 A 
ATOM     39  C   UNL A   1      42.982  30.077  29.647  1.00  0.00     0.049 A 
ATOM     40  N   UNL A   1      43.228  27.517  28.215  1.00  0.00    -0.248 NA
ATOM     41  C   UNL A   1      41.000  27.044  28.747  1.00  0.00     0.031 C 
ATOM     42  C   UNL A   1      42.982  31.251  30.488  1.00  0.00     0.029 A 
ATOM     43  N   UNL A   1      44.261  30.061  29.129  1.00  0.00    -0.354 N 
ATOM     44  C   UNL A   1      42.940  26.211  27.864  1.00  0.00     0.074 A 
ATOM     45  C   UNL A   1      41.565  25.960  28.244  1.00  0.00     0.031 C 
ATOM     46  C   UNL A   1      44.113  31.950  30.301  1.00  0.00     0.029 A 
ATOM     47  C   UNL A   1      44.971  31.224  29.378  1.00  0.00     0.049 A 
ATOM     48  H   UNL A   1      44.632  29.297  28.632  1.00  0.00     0.167 HD
ATOM     49  C   UNL A   1      43.759  25.292  27.309  1.00  0.00     0.031 A 
ATOM     50  C   UNL A   1      46.164  31.656  28.911  1.00  0.00     0.031 A 
ATOM     51  C   UNL A   1      45.133  25.530  26.968  1.00  0.00     0.049 A 
ATOM     52  C   UNL A   1      47.001  30.677  28.126  1.00  0.00     0.074 A 
ATOM     53  C   UNL A   1      46.044  24.651  26.411  1.00  0.00     0.029 A 
ATOM     54  N   UNL A   1      45.799  26.734  27.151  1.00  0.00    -0.354 N 
ATOM     55  N   UNL A   1      46.700  29.455  27.759  1.00  0.00    -0.248 NA
ATOM     56  C   UNL A   1      48.360  31.099  27.753  1.00  0.00     0.031 C 
ATOM     57  C   UNL A   1      47.268  25.315  26.281  1.00  0.00     0.029 A 
ATOM     58  C   UNL A   1      47.106  26.623  26.706  1.00  0.00     0.049 A 
ATOM     59  H   UNL A   1      45.401  27.546  27.540  1.00  0.00     0.167 HD
ATOM     60  C   UNL A   1      47.842  28.948  27.155  1.00  0.00     0.074 A 
ATOM     61  C   UNL A   1      48.819  30.017  27.138  1.00  0.00     0.031 C 
ATOM     62  C   UNL A   1      48.071  27.694  26.696  1.00  0.00     0.031 A 
BRANCH  49  63
ATOM     63  C   UNL A   1      43.171  23.926  27.112  1.00  0.00    -0.014 A 
ATOM     64  C   UNL A   1      43.177  22.983  28.154  1.00  0.00     0.010 A 
ATOM     65  C   UNL A   1      42.679  23.562  25.847  1.00  0.00     0.010 A 
ATOM     66  C   UNL A   1      42.758  21.674  27.916  1.00  0.00     0.020 A 
ATOM     67  C   UNL A   1      42.226  22.262  25.615  1.00  0.00     0.020 A 
ATOM     68  C   UNL A   1      42.294  21.321  26.646  1.00  0.00     0.054 A 
BRANCH  68  69
ATOM     69  S   UNL A   1      41.770  19.611  26.361  1.00  0.00     0.124 S 
ATOM     70  O   UNL A   1      42.202  18.956  27.593  1.00  0.00    -0.237 OA
ATOM     71  O   UNL A   1      40.325  19.741  26.194  1.00  0.00    -0.237 OA
ATOM     72  O   UNL A   1      42.501  19.220  25.158  1.00  0.00    -0.744 OA
ENDBRANCH  68  69
ENDBRANCH  49  63
BRANCH  50  73
ATOM     73  C   UNL A   1      46.674  33.044  29.166  1.00  0.00    -0.014 A 
ATOM     74  C   UNL A   1      46.360  34.089  28.271  1.00  0.00     0.010 A 
ATOM     75  C   UNL A   1      47.503  33.340  30.262  1.00  0.00     0.010 A 
ATOM     76  C   UNL A   1      46.877  35.380  28.450  1.00  0.00     0.020 A 
ATOM     77  C   UNL A   1      47.992  34.638  30.469  1.00  0.00     0.020 A 
ATOM     78  C   UNL A   1      47.691  35.648  29.552  1.00  0.00     0.054 A 
BRANCH  78  79
ATOM     79  S   UNL A   1      48.324  37.333  29.802  1.00  0.00     0.124 S 
ATOM     80  O   UNL A   1      48.428  37.409  31.255  1.00  0.00    -0.237 OA
ATOM     81  O   UNL A   1      49.595  37.314  29.081  1.00  0.00    -0.237 OA
ATOM     82  O   UNL A   1      47.291  38.177  29.205  1.00  0.00    -0.744 OA
ENDBRANCH  78  79
ENDBRANCH  50  73
BRANCH  62  83
ATOM     83  C   UNL A   1      49.432  27.403  26.127  1.00  0.00    -0.014 A 
ATOM     84  C   UNL A   1      50.542  27.193  26.967  1.00  0.00     0.010 A 
ATOM     85  C   UNL A   1      49.585  27.261  24.737  1.00  0.00     0.010 A 
ATOM     86  C   UNL A   1      51.787  26.867  26.421  1.00  0.00     0.020 A 
ATOM     87  C   UNL A   1      50.822  26.912  24.191  1.00  0.00     0.020 A 
ATOM     88  C   UNL A   1      51.918  26.726  25.036  1.00  0.00     0.054 A 
BRANCH  88  89
ATOM     89  S   UNL A   1      53.528  26.244  24.354  1.00  0.00     0.124 S 
ATOM     90  O   UNL A   1      53.500  26.870  23.035  1.00  0.00    -0.237 OA
ATOM     91  O   UNL A   1      54.469  26.827  25.307  1.00  0.00    -0.237 OA
ATOM     92  O   UNL A   1      53.479  24.784  24.351  1.00  0.00    -0.744 OA
ENDBRANCH  88  89
ENDBRANCH  62  83
ENDBRANCH  36  37
ENDBRANCH  29  31
ENDBRANCH  28  29
ENDBRANCH  27  28
ENDBRANCH  26  27
ENDBRANCH  25  26
ENDBRANCH  24  25
ENDBRANCH   1  24
TORSDOF 23
ENDMDL
MODEL 2
REMARK VINA RESULT:      -8.5      3.508      5.886
REMARK SMILES C[C@@H](C(=O)OCCOCCOCCOC(=O)c1ccc(-c2c3nc(c(-c4ccc(S(=O)(=O)[O-])cc4)c4ccc([nH]4)c(-c4ccc(S(=O)(=O)[O-])cc4)c4nc(c(-c5ccc(S(=O)(=O)[O-])cc5)c5ccc2[nH]5)C=C4)C=C3)cc1)c1cccc(C(=O)c2ccccc2)c1
REMARK SMILES IDX 9 1 8 2 7 3 6 4 5 5 3 6 4 7 2 8 1 9 77 10 78 11 90 12 79 13
REMARK SMILES IDX 81 14 80 15 82 16 83 17 84 18 85 19 89 20 86 21 88 22 87 23
REMARK SMILES IDX 10 24 11 25 12 26 13 27 14 28 15 29 16 30 17 31 18 32 76 33
REMARK SMILES IDX 19 34 75 35 20 36 21 37 22 38 69 39 23 40 74 41 68 42 70 43
REMARK SMILES IDX 24 44 73 45 67 46 66 47 25 49 55 50 36 51 54 52 37 53 40 54
REMARK SMILES IDX 53 55 71 56 38 57 39 58 52 60 72 61 41 62 26 63 27 64 35 65
REMARK SMILES IDX 28 66 34 67 29 68 30 69 31 70 32 71 33 72 56 73 57 74 65 75
REMARK SMILES IDX 58 76 64 77 59 78 60 79 61 80 62 81 63 82 42 83 43 84 51 85
REMARK SMILES IDX 44 86 50 87 45 88 46 89 47 90 48 91 49 92
REMARK H PARENT 70 48 40 59
REMARK Flexibility Score: inf
ROOT
ATOM      1  C   UNL A   1      38.554  30.478  34.151  1.00  0.00     0.188 C 
ENDROOT
BRANCH   1   2
ATOM      2  O   UNL A   1      39.802  29.897  33.850  1.00  0.00    -0.376 OA
BRANCH   2   3
ATOM      3  C   UNL A   1      40.187  29.836  32.479  1.00  0.00     0.202 C 
BRANCH   3   4
ATOM      4  C   UNL A   1      40.546  28.493  31.820  1.00  0.00     0.261 C 
BRANCH   4   5
ATOM      5  O   UNL A   1      40.260  28.477  30.404  1.00  0.00    -0.463 OA
BRANCH   5   6
ATOM      6  C   UNL A   1      38.962  28.196  30.083  1.00  0.00     0.313 C 
ATOM      7  O   UNL A   1      38.144  27.766  30.890  1.00  0.00    -0.252 OA
BRANCH   6   8
ATOM      8  C   UNL A   1      38.606  28.485  28.625  1.00  0.00     0.126 C 
ATOM      9  C   UNL A   1      39.797  28.661  27.677  1.00  0.00     0.025 C 
BRANCH   8  10
ATOM     10  C   UNL A   1      37.618  29.635  28.421  1.00  0.00    -0.033 A 
ATOM     11  C   UNL A   1      38.036  30.943  28.722  1.00  0.00     0.004 A 
ATOM     12  C   UNL A   1      36.288  29.442  27.999  1.00  0.00     0.016 A 
ATOM     13  C   UNL A   1      37.151  32.018  28.641  1.00  0.00     0.001 A 
ATOM     14  C   UNL A   1      35.390  30.513  27.929  1.00  0.00     0.023 A 
ATOM     15  C   UNL A   1      35.829  31.801  28.261  1.00  0.00     0.012 A 
BRANCH  14  16
ATOM     16  C   UNL A   1      34.019  30.367  27.382  1.00  0.00     0.193 C 
ATOM     17  O   UNL A   1      33.338  31.383  27.279  1.00  0.00    -0.289 OA
BRANCH  16  18
ATOM     18  C   UNL A   1      33.418  29.078  26.950  1.00  0.00     0.022 A 
ATOM     19  C   UNL A   1      33.906  28.461  25.791  1.00  0.00     0.012 A 
ATOM     20  C   UNL A   1      32.243  28.595  27.519  1.00  0.00     0.012 A 
ATOM     21  C   UNL A   1      33.235  27.369  25.226  1.00  0.00     0.001 A 
ATOM     22  C   UNL A   1      31.579  27.493  26.956  1.00  0.00     0.001 A 
ATOM     23  C   UNL A   1      32.073  26.879  25.812  1.00  0.00     0.000 A 
ENDBRANCH  16  18
ENDBRANCH  14  16
ENDBRANCH   8  10
ENDBRANCH   6   8
ENDBRANCH   5   6
ENDBRANCH   4   5
ENDBRANCH   3   4
ENDBRANCH   2   3
ENDBRANCH   1   2
BRANCH   1  24
ATOM     24  C   UNL A   1      37.643  30.796  32.963  1.00  0.00     0.188 C 
BRANCH  24  25
ATOM     25  O   UNL A   1      36.379  31.391  33.173  1.00  0.00    -0.376 OA
BRANCH  25  26
ATOM     26  C   UNL A   1      35.641  31.731  32.009  1.00  0.00     0.202 C 
BRANCH  26  27
ATOM     27  C   UNL A   1      35.235  33.198  31.720  1.00  0.00     0.261 C 
BRANCH  27  28
ATOM     28  O   UNL A   1      36.250  34.155  31.387  1.00  0.00    -0.460 OA
BRANCH  28  29
ATOM     29  C   UNL A   1      37.106  34.554  32.368  1.00  0.00     0.338 C 
ATOM     30  O   UNL A   1      36.817  34.852  33.501  1.00  0.00    -0.246 OA
BRANCH  29  31
ATOM     31  C   UNL A   1      38.498  34.409  31.830  1.00  0.00     0.060 A 
ATOM     32  C   UNL A   1      39.506  33.916  32.667  1.00  0.00     0.016 A 
ATOM     33  C   UNL A   1      38.796  34.676  30.486  1.00  0.00     0.016 A 
ATOM     34  C   UNL A   1      40.788  33.648  32.147  1.00  0.00     0.010 A 
ATOM     35  C   UNL A   1      40.075  34.406  29.970  1.00  0.00     0.010 A 
ATOM     36  C   UNL A   1      41.087  33.887  30.791  1.00  0.00    -0.014 A 
BRANCH  36  37
ATOM     37  C   UNL A   1      42.505  33.808  30.313  1.00  0.00     0.031 A 
ATOM     38  C   UNL A   1      42.933  32.559  29.617  1.00  0.00     0.074 A 
ATOM     39  C   UNL A   1      43.431  34.770  30.497  1.00  0.00     0.049 A 
ATOM     40  N   UNL A   1      44.088  32.276  29.080  1.00  0.00    -0.248 NA
ATOM     41  C   UNL A   1      41.961  31.457  29.605  1.00  0.00     0.031 C 
ATOM     42  C   UNL A   1      43.239  35.934  31.332  1.00  0.00     0.029 A 
ATOM     43  N   UNL A   1      44.698  34.956  29.984  1.00  0.00    -0.354 N 
ATOM     44  C   UNL A   1      44.013  30.940  28.735  1.00  0.00     0.074 A 
ATOM     45  C   UNL A   1      42.694  30.474  29.111  1.00  0.00     0.031 C 
ATOM     46  C   UNL A   1      44.245  36.803  31.145  1.00  0.00     0.029 A 
ATOM     47  C   UNL A   1      45.212  36.219  30.229  1.00  0.00     0.049 A 
ATOM     48  H   UNL A   1      45.189  34.259  29.492  1.00  0.00     0.167 HD
ATOM     49  C   UNL A   1      44.972  30.160  28.188  1.00  0.00     0.031 A 
ATOM     50  C   UNL A   1      46.323  36.833  29.765  1.00  0.00     0.031 A 
ATOM     51  C   UNL A   1      46.292  30.612  27.851  1.00  0.00     0.049 A 
ATOM     52  C   UNL A   1      47.309  35.997  28.989  1.00  0.00     0.074 A 
ATOM     53  C   UNL A   1      47.333  29.887  27.302  1.00  0.00     0.029 A 
ATOM     54  N   UNL A   1      46.756  31.908  28.030  1.00  0.00    -0.354 N 
ATOM     55  N   UNL A   1      47.209  34.740  28.627  1.00  0.00    -0.248 NA
ATOM     56  C   UNL A   1      48.585  36.628  28.619  1.00  0.00     0.031 C 
ATOM     57  C   UNL A   1      48.437  30.738  27.173  1.00  0.00     0.029 A 
ATOM     58  C   UNL A   1      48.066  32.005  27.591  1.00  0.00     0.049 A 
ATOM     59  H   UNL A   1      46.232  32.648  28.413  1.00  0.00     0.167 HD
ATOM     60  C   UNL A   1      48.420  34.420  28.030  1.00  0.00     0.074 A 
ATOM     61  C   UNL A   1      49.214  35.631  28.012  1.00  0.00     0.031 C 
ATOM     62  C   UNL A   1      48.848  33.216  27.579  1.00  0.00     0.031 A 
BRANCH  49  63
ATOM     63  C   UNL A   1      44.610  28.717  27.995  1.00  0.00    -0.014 A 
ATOM     64  C   UNL A   1      43.920  28.295  26.845  1.00  0.00     0.010 A 
ATOM     65  C   UNL A   1      44.896  27.791  29.013  1.00  0.00     0.010 A 
ATOM     66  C   UNL A   1      43.465  26.981  26.744  1.00  0.00     0.020 A 
ATOM     67  C   UNL A   1      44.473  26.466  28.899  1.00  0.00     0.020 A 
ATOM     68  C   UNL A   1      43.737  26.078  27.776  1.00  0.00     0.054 A 
BRANCH  68  69
ATOM     69  S   UNL A   1      43.122  24.381  27.625  1.00  0.00     0.124 S 
ATOM     70  O   UNL A   1      42.135  24.514  26.556  1.00  0.00    -0.237 OA
ATOM     71  O   UNL A   1      44.327  23.632  27.276  1.00  0.00    -0.237 OA
ATOM     72  O   UNL A   1      42.573  24.093  28.947  1.00  0.00    -0.744 OA
ENDBRANCH  68  69
ENDBRANCH  49  63
BRANCH  50  73
ATOM     73  C   UNL A   1      46.604  38.286  30.015  1.00  0.00    -0.014 A 
ATOM     74  C   UNL A   1      47.319  38.680  31.167  1.00  0.00     0.010 A 
ATOM     75  C   UNL A   1      46.139  39.292  29.150  1.00  0.00     0.010 A 
ATOM     76  C   UNL A   1      47.539  40.034  31.458  1.00  0.00     0.020 A 
ATOM     77  C   UNL A   1      46.389  40.647  29.416  1.00  0.00     0.020 A 
ATOM     78  C   UNL A   1      47.072  41.011  30.578  1.00  0.00     0.054 A 
BRANCH  78  79
ATOM     79  S   UNL A   1      47.396  42.763  30.940  1.00  0.00     0.124 S 
ATOM     80  O   UNL A   1      48.500  42.679  31.892  1.00  0.00    -0.237 OA
ATOM     81  O   UNL A   1      47.737  43.310  29.629  1.00  0.00    -0.237 OA
ATOM     82  O   UNL A   1      46.129  43.237  31.494  1.00  0.00    -0.744 OA
ENDBRANCH  78  79
ENDBRANCH  50  73
BRANCH  62  83
ATOM     83  C   UNL A   1      50.241  33.143  27.017  1.00  0.00    -0.014 A 
ATOM     84  C   UNL A   1      51.323  32.715  27.808  1.00  0.00     0.010 A 
ATOM     85  C   UNL A   1      50.454  33.433  25.658  1.00  0.00     0.010 A 
ATOM     86  C   UNL A   1      52.600  32.599  27.252  1.00  0.00     0.020 A 
ATOM     87  C   UNL A   1      51.724  33.294  25.094  1.00  0.00     0.020 A 
ATOM     88  C   UNL A   1      52.792  32.887  25.897  1.00  0.00     0.054 A 
BRANCH  88  89
ATOM     89  S   UNL A   1      54.445  32.672  25.182  1.00  0.00     0.124 S 
ATOM     90  O   UNL A   1      54.296  33.303  23.874  1.00  0.00    -0.237 OA
ATOM     91  O   UNL A   1      55.300  33.383  26.130  1.00  0.00    -0.237 OA
ATOM     92  O   UNL A   1      54.625  31.223  25.157  1.00  0.00    -0.744 OA
ENDBRANCH  88  89
ENDBRANCH  62  83
ENDBRANCH  36  37
ENDBRANCH  29  31
ENDBRANCH  28  29
ENDBRANCH  27  28
ENDBRANCH  26  27
ENDBRANCH  25  26
ENDBRANCH  24  25
ENDBRANCH   1  24
TORSDOF 23
ENDMDL
MODEL 3
REMARK VINA RESULT:      -8.5      8.746     15.870
REMARK SMILES C[C@@H](C(=O)OCCOCCOCCOC(=O)c1ccc(-c2c3nc(c(-c4ccc(S(=O)(=O)[O-])cc4)c4ccc([nH]4)c(-c4ccc(S(=O)(=O)[O-])cc4)c4nc(c(-c5ccc(S(=O)(=O)[O-])cc5)c5ccc2[nH]5)C=C4)C=C3)cc1)c1cccc(C(=O)c2ccccc2)c1
REMARK SMILES IDX 9 1 8 2 7 3 6 4 5 5 3 6 4 7 2 8 1 9 77 10 78 11 90 12 79 13
REMARK SMILES IDX 81 14 80 15 82 16 83 17 84 18 85 19 89 20 86 21 88 22 87 23
REMARK SMILES IDX 10 24 11 25 12 26 13 27 14 28 15 29 16 30 17 31 18 32 76 33
REMARK SMILES IDX 19 34 75 35 20 36 21 37 22 38 69 39 23 40 74 41 68 42 70 43
REMARK SMILES IDX 24 44 73 45 67 46 66 47 25 49 55 50 36 51 54 52 37 53 40 54
REMARK SMILES IDX 53 55 71 56 38 57 39 58 52 60 72 61 41 62 26 63 27 64 35 65
REMARK SMILES IDX 28 66 34 67 29 68 30 69 31 70 32 71 33 72 56 73 57 74 65 75
REMARK SMILES IDX 58 76 64 77 59 78 60 79 61 80 62 81 63 82 42 83 43 84 51 85
REMARK SMILES IDX 44 86 50 87 45 88 46 89 47 90 48 91 49 92
REMARK H PARENT 70 48 40 59
REMARK Flexibility Score: inf
ROOT
ATOM      1  C   UNL A   1      50.704  22.050  39.573  1.00  0.00     0.188 C 
ENDROOT
BRANCH   1   2
ATOM      2  O   UNL A   1      51.628  21.620  38.601  1.00  0.00    -0.376 OA
BRANCH   2   3
ATOM      3  C   UNL A   1      51.107  21.078  37.390  1.00  0.00     0.202 C 
BRANCH   3   4
ATOM      4  C   UNL A   1      51.677  21.504  36.026  1.00  0.00     0.261 C 
BRANCH   4   5
ATOM      5  O   UNL A   1      50.655  21.973  35.120  1.00  0.00    -0.463 OA
BRANCH   5   6
ATOM      6  C   UNL A   1      49.943  20.988  34.497  1.00  0.00     0.313 C 
ATOM      7  O   UNL A   1      50.432  19.919  34.145  1.00  0.00    -0.252 OA
BRANCH   6   8
ATOM      8  C   UNL A   1      48.466  21.324  34.290  1.00  0.00     0.126 C 
ATOM      9  C   UNL A   1      48.115  22.815  34.339  1.00  0.00     0.025 C 
BRANCH   8  10
ATOM     10  C   UNL A   1      47.499  20.544  35.183  1.00  0.00    -0.033 A 
ATOM     11  C   UNL A   1      46.616  19.629  34.583  1.00  0.00     0.004 A 
ATOM     12  C   UNL A   1      47.410  20.738  36.576  1.00  0.00     0.016 A 
ATOM     13  C   UNL A   1      45.653  18.958  35.335  1.00  0.00     0.001 A 
ATOM     14  C   UNL A   1      46.438  20.079  37.335  1.00  0.00     0.023 A 
ATOM     15  C   UNL A   1      45.555  19.194  36.705  1.00  0.00     0.012 A 
BRANCH  14  16
ATOM     16  C   UNL A   1      46.388  20.171  38.815  1.00  0.00     0.193 C 
ATOM     17  O   UNL A   1      45.846  21.157  39.304  1.00  0.00    -0.289 OA
BRANCH  16  18
ATOM     18  C   UNL A   1      46.946  19.151  39.742  1.00  0.00     0.022 A 
ATOM     19  C   UNL A   1      48.301  19.226  40.090  1.00  0.00     0.012 A 
ATOM     20  C   UNL A   1      46.232  18.005  40.079  1.00  0.00     0.012 A 
ATOM     21  C   UNL A   1      48.920  18.175  40.780  1.00  0.00     0.001 A 
ATOM     22  C   UNL A   1      46.853  16.958  40.780  1.00  0.00     0.001 A 
ATOM     23  C   UNL A   1      48.194  17.042  41.132  1.00  0.00     0.000 A 
ENDBRANCH  16  18
ENDBRANCH  14  16
ENDBRANCH   8  10
ENDBRANCH   6   8
ENDBRANCH   5   6
ENDBRANCH   4   5
ENDBRANCH   3   4
ENDBRANCH   2   3
ENDBRANCH   1   2
BRANCH   1  24
ATOM     24  C   UNL A   1      50.586  23.562  39.784  1.00  0.00     0.188 C 
BRANCH  24  25
ATOM     25  O   UNL A   1      49.337  24.142  40.098  1.00  0.00    -0.376 OA
BRANCH  25  26
ATOM     26  C   UNL A   1      49.279  25.561  40.079  1.00  0.00     0.202 C 
BRANCH  26  27
ATOM     27  C   UNL A   1      49.530  26.353  38.772  1.00  0.00     0.261 C 
BRANCH  27  28
ATOM     28  O   UNL A   1      48.419  26.942  38.083  1.00  0.00    -0.460 OA
BRANCH  28  29
ATOM     29  C   UNL A   1      47.611  26.128  37.349  1.00  0.00     0.338 C 
ATOM     30  O   UNL A   1      47.754  24.944  37.168  1.00  0.00    -0.246 OA
BRANCH  29  31
ATOM     31  C   UNL A   1      46.424  26.941  36.929  1.00  0.00     0.060 A 
ATOM     32  C   UNL A   1      46.611  28.032  36.072  1.00  0.00     0.016 A 
ATOM     33  C   UNL A   1      45.121  26.584  37.305  1.00  0.00     0.016 A 
ATOM     34  C   UNL A   1      45.498  28.727  35.560  1.00  0.00     0.010 A 
ATOM     35  C   UNL A   1      44.012  27.278  36.791  1.00  0.00     0.010 A 
ATOM     36  C   UNL A   1      44.185  28.358  35.911  1.00  0.00    -0.014 A 
BRANCH  36  37
ATOM     37  C   UNL A   1      43.033  29.240  35.537  1.00  0.00     0.031 A 
ATOM     38  C   UNL A   1      42.289  28.916  34.285  1.00  0.00     0.074 A 
ATOM     39  C   UNL A   1      42.644  30.328  36.233  1.00  0.00     0.049 A 
ATOM     40  N   UNL A   1      41.239  29.505  33.782  1.00  0.00    -0.248 NA
ATOM     41  C   UNL A   1      42.856  27.848  33.450  1.00  0.00     0.031 C 
ATOM     42  C   UNL A   1      43.385  30.897  37.334  1.00  0.00     0.029 A 
ATOM     43  N   UNL A   1      41.528  31.135  36.154  1.00  0.00    -0.354 N 
ATOM     44  C   UNL A   1      41.062  28.934  32.535  1.00  0.00     0.074 A 
ATOM     45  C   UNL A   1      42.106  27.944  32.366  1.00  0.00     0.031 C 
ATOM     46  C   UNL A   1      42.645  31.830  37.952  1.00  0.00     0.029 A 
ATOM     47  C   UNL A   1      41.392  31.993  37.234  1.00  0.00     0.049 A 
ATOM     48  H   UNL A   1      40.892  31.105  35.404  1.00  0.00     0.167 HD
ATOM     49  C   UNL A   1      40.136  29.235  31.598  1.00  0.00     0.031 A 
ATOM     50  C   UNL A   1      40.374  32.804  37.603  1.00  0.00     0.031 A 
ATOM     51  C   UNL A   1      39.126  30.244  31.750  1.00  0.00     0.049 A 
ATOM     52  C   UNL A   1      39.243  32.993  36.623  1.00  0.00     0.074 A 
ATOM     53  C   UNL A   1      38.151  30.625  30.847  1.00  0.00     0.029 A 
ATOM     54  N   UNL A   1      38.958  31.034  32.879  1.00  0.00    -0.354 N 
ATOM     55  N   UNL A   1      39.062  32.413  35.462  1.00  0.00    -0.248 NA
ATOM     56  C   UNL A   1      38.218  33.992  36.962  1.00  0.00     0.031 C 
ATOM     57  C   UNL A   1      37.409  31.665  31.418  1.00  0.00     0.029 A 
ATOM     58  C   UNL A   1      37.887  31.893  32.698  1.00  0.00     0.049 A 
ATOM     59  H   UNL A   1      39.518  30.991  33.687  1.00  0.00     0.167 HD
ATOM     60  C   UNL A   1      37.933  33.006  34.914  1.00  0.00     0.074 A 
ATOM     61  C   UNL A   1      37.428  33.940  35.898  1.00  0.00     0.031 C 
ATOM     62  C   UNL A   1      37.394  32.822  33.684  1.00  0.00     0.031 A 
BRANCH  49  63
ATOM     63  C   UNL A   1      40.247  28.485  30.304  1.00  0.00    -0.014 A 
ATOM     64  C   UNL A   1      39.523  27.299  30.095  1.00  0.00     0.010 A 
ATOM     65  C   UNL A   1      41.144  28.934  29.320  1.00  0.00     0.010 A 
ATOM     66  C   UNL A   1      39.742  26.537  28.948  1.00  0.00     0.020 A 
ATOM     67  C   UNL A   1      41.341  28.191  28.154  1.00  0.00     0.020 A 
ATOM     68  C   UNL A   1      40.656  26.984  27.990  1.00  0.00     0.054 A 
BRANCH  68  69
ATOM     69  S   UNL A   1      40.932  25.967  26.517  1.00  0.00     0.124 S 
ATOM     70  O   UNL A   1      42.066  25.144  26.929  1.00  0.00    -0.237 OA
ATOM     71  O   UNL A   1      39.663  25.259  26.373  1.00  0.00    -0.237 OA
ATOM     72  O   UNL A   1      41.219  26.945  25.470  1.00  0.00    -0.744 OA
ENDBRANCH  68  69
ENDBRANCH  49  63
BRANCH  50  73
ATOM     73  C   UNL A   1      40.355  33.521  38.921  1.00  0.00    -0.014 A 
ATOM     74  C   UNL A   1      39.979  32.833  40.095  1.00  0.00     0.010 A 
ATOM     75  C   UNL A   1      40.662  34.889  39.027  1.00  0.00     0.010 A 
ATOM     76  C   UNL A   1      39.889  33.495  41.327  1.00  0.00     0.020 A 
ATOM     77  C   UNL A   1      40.611  35.548  40.264  1.00  0.00     0.020 A 
ATOM     78  C   UNL A   1      40.208  34.852  41.405  1.00  0.00     0.054 A 
BRANCH  78  79
ATOM     79  S   UNL A   1      40.129  35.694  43.014  1.00  0.00     0.124 S 
ATOM     80  O   UNL A   1      41.096  36.773  42.842  1.00  0.00    -0.237 OA
ATOM     81  O   UNL A   1      38.730  36.109  43.096  1.00  0.00    -0.237 OA
ATOM     82  O   UNL A   1      40.518  34.652  43.963  1.00  0.00    -0.744 OA
ENDBRANCH  78  79
ENDBRANCH  50  73
BRANCH  62  83
ATOM     83  C   UNL A   1      36.184  33.642  33.330  1.00  0.00    -0.014 A 
ATOM     84  C   UNL A   1      36.310  34.858  32.633  1.00  0.00     0.010 A 
ATOM     85  C   UNL A   1      34.902  33.150  33.631  1.00  0.00     0.010 A 
ATOM     86  C   UNL A   1      35.170  35.578  32.261  1.00  0.00     0.020 A 
ATOM     87  C   UNL A   1      33.762  33.855  33.240  1.00  0.00     0.020 A 
ATOM     88  C   UNL A   1      33.903  35.070  32.566  1.00  0.00     0.054 A 
BRANCH  88  89
ATOM     89  S   UNL A   1      32.438  35.990  32.022  1.00  0.00     0.124 S 
ATOM     90  O   UNL A   1      32.656  37.299  32.632  1.00  0.00    -0.237 OA
ATOM     91  O   UNL A   1      32.553  35.948  30.566  1.00  0.00    -0.237 OA
ATOM     92  O   UNL A   1      31.323  35.224  32.574  1.00  0.00    -0.744 OA
ENDBRANCH  88  89
ENDBRANCH  62  83
ENDBRANCH  36  37
ENDBRANCH  29  31
ENDBRANCH  28  29
ENDBRANCH  27  28
ENDBRANCH  26  27
ENDBRANCH  25  26
ENDBRANCH  24  25
ENDBRANCH   1  24
TORSDOF 23
ENDMDL
