MODEL 1
REMARK VINA RESULT:      -9.7      0.000      0.000
REMARK SMILES O=C(OCCOCCOCCOC(=O)[C@@H]1C=C[C@H](NC(=O)C2CCOCC2)C1)c1ccc(-c2c3nc(c(-c4ccc(S(=O)(=O)[O-])cc4)c4ccc([nH]4)c(-c4ccc(S(=O)(=O)[O-])cc4)c4nc(c(-c5ccc(S(=O)(=O)[O-])cc5)c5ccc2[nH]5)C=C4)C=C3)cc1
REMARK SMILES IDX 7 1 6 2 5 3 4 4 3 5 2 6 1 7 29 8 30 9 88 10 31 11 87 12
REMARK SMILES IDX 32 13 33 14 34 15 81 16 35 17 86 18 80 19 82 20 36 21 85 22
REMARK SMILES IDX 79 23 78 24 37 26 67 27 48 28 66 29 49 30 52 31 65 32 83 33
REMARK SMILES IDX 50 34 51 35 64 37 84 38 53 39 38 40 39 41 47 42 40 43 46 44
REMARK SMILES IDX 41 45 42 46 43 47 44 48 45 49 68 50 69 51 77 52 70 53 76 54
REMARK SMILES IDX 71 55 72 56 73 57 74 58 75 59 54 60 55 61 63 62 56 63 62 64
REMARK SMILES IDX 57 65 58 66 59 67 60 68 61 69 8 70 9 71 10 72 11 73 12 74
REMARK SMILES IDX 13 75 14 76 15 77 16 78 28 79 17 80 18 81 19 82 20 83 21 85
REMARK SMILES IDX 22 86 23 87 27 88 24 89 26 90 25 91
REMARK H PARENT 82 25 52 36 19 84
REMARK Flexibility Score: inf
ROOT
ATOM      1  C   UNL A   1      39.449  21.824  26.500  1.00  0.00     0.188 C 
ENDROOT
BRANCH   1   2
ATOM      2  O   UNL A   1      39.767  22.944  27.324  1.00  0.00    -0.376 OA
BRANCH   2   3
ATOM      3  C   UNL A   1      41.159  23.113  27.580  1.00  0.00     0.202 C 
BRANCH   3   4
ATOM      4  C   UNL A   1      41.864  24.019  26.564  1.00  0.00     0.261 C 
BRANCH   4   5
ATOM      5  O   UNL A   1      42.020  25.323  27.138  1.00  0.00    -0.460 OA
BRANCH   5   6
ATOM      6  C   UNL A   1      41.305  26.316  26.569  1.00  0.00     0.338 C 
ATOM      7  O   UNL A   1      41.236  26.552  25.377  1.00  0.00    -0.246 OA
BRANCH   6   8
ATOM      8  C   UNL A   1      40.691  27.118  27.644  1.00  0.00     0.060 A 
ATOM      9  C   UNL A   1      41.114  28.437  27.830  1.00  0.00     0.016 A 
ATOM     10  C   UNL A   1      39.714  26.562  28.473  1.00  0.00     0.016 A 
ATOM     11  C   UNL A   1      40.595  29.193  28.868  1.00  0.00     0.010 A 
ATOM     12  C   UNL A   1      39.165  27.329  29.504  1.00  0.00     0.010 A 
ATOM     13  C   UNL A   1      39.672  28.616  29.748  1.00  0.00    -0.014 A 
BRANCH  13  14
ATOM     14  C   UNL A   1      39.606  29.214  31.099  1.00  0.00     0.031 A 
ATOM     15  C   UNL A   1      40.758  28.899  32.019  1.00  0.00     0.074 A 
ATOM     16  C   UNL A   1      38.687  30.142  31.411  1.00  0.00     0.049 A 
ATOM     17  N   UNL A   1      41.091  29.458  33.150  1.00  0.00    -0.248 NA
ATOM     18  C   UNL A   1      41.683  27.834  31.585  1.00  0.00     0.031 C 
ATOM     19  C   UNL A   1      37.587  30.569  30.546  1.00  0.00     0.029 A 
ATOM     20  N   UNL A   1      38.557  30.926  32.528  1.00  0.00    -0.354 N 
ATOM     21  C   UNL A   1      42.266  28.825  33.544  1.00  0.00     0.074 A 
ATOM     22  C   UNL A   1      42.566  27.811  32.566  1.00  0.00     0.031 C 
ATOM     23  C   UNL A   1      36.900  31.548  31.161  1.00  0.00     0.029 A 
ATOM     24  C   UNL A   1      37.513  31.818  32.459  1.00  0.00     0.049 A 
ATOM     25  H   UNL A   1      39.157  30.857  33.306  1.00  0.00     0.167 HD
ATOM     26  C   UNL A   1      43.045  29.080  34.617  1.00  0.00     0.031 A 
ATOM     27  C   UNL A   1      37.120  32.756  33.342  1.00  0.00     0.031 A 
ATOM     28  C   UNL A   1      42.716  30.065  35.603  1.00  0.00     0.049 A 
ATOM     29  C   UNL A   1      37.953  32.960  34.582  1.00  0.00     0.074 A 
ATOM     30  C   UNL A   1      43.389  30.383  36.767  1.00  0.00     0.029 A 
ATOM     31  N   UNL A   1      41.601  30.887  35.536  1.00  0.00    -0.354 N 
ATOM     32  N   UNL A   1      39.067  32.361  34.932  1.00  0.00    -0.248 NA
ATOM     33  C   UNL A   1      37.492  33.982  35.530  1.00  0.00     0.031 C 
ATOM     34  C   UNL A   1      42.651  31.370  37.428  1.00  0.00     0.029 A 
ATOM     35  C   UNL A   1      41.552  31.703  36.647  1.00  0.00     0.049 A 
ATOM     36  H   UNL A   1      40.942  30.889  34.804  1.00  0.00     0.167 HD
ATOM     37  C   UNL A   1      39.461  32.955  36.126  1.00  0.00     0.074 A 
ATOM     38  C   UNL A   1      38.467  33.968  36.430  1.00  0.00     0.031 C 
ATOM     39  C   UNL A   1      40.543  32.699  36.902  1.00  0.00     0.031 A 
BRANCH  26  40
ATOM     40  C   UNL A   1      44.273  28.228  34.780  1.00  0.00    -0.014 A 
ATOM     41  C   UNL A   1      45.488  28.574  34.156  1.00  0.00     0.010 A 
ATOM     42  C   UNL A   1      44.195  27.032  35.512  1.00  0.00     0.010 A 
ATOM     43  C   UNL A   1      46.587  27.713  34.224  1.00  0.00     0.020 A 
ATOM     44  C   UNL A   1      45.299  26.180  35.602  1.00  0.00     0.020 A 
ATOM     45  C   UNL A   1      46.481  26.516  34.940  1.00  0.00     0.054 A 
BRANCH  45  46
ATOM     46  S   UNL A   1      47.917  25.410  35.007  1.00  0.00     0.124 S 
ATOM     47  O   UNL A   1      47.964  25.063  36.426  1.00  0.00    -0.237 OA
ATOM     48  O   UNL A   1      47.531  24.324  34.109  1.00  0.00    -0.237 OA
ATOM     49  O   UNL A   1      49.019  26.243  34.533  1.00  0.00    -0.744 OA
ENDBRANCH  45  46
ENDBRANCH  26  40
BRANCH  27  50
ATOM     50  C   UNL A   1      35.904  33.578  33.078  1.00  0.00    -0.014 A 
ATOM     51  C   UNL A   1      36.004  34.887  32.577  1.00  0.00     0.010 A 
ATOM     52  C   UNL A   1      34.627  33.044  33.332  1.00  0.00     0.010 A 
ATOM     53  C   UNL A   1      34.853  35.652  32.350  1.00  0.00     0.020 A 
ATOM     54  C   UNL A   1      33.473  33.796  33.086  1.00  0.00     0.020 A 
ATOM     55  C   UNL A   1      33.594  35.100  32.607  1.00  0.00     0.054 A 
BRANCH  55  56
ATOM     56  S   UNL A   1      32.112  36.089  32.259  1.00  0.00     0.124 S 
ATOM     57  O   UNL A   1      31.038  35.164  32.610  1.00  0.00    -0.237 OA
ATOM     58  O   UNL A   1      32.280  37.233  33.152  1.00  0.00    -0.237 OA
ATOM     59  O   UNL A   1      32.233  36.398  30.836  1.00  0.00    -0.744 OA
ENDBRANCH  55  56
ENDBRANCH  27  50
BRANCH  39  60
ATOM     60  C   UNL A   1      40.726  33.551  38.125  1.00  0.00    -0.014 A 
ATOM     61  C   UNL A   1      41.469  34.743  38.075  1.00  0.00     0.010 A 
ATOM     62  C   UNL A   1      40.083  33.182  39.321  1.00  0.00     0.010 A 
ATOM     63  C   UNL A   1      41.595  35.536  39.216  1.00  0.00     0.020 A 
ATOM     64  C   UNL A   1      40.184  33.988  40.454  1.00  0.00     0.020 A 
ATOM     65  C   UNL A   1      40.954  35.152  40.399  1.00  0.00     0.054 A 
BRANCH  65  66
ATOM     66  S   UNL A   1      41.099  36.219  41.857  1.00  0.00     0.124 S 
ATOM     67  O   UNL A   1      41.449  35.259  42.899  1.00  0.00    -0.237 OA
ATOM     68  O   UNL A   1      42.160  37.147  41.475  1.00  0.00    -0.237 OA
ATOM     69  O   UNL A   1      39.771  36.818  41.979  1.00  0.00    -0.744 OA
ENDBRANCH  65  66
ENDBRANCH  39  60
ENDBRANCH  13  14
ENDBRANCH   6   8
ENDBRANCH   5   6
ENDBRANCH   4   5
ENDBRANCH   3   4
ENDBRANCH   2   3
ENDBRANCH   1   2
BRANCH   1  70
ATOM     70  C   UNL A   1      38.395  22.247  25.466  1.00  0.00     0.188 C 
BRANCH  70  71
ATOM     71  O   UNL A   1      37.063  22.305  25.975  1.00  0.00    -0.376 OA
BRANCH  71  72
ATOM     72  C   UNL A   1      36.513  23.614  26.107  1.00  0.00     0.202 C 
BRANCH  72  73
ATOM     73  C   UNL A   1      35.545  24.095  25.015  1.00  0.00     0.261 C 
BRANCH  73  74
ATOM     74  O   UNL A   1      35.442  23.321  23.800  1.00  0.00    -0.463 OA
BRANCH  74  75
ATOM     75  C   UNL A   1      34.351  22.498  23.752  1.00  0.00     0.312 C 
ATOM     76  O   UNL A   1      34.282  21.432  24.358  1.00  0.00    -0.252 OA
BRANCH  75  77
ATOM     77  C   UNL A   1      33.302  22.934  22.711  1.00  0.00     0.124 C 
ATOM     78  C   UNL A   1      33.115  24.393  22.423  1.00  0.00    -0.014 C 
ATOM     79  C   UNL A   1      31.877  22.503  23.123  1.00  0.00     0.048 C 
ATOM     80  C   UNL A   1      31.898  24.841  22.769  1.00  0.00    -0.006 C 
ATOM     81  C   UNL A   1      31.051  23.781  23.364  1.00  0.00     0.106 C 
BRANCH  81  82
ATOM     82  N   UNL A   1      30.679  23.921  24.777  1.00  0.00    -0.350 N 
ATOM     83  C   UNL A   1      30.821  24.816  25.791  1.00  0.00     0.223 C 
ATOM     84  H   UNL A   1      30.177  23.131  25.081  1.00  0.00     0.164 HD
ATOM     85  O   UNL A   1      30.347  24.503  26.886  1.00  0.00    -0.275 OA
BRANCH  83  86
ATOM     86  C   UNL A   1      31.490  26.153  25.584  1.00  0.00     0.083 C 
ATOM     87  C   UNL A   1      32.977  26.075  25.849  1.00  0.00     0.042 C 
ATOM     88  C   UNL A   1      31.000  27.289  26.504  1.00  0.00     0.042 C 
ATOM     89  C   UNL A   1      33.605  27.279  25.184  1.00  0.00     0.161 C 
ATOM     90  C   UNL A   1      32.005  28.457  26.511  1.00  0.00     0.161 C 
ATOM     91  O   UNL A   1      32.788  28.452  25.320  1.00  0.00    -0.381 OA
ENDBRANCH  83  86
ENDBRANCH  81  82
ENDBRANCH  75  77
ENDBRANCH  74  75
ENDBRANCH  73  74
ENDBRANCH  72  73
ENDBRANCH  71  72
ENDBRANCH  70  71
ENDBRANCH   1  70
TORSDOF 22
ENDMDL
MODEL 2
REMARK VINA RESULT:      -9.5      2.052      2.809
REMARK SMILES O=C(OCCOCCOCCOC(=O)[C@@H]1C=C[C@H](NC(=O)C2CCOCC2)C1)c1ccc(-c2c3nc(c(-c4ccc(S(=O)(=O)[O-])cc4)c4ccc([nH]4)c(-c4ccc(S(=O)(=O)[O-])cc4)c4nc(c(-c5ccc(S(=O)(=O)[O-])cc5)c5ccc2[nH]5)C=C4)C=C3)cc1
REMARK SMILES IDX 7 1 6 2 5 3 4 4 3 5 2 6 1 7 29 8 30 9 88 10 31 11 87 12
REMARK SMILES IDX 32 13 33 14 34 15 81 16 35 17 86 18 80 19 82 20 36 21 85 22
REMARK SMILES IDX 79 23 78 24 37 26 67 27 48 28 66 29 49 30 52 31 65 32 83 33
REMARK SMILES IDX 50 34 51 35 64 37 84 38 53 39 38 40 39 41 47 42 40 43 46 44
REMARK SMILES IDX 41 45 42 46 43 47 44 48 45 49 68 50 69 51 77 52 70 53 76 54
REMARK SMILES IDX 71 55 72 56 73 57 74 58 75 59 54 60 55 61 63 62 56 63 62 64
REMARK SMILES IDX 57 65 58 66 59 67 60 68 61 69 8 70 9 71 10 72 11 73 12 74
REMARK SMILES IDX 13 75 14 76 15 77 16 78 28 79 17 80 18 81 19 82 20 83 21 85
REMARK SMILES IDX 22 86 23 87 27 88 24 89 26 90 25 91
REMARK H PARENT 82 25 52 36 19 84
REMARK Flexibility Score: inf
ROOT
ATOM      1  C   UNL A   1      40.265  21.888  26.497  1.00  0.00     0.188 C 
ENDROOT
BRANCH   1   2
ATOM      2  O   UNL A   1      41.010  23.094  26.336  1.00  0.00    -0.376 OA
BRANCH   2   3
ATOM      3  C   UNL A   1      42.398  22.901  26.077  1.00  0.00     0.202 C 
BRANCH   3   4
ATOM      4  C   UNL A   1      43.003  23.965  25.154  1.00  0.00     0.261 C 
BRANCH   4   5
ATOM      5  O   UNL A   1      43.369  25.106  25.940  1.00  0.00    -0.460 OA
BRANCH   5   6
ATOM      6  C   UNL A   1      42.475  26.116  25.980  1.00  0.00     0.338 C 
ATOM      7  O   UNL A   1      41.858  26.559  25.029  1.00  0.00    -0.246 OA
BRANCH   6   8
ATOM      8  C   UNL A   1      42.439  26.648  27.355  1.00  0.00     0.060 A 
ATOM      9  C   UNL A   1      41.671  25.985  28.317  1.00  0.00     0.016 A 
ATOM     10  C   UNL A   1      43.147  27.805  27.686  1.00  0.00     0.016 A 
ATOM     11  C   UNL A   1      41.575  26.495  29.601  1.00  0.00     0.010 A 
ATOM     12  C   UNL A   1      43.076  28.309  28.987  1.00  0.00     0.010 A 
ATOM     13  C   UNL A   1      42.220  27.696  29.916  1.00  0.00    -0.014 A 
BRANCH  13  14
ATOM     14  C   UNL A   1      41.639  28.467  31.037  1.00  0.00     0.031 A 
ATOM     15  C   UNL A   1      42.432  28.472  32.319  1.00  0.00     0.074 A 
ATOM     16  C   UNL A   1      40.582  29.277  30.858  1.00  0.00     0.049 A 
ATOM     17  N   UNL A   1      42.303  29.235  33.370  1.00  0.00    -0.248 NA
ATOM     18  C   UNL A   1      43.549  27.511  32.412  1.00  0.00     0.031 C 
ATOM     19  C   UNL A   1      39.807  29.397  29.623  1.00  0.00     0.029 A 
ATOM     20  N   UNL A   1      40.004  30.185  31.705  1.00  0.00    -0.354 N 
ATOM     21  C   UNL A   1      43.330  28.856  34.229  1.00  0.00     0.074 A 
ATOM     22  C   UNL A   1      44.042  27.769  33.609  1.00  0.00     0.031 C 
ATOM     23  C   UNL A   1      38.860  30.337  29.789  1.00  0.00     0.029 A 
ATOM     24  C   UNL A   1      38.964  30.885  31.139  1.00  0.00     0.049 A 
ATOM     25  H   UNL A   1      40.305  30.324  32.632  1.00  0.00     0.167 HD
ATOM     26  C   UNL A   1      43.666  29.382  35.427  1.00  0.00     0.031 A 
ATOM     27  C   UNL A   1      38.204  31.870  31.656  1.00  0.00     0.031 A 
ATOM     28  C   UNL A   1      42.927  30.437  36.051  1.00  0.00     0.049 A 
ATOM     29  C   UNL A   1      38.539  32.379  33.034  1.00  0.00     0.074 A 
ATOM     30  C   UNL A   1      43.128  31.022  37.286  1.00  0.00     0.029 A 
ATOM     31  N   UNL A   1      41.828  31.058  35.477  1.00  0.00    -0.354 N 
ATOM     32  N   UNL A   1      39.520  32.017  33.829  1.00  0.00    -0.248 NA
ATOM     33  C   UNL A   1      37.685  33.444  33.575  1.00  0.00     0.031 C 
ATOM     34  C   UNL A   1      42.116  31.969  37.478  1.00  0.00     0.029 A 
ATOM     35  C   UNL A   1      41.323  32.010  36.339  1.00  0.00     0.049 A 
ATOM     36  H   UNL A   1      41.461  30.851  34.586  1.00  0.00     0.167 HD
ATOM     37  C   UNL A   1      39.423  32.833  34.951  1.00  0.00     0.074 A 
ATOM     38  C   UNL A   1      38.292  33.712  34.724  1.00  0.00     0.031 C 
ATOM     39  C   UNL A   1      40.195  32.864  36.066  1.00  0.00     0.031 A 
BRANCH  26  40
ATOM     40  C   UNL A   1      44.843  28.764  36.131  1.00  0.00    -0.014 A 
ATOM     41  C   UNL A   1      44.676  27.680  37.015  1.00  0.00     0.010 A 
ATOM     42  C   UNL A   1      46.123  29.316  35.957  1.00  0.00     0.010 A 
ATOM     43  C   UNL A   1      45.762  27.193  37.748  1.00  0.00     0.020 A 
ATOM     44  C   UNL A   1      47.215  28.815  36.669  1.00  0.00     0.020 A 
ATOM     45  C   UNL A   1      47.023  27.770  37.576  1.00  0.00     0.054 A 
BRANCH  45  46
ATOM     46  S   UNL A   1      48.417  27.128  38.543  1.00  0.00     0.124 S 
ATOM     47  O   UNL A   1      48.537  25.765  38.031  1.00  0.00    -0.237 OA
ATOM     48  O   UNL A   1      49.506  28.032  38.181  1.00  0.00    -0.237 OA
ATOM     49  O   UNL A   1      47.957  27.235  39.925  1.00  0.00    -0.744 OA
ENDBRANCH  45  46
ENDBRANCH  26  40
BRANCH  27  50
ATOM     50  C   UNL A   1      37.077  32.446  30.868  1.00  0.00    -0.014 A 
ATOM     51  C   UNL A   1      35.749  32.045  31.095  1.00  0.00     0.010 A 
ATOM     52  C   UNL A   1      37.335  33.408  29.873  1.00  0.00     0.010 A 
ATOM     53  C   UNL A   1      34.704  32.583  30.334  1.00  0.00     0.020 A 
ATOM     54  C   UNL A   1      36.292  33.965  29.126  1.00  0.00     0.020 A 
ATOM     55  C   UNL A   1      34.983  33.540  29.353  1.00  0.00     0.054 A 
BRANCH  55  56
ATOM     56  S   UNL A   1      33.609  34.263  28.411  1.00  0.00     0.124 S 
ATOM     57  O   UNL A   1      32.691  34.665  29.472  1.00  0.00    -0.237 OA
ATOM     58  O   UNL A   1      34.261  35.353  27.689  1.00  0.00    -0.237 OA
ATOM     59  O   UNL A   1      33.153  33.156  27.572  1.00  0.00    -0.744 OA
ENDBRANCH  55  56
ENDBRANCH  27  50
BRANCH  39  60
ATOM     60  C   UNL A   1      39.866  33.902  37.098  1.00  0.00    -0.014 A 
ATOM     61  C   UNL A   1      39.119  33.577  38.244  1.00  0.00     0.010 A 
ATOM     62  C   UNL A   1      40.376  35.205  36.948  1.00  0.00     0.010 A 
ATOM     63  C   UNL A   1      38.857  34.551  39.208  1.00  0.00     0.020 A 
ATOM     64  C   UNL A   1      40.138  36.173  37.924  1.00  0.00     0.020 A 
ATOM     65  C   UNL A   1      39.366  35.843  39.040  1.00  0.00     0.054 A 
BRANCH  65  66
ATOM     66  S   UNL A   1      39.047  37.082  40.324  1.00  0.00     0.124 S 
ATOM     67  O   UNL A   1      38.114  36.376  41.198  1.00  0.00    -0.237 OA
ATOM     68  O   UNL A   1      40.375  37.318  40.883  1.00  0.00    -0.237 OA
ATOM     69  O   UNL A   1      38.480  38.208  39.585  1.00  0.00    -0.744 OA
ENDBRANCH  65  66
ENDBRANCH  39  60
ENDBRANCH  13  14
ENDBRANCH   6   8
ENDBRANCH   5   6
ENDBRANCH   4   5
ENDBRANCH   3   4
ENDBRANCH   2   3
ENDBRANCH   1   2
BRANCH   1  70
ATOM     70  C   UNL A   1      38.777  22.182  26.259  1.00  0.00     0.188 C 
BRANCH  70  71
ATOM     71  O   UNL A   1      38.292  21.761  24.984  1.00  0.00    -0.376 OA
BRANCH  71  72
ATOM     72  C   UNL A   1      37.535  20.552  24.984  1.00  0.00     0.202 C 
BRANCH  72  73
ATOM     73  C   UNL A   1      36.003  20.671  24.973  1.00  0.00     0.261 C 
BRANCH  73  74
ATOM     74  O   UNL A   1      35.340  21.110  26.179  1.00  0.00    -0.463 OA
BRANCH  74  75
ATOM     75  C   UNL A   1      34.210  21.847  25.959  1.00  0.00     0.312 C 
ATOM     76  O   UNL A   1      33.098  21.514  26.358  1.00  0.00    -0.252 OA
BRANCH  75  77
ATOM     77  C   UNL A   1      34.429  23.029  24.993  1.00  0.00     0.124 C 
ATOM     78  C   UNL A   1      34.894  24.346  25.537  1.00  0.00    -0.014 C 
ATOM     79  C   UNL A   1      33.122  23.423  24.270  1.00  0.00     0.048 C 
ATOM     80  C   UNL A   1      33.989  25.324  25.377  1.00  0.00    -0.006 C 
ATOM     81  C   UNL A   1      32.750  24.850  24.716  1.00  0.00     0.106 C 
BRANCH  81  82
ATOM     82  N   UNL A   1      31.513  24.861  25.504  1.00  0.00    -0.350 N 
ATOM     83  C   UNL A   1      30.454  25.681  25.741  1.00  0.00     0.223 C 
ATOM     84  H   UNL A   1      31.422  24.024  26.014  1.00  0.00     0.164 HD
ATOM     85  O   UNL A   1      29.601  25.281  26.538  1.00  0.00    -0.275 OA
BRANCH  83  86
ATOM     86  C   UNL A   1      30.300  27.004  25.032  1.00  0.00     0.083 C 
ATOM     87  C   UNL A   1      29.975  26.813  23.568  1.00  0.00     0.042 C 
ATOM     88  C   UNL A   1      31.552  27.904  25.027  1.00  0.00     0.042 C 
ATOM     89  C   UNL A   1      29.393  28.118  23.074  1.00  0.00     0.161 C 
ATOM     90  C   UNL A   1      31.433  29.000  23.952  1.00  0.00     0.161 C 
ATOM     91  O   UNL A   1      30.063  29.252  23.643  1.00  0.00    -0.381 OA
ENDBRANCH  83  86
ENDBRANCH  81  82
ENDBRANCH  75  77
ENDBRANCH  74  75
ENDBRANCH  73  74
ENDBRANCH  72  73
ENDBRANCH  71  72
ENDBRANCH  70  71
ENDBRANCH   1  70
TORSDOF 22
ENDMDL
MODEL 3
REMARK VINA RESULT:      -9.2      6.662     11.583
REMARK SMILES O=C(OCCOCCOCCOC(=O)[C@@H]1C=C[C@H](NC(=O)C2CCOCC2)C1)c1ccc(-c2c3nc(c(-c4ccc(S(=O)(=O)[O-])cc4)c4ccc([nH]4)c(-c4ccc(S(=O)(=O)[O-])cc4)c4nc(c(-c5ccc(S(=O)(=O)[O-])cc5)c5ccc2[nH]5)C=C4)C=C3)cc1
REMARK SMILES IDX 7 1 6 2 5 3 4 4 3 5 2 6 1 7 29 8 30 9 88 10 31 11 87 12
REMARK SMILES IDX 32 13 33 14 34 15 81 16 35 17 86 18 80 19 82 20 36 21 85 22
REMARK SMILES IDX 79 23 78 24 37 26 67 27 48 28 66 29 49 30 52 31 65 32 83 33
REMARK SMILES IDX 50 34 51 35 64 37 84 38 53 39 38 40 39 41 47 42 40 43 46 44
REMARK SMILES IDX 41 45 42 46 43 47 44 48 45 49 68 50 69 51 77 52 70 53 76 54
REMARK SMILES IDX 71 55 72 56 73 57 74 58 75 59 54 60 55 61 63 62 56 63 62 64
REMARK SMILES IDX 57 65 58 66 59 67 60 68 61 69 8 70 9 71 10 72 11 73 12 74
REMARK SMILES IDX 13 75 14 76 15 77 16 78 28 79 17 80 18 81 19 82 20 83 21 85
REMARK SMILES IDX 22 86 23 87 27 88 24 89 26 90 25 91
REMARK H PARENT 82 25 52 36 19 84
REMARK Flexibility Score: inf
ROOT
ATOM      1  C   UNL A   1      40.321  19.838  26.249  1.00  0.00     0.188 C 
ENDROOT
BRANCH   1   2
ATOM      2  O   UNL A   1      41.464  19.449  25.489  1.00  0.00    -0.376 OA
BRANCH   2   3
ATOM      3  C   UNL A   1      42.561  18.981  26.268  1.00  0.00     0.202 C 
BRANCH   3   4
ATOM      4  C   UNL A   1      43.712  18.414  25.429  1.00  0.00     0.261 C 
BRANCH   4   5
ATOM      5  O   UNL A   1      44.738  19.408  25.319  1.00  0.00    -0.460 OA
BRANCH   5   6
ATOM      6  C   UNL A   1      44.576  20.330  24.348  1.00  0.00     0.338 C 
ATOM      7  O   UNL A   1      44.529  20.105  23.153  1.00  0.00    -0.246 OA
BRANCH   6   8
ATOM      8  C   UNL A   1      44.552  21.665  24.975  1.00  0.00     0.060 A 
ATOM      9  C   UNL A   1      44.048  22.746  24.247  1.00  0.00     0.016 A 
ATOM     10  C   UNL A   1      45.041  21.847  26.270  1.00  0.00     0.016 A 
ATOM     11  C   UNL A   1      44.066  24.019  24.791  1.00  0.00     0.010 A 
ATOM     12  C   UNL A   1      45.036  23.125  26.836  1.00  0.00     0.010 A 
ATOM     13  C   UNL A   1      44.626  24.220  26.058  1.00  0.00    -0.014 A 
BRANCH  13  14
ATOM     14  C   UNL A   1      45.142  25.580  26.329  1.00  0.00     0.031 A 
ATOM     15  C   UNL A   1      44.298  26.439  27.237  1.00  0.00     0.074 A 
ATOM     16  C   UNL A   1      46.380  25.947  25.959  1.00  0.00     0.049 A 
ATOM     17  N   UNL A   1      44.602  27.558  27.834  1.00  0.00    -0.248 NA
ATOM     18  C   UNL A   1      42.941  25.947  27.543  1.00  0.00     0.031 C 
ATOM     19  C   UNL A   1      47.296  25.142  25.152  1.00  0.00     0.029 A 
ATOM     20  N   UNL A   1      47.097  27.077  26.251  1.00  0.00    -0.354 N 
ATOM     21  C   UNL A   1      43.483  27.886  28.595  1.00  0.00     0.074 A 
ATOM     22  C   UNL A   1      42.479  26.884  28.351  1.00  0.00     0.031 C 
ATOM     23  C   UNL A   1      48.462  25.801  25.022  1.00  0.00     0.029 A 
ATOM     24  C   UNL A   1      48.373  27.070  25.740  1.00  0.00     0.049 A 
ATOM     25  H   UNL A   1      46.732  27.825  26.779  1.00  0.00     0.167 HD
ATOM     26  C   UNL A   1      43.312  28.923  29.443  1.00  0.00     0.031 A 
ATOM     27  C   UNL A   1      49.357  27.982  25.862  1.00  0.00     0.031 A 
ATOM     28  C   UNL A   1      44.304  29.934  29.648  1.00  0.00     0.049 A 
ATOM     29  C   UNL A   1      49.111  29.181  26.741  1.00  0.00     0.074 A 
ATOM     30  C   UNL A   1      44.236  31.067  30.435  1.00  0.00     0.029 A 
ATOM     31  N   UNL A   1      45.552  29.931  29.041  1.00  0.00    -0.354 N 
ATOM     32  N   UNL A   1      48.051  29.470  27.461  1.00  0.00    -0.248 NA
ATOM     33  C   UNL A   1      50.198  30.163  26.844  1.00  0.00     0.031 C 
ATOM     34  C   UNL A   1      45.430  31.775  30.267  1.00  0.00     0.029 A 
ATOM     35  C   UNL A   1      46.260  31.053  29.420  1.00  0.00     0.049 A 
ATOM     36  H   UNL A   1      45.883  29.233  28.431  1.00  0.00     0.167 HD
ATOM     37  C   UNL A   1      48.356  30.650  28.131  1.00  0.00     0.074 A 
ATOM     38  C   UNL A   1      49.704  31.013  27.735  1.00  0.00     0.031 C 
ATOM     39  C   UNL A   1      47.602  31.369  28.999  1.00  0.00     0.031 A 
BRANCH  26  40
ATOM     40  C   UNL A   1      41.983  29.015  30.140  1.00  0.00    -0.014 A 
ATOM     41  C   UNL A   1      41.734  28.307  31.332  1.00  0.00     0.010 A 
ATOM     42  C   UNL A   1      40.948  29.768  29.561  1.00  0.00     0.010 A 
ATOM     43  C   UNL A   1      40.459  28.314  31.904  1.00  0.00     0.020 A 
ATOM     44  C   UNL A   1      39.678  29.796  30.143  1.00  0.00     0.020 A 
ATOM     45  C   UNL A   1      39.437  29.052  31.300  1.00  0.00     0.054 A 
BRANCH  45  46
ATOM     46  S   UNL A   1      37.787  29.039  32.054  1.00  0.00     0.124 S 
ATOM     47  O   UNL A   1      37.844  27.836  32.882  1.00  0.00    -0.237 OA
ATOM     48  O   UNL A   1      37.757  30.303  32.786  1.00  0.00    -0.237 OA
ATOM     49  O   UNL A   1      36.884  28.964  30.909  1.00  0.00    -0.744 OA
ENDBRANCH  45  46
ENDBRANCH  26  40
BRANCH  27  50
ATOM     50  C   UNL A   1      50.657  27.787  25.159  1.00  0.00    -0.014 A 
ATOM     51  C   UNL A   1      50.910  28.391  23.915  1.00  0.00     0.010 A 
ATOM     52  C   UNL A   1      51.658  26.985  25.740  1.00  0.00     0.010 A 
ATOM     53  C   UNL A   1      52.130  28.184  23.258  1.00  0.00     0.020 A 
ATOM     54  C   UNL A   1      52.886  26.794  25.099  1.00  0.00     0.020 A 
ATOM     55  C   UNL A   1      53.110  27.386  23.856  1.00  0.00     0.054 A 
BRANCH  55  56
ATOM     56  S   UNL A   1      54.704  27.171  23.013  1.00  0.00     0.124 S 
ATOM     57  O   UNL A   1      54.313  26.467  21.796  1.00  0.00    -0.237 OA
ATOM     58  O   UNL A   1      55.154  28.549  22.832  1.00  0.00    -0.237 OA
ATOM     59  O   UNL A   1      55.490  26.389  23.966  1.00  0.00    -0.744 OA
ENDBRANCH  55  56
ENDBRANCH  27  50
BRANCH  39  60
ATOM     60  C   UNL A   1      48.231  32.591  29.604  1.00  0.00    -0.014 A 
ATOM     61  C   UNL A   1      48.090  33.853  29.002  1.00  0.00     0.010 A 
ATOM     62  C   UNL A   1      48.912  32.477  30.830  1.00  0.00     0.010 A 
ATOM     63  C   UNL A   1      48.653  34.980  29.602  1.00  0.00     0.020 A 
ATOM     64  C   UNL A   1      49.451  33.607  31.445  1.00  0.00     0.020 A 
ATOM     65  C   UNL A   1      49.332  34.849  30.818  1.00  0.00     0.054 A 
BRANCH  65  66
ATOM     66  S   UNL A   1      50.021  36.333  31.599  1.00  0.00     0.124 S 
ATOM     67  O   UNL A   1      49.750  36.083  33.012  1.00  0.00    -0.237 OA
ATOM     68  O   UNL A   1      51.427  36.280  31.210  1.00  0.00    -0.237 OA
ATOM     69  O   UNL A   1      49.255  37.425  31.000  1.00  0.00    -0.744 OA
ENDBRANCH  65  66
ENDBRANCH  39  60
ENDBRANCH  13  14
ENDBRANCH   6   8
ENDBRANCH   5   6
ENDBRANCH   4   5
ENDBRANCH   3   4
ENDBRANCH   2   3
ENDBRANCH   1   2
BRANCH   1  70
ATOM     70  C   UNL A   1      40.227  21.370  26.265  1.00  0.00     0.188 C 
BRANCH  70  71
ATOM     71  O   UNL A   1      38.899  21.876  26.402  1.00  0.00    -0.376 OA
BRANCH  71  72
ATOM     72  C   UNL A   1      38.683  23.184  25.879  1.00  0.00     0.202 C 
BRANCH  72  73
ATOM     73  C   UNL A   1      37.317  23.839  26.135  1.00  0.00     0.261 C 
BRANCH  73  74
ATOM     74  O   UNL A   1      36.435  24.049  25.011  1.00  0.00    -0.463 OA
BRANCH  74  75
ATOM     75  C   UNL A   1      35.596  23.001  24.754  1.00  0.00     0.312 C 
ATOM     76  O   UNL A   1      35.556  22.416  23.676  1.00  0.00    -0.252 OA
BRANCH  75  77
ATOM     77  C   UNL A   1      34.567  22.753  25.875  1.00  0.00     0.124 C 
ATOM     78  C   UNL A   1      34.613  21.467  26.643  1.00  0.00    -0.014 C 
ATOM     79  C   UNL A   1      33.122  22.751  25.331  1.00  0.00     0.048 C 
ATOM     80  C   UNL A   1      33.517  20.714  26.464  1.00  0.00    -0.006 C 
ATOM     81  C   UNL A   1      32.544  21.338  25.536  1.00  0.00     0.106 C 
BRANCH  81  82
ATOM     82  N   UNL A   1      32.300  20.667  24.254  1.00  0.00    -0.350 N 
ATOM     83  C   UNL A   1      32.525  19.459  23.669  1.00  0.00     0.223 C 
ATOM     84  H   UNL A   1      31.835  21.270  23.632  1.00  0.00     0.164 HD
ATOM     85  O   UNL A   1      32.154  19.324  22.500  1.00  0.00    -0.275 OA
BRANCH  83  86
ATOM     86  C   UNL A   1      33.160  18.317  24.423  1.00  0.00     0.083 C 
ATOM     87  C   UNL A   1      33.794  17.317  23.481  1.00  0.00     0.042 C 
ATOM     88  C   UNL A   1      32.197  17.470  25.280  1.00  0.00     0.042 C 
ATOM     89  C   UNL A   1      34.771  16.503  24.299  1.00  0.00     0.161 C 
ATOM     90  C   UNL A   1      32.840  16.122  25.653  1.00  0.00     0.161 C 
ATOM     91  O   UNL A   1      34.262  16.215  25.610  1.00  0.00    -0.381 OA
ENDBRANCH  83  86
ENDBRANCH  81  82
ENDBRANCH  75  77
ENDBRANCH  74  75
ENDBRANCH  73  74
ENDBRANCH  72  73
ENDBRANCH  71  72
ENDBRANCH  70  71
ENDBRANCH   1  70
TORSDOF 22
ENDMDL
