MODEL 1
REMARK VINA RESULT:      -9.0      0.000      0.000
REMARK SMILES CC(C)[C@H](NC(=O)[C@H]1CC(=O)N(c2ccc(F)cc2)C1)C(=O)N1CCC[C@@H]1C(=O)OCCOCCOCCOC(=O)c1ccc(-c2c3nc(c(-c4ccc(S(=O)(=O)[O-])cc4)c4ccc([nH]4)c(-c4ccc(S(=O)(=O)[O-])cc4)c4nc(c(-c5ccc(S(=O)(=O)[O-])cc5)c5ccc2[nH]5)C=C4)C=C3)cc1
REMARK SMILES IDX 34 1 33 2 32 3 31 4 30 5 28 6 29 7 27 8 23 9 24 10 25 11
REMARK SMILES IDX 26 12 21 13 22 14 4 15 2 16 1 17 3 18 5 19 6 20 7 22 8 23
REMARK SMILES IDX 9 24 20 25 10 26 12 27 11 28 13 29 14 30 19 31 15 32 18 33
REMARK SMILES IDX 16 34 17 35 35 36 36 37 37 38 38 39 39 40 40 41 41 42 42 43
REMARK SMILES IDX 43 44 101 45 44 46 100 47 45 48 46 49 47 50 94 51 48 52
REMARK SMILES IDX 99 53 93 54 95 55 49 56 98 57 92 58 91 59 50 61 80 62 61 63
REMARK SMILES IDX 79 64 62 65 65 66 78 67 96 68 63 69 64 70 77 72 97 73 66 74
REMARK SMILES IDX 51 75 52 76 60 77 53 78 59 79 54 80 55 81 56 82 57 83 58 84
REMARK SMILES IDX 81 85 82 86 90 87 83 88 89 89 84 90 85 91 86 92 87 93 88 94
REMARK SMILES IDX 67 95 68 96 76 97 69 98 75 99 70 100 71 101 72 102 73 103
REMARK SMILES IDX 74 104
REMARK H PARENT 5 21 95 60 65 71
REMARK Flexibility Score: inf
ROOT
ATOM      1  C   UNL A   1      39.526  22.770  26.638  1.00  0.00     0.188 C 
ENDROOT
BRANCH   1   2
ATOM      2  O   UNL A   1      38.275  23.214  26.133  1.00  0.00    -0.376 OA
BRANCH   2   3
ATOM      3  C   UNL A   1      37.555  22.332  25.281  1.00  0.00     0.202 C 
BRANCH   3   4
ATOM      4  C   UNL A   1      36.037  22.207  25.454  1.00  0.00     0.261 C 
BRANCH   4   5
ATOM      5  O   UNL A   1      35.373  23.315  26.120  1.00  0.00    -0.462 OA
BRANCH   5   6
ATOM      6  C   UNL A   1      34.154  23.068  26.686  1.00  0.00     0.328 C 
ATOM      7  O   UNL A   1      34.012  22.871  27.887  1.00  0.00    -0.250 OA
BRANCH   6   8
ATOM      8  C   UNL A   1      32.990  22.887  25.664  1.00  0.00     0.195 C 
ATOM      9  N   UNL A   1      31.926  23.894  25.783  1.00  0.00    -0.327 N 
ATOM     10  C   UNL A   1      30.735  23.382  25.146  1.00  0.00     0.120 C 
ATOM     11  C   UNL A   1      30.713  21.946  25.595  1.00  0.00     0.024 C 
ATOM     12  C   UNL A   1      32.194  21.564  25.683  1.00  0.00     0.039 C 
BRANCH   9  13
ATOM     13  C   UNL A   1      32.196  25.242  25.786  1.00  0.00     0.246 C 
ATOM     14  O   UNL A   1      32.375  25.880  26.820  1.00  0.00    -0.272 OA
BRANCH  13  15
ATOM     15  C   UNL A   1      32.157  25.937  24.396  1.00  0.00     0.174 C 
BRANCH  15  16
ATOM     16  C   UNL A   1      33.527  25.945  23.668  1.00  0.00     0.015 C 
ATOM     17  C   UNL A   1      34.073  24.667  23.083  1.00  0.00     0.010 C 
ATOM     18  C   UNL A   1      33.515  26.975  22.535  1.00  0.00     0.010 C 
ENDBRANCH  15  16
BRANCH  15  19
ATOM     19  N   UNL A   1      31.370  27.214  24.411  1.00  0.00    -0.344 N 
ATOM     20  C   UNL A   1      31.595  28.503  24.822  1.00  0.00     0.226 C 
ATOM     21  H   UNL A   1      30.468  27.097  24.033  1.00  0.00     0.164 HD
ATOM     22  O   UNL A   1      30.853  29.396  24.410  1.00  0.00    -0.275 OA
BRANCH  20  23
ATOM     23  C   UNL A   1      32.614  28.790  25.892  1.00  0.00     0.107 C 
ATOM     24  C   UNL A   1      34.074  28.424  25.790  1.00  0.00     0.116 C 
ATOM     25  C   UNL A   1      32.653  30.283  26.136  1.00  0.00     0.139 C 
ATOM     26  C   UNL A   1      34.637  29.323  26.885  1.00  0.00     0.227 C 
ATOM     27  N   UNL A   1      33.817  30.464  26.961  1.00  0.00    -0.312 N 
ATOM     28  O   UNL A   1      35.624  29.048  27.549  1.00  0.00    -0.274 OA
BRANCH  27  29
ATOM     29  C   UNL A   1      34.129  31.708  27.564  1.00  0.00     0.044 A 
ATOM     30  C   UNL A   1      35.447  32.026  27.910  1.00  0.00     0.029 A 
ATOM     31  C   UNL A   1      33.146  32.702  27.732  1.00  0.00     0.029 A 
ATOM     32  C   UNL A   1      35.790  33.317  28.325  1.00  0.00     0.041 A 
ATOM     33  C   UNL A   1      33.482  33.987  28.169  1.00  0.00     0.041 A 
ATOM     34  C   UNL A   1      34.807  34.288  28.438  1.00  0.00     0.123 A 
ATOM     35  F   UNL A   1      35.145  35.533  28.795  1.00  0.00    -0.207 F 
ENDBRANCH  27  29
ENDBRANCH  20  23
ENDBRANCH  15  19
ENDBRANCH  13  15
ENDBRANCH   9  13
ENDBRANCH   6   8
ENDBRANCH   5   6
ENDBRANCH   4   5
ENDBRANCH   3   4
ENDBRANCH   2   3
ENDBRANCH   1   2
BRANCH   1  36
ATOM     36  C   UNL A   1      40.428  23.808  27.322  1.00  0.00     0.188 C 
BRANCH  36  37
ATOM     37  O   UNL A   1      41.802  23.715  27.013  1.00  0.00    -0.376 OA
BRANCH  37  38
ATOM     38  C   UNL A   1      42.418  24.868  26.450  1.00  0.00     0.202 C 
BRANCH  38  39
ATOM     39  C   UNL A   1      41.588  25.837  25.584  1.00  0.00     0.261 C 
BRANCH  39  40
ATOM     40  O   UNL A   1      41.184  27.079  26.191  1.00  0.00    -0.460 OA
BRANCH  40  41
ATOM     41  C   UNL A   1      42.150  27.987  26.480  1.00  0.00     0.338 C 
ATOM     42  O   UNL A   1      42.981  28.424  25.710  1.00  0.00    -0.246 OA
BRANCH  41  43
ATOM     43  C   UNL A   1      41.806  28.591  27.800  1.00  0.00     0.060 A 
ATOM     44  C   UNL A   1      42.252  29.893  28.081  1.00  0.00     0.016 A 
ATOM     45  C   UNL A   1      40.982  27.927  28.713  1.00  0.00     0.016 A 
ATOM     46  C   UNL A   1      41.904  30.519  29.279  1.00  0.00     0.010 A 
ATOM     47  C   UNL A   1      40.664  28.540  29.931  1.00  0.00     0.010 A 
ATOM     48  C   UNL A   1      41.154  29.823  30.235  1.00  0.00    -0.014 A 
BRANCH  48  49
ATOM     49  C   UNL A   1      41.125  30.320  31.635  1.00  0.00     0.031 A 
ATOM     50  C   UNL A   1      39.963  31.193  32.034  1.00  0.00     0.074 A 
ATOM     51  C   UNL A   1      42.058  29.982  32.545  1.00  0.00     0.049 A 
ATOM     52  N   UNL A   1      39.715  31.777  33.177  1.00  0.00    -0.248 NA
ATOM     53  C   UNL A   1      38.941  31.437  31.000  1.00  0.00     0.031 C 
ATOM     54  C   UNL A   1      43.201  29.101  32.308  1.00  0.00     0.029 A 
ATOM     55  N   UNL A   1      42.188  30.353  33.863  1.00  0.00    -0.354 N 
ATOM     56  C   UNL A   1      38.513  32.453  32.999  1.00  0.00     0.074 A 
ATOM     57  C   UNL A   1      38.098  32.238  31.632  1.00  0.00     0.031 C 
ATOM     58  C   UNL A   1      43.924  29.012  33.441  1.00  0.00     0.029 A 
ATOM     59  C   UNL A   1      43.314  29.851  34.472  1.00  0.00     0.049 A 
ATOM     60  H   UNL A   1      41.535  30.926  34.326  1.00  0.00     0.167 HD
ATOM     61  C   UNL A   1      37.809  33.183  33.895  1.00  0.00     0.031 A 
ATOM     62  C   UNL A   1      43.806  30.065  35.712  1.00  0.00     0.031 A 
ATOM     63  C   UNL A   1      38.227  33.417  35.249  1.00  0.00     0.049 A 
ATOM     64  C   UNL A   1      43.049  30.960  36.666  1.00  0.00     0.074 A 
ATOM     65  C   UNL A   1      37.585  34.153  36.230  1.00  0.00     0.029 A 
ATOM     66  N   UNL A   1      39.391  32.922  35.814  1.00  0.00    -0.354 N 
ATOM     67  N   UNL A   1      41.906  31.581  36.486  1.00  0.00    -0.248 NA
ATOM     68  C   UNL A   1      43.644  31.176  37.993  1.00  0.00     0.031 C 
ATOM     69  C   UNL A   1      38.390  34.147  37.373  1.00  0.00     0.029 A 
ATOM     70  C   UNL A   1      39.498  33.353  37.124  1.00  0.00     0.049 A 
ATOM     71  H   UNL A   1      40.045  32.349  35.352  1.00  0.00     0.167 HD
ATOM     72  C   UNL A   1      41.633  32.230  37.688  1.00  0.00     0.074 A 
ATOM     73  C   UNL A   1      42.719  31.915  38.591  1.00  0.00     0.031 C 
ATOM     74  C   UNL A   1      40.578  33.019  38.016  1.00  0.00     0.031 A 
BRANCH  61  75
ATOM     75  C   UNL A   1      36.520  33.802  33.428  1.00  0.00    -0.014 A 
ATOM     76  C   UNL A   1      35.279  33.302  33.861  1.00  0.00     0.010 A 
ATOM     77  C   UNL A   1      36.551  34.930  32.589  1.00  0.00     0.010 A 
ATOM     78  C   UNL A   1      34.091  33.909  33.447  1.00  0.00     0.020 A 
ATOM     79  C   UNL A   1      35.366  35.556  32.195  1.00  0.00     0.020 A 
ATOM     80  C   UNL A   1      34.142  35.034  32.619  1.00  0.00     0.054 A 
BRANCH  80  81
ATOM     81  S   UNL A   1      32.585  35.831  32.142  1.00  0.00     0.124 S 
ATOM     82  O   UNL A   1      32.801  36.085  30.720  1.00  0.00    -0.237 OA
ATOM     83  O   UNL A   1      31.593  34.804  32.452  1.00  0.00    -0.237 OA
ATOM     84  O   UNL A   1      32.530  37.022  32.986  1.00  0.00    -0.744 OA
ENDBRANCH  80  81
ENDBRANCH  61  75
BRANCH  62  85
ATOM     85  C   UNL A   1      45.105  29.458  36.126  1.00  0.00    -0.014 A 
ATOM     86  C   UNL A   1      46.324  29.924  35.600  1.00  0.00     0.010 A 
ATOM     87  C   UNL A   1      45.122  28.366  37.013  1.00  0.00     0.010 A 
ATOM     88  C   UNL A   1      47.527  29.289  35.924  1.00  0.00     0.020 A 
ATOM     89  C   UNL A   1      46.326  27.747  37.365  1.00  0.00     0.020 A 
ATOM     90  C   UNL A   1      47.520  28.200  36.802  1.00  0.00     0.054 A 
BRANCH  90  91
ATOM     91  S   UNL A   1      49.093  27.395  37.217  1.00  0.00     0.124 S 
ATOM     92  O   UNL A   1      48.645  26.120  37.767  1.00  0.00    -0.237 OA
ATOM     93  O   UNL A   1      49.763  27.326  35.921  1.00  0.00    -0.237 OA
ATOM     94  O   UNL A   1      49.703  28.312  38.178  1.00  0.00    -0.744 OA
ENDBRANCH  90  91
ENDBRANCH  62  85
BRANCH  74  95
ATOM     95  C   UNL A   1      40.511  33.556  39.423  1.00  0.00    -0.014 A 
ATOM     96  C   UNL A   1      41.065  34.803  39.759  1.00  0.00     0.010 A 
ATOM     97  C   UNL A   1      39.819  32.826  40.408  1.00  0.00     0.010 A 
ATOM     98  C   UNL A   1      40.957  35.296  41.064  1.00  0.00     0.020 A 
ATOM     99  C   UNL A   1      39.683  33.328  41.704  1.00  0.00     0.020 A 
ATOM    100  C   UNL A   1      40.265  34.555  42.028  1.00  0.00     0.054 A 
BRANCH 100 101
ATOM    101  S   UNL A   1      40.100  35.237  43.700  1.00  0.00     0.124 S 
ATOM    102  O   UNL A   1      38.790  35.879  43.639  1.00  0.00    -0.237 OA
ATOM    103  O   UNL A   1      40.179  34.046  44.541  1.00  0.00    -0.237 OA
ATOM    104  O   UNL A   1      41.236  36.150  43.816  1.00  0.00    -0.744 OA
ENDBRANCH 100 101
ENDBRANCH  74  95
ENDBRANCH  48  49
ENDBRANCH  41  43
ENDBRANCH  40  41
ENDBRANCH  39  40
ENDBRANCH  38  39
ENDBRANCH  37  38
ENDBRANCH  36  37
ENDBRANCH   1  36
TORSDOF 26
ENDMDL
MODEL 2
REMARK VINA RESULT:      -8.6      7.846     13.297
REMARK SMILES CC(C)[C@H](NC(=O)[C@H]1CC(=O)N(c2ccc(F)cc2)C1)C(=O)N1CCC[C@@H]1C(=O)OCCOCCOCCOC(=O)c1ccc(-c2c3nc(c(-c4ccc(S(=O)(=O)[O-])cc4)c4ccc([nH]4)c(-c4ccc(S(=O)(=O)[O-])cc4)c4nc(c(-c5ccc(S(=O)(=O)[O-])cc5)c5ccc2[nH]5)C=C4)C=C3)cc1
REMARK SMILES IDX 34 1 33 2 32 3 31 4 30 5 28 6 29 7 27 8 23 9 24 10 25 11
REMARK SMILES IDX 26 12 21 13 22 14 4 15 2 16 1 17 3 18 5 19 6 20 7 22 8 23
REMARK SMILES IDX 9 24 20 25 10 26 12 27 11 28 13 29 14 30 19 31 15 32 18 33
REMARK SMILES IDX 16 34 17 35 35 36 36 37 37 38 38 39 39 40 40 41 41 42 42 43
REMARK SMILES IDX 43 44 101 45 44 46 100 47 45 48 46 49 47 50 94 51 48 52
REMARK SMILES IDX 99 53 93 54 95 55 49 56 98 57 92 58 91 59 50 61 80 62 61 63
REMARK SMILES IDX 79 64 62 65 65 66 78 67 96 68 63 69 64 70 77 72 97 73 66 74
REMARK SMILES IDX 51 75 52 76 60 77 53 78 59 79 54 80 55 81 56 82 57 83 58 84
REMARK SMILES IDX 81 85 82 86 90 87 83 88 89 89 84 90 85 91 86 92 87 93 88 94
REMARK SMILES IDX 67 95 68 96 76 97 69 98 75 99 70 100 71 101 72 102 73 103
REMARK SMILES IDX 74 104
REMARK H PARENT 5 21 95 60 65 71
REMARK Flexibility Score: inf
ROOT
ATOM      1  C   UNL A   1      39.335  19.485  25.750  1.00  0.00     0.188 C 
ENDROOT
BRANCH   1   2
ATOM      2  O   UNL A   1      38.413  20.033  24.819  1.00  0.00    -0.376 OA
BRANCH   2   3
ATOM      3  C   UNL A   1      37.092  20.297  25.274  1.00  0.00     0.202 C 
BRANCH   3   4
ATOM      4  C   UNL A   1      36.613  21.751  25.360  1.00  0.00     0.261 C 
BRANCH   4   5
ATOM      5  O   UNL A   1      35.735  22.074  26.473  1.00  0.00    -0.462 OA
BRANCH   5   6
ATOM      6  C   UNL A   1      34.419  21.723  26.358  1.00  0.00     0.328 C 
ATOM      7  O   UNL A   1      33.574  22.053  27.181  1.00  0.00    -0.250 OA
BRANCH   6   8
ATOM      8  C   UNL A   1      34.113  20.730  25.194  1.00  0.00     0.195 C 
ATOM      9  N   UNL A   1      33.378  21.331  24.072  1.00  0.00    -0.327 N 
ATOM     10  C   UNL A   1      32.763  20.273  23.306  1.00  0.00     0.120 C 
ATOM     11  C   UNL A   1      32.240  19.353  24.376  1.00  0.00     0.024 C 
ATOM     12  C   UNL A   1      33.272  19.473  25.502  1.00  0.00     0.039 C 
BRANCH   9  13
ATOM     13  C   UNL A   1      33.802  22.487  23.458  1.00  0.00     0.246 C 
ATOM     14  O   UNL A   1      34.943  22.627  23.026  1.00  0.00    -0.272 OA
BRANCH  13  15
ATOM     15  C   UNL A   1      32.774  23.651  23.436  1.00  0.00     0.174 C 
BRANCH  15  16
ATOM     16  C   UNL A   1      31.362  23.242  23.931  1.00  0.00     0.015 C 
ATOM     17  C   UNL A   1      31.040  23.290  25.403  1.00  0.00     0.010 C 
ATOM     18  C   UNL A   1      30.293  24.077  23.221  1.00  0.00     0.010 C 
ENDBRANCH  15  16
BRANCH  15  19
ATOM     19  N   UNL A   1      32.861  24.474  22.185  1.00  0.00    -0.344 N 
ATOM     20  C   UNL A   1      33.043  25.803  21.892  1.00  0.00     0.226 C 
ATOM     21  H   UNL A   1      32.762  23.926  21.373  1.00  0.00     0.164 HD
ATOM     22  O   UNL A   1      33.380  26.117  20.750  1.00  0.00    -0.275 OA
BRANCH  20  23
ATOM     23  C   UNL A   1      32.665  26.858  22.895  1.00  0.00     0.107 C 
ATOM     24  C   UNL A   1      33.549  28.020  23.275  1.00  0.00     0.116 C 
ATOM     25  C   UNL A   1      31.394  27.535  22.432  1.00  0.00     0.139 C 
ATOM     26  C   UNL A   1      32.511  28.926  23.926  1.00  0.00     0.227 C 
ATOM     27  N   UNL A   1      31.276  28.673  23.301  1.00  0.00    -0.312 N 
ATOM     28  O   UNL A   1      32.762  29.708  24.830  1.00  0.00    -0.274 OA
BRANCH  27  29
ATOM     29  C   UNL A   1      30.120  29.494  23.317  1.00  0.00     0.044 A 
ATOM     30  C   UNL A   1      28.890  29.009  22.858  1.00  0.00     0.029 A 
ATOM     31  C   UNL A   1      30.148  30.779  23.893  1.00  0.00     0.029 A 
ATOM     32  C   UNL A   1      27.713  29.741  23.047  1.00  0.00     0.041 A 
ATOM     33  C   UNL A   1      28.977  31.523  24.062  1.00  0.00     0.041 A 
ATOM     34  C   UNL A   1      27.765  30.984  23.659  1.00  0.00     0.123 A 
ATOM     35  F   UNL A   1      26.633  31.663  23.876  1.00  0.00    -0.207 F 
ENDBRANCH  27  29
ENDBRANCH  20  23
ENDBRANCH  15  19
ENDBRANCH  13  15
ENDBRANCH   9  13
ENDBRANCH   6   8
ENDBRANCH   5   6
ENDBRANCH   4   5
ENDBRANCH   3   4
ENDBRANCH   2   3
ENDBRANCH   1   2
BRANCH   1  36
ATOM     36  C   UNL A   1      40.464  20.395  26.256  1.00  0.00     0.188 C 
BRANCH  36  37
ATOM     37  O   UNL A   1      40.058  21.668  26.711  1.00  0.00    -0.376 OA
BRANCH  37  38
ATOM     38  C   UNL A   1      40.947  22.358  27.582  1.00  0.00     0.202 C 
BRANCH  38  39
ATOM     39  C   UNL A   1      42.332  21.757  27.899  1.00  0.00     0.261 C 
BRANCH  39  40
ATOM     40  O   UNL A   1      43.465  22.643  27.825  1.00  0.00    -0.460 OA
BRANCH  40  41
ATOM     41  C   UNL A   1      43.874  23.246  28.970  1.00  0.00     0.338 C 
ATOM     42  O   UNL A   1      43.681  22.851  30.101  1.00  0.00    -0.246 OA
BRANCH  41  43
ATOM     43  C   UNL A   1      44.873  24.286  28.586  1.00  0.00     0.060 A 
ATOM     44  C   UNL A   1      45.565  24.962  29.605  1.00  0.00     0.016 A 
ATOM     45  C   UNL A   1      45.192  24.532  27.248  1.00  0.00     0.016 A 
ATOM     46  C   UNL A   1      46.550  25.900  29.291  1.00  0.00     0.010 A 
ATOM     47  C   UNL A   1      46.153  25.501  26.932  1.00  0.00     0.010 A 
ATOM     48  C   UNL A   1      46.809  26.216  27.952  1.00  0.00    -0.014 A 
BRANCH  48  49
ATOM     49  C   UNL A   1      47.545  27.466  27.631  1.00  0.00     0.031 A 
ATOM     50  C   UNL A   1      49.023  27.347  27.361  1.00  0.00     0.074 A 
ATOM     51  C   UNL A   1      46.935  28.662  27.532  1.00  0.00     0.049 A 
ATOM     52  N   UNL A   1      49.897  28.281  27.088  1.00  0.00    -0.248 NA
ATOM     53  C   UNL A   1      49.590  25.987  27.401  1.00  0.00     0.031 C 
ATOM     54  C   UNL A   1      45.505  28.908  27.711  1.00  0.00     0.029 A 
ATOM     55  N   UNL A   1      47.457  29.904  27.256  1.00  0.00    -0.354 N 
ATOM     56  C   UNL A   1      51.110  27.622  26.925  1.00  0.00     0.074 A 
ATOM     57  C   UNL A   1      50.871  26.217  27.162  1.00  0.00     0.031 C 
ATOM     58  C   UNL A   1      45.267  30.225  27.555  1.00  0.00     0.029 A 
ATOM     59  C   UNL A   1      46.528  30.918  27.295  1.00  0.00     0.049 A 
ATOM     60  H   UNL A   1      48.408  30.053  27.050  1.00  0.00     0.167 HD
ATOM     61  C   UNL A   1      52.318  28.136  26.598  1.00  0.00     0.031 A 
ATOM     62  C   UNL A   1      46.685  32.252  27.159  1.00  0.00     0.031 A 
ATOM     63  C   UNL A   1      52.566  29.535  26.380  1.00  0.00     0.049 A 
ATOM     64  C   UNL A   1      48.062  32.813  26.887  1.00  0.00     0.074 A 
ATOM     65  C   UNL A   1      53.760  30.154  26.055  1.00  0.00     0.029 A 
ATOM     66  N   UNL A   1      51.606  30.530  26.468  1.00  0.00    -0.354 N 
ATOM     67  N   UNL A   1      49.197  32.175  26.722  1.00  0.00    -0.248 NA
ATOM     68  C   UNL A   1      48.176  34.275  26.773  1.00  0.00     0.031 C 
ATOM     69  C   UNL A   1      53.532  31.533  25.999  1.00  0.00     0.029 A 
ATOM     70  C   UNL A   1      52.184  31.763  26.222  1.00  0.00     0.049 A 
ATOM     71  H   UNL A   1      50.655  30.383  26.673  1.00  0.00     0.167 HD
ATOM     72  C   UNL A   1      50.149  33.155  26.452  1.00  0.00     0.074 A 
ATOM     73  C   UNL A   1      49.455  34.426  26.460  1.00  0.00     0.031 C 
ATOM     74  C   UNL A   1      51.479  33.018  26.219  1.00  0.00     0.031 A 
BRANCH  61  75
ATOM     75  C   UNL A   1      53.472  27.179  26.477  1.00  0.00    -0.014 A 
ATOM     76  C   UNL A   1      53.879  26.691  25.222  1.00  0.00     0.010 A 
ATOM     77  C   UNL A   1      54.192  26.806  27.626  1.00  0.00     0.010 A 
ATOM     78  C   UNL A   1      54.974  25.830  25.122  1.00  0.00     0.020 A 
ATOM     79  C   UNL A   1      55.305  25.967  27.526  1.00  0.00     0.020 A 
ATOM     80  C   UNL A   1      55.682  25.477  26.275  1.00  0.00     0.054 A 
BRANCH  80  81
ATOM     81  S   UNL A   1      57.132  24.401  26.106  1.00  0.00     0.124 S 
ATOM     82  O   UNL A   1      56.858  23.368  27.102  1.00  0.00    -0.237 OA
ATOM     83  O   UNL A   1      57.046  23.967  24.713  1.00  0.00    -0.237 OA
ATOM     84  O   UNL A   1      58.257  25.281  26.413  1.00  0.00    -0.744 OA
ENDBRANCH  80  81
ENDBRANCH  61  75
BRANCH  62  85
ATOM     85  C   UNL A   1      45.520  33.172  27.318  1.00  0.00    -0.014 A 
ATOM     86  C   UNL A   1      44.904  33.763  26.200  1.00  0.00     0.010 A 
ATOM     87  C   UNL A   1      45.055  33.505  28.604  1.00  0.00     0.010 A 
ATOM     88  C   UNL A   1      43.874  34.694  26.365  1.00  0.00     0.020 A 
ATOM     89  C   UNL A   1      44.003  34.412  28.773  1.00  0.00     0.020 A 
ATOM     90  C   UNL A   1      43.432  35.016  27.653  1.00  0.00     0.054 A 
BRANCH  90  91
ATOM     91  S   UNL A   1      42.088  36.220  27.845  1.00  0.00     0.124 S 
ATOM     92  O   UNL A   1      41.014  35.392  28.386  1.00  0.00    -0.237 OA
ATOM     93  O   UNL A   1      42.664  37.192  28.770  1.00  0.00    -0.237 OA
ATOM     94  O   UNL A   1      41.873  36.713  26.486  1.00  0.00    -0.744 OA
ENDBRANCH  90  91
ENDBRANCH  62  85
BRANCH  74  95
ATOM     95  C   UNL A   1      52.270  34.261  25.900  1.00  0.00    -0.014 A 
ATOM     96  C   UNL A   1      52.118  34.934  24.676  1.00  0.00     0.010 A 
ATOM     97  C   UNL A   1      53.128  34.802  26.876  1.00  0.00     0.010 A 
ATOM     98  C   UNL A   1      52.836  36.106  24.419  1.00  0.00     0.020 A 
ATOM     99  C   UNL A   1      53.824  35.990  26.636  1.00  0.00     0.020 A 
ATOM    100  C   UNL A   1      53.684  36.627  25.402  1.00  0.00     0.054 A 
BRANCH 100 101
ATOM    101  S   UNL A   1      54.569  38.173  25.062  1.00  0.00     0.124 S 
ATOM    102  O   UNL A   1      55.002  38.576  26.396  1.00  0.00    -0.237 OA
ATOM    103  O   UNL A   1      55.633  37.741  24.159  1.00  0.00    -0.237 OA
ATOM    104  O   UNL A   1      53.552  39.028  24.452  1.00  0.00    -0.744 OA
ENDBRANCH 100 101
ENDBRANCH  74  95
ENDBRANCH  48  49
ENDBRANCH  41  43
ENDBRANCH  40  41
ENDBRANCH  39  40
ENDBRANCH  38  39
ENDBRANCH  37  38
ENDBRANCH  36  37
ENDBRANCH   1  36
TORSDOF 26
ENDMDL
MODEL 3
REMARK VINA RESULT:      -8.5      6.480      9.024
REMARK SMILES CC(C)[C@H](NC(=O)[C@H]1CC(=O)N(c2ccc(F)cc2)C1)C(=O)N1CCC[C@@H]1C(=O)OCCOCCOCCOC(=O)c1ccc(-c2c3nc(c(-c4ccc(S(=O)(=O)[O-])cc4)c4ccc([nH]4)c(-c4ccc(S(=O)(=O)[O-])cc4)c4nc(c(-c5ccc(S(=O)(=O)[O-])cc5)c5ccc2[nH]5)C=C4)C=C3)cc1
REMARK SMILES IDX 34 1 33 2 32 3 31 4 30 5 28 6 29 7 27 8 23 9 24 10 25 11
REMARK SMILES IDX 26 12 21 13 22 14 4 15 2 16 1 17 3 18 5 19 6 20 7 22 8 23
REMARK SMILES IDX 9 24 20 25 10 26 12 27 11 28 13 29 14 30 19 31 15 32 18 33
REMARK SMILES IDX 16 34 17 35 35 36 36 37 37 38 38 39 39 40 40 41 41 42 42 43
REMARK SMILES IDX 43 44 101 45 44 46 100 47 45 48 46 49 47 50 94 51 48 52
REMARK SMILES IDX 99 53 93 54 95 55 49 56 98 57 92 58 91 59 50 61 80 62 61 63
REMARK SMILES IDX 79 64 62 65 65 66 78 67 96 68 63 69 64 70 77 72 97 73 66 74
REMARK SMILES IDX 51 75 52 76 60 77 53 78 59 79 54 80 55 81 56 82 57 83 58 84
REMARK SMILES IDX 81 85 82 86 90 87 83 88 89 89 84 90 85 91 86 92 87 93 88 94
REMARK SMILES IDX 67 95 68 96 76 97 69 98 75 99 70 100 71 101 72 102 73 103
REMARK SMILES IDX 74 104
REMARK H PARENT 5 21 95 60 65 71
REMARK Flexibility Score: inf
ROOT
ATOM      1  C   UNL A   1      35.468  18.320  24.995  1.00  0.00     0.188 C 
ENDROOT
BRANCH   1   2
ATOM      2  O   UNL A   1      34.304  18.752  24.305  1.00  0.00    -0.376 OA
BRANCH   2   3
ATOM      3  C   UNL A   1      33.877  20.095  24.504  1.00  0.00     0.202 C 
BRANCH   3   4
ATOM      4  C   UNL A   1      33.404  20.525  25.897  1.00  0.00     0.261 C 
BRANCH   4   5
ATOM      5  O   UNL A   1      33.529  21.938  26.210  1.00  0.00    -0.462 OA
BRANCH   5   6
ATOM      6  C   UNL A   1      32.502  22.523  26.897  1.00  0.00     0.328 C 
ATOM      7  O   UNL A   1      32.431  22.504  28.121  1.00  0.00    -0.250 OA
BRANCH   6   8
ATOM      8  C   UNL A   1      31.345  23.062  25.999  1.00  0.00     0.195 C 
ATOM      9  N   UNL A   1      31.757  24.115  25.061  1.00  0.00    -0.327 N 
ATOM     10  C   UNL A   1      30.581  24.837  24.635  1.00  0.00     0.120 C 
ATOM     11  C   UNL A   1      29.804  24.982  25.916  1.00  0.00     0.024 C 
ATOM     12  C   UNL A   1      30.115  23.694  26.685  1.00  0.00     0.039 C 
BRANCH   9  13
ATOM     13  C   UNL A   1      32.828  23.958  24.213  1.00  0.00     0.246 C 
ATOM     14  O   UNL A   1      32.794  23.221  23.231  1.00  0.00    -0.272 OA
BRANCH  13  15
ATOM     15  C   UNL A   1      34.130  24.696  24.633  1.00  0.00     0.174 C 
BRANCH  15  16
ATOM     16  C   UNL A   1      35.396  23.803  24.577  1.00  0.00     0.015 C 
ATOM     17  C   UNL A   1      36.149  23.649  23.279  1.00  0.00     0.010 C 
ATOM     18  C   UNL A   1      36.415  24.267  25.621  1.00  0.00     0.010 C 
ENDBRANCH  15  16
BRANCH  15  19
ATOM     19  N   UNL A   1      33.939  25.557  25.847  1.00  0.00    -0.344 N 
ATOM     20  C   UNL A   1      33.292  26.734  26.126  1.00  0.00     0.226 C 
ATOM     21  H   UNL A   1      34.389  25.184  26.639  1.00  0.00     0.164 HD
ATOM     22  O   UNL A   1      33.062  27.020  27.301  1.00  0.00    -0.275 OA
BRANCH  20  23
ATOM     23  C   UNL A   1      33.033  27.733  25.032  1.00  0.00     0.107 C 
ATOM     24  C   UNL A   1      33.281  27.468  23.567  1.00  0.00     0.116 C 
ATOM     25  C   UNL A   1      31.570  28.120  25.064  1.00  0.00     0.139 C 
ATOM     26  C   UNL A   1      32.449  28.592  22.961  1.00  0.00     0.227 C 
ATOM     27  N   UNL A   1      31.383  28.853  23.842  1.00  0.00    -0.312 N 
ATOM     28  O   UNL A   1      32.712  29.137  21.901  1.00  0.00    -0.274 OA
BRANCH  27  29
ATOM     29  C   UNL A   1      30.180  29.546  23.554  1.00  0.00     0.044 A 
ATOM     30  C   UNL A   1      29.986  30.859  24.000  1.00  0.00     0.029 A 
ATOM     31  C   UNL A   1      29.195  28.980  22.724  1.00  0.00     0.029 A 
ATOM     32  C   UNL A   1      28.893  31.612  23.561  1.00  0.00     0.041 A 
ATOM     33  C   UNL A   1      28.088  29.723  22.302  1.00  0.00     0.041 A 
ATOM     34  C   UNL A   1      27.962  31.043  22.707  1.00  0.00     0.123 A 
ATOM     35  F   UNL A   1      26.939  31.779  22.255  1.00  0.00    -0.207 F 
ENDBRANCH  27  29
ENDBRANCH  20  23
ENDBRANCH  15  19
ENDBRANCH  13  15
ENDBRANCH   9  13
ENDBRANCH   6   8
ENDBRANCH   5   6
ENDBRANCH   4   5
ENDBRANCH   3   4
ENDBRANCH   2   3
ENDBRANCH   1   2
BRANCH   1  36
ATOM     36  C   UNL A   1      36.799  19.002  24.644  1.00  0.00     0.188 C 
BRANCH  36  37
ATOM     37  O   UNL A   1      36.820  20.405  24.798  1.00  0.00    -0.376 OA
BRANCH  37  38
ATOM     38  C   UNL A   1      37.969  20.970  25.419  1.00  0.00     0.202 C 
BRANCH  38  39
ATOM     39  C   UNL A   1      39.052  20.048  26.015  1.00  0.00     0.261 C 
BRANCH  39  40
ATOM     40  O   UNL A   1      40.413  20.516  25.963  1.00  0.00    -0.460 OA
BRANCH  40  41
ATOM     41  C   UNL A   1      41.163  20.411  27.090  1.00  0.00     0.338 C 
ATOM     42  O   UNL A   1      41.286  19.423  27.785  1.00  0.00    -0.246 OA
BRANCH  41  43
ATOM     43  C   UNL A   1      42.055  21.606  27.138  1.00  0.00     0.060 A 
ATOM     44  C   UNL A   1      42.593  21.994  28.376  1.00  0.00     0.016 A 
ATOM     45  C   UNL A   1      42.431  22.282  25.974  1.00  0.00     0.016 A 
ATOM     46  C   UNL A   1      43.479  23.070  28.458  1.00  0.00     0.010 A 
ATOM     47  C   UNL A   1      43.290  23.384  26.061  1.00  0.00     0.010 A 
ATOM     48  C   UNL A   1      43.788  23.806  27.308  1.00  0.00    -0.014 A 
BRANCH  48  49
ATOM     49  C   UNL A   1      44.391  25.157  27.451  1.00  0.00     0.031 A 
ATOM     50  C   UNL A   1      43.479  26.278  27.877  1.00  0.00     0.074 A 
ATOM     51  C   UNL A   1      45.703  25.389  27.262  1.00  0.00     0.049 A 
ATOM     52  N   UNL A   1      43.743  27.547  28.048  1.00  0.00    -0.248 NA
ATOM     53  C   UNL A   1      42.076  25.915  28.151  1.00  0.00     0.031 C 
ATOM     54  C   UNL A   1      46.705  24.386  26.906  1.00  0.00     0.029 A 
ATOM     55  N   UNL A   1      46.417  26.562  27.344  1.00  0.00    -0.354 N 
ATOM     56  C   UNL A   1      42.545  28.129  28.446  1.00  0.00     0.074 A 
ATOM     57  C   UNL A   1      41.546  27.087  28.461  1.00  0.00     0.031 C 
ATOM     58  C   UNL A   1      47.903  24.991  26.784  1.00  0.00     0.029 A 
ATOM     59  C   UNL A   1      47.748  26.425  27.024  1.00  0.00     0.049 A 
ATOM     60  H   UNL A   1      46.012  27.420  27.606  1.00  0.00     0.167 HD
ATOM     61  C   UNL A   1      42.298  29.416  28.782  1.00  0.00     0.031 A 
ATOM     62  C   UNL A   1      48.721  27.356  26.916  1.00  0.00     0.031 A 
ATOM     63  C   UNL A   1      43.283  30.461  28.750  1.00  0.00     0.049 A 
ATOM     64  C   UNL A   1      48.398  28.804  27.205  1.00  0.00     0.074 A 
ATOM     65  C   UNL A   1      43.124  31.800  29.062  1.00  0.00     0.029 A 
ATOM     66  N   UNL A   1      44.608  30.287  28.384  1.00  0.00    -0.354 N 
ATOM     67  N   UNL A   1      47.262  29.335  27.595  1.00  0.00    -0.248 NA
ATOM     68  C   UNL A   1      49.490  29.776  27.047  1.00  0.00     0.031 C 
ATOM     69  C   UNL A   1      44.343  32.446  28.832  1.00  0.00     0.029 A 
ATOM     70  C   UNL A   1      45.275  31.498  28.443  1.00  0.00     0.049 A 
ATOM     71  H   UNL A   1      45.014  29.430  28.122  1.00  0.00     0.167 HD
ATOM     72  C   UNL A   1      47.516  30.695  27.761  1.00  0.00     0.074 A 
ATOM     73  C   UNL A   1      48.914  30.902  27.445  1.00  0.00     0.031 C 
ATOM     74  C   UNL A   1      46.670  31.685  28.139  1.00  0.00     0.031 A 
BRANCH  61  75
ATOM     75  C   UNL A   1      40.894  29.771  29.191  1.00  0.00    -0.014 A 
ATOM     76  C   UNL A   1      40.634  30.380  30.432  1.00  0.00     0.010 A 
ATOM     77  C   UNL A   1      39.829  29.541  28.302  1.00  0.00     0.010 A 
ATOM     78  C   UNL A   1      39.330  30.734  30.784  1.00  0.00     0.020 A 
ATOM     79  C   UNL A   1      38.527  29.920  28.639  1.00  0.00     0.020 A 
ATOM     80  C   UNL A   1      38.286  30.506  29.883  1.00  0.00     0.054 A 
BRANCH  80  81
ATOM     81  S   UNL A   1      36.612  31.026  30.348  1.00  0.00     0.124 S 
ATOM     82  O   UNL A   1      36.132  29.866  31.095  1.00  0.00    -0.237 OA
ATOM     83  O   UNL A   1      36.860  32.226  31.143  1.00  0.00    -0.237 OA
ATOM     84  O   UNL A   1      35.951  31.258  29.065  1.00  0.00    -0.744 OA
ENDBRANCH  80  81
ENDBRANCH  61  75
BRANCH  62  85
ATOM     85  C   UNL A   1      50.093  26.968  26.476  1.00  0.00    -0.014 A 
ATOM     86  C   UNL A   1      50.383  26.744  25.117  1.00  0.00     0.010 A 
ATOM     87  C   UNL A   1      51.109  26.766  27.429  1.00  0.00     0.010 A 
ATOM     88  C   UNL A   1      51.648  26.292  24.725  1.00  0.00     0.020 A 
ATOM     89  C   UNL A   1      52.384  26.345  27.038  1.00  0.00     0.020 A 
ATOM     90  C   UNL A   1      52.640  26.091  25.690  1.00  0.00     0.054 A 
BRANCH  90  91
ATOM     91  S   UNL A   1      54.277  25.513  25.160  1.00  0.00     0.124 S 
ATOM     92  O   UNL A   1      53.991  24.149  24.729  1.00  0.00    -0.237 OA
ATOM     93  O   UNL A   1      54.616  26.455  24.097  1.00  0.00    -0.237 OA
ATOM     94  O   UNL A   1      55.089  25.630  26.370  1.00  0.00    -0.744 OA
ENDBRANCH  90  91
ENDBRANCH  62  85
BRANCH  74  95
ATOM     95  C   UNL A   1      47.234  33.076  28.288  1.00  0.00    -0.014 A 
ATOM     96  C   UNL A   1      47.326  33.951  27.193  1.00  0.00     0.010 A 
ATOM     97  C   UNL A   1      47.613  33.533  29.564  1.00  0.00     0.010 A 
ATOM     98  C   UNL A   1      47.818  35.249  27.364  1.00  0.00     0.020 A 
ATOM     99  C   UNL A   1      48.077  34.839  29.745  1.00  0.00     0.020 A 
ATOM    100  C   UNL A   1      48.190  35.685  28.640  1.00  0.00     0.054 A 
BRANCH 100 101
ATOM    101  S   UNL A   1      48.782  37.387  28.843  1.00  0.00     0.124 S 
ATOM    102  O   UNL A   1      50.230  37.218  28.753  1.00  0.00    -0.237 OA
ATOM    103  O   UNL A   1      48.158  38.080  27.719  1.00  0.00    -0.237 OA
ATOM    104  O   UNL A   1      48.282  37.774  30.161  1.00  0.00    -0.744 OA
ENDBRANCH 100 101
ENDBRANCH  74  95
ENDBRANCH  48  49
ENDBRANCH  41  43
ENDBRANCH  40  41
ENDBRANCH  39  40
ENDBRANCH  38  39
ENDBRANCH  37  38
ENDBRANCH  36  37
ENDBRANCH   1  36
TORSDOF 26
ENDMDL
