MODEL 1
REMARK VINA RESULT:      -9.0      0.000      0.000
REMARK SMILES CC(=O)Oc1ccc([C@H]2Nc3c(C(=O)OCCOCCOCCOC(=O)c4ccc(-c5c6nc(c(-c7ccc(S(=O)(=O)[O-])cc7)c7ccc([nH]7)c(-c7ccc(S(=O)(=O)[O-])cc7)c7nc(c(-c8ccc(S(=O)(=O)[O-])cc8)c8ccc5[nH]8)C=C7)C=C6)cc4)ccc([N+](=O)[O-])c3[C@H]3C=CC[C@@H]32)cc1
REMARK SMILES IDX 19 1 18 2 17 3 16 4 15 5 13 6 14 7 12 8 9 9 10 10 98 11
REMARK SMILES IDX 11 12 94 14 97 15 93 16 95 17 96 18 87 19 89 20 88 21 8 22
REMARK SMILES IDX 5 23 6 24 100 25 7 26 99 27 4 28 2 29 1 30 3 31 90 32 91 33
REMARK SMILES IDX 92 34 20 35 21 36 22 37 23 38 24 39 25 40 26 41 27 42 28 43
REMARK SMILES IDX 86 44 29 45 85 46 30 47 31 48 32 49 79 50 33 51 84 52 78 53
REMARK SMILES IDX 80 54 34 55 83 56 77 57 76 58 35 60 65 61 46 62 64 63 47 64
REMARK SMILES IDX 50 65 63 66 81 67 48 68 49 69 62 71 82 72 51 73 36 74 37 75
REMARK SMILES IDX 45 76 38 77 44 78 39 79 40 80 41 81 42 82 43 83 66 84 67 85
REMARK SMILES IDX 75 86 68 87 74 88 69 89 70 90 71 91 72 92 73 93 52 94 53 95
REMARK SMILES IDX 61 96 54 97 60 98 55 99 56 100 57 101 58 102 59 103
REMARK H PARENT 10 13 80 59 50 70
REMARK Flexibility Score: inf
ROOT
ATOM      1  C   UNL A   1      42.381  39.120  26.891  1.00  0.00     0.188 C 
ENDROOT
BRANCH   1   2
ATOM      2  O   UNL A   1      42.252  40.494  27.177  1.00  0.00    -0.376 OA
BRANCH   2   3
ATOM      3  C   UNL A   1      43.244  41.406  26.757  1.00  0.00     0.202 C 
BRANCH   3   4
ATOM      4  C   UNL A   1      43.924  41.348  25.381  1.00  0.00     0.261 C 
BRANCH   4   5
ATOM      5  O   UNL A   1      43.599  42.364  24.427  1.00  0.00    -0.460 OA
BRANCH   5   6
ATOM      6  C   UNL A   1      44.585  42.880  23.623  1.00  0.00     0.340 C 
ATOM      7  O   UNL A   1      45.750  43.030  23.899  1.00  0.00    -0.246 OA
BRANCH   6   8
ATOM      8  C   UNL A   1      43.902  43.316  22.370  1.00  0.00     0.084 A 
ATOM      9  C   UNL A   1      45.995  45.792  20.259  1.00  0.00     0.114 C 
ATOM     10  N   UNL A   1      45.643  44.914  21.423  1.00  0.00    -0.377 N 
ATOM     11  C   UNL A   1      44.692  46.400  19.772  1.00  0.00     0.031 C 
ATOM     12  C   UNL A   1      44.389  44.202  21.365  1.00  0.00     0.060 A 
ATOM     13  H   UNL A   1      46.245  44.826  22.197  1.00  0.00     0.161 HD
ATOM     14  C   UNL A   1      44.082  45.204  19.048  1.00  0.00     0.056 C 
ATOM     15  C   UNL A   1      44.599  47.611  18.855  1.00  0.00     0.034 C 
ATOM     16  C   UNL A   1      43.549  44.353  20.180  1.00  0.00     0.061 A 
ATOM     17  C   UNL A   1      43.302  45.863  17.969  1.00  0.00    -0.022 C 
ATOM     18  C   UNL A   1      43.608  47.158  17.841  1.00  0.00    -0.030 C 
ATOM     19  C   UNL A   1      42.621  42.715  22.253  1.00  0.00     0.025 A 
ATOM     20  C   UNL A   1      42.294  43.721  20.124  1.00  0.00     0.275 A 
ATOM     21  C   UNL A   1      41.818  42.917  21.147  1.00  0.00     0.087 A 
BRANCH   9  22
ATOM     22  C   UNL A   1      47.121  46.808  20.236  1.00  0.00    -0.025 A 
ATOM     23  C   UNL A   1      49.011  48.888  19.962  1.00  0.00     0.130 A 
ATOM     24  C   UNL A   1      48.411  48.362  18.829  1.00  0.00     0.047 A 
ATOM     25  C   UNL A   1      48.566  48.498  21.227  1.00  0.00     0.047 A 
ATOM     26  C   UNL A   1      47.481  47.340  18.968  1.00  0.00     0.010 A 
ATOM     27  C   UNL A   1      47.641  47.445  21.366  1.00  0.00     0.010 A 
BRANCH  23  28
ATOM     28  O   UNL A   1      50.165  49.657  19.679  1.00  0.00    -0.427 OA
BRANCH  28  29
ATOM     29  C   UNL A   1      50.044  51.032  19.552  1.00  0.00     0.308 C 
ATOM     30  C   UNL A   1      49.974  51.874  20.941  1.00  0.00     0.139 C 
ATOM     31  O   UNL A   1      50.198  51.486  18.418  1.00  0.00    -0.252 OA
ENDBRANCH  28  29
ENDBRANCH  23  28
ENDBRANCH   9  22
BRANCH  20  32
ATOM     32  N   UNL A   1      41.391  43.918  19.015  1.00  0.00     0.063 N 
ATOM     33  O   UNL A   1      40.464  44.719  19.185  1.00  0.00    -0.258 OA
ATOM     34  O   UNL A   1      41.587  43.231  18.004  1.00  0.00    -0.258 OA
ENDBRANCH  20  32
ENDBRANCH   6   8
ENDBRANCH   5   6
ENDBRANCH   4   5
ENDBRANCH   3   4
ENDBRANCH   2   3
ENDBRANCH   1   2
BRANCH   1  35
ATOM     35  C   UNL A   1      43.540  38.314  27.524  1.00  0.00     0.188 C 
BRANCH  35  36
ATOM     36  O   UNL A   1      43.966  38.602  28.840  1.00  0.00    -0.376 OA
BRANCH  36  37
ATOM     37  C   UNL A   1      45.200  39.275  29.020  1.00  0.00     0.202 C 
BRANCH  37  38
ATOM     38  C   UNL A   1      46.227  39.425  27.878  1.00  0.00     0.261 C 
BRANCH  38  39
ATOM     39  O   UNL A   1      47.014  38.262  27.561  1.00  0.00    -0.460 OA
BRANCH  39  40
ATOM     40  C   UNL A   1      47.593  37.619  28.610  1.00  0.00     0.338 C 
ATOM     41  O   UNL A   1      48.218  38.129  29.524  1.00  0.00    -0.246 OA
BRANCH  40  42
ATOM     42  C   UNL A   1      47.193  36.191  28.616  1.00  0.00     0.060 A 
ATOM     43  C   UNL A   1      48.059  35.260  29.190  1.00  0.00     0.016 A 
ATOM     44  C   UNL A   1      46.001  35.749  28.041  1.00  0.00     0.016 A 
ATOM     45  C   UNL A   1      47.725  33.907  29.201  1.00  0.00     0.010 A 
ATOM     46  C   UNL A   1      45.723  34.367  27.982  1.00  0.00     0.010 A 
ATOM     47  C   UNL A   1      46.613  33.421  28.522  1.00  0.00    -0.014 A 
BRANCH  47  48
ATOM     48  C   UNL A   1      46.495  31.955  28.220  1.00  0.00     0.031 A 
ATOM     49  C   UNL A   1      45.015  31.386  28.310  1.00  0.00     0.074 A 
ATOM     50  C   UNL A   1      47.574  31.239  27.746  1.00  0.00     0.049 A 
ATOM     51  N   UNL A   1      44.564  30.243  27.882  1.00  0.00    -0.248 NA
ATOM     52  C   UNL A   1      43.880  32.187  28.796  1.00  0.00     0.031 C 
ATOM     53  C   UNL A   1      48.865  31.730  27.244  1.00  0.00     0.029 A 
ATOM     54  N   UNL A   1      47.756  29.868  27.592  1.00  0.00    -0.354 N 
ATOM     55  C   UNL A   1      43.204  30.074  28.049  1.00  0.00     0.074 A 
ATOM     56  C   UNL A   1      42.828  31.366  28.625  1.00  0.00     0.031 C 
ATOM     57  C   UNL A   1      49.593  30.702  26.732  1.00  0.00     0.029 A 
ATOM     58  C   UNL A   1      48.883  29.411  26.889  1.00  0.00     0.049 A 
ATOM     59  H   UNL A   1      47.106  29.230  27.968  1.00  0.00     0.167 HD
ATOM     60  C   UNL A   1      42.400  28.970  27.790  1.00  0.00     0.031 A 
ATOM     61  C   UNL A   1      49.296  28.169  26.400  1.00  0.00     0.031 A 
ATOM     62  C   UNL A   1      42.774  27.561  27.367  1.00  0.00     0.049 A 
ATOM     63  C   UNL A   1      48.461  26.783  26.248  1.00  0.00     0.074 A 
ATOM     64  C   UNL A   1      42.170  26.339  27.687  1.00  0.00     0.029 A 
ATOM     65  N   UNL A   1      43.656  27.114  26.347  1.00  0.00    -0.354 N 
ATOM     66  N   UNL A   1      47.316  26.453  26.787  1.00  0.00    -0.248 NA
ATOM     67  C   UNL A   1      48.876  25.678  25.356  1.00  0.00     0.031 C 
ATOM     68  C   UNL A   1      42.985  25.257  27.231  1.00  0.00     0.029 A 
ATOM     69  C   UNL A   1      44.104  25.769  26.582  1.00  0.00     0.049 A 
ATOM     70  H   UNL A   1      43.928  27.659  25.573  1.00  0.00     0.167 HD
ATOM     71  C   UNL A   1      46.684  25.431  26.092  1.00  0.00     0.074 A 
ATOM     72  C   UNL A   1      47.793  24.879  25.320  1.00  0.00     0.031 C 
ATOM     73  C   UNL A   1      45.339  25.067  26.043  1.00  0.00     0.031 A 
BRANCH  60  74
ATOM     74  C   UNL A   1      40.961  29.182  28.222  1.00  0.00    -0.014 A 
ATOM     75  C   UNL A   1      39.900  29.009  27.315  1.00  0.00     0.010 A 
ATOM     76  C   UNL A   1      40.662  29.581  29.541  1.00  0.00     0.010 A 
ATOM     77  C   UNL A   1      38.578  29.237  27.715  1.00  0.00     0.020 A 
ATOM     78  C   UNL A   1      39.339  29.774  29.956  1.00  0.00     0.020 A 
ATOM     79  C   UNL A   1      38.304  29.612  29.035  1.00  0.00     0.054 A 
BRANCH  79  80
ATOM     80  S   UNL A   1      36.575  29.855  29.532  1.00  0.00     0.124 S 
ATOM     81  O   UNL A   1      35.853  29.186  28.452  1.00  0.00    -0.237 OA
ATOM     82  O   UNL A   1      36.520  29.189  30.830  1.00  0.00    -0.237 OA
ATOM     83  O   UNL A   1      36.426  31.308  29.573  1.00  0.00    -0.744 OA
ENDBRANCH  79  80
ENDBRANCH  60  74
BRANCH  61  84
ATOM     84  C   UNL A   1      50.703  28.113  25.867  1.00  0.00    -0.014 A 
ATOM     85  C   UNL A   1      51.821  27.827  26.672  1.00  0.00     0.010 A 
ATOM     86  C   UNL A   1      50.915  28.384  24.500  1.00  0.00     0.010 A 
ATOM     87  C   UNL A   1      53.118  27.873  26.136  1.00  0.00     0.020 A 
ATOM     88  C   UNL A   1      52.200  28.386  23.952  1.00  0.00     0.020 A 
ATOM     89  C   UNL A   1      53.298  28.159  24.780  1.00  0.00     0.054 A 
BRANCH  89  90
ATOM     90  S   UNL A   1      54.980  28.215  24.096  1.00  0.00     0.124 S 
ATOM     91  O   UNL A   1      55.164  26.847  23.624  1.00  0.00    -0.237 OA
ATOM     92  O   UNL A   1      54.866  29.235  23.056  1.00  0.00    -0.237 OA
ATOM     93  O   UNL A   1      55.803  28.597  25.242  1.00  0.00    -0.744 OA
ENDBRANCH  89  90
ENDBRANCH  61  84
BRANCH  73  94
ATOM     94  C   UNL A   1      45.151  23.625  25.633  1.00  0.00    -0.014 A 
ATOM     95  C   UNL A   1      44.769  23.329  24.305  1.00  0.00     0.010 A 
ATOM     96  C   UNL A   1      45.439  22.567  26.504  1.00  0.00     0.010 A 
ATOM     97  C   UNL A   1      44.600  22.012  23.881  1.00  0.00     0.020 A 
ATOM     98  C   UNL A   1      45.289  21.241  26.078  1.00  0.00     0.020 A 
ATOM     99  C   UNL A   1      44.849  20.973  24.776  1.00  0.00     0.054 A 
BRANCH  99 100
ATOM    100  S   UNL A   1      44.609  19.270  24.202  1.00  0.00     0.124 S 
ATOM    101  O   UNL A   1      44.722  19.417  22.753  1.00  0.00    -0.237 OA
ATOM    102  O   UNL A   1      45.707  18.557  24.849  1.00  0.00    -0.237 OA
ATOM    103  O   UNL A   1      43.275  18.925  24.690  1.00  0.00    -0.744 OA
ENDBRANCH  99 100
ENDBRANCH  73  94
ENDBRANCH  47  48
ENDBRANCH  40  42
ENDBRANCH  39  40
ENDBRANCH  38  39
ENDBRANCH  37  38
ENDBRANCH  36  37
ENDBRANCH  35  36
ENDBRANCH   1  35
TORSDOF 24
ENDMDL
MODEL 2
REMARK VINA RESULT:      -8.9      7.475     18.419
REMARK SMILES CC(=O)Oc1ccc([C@H]2Nc3c(C(=O)OCCOCCOCCOC(=O)c4ccc(-c5c6nc(c(-c7ccc(S(=O)(=O)[O-])cc7)c7ccc([nH]7)c(-c7ccc(S(=O)(=O)[O-])cc7)c7nc(c(-c8ccc(S(=O)(=O)[O-])cc8)c8ccc5[nH]8)C=C7)C=C6)cc4)ccc([N+](=O)[O-])c3[C@H]3C=CC[C@@H]32)cc1
REMARK SMILES IDX 19 1 18 2 17 3 16 4 15 5 13 6 14 7 12 8 9 9 10 10 98 11
REMARK SMILES IDX 11 12 94 14 97 15 93 16 95 17 96 18 87 19 89 20 88 21 8 22
REMARK SMILES IDX 5 23 6 24 100 25 7 26 99 27 4 28 2 29 1 30 3 31 90 32 91 33
REMARK SMILES IDX 92 34 20 35 21 36 22 37 23 38 24 39 25 40 26 41 27 42 28 43
REMARK SMILES IDX 86 44 29 45 85 46 30 47 31 48 32 49 79 50 33 51 84 52 78 53
REMARK SMILES IDX 80 54 34 55 83 56 77 57 76 58 35 60 65 61 46 62 64 63 47 64
REMARK SMILES IDX 50 65 63 66 81 67 48 68 49 69 62 71 82 72 51 73 36 74 37 75
REMARK SMILES IDX 45 76 38 77 44 78 39 79 40 80 41 81 42 82 43 83 66 84 67 85
REMARK SMILES IDX 75 86 68 87 74 88 69 89 70 90 71 91 72 92 73 93 52 94 53 95
REMARK SMILES IDX 61 96 54 97 60 98 55 99 56 100 57 101 58 102 59 103
REMARK H PARENT 10 13 80 59 50 70
REMARK Flexibility Score: inf
ROOT
ATOM      1  C   UNL A   1      44.956  25.092  27.998  1.00  0.00     0.188 C 
ENDROOT
BRANCH   1   2
ATOM      2  O   UNL A   1      44.667  26.104  28.934  1.00  0.00    -0.376 OA
BRANCH   2   3
ATOM      3  C   UNL A   1      43.534  26.002  29.768  1.00  0.00     0.202 C 
BRANCH   3   4
ATOM      4  C   UNL A   1      42.142  26.521  29.378  1.00  0.00     0.261 C 
BRANCH   4   5
ATOM      5  O   UNL A   1      41.633  26.174  28.087  1.00  0.00    -0.460 OA
BRANCH   5   6
ATOM      6  C   UNL A   1      40.293  25.921  27.930  1.00  0.00     0.340 C 
ATOM      7  O   UNL A   1      39.374  26.660  28.191  1.00  0.00    -0.246 OA
BRANCH   6   8
ATOM      8  C   UNL A   1      40.195  24.506  27.470  1.00  0.00     0.084 A 
ATOM      9  C   UNL A   1      37.023  23.783  25.376  1.00  0.00     0.114 C 
ATOM     10  N   UNL A   1      37.978  24.573  26.221  1.00  0.00    -0.377 N 
ATOM     11  C   UNL A   1      37.057  22.362  25.908  1.00  0.00     0.031 C 
ATOM     12  C   UNL A   1      39.175  23.907  26.674  1.00  0.00     0.060 A 
ATOM     13  H   UNL A   1      37.795  25.511  26.457  1.00  0.00     0.161 HD
ATOM     14  C   UNL A   1      38.393  21.887  25.343  1.00  0.00     0.056 C 
ATOM     15  C   UNL A   1      36.006  21.304  25.601  1.00  0.00     0.034 C 
ATOM     16  C   UNL A   1      39.404  22.522  26.273  1.00  0.00     0.061 A 
ATOM     17  C   UNL A   1      38.141  20.437  25.136  1.00  0.00    -0.022 C 
ATOM     18  C   UNL A   1      36.844  20.128  25.241  1.00  0.00    -0.030 C 
ATOM     19  C   UNL A   1      41.304  23.745  27.925  1.00  0.00     0.025 A 
ATOM     20  C   UNL A   1      40.529  21.829  26.751  1.00  0.00     0.275 A 
ATOM     21  C   UNL A   1      41.472  22.419  27.579  1.00  0.00     0.087 A 
BRANCH   9  22
ATOM     22  C   UNL A   1      35.611  24.206  25.020  1.00  0.00    -0.025 A 
ATOM     23  C   UNL A   1      32.986  24.722  24.115  1.00  0.00     0.130 A 
ATOM     24  C   UNL A   1      33.993  24.506  23.188  1.00  0.00     0.047 A 
ATOM     25  C   UNL A   1      33.241  24.532  25.474  1.00  0.00     0.047 A 
ATOM     26  C   UNL A   1      35.283  24.250  23.637  1.00  0.00     0.010 A 
ATOM     27  C   UNL A   1      34.554  24.297  25.929  1.00  0.00     0.010 A 
BRANCH  23  28
ATOM     28  O   UNL A   1      31.824  25.303  23.553  1.00  0.00    -0.427 OA
BRANCH  28  29
ATOM     29  C   UNL A   1      30.665  24.547  23.473  1.00  0.00     0.308 C 
ATOM     30  C   UNL A   1      29.271  25.380  23.404  1.00  0.00     0.139 C 
ATOM     31  O   UNL A   1      30.819  23.343  23.265  1.00  0.00    -0.252 OA
ENDBRANCH  28  29
ENDBRANCH  23  28
ENDBRANCH   9  22
BRANCH  20  32
ATOM     32  N   UNL A   1      40.746  20.432  26.457  1.00  0.00     0.063 N 
ATOM     33  O   UNL A   1      40.196  19.612  27.203  1.00  0.00    -0.258 OA
ATOM     34  O   UNL A   1      41.505  20.169  25.515  1.00  0.00    -0.258 OA
ENDBRANCH  20  32
ENDBRANCH   6   8
ENDBRANCH   5   6
ENDBRANCH   4   5
ENDBRANCH   3   4
ENDBRANCH   2   3
ENDBRANCH   1   2
BRANCH   1  35
ATOM     35  C   UNL A   1      46.198  24.192  28.205  1.00  0.00     0.188 C 
BRANCH  35  36
ATOM     36  O   UNL A   1      46.970  23.785  27.095  1.00  0.00    -0.376 OA
BRANCH  36  37
ATOM     37  C   UNL A   1      46.344  23.712  25.825  1.00  0.00     0.202 C 
BRANCH  37  38
ATOM     38  C   UNL A   1      46.662  24.714  24.695  1.00  0.00     0.261 C 
BRANCH  38  39
ATOM     39  O   UNL A   1      48.052  25.019  24.476  1.00  0.00    -0.460 OA
BRANCH  39  40
ATOM     40  C   UNL A   1      48.345  26.305  24.147  1.00  0.00     0.338 C 
ATOM     41  O   UNL A   1      48.854  26.696  23.111  1.00  0.00    -0.246 OA
BRANCH  40  42
ATOM     42  C   UNL A   1      47.770  27.232  25.152  1.00  0.00     0.060 A 
ATOM     43  C   UNL A   1      46.720  28.065  24.766  1.00  0.00     0.016 A 
ATOM     44  C   UNL A   1      48.264  27.318  26.454  1.00  0.00     0.016 A 
ATOM     45  C   UNL A   1      46.163  28.960  25.677  1.00  0.00     0.010 A 
ATOM     46  C   UNL A   1      47.749  28.293  27.334  1.00  0.00     0.010 A 
ATOM     47  C   UNL A   1      46.718  29.163  26.936  1.00  0.00    -0.014 A 
BRANCH  47  48
ATOM     48  C   UNL A   1      46.356  30.384  27.732  1.00  0.00     0.031 A 
ATOM     49  C   UNL A   1      47.329  31.619  27.512  1.00  0.00     0.074 A 
ATOM     50  C   UNL A   1      45.177  30.442  28.446  1.00  0.00     0.049 A 
ATOM     51  N   UNL A   1      47.149  32.859  27.861  1.00  0.00    -0.248 NA
ATOM     52  C   UNL A   1      48.567  31.530  26.720  1.00  0.00     0.031 C 
ATOM     53  C   UNL A   1      44.021  29.537  28.403  1.00  0.00     0.029 A 
ATOM     54  N   UNL A   1      44.736  31.362  29.392  1.00  0.00    -0.354 N 
ATOM     55  C   UNL A   1      48.160  33.711  27.462  1.00  0.00     0.074 A 
ATOM     56  C   UNL A   1      49.026  32.793  26.720  1.00  0.00     0.031 C 
ATOM     57  C   UNL A   1      43.003  30.037  29.154  1.00  0.00     0.029 A 
ATOM     58  C   UNL A   1      43.398  31.301  29.820  1.00  0.00     0.049 A 
ATOM     59  H   UNL A   1      45.348  32.043  29.755  1.00  0.00     0.167 HD
ATOM     60  C   UNL A   1      48.345  35.065  27.721  1.00  0.00     0.031 A 
ATOM     61  C   UNL A   1      42.579  32.127  30.592  1.00  0.00     0.031 A 
ATOM     62  C   UNL A   1      47.573  36.005  28.629  1.00  0.00     0.049 A 
ATOM     63  C   UNL A   1      42.819  33.654  31.094  1.00  0.00     0.074 A 
ATOM     64  C   UNL A   1      48.025  37.092  29.386  1.00  0.00     0.029 A 
ATOM     65  N   UNL A   1      46.173  36.208  28.761  1.00  0.00    -0.354 N 
ATOM     66  N   UNL A   1      43.929  34.345  31.111  1.00  0.00    -0.248 NA
ATOM     67  C   UNL A   1      41.726  34.543  31.544  1.00  0.00     0.031 C 
ATOM     68  C   UNL A   1      46.982  37.557  30.246  1.00  0.00     0.029 A 
ATOM     69  C   UNL A   1      45.838  36.797  30.028  1.00  0.00     0.049 A 
ATOM     70  H   UNL A   1      45.512  35.973  28.070  1.00  0.00     0.167 HD
ATOM     71  C   UNL A   1      43.696  35.712  31.145  1.00  0.00     0.074 A 
ATOM     72  C   UNL A   1      42.307  35.757  31.593  1.00  0.00     0.031 C 
ATOM     73  C   UNL A   1      44.510  36.780  30.767  1.00  0.00     0.031 A 
BRANCH  60  74
ATOM     74  C   UNL A   1      49.658  35.590  27.171  1.00  0.00    -0.014 A 
ATOM     75  C   UNL A   1      50.859  35.428  27.886  1.00  0.00     0.010 A 
ATOM     76  C   UNL A   1      49.695  36.273  25.939  1.00  0.00     0.010 A 
ATOM     77  C   UNL A   1      52.060  35.943  27.386  1.00  0.00     0.020 A 
ATOM     78  C   UNL A   1      50.900  36.757  25.416  1.00  0.00     0.020 A 
ATOM     79  C   UNL A   1      52.075  36.599  26.151  1.00  0.00     0.054 A 
BRANCH  79  80
ATOM     80  S   UNL A   1      53.658  37.215  25.509  1.00  0.00     0.124 S 
ATOM     81  O   UNL A   1      54.066  38.148  26.558  1.00  0.00    -0.237 OA
ATOM     82  O   UNL A   1      54.457  35.997  25.408  1.00  0.00    -0.237 OA
ATOM     83  O   UNL A   1      53.301  37.831  24.233  1.00  0.00    -0.744 OA
ENDBRANCH  79  80
ENDBRANCH  60  74
BRANCH  61  84
ATOM     84  C   UNL A   1      41.237  31.551  30.963  1.00  0.00    -0.014 A 
ATOM     85  C   UNL A   1      40.126  31.569  30.100  1.00  0.00     0.010 A 
ATOM     86  C   UNL A   1      41.079  30.986  32.244  1.00  0.00     0.010 A 
ATOM     87  C   UNL A   1      38.877  31.094  30.531  1.00  0.00     0.020 A 
ATOM     88  C   UNL A   1      39.850  30.470  32.662  1.00  0.00     0.020 A 
ATOM     89  C   UNL A   1      38.747  30.553  31.814  1.00  0.00     0.054 A 
BRANCH  89  90
ATOM     90  S   UNL A   1      37.128  29.940  32.363  1.00  0.00     0.124 S 
ATOM     91  O   UNL A   1      36.494  29.579  31.099  1.00  0.00    -0.237 OA
ATOM     92  O   UNL A   1      37.490  28.824  33.233  1.00  0.00    -0.237 OA
ATOM     93  O   UNL A   1      36.541  31.090  33.049  1.00  0.00    -0.744 OA
ENDBRANCH  89  90
ENDBRANCH  61  84
BRANCH  73  94
ATOM     94  C   UNL A   1      44.120  38.068  31.452  1.00  0.00    -0.014 A 
ATOM     95  C   UNL A   1      43.622  39.140  30.677  1.00  0.00     0.010 A 
ATOM     96  C   UNL A   1      44.146  38.199  32.846  1.00  0.00     0.010 A 
ATOM     97  C   UNL A   1      43.237  40.340  31.270  1.00  0.00     0.020 A 
ATOM     98  C   UNL A   1      43.742  39.397  33.450  1.00  0.00     0.020 A 
ATOM     99  C   UNL A   1      43.311  40.467  32.657  1.00  0.00     0.054 A 
BRANCH  99 100
ATOM    100  S   UNL A   1      42.816  42.044  33.402  1.00  0.00     0.124 S 
ATOM    101  O   UNL A   1      42.391  42.813  32.235  1.00  0.00    -0.237 OA
ATOM    102  O   UNL A   1      41.747  41.644  34.314  1.00  0.00    -0.237 OA
ATOM    103  O   UNL A   1      44.036  42.519  34.050  1.00  0.00    -0.744 OA
ENDBRANCH  99 100
ENDBRANCH  73  94
ENDBRANCH  47  48
ENDBRANCH  40  42
ENDBRANCH  39  40
ENDBRANCH  38  39
ENDBRANCH  37  38
ENDBRANCH  36  37
ENDBRANCH  35  36
ENDBRANCH   1  35
TORSDOF 24
ENDMDL
MODEL 3
REMARK VINA RESULT:      -8.9      4.997     10.556
REMARK SMILES CC(=O)Oc1ccc([C@H]2Nc3c(C(=O)OCCOCCOCCOC(=O)c4ccc(-c5c6nc(c(-c7ccc(S(=O)(=O)[O-])cc7)c7ccc([nH]7)c(-c7ccc(S(=O)(=O)[O-])cc7)c7nc(c(-c8ccc(S(=O)(=O)[O-])cc8)c8ccc5[nH]8)C=C7)C=C6)cc4)ccc([N+](=O)[O-])c3[C@H]3C=CC[C@@H]32)cc1
REMARK SMILES IDX 19 1 18 2 17 3 16 4 15 5 13 6 14 7 12 8 9 9 10 10 98 11
REMARK SMILES IDX 11 12 94 14 97 15 93 16 95 17 96 18 87 19 89 20 88 21 8 22
REMARK SMILES IDX 5 23 6 24 100 25 7 26 99 27 4 28 2 29 1 30 3 31 90 32 91 33
REMARK SMILES IDX 92 34 20 35 21 36 22 37 23 38 24 39 25 40 26 41 27 42 28 43
REMARK SMILES IDX 86 44 29 45 85 46 30 47 31 48 32 49 79 50 33 51 84 52 78 53
REMARK SMILES IDX 80 54 34 55 83 56 77 57 76 58 35 60 65 61 46 62 64 63 47 64
REMARK SMILES IDX 50 65 63 66 81 67 48 68 49 69 62 71 82 72 51 73 36 74 37 75
REMARK SMILES IDX 45 76 38 77 44 78 39 79 40 80 41 81 42 82 43 83 66 84 67 85
REMARK SMILES IDX 75 86 68 87 74 88 69 89 70 90 71 91 72 92 73 93 52 94 53 95
REMARK SMILES IDX 61 96 54 97 60 98 55 99 56 100 57 101 58 102 59 103
REMARK H PARENT 10 13 80 59 50 70
REMARK Flexibility Score: inf
ROOT
ATOM      1  C   UNL A   1      42.608  40.492  30.238  1.00  0.00     0.188 C 
ENDROOT
BRANCH   1   2
ATOM      2  O   UNL A   1      41.943  40.497  28.996  1.00  0.00    -0.376 OA
BRANCH   2   3
ATOM      3  C   UNL A   1      41.787  39.300  28.265  1.00  0.00     0.202 C 
BRANCH   3   4
ATOM      4  C   UNL A   1      42.430  39.053  26.892  1.00  0.00     0.261 C 
BRANCH   4   5
ATOM      5  O   UNL A   1      43.568  39.842  26.531  1.00  0.00    -0.460 OA
BRANCH   5   6
ATOM      6  C   UNL A   1      44.810  39.502  27.007  1.00  0.00     0.340 C 
ATOM      7  O   UNL A   1      45.137  38.456  27.514  1.00  0.00    -0.246 OA
BRANCH   6   8
ATOM      8  C   UNL A   1      45.650  40.726  26.868  1.00  0.00     0.084 A 
ATOM      9  C   UNL A   1      44.676  42.925  23.837  1.00  0.00     0.114 C 
ATOM     10  N   UNL A   1      44.642  41.746  24.764  1.00  0.00    -0.377 N 
ATOM     11  C   UNL A   1      46.127  43.358  23.749  1.00  0.00     0.031 C 
ATOM     12  C   UNL A   1      45.555  41.752  25.882  1.00  0.00     0.060 A 
ATOM     13  H   UNL A   1      44.021  40.997  24.616  1.00  0.00     0.161 HD
ATOM     14  C   UNL A   1      46.291  44.055  25.096  1.00  0.00     0.056 C 
ATOM     15  C   UNL A   1      46.687  44.273  22.668  1.00  0.00     0.034 C 
ATOM     16  C   UNL A   1      46.437  42.901  26.064  1.00  0.00     0.061 A 
ATOM     17  C   UNL A   1      47.296  45.103  24.781  1.00  0.00    -0.022 C 
ATOM     18  C   UNL A   1      47.485  45.245  23.465  1.00  0.00    -0.030 C 
ATOM     19  C   UNL A   1      46.631  40.790  27.892  1.00  0.00     0.025 A 
ATOM     20  C   UNL A   1      47.379  42.905  27.107  1.00  0.00     0.275 A 
ATOM     21  C   UNL A   1      47.493  41.862  28.012  1.00  0.00     0.087 A 
BRANCH   9  22
ATOM     22  C   UNL A   1      43.995  42.995  22.483  1.00  0.00    -0.025 A 
ATOM     23  C   UNL A   1      42.586  43.441  20.077  1.00  0.00     0.130 A 
ATOM     24  C   UNL A   1      41.938  43.628  21.287  1.00  0.00     0.047 A 
ATOM     25  C   UNL A   1      43.959  43.187  20.057  1.00  0.00     0.047 A 
ATOM     26  C   UNL A   1      42.635  43.410  22.469  1.00  0.00     0.010 A 
ATOM     27  C   UNL A   1      44.658  42.941  21.255  1.00  0.00     0.010 A 
BRANCH  23  28
ATOM     28  O   UNL A   1      41.700  43.355  18.976  1.00  0.00    -0.427 OA
BRANCH  28  29
ATOM     29  C   UNL A   1      40.886  44.437  18.680  1.00  0.00     0.308 C 
ATOM     30  C   UNL A   1      41.592  45.665  17.883  1.00  0.00     0.139 C 
ATOM     31  O   UNL A   1      39.682  44.276  18.874  1.00  0.00    -0.252 OA
ENDBRANCH  28  29
ENDBRANCH  23  28
ENDBRANCH   9  22
BRANCH  20  32
ATOM     32  N   UNL A   1      48.333  43.977  27.268  1.00  0.00     0.063 N 
ATOM     33  O   UNL A   1      49.444  43.818  26.746  1.00  0.00    -0.258 OA
ATOM     34  O   UNL A   1      47.980  44.942  27.958  1.00  0.00    -0.258 OA
ENDBRANCH  20  32
ENDBRANCH   6   8
ENDBRANCH   5   6
ENDBRANCH   4   5
ENDBRANCH   3   4
ENDBRANCH   2   3
ENDBRANCH   1   2
BRANCH   1  35
ATOM     35  C   UNL A   1      44.081  40.957  30.318  1.00  0.00     0.188 C 
BRANCH  35  36
ATOM     36  O   UNL A   1      44.384  42.331  30.443  1.00  0.00    -0.376 OA
BRANCH  36  37
ATOM     37  C   UNL A   1      45.583  42.703  31.101  1.00  0.00     0.202 C 
BRANCH  37  38
ATOM     38  C   UNL A   1      45.585  43.576  32.373  1.00  0.00     0.261 C 
BRANCH  38  39
ATOM     39  O   UNL A   1      46.409  43.124  33.464  1.00  0.00    -0.460 OA
BRANCH  39  40
ATOM     40  C   UNL A   1      45.758  42.696  34.578  1.00  0.00     0.338 C 
ATOM     41  O   UNL A   1      45.530  43.343  35.585  1.00  0.00    -0.246 OA
BRANCH  40  42
ATOM     42  C   UNL A   1      45.163  41.359  34.337  1.00  0.00     0.060 A 
ATOM     43  C   UNL A   1      46.005  40.247  34.331  1.00  0.00     0.016 A 
ATOM     44  C   UNL A   1      43.802  41.184  34.085  1.00  0.00     0.016 A 
ATOM     45  C   UNL A   1      45.486  38.976  34.093  1.00  0.00     0.010 A 
ATOM     46  C   UNL A   1      43.310  39.903  33.756  1.00  0.00     0.010 A 
ATOM     47  C   UNL A   1      44.163  38.785  33.709  1.00  0.00    -0.014 A 
BRANCH  47  48
ATOM     48  C   UNL A   1      43.738  37.486  33.086  1.00  0.00     0.031 A 
ATOM     49  C   UNL A   1      44.627  37.034  31.851  1.00  0.00     0.074 A 
ATOM     50  C   UNL A   1      42.766  36.702  33.672  1.00  0.00     0.049 A 
ATOM     51  N   UNL A   1      44.664  35.872  31.267  1.00  0.00    -0.248 NA
ATOM     52  C   UNL A   1      45.677  37.885  31.267  1.00  0.00     0.031 C 
ATOM     53  C   UNL A   1      42.166  36.811  35.008  1.00  0.00     0.029 A 
ATOM     54  N   UNL A   1      42.085  35.590  33.186  1.00  0.00    -0.354 N 
ATOM     55  C   UNL A   1      45.599  35.776  30.256  1.00  0.00     0.074 A 
ATOM     56  C   UNL A   1      46.224  37.098  30.324  1.00  0.00     0.031 C 
ATOM     57  C   UNL A   1      41.352  35.749  35.248  1.00  0.00     0.029 A 
ATOM     58  C   UNL A   1      41.283  34.850  34.072  1.00  0.00     0.049 A 
ATOM     59  H   UNL A   1      42.163  35.327  32.240  1.00  0.00     0.167 HD
ATOM     60  C   UNL A   1      45.863  34.734  29.375  1.00  0.00     0.031 A 
ATOM     61  C   UNL A   1      40.615  33.626  33.997  1.00  0.00     0.031 A 
ATOM     62  C   UNL A   1      45.124  33.426  29.153  1.00  0.00     0.049 A 
ATOM     63  C   UNL A   1      40.734  32.442  32.889  1.00  0.00     0.074 A 
ATOM     64  C   UNL A   1      44.933  32.694  27.975  1.00  0.00     0.029 A 
ATOM     65  N   UNL A   1      44.655  32.467  30.090  1.00  0.00    -0.354 N 
ATOM     66  N   UNL A   1      41.273  32.487  31.698  1.00  0.00    -0.248 NA
ATOM     67  C   UNL A   1      40.293  31.052  33.135  1.00  0.00     0.031 C 
ATOM     68  C   UNL A   1      44.002  31.633  28.204  1.00  0.00     0.029 A 
ATOM     69  C   UNL A   1      43.611  31.650  29.539  1.00  0.00     0.049 A 
ATOM     70  H   UNL A   1      45.003  32.374  31.007  1.00  0.00     0.167 HD
ATOM     71  C   UNL A   1      41.618  31.227  31.231  1.00  0.00     0.074 A 
ATOM     72  C   UNL A   1      40.818  30.368  32.099  1.00  0.00     0.031 C 
ATOM     73  C   UNL A   1      42.547  30.843  30.264  1.00  0.00     0.031 A 
BRANCH  60  74
ATOM     74  C   UNL A   1      46.917  35.093  28.345  1.00  0.00    -0.014 A 
ATOM     75  C   UNL A   1      46.580  35.812  27.184  1.00  0.00     0.010 A 
ATOM     76  C   UNL A   1      48.256  34.689  28.522  1.00  0.00     0.010 A 
ATOM     77  C   UNL A   1      47.554  36.112  26.225  1.00  0.00     0.020 A 
ATOM     78  C   UNL A   1      49.241  35.018  27.583  1.00  0.00     0.020 A 
ATOM     79  C   UNL A   1      48.880  35.719  26.432  1.00  0.00     0.054 A 
BRANCH  79  80
ATOM     80  S   UNL A   1      50.127  36.163  25.189  1.00  0.00     0.124 S 
ATOM     81  O   UNL A   1      49.370  37.045  24.304  1.00  0.00    -0.237 OA
ATOM     82  O   UNL A   1      51.159  36.815  25.992  1.00  0.00    -0.237 OA
ATOM     83  O   UNL A   1      50.512  34.879  24.608  1.00  0.00    -0.744 OA
ENDBRANCH  79  80
ENDBRANCH  60  74
BRANCH  61  84
ATOM     84  C   UNL A   1      39.697  33.313  35.149  1.00  0.00    -0.014 A 
ATOM     85  C   UNL A   1      38.416  33.880  35.289  1.00  0.00     0.010 A 
ATOM     86  C   UNL A   1      40.148  32.428  36.148  1.00  0.00     0.010 A 
ATOM     87  C   UNL A   1      37.639  33.618  36.428  1.00  0.00     0.020 A 
ATOM     88  C   UNL A   1      39.360  32.128  37.262  1.00  0.00     0.020 A 
ATOM     89  C   UNL A   1      38.120  32.747  37.410  1.00  0.00     0.054 A 
BRANCH  89  90
ATOM     90  S   UNL A   1      37.106  32.413  38.880  1.00  0.00     0.124 S 
ATOM     91  O   UNL A   1      37.319  30.983  39.079  1.00  0.00    -0.237 OA
ATOM     92  O   UNL A   1      37.706  33.289  39.884  1.00  0.00    -0.237 OA
ATOM     93  O   UNL A   1      35.759  32.792  38.460  1.00  0.00    -0.744 OA
ENDBRANCH  89  90
ENDBRANCH  61  84
BRANCH  73  94
ATOM     94  C   UNL A   1      42.235  29.486  29.678  1.00  0.00    -0.014 A 
ATOM     95  C   UNL A   1      43.106  28.403  29.941  1.00  0.00     0.010 A 
ATOM     96  C   UNL A   1      41.056  29.245  28.961  1.00  0.00     0.010 A 
ATOM     97  C   UNL A   1      42.847  27.132  29.432  1.00  0.00     0.020 A 
ATOM     98  C   UNL A   1      40.782  27.964  28.464  1.00  0.00     0.020 A 
ATOM     99  C   UNL A   1      41.690  26.922  28.684  1.00  0.00     0.054 A 
BRANCH  99 100
ATOM    100  S   UNL A   1      41.385  25.261  28.023  1.00  0.00     0.124 S 
ATOM    101  O   UNL A   1      39.932  25.151  28.134  1.00  0.00    -0.237 OA
ATOM    102  O   UNL A   1      41.905  25.358  26.663  1.00  0.00    -0.237 OA
ATOM    103  O   UNL A   1      42.144  24.388  28.915  1.00  0.00    -0.744 OA
ENDBRANCH  99 100
ENDBRANCH  73  94
ENDBRANCH  47  48
ENDBRANCH  40  42
ENDBRANCH  39  40
ENDBRANCH  38  39
ENDBRANCH  37  38
ENDBRANCH  36  37
ENDBRANCH  35  36
ENDBRANCH   1  35
TORSDOF 24
ENDMDL
