MODEL 1
REMARK VINA RESULT:     -11.9      0.000      0.000
REMARK SMILES Cc1ccc(NC(=O)c2ccccc2NC(=O)[C@H]2CCCC[C@H]2C(=O)OCCOCCOCCOC(=O)c2ccc(-c3c4nc(c(-c5ccc(S(=O)(=O)[O-])cc5)c5ccc([nH]5)c(-c5ccc(S(=O)(=O)[O-])cc5)c5nc(c(-c6ccc(S(=O)(=O)[O-])cc6)c6ccc3[nH]6)C=C5)C=C4)cc2)cc1
REMARK SMILES IDX 30 1 29 2 28 3 27 4 26 5 24 6 25 7 23 8 18 9 19 10 20 11
REMARK SMILES IDX 22 12 21 13 16 14 15 15 17 17 14 18 9 19 10 20 11 21 13 22
REMARK SMILES IDX 12 23 7 24 6 25 8 27 5 28 1 29 2 30 3 31 99 32 4 33 98 34
REMARK SMILES IDX 31 35 32 36 33 37 34 38 35 39 36 40 37 41 38 42 39 43 97 44
REMARK SMILES IDX 40 45 96 46 41 47 42 48 43 49 90 50 44 51 95 52 89 53 91 54
REMARK SMILES IDX 45 55 94 56 88 57 87 58 46 60 76 61 57 62 75 63 58 64 61 65
REMARK SMILES IDX 74 66 92 67 59 68 60 69 73 71 93 72 62 73 47 74 48 75 56 76
REMARK SMILES IDX 49 77 55 78 50 79 51 80 52 81 53 82 54 83 77 84 78 85 86 86
REMARK SMILES IDX 79 87 85 88 80 89 81 90 82 91 83 92 84 93 63 94 64 95 72 96
REMARK SMILES IDX 65 97 71 98 66 99 67 100 68 101 69 102 70 103
REMARK H PARENT 15 16 6 26 91 59 61 70
REMARK Flexibility Score: inf
ROOT
ATOM      1  C   UNL A   1      42.094  41.891  31.038  1.00  0.00     0.188 C 
ENDROOT
BRANCH   1   2
ATOM      2  O   UNL A   1      42.509  42.471  32.238  1.00  0.00    -0.376 OA
BRANCH   2   3
ATOM      3  C   UNL A   1      43.545  43.463  32.198  1.00  0.00     0.202 C 
BRANCH   3   4
ATOM      4  C   UNL A   1      43.972  44.286  30.902  1.00  0.00     0.261 C 
BRANCH   4   5
ATOM      5  O   UNL A   1      44.457  43.677  29.380  1.00  0.00    -0.463 OA
BRANCH   5   6
ATOM      6  C   UNL A   1      45.177  43.498  28.192  1.00  0.00     0.309 C 
ATOM      7  O   UNL A   1      46.407  43.656  28.312  1.00  0.00    -0.252 OA
BRANCH   6   8
ATOM      8  C   UNL A   1      44.775  43.264  26.578  1.00  0.00     0.111 C 
ATOM      9  C   UNL A   1      45.063  44.041  25.164  1.00  0.00     0.093 C 
ATOM     10  C   UNL A   1      43.780  43.903  24.264  1.00  0.00     0.014 C 
ATOM     11  C   UNL A   1      43.262  42.463  24.085  1.00  0.00     0.001 C 
ATOM     12  C   UNL A   1      44.273  41.812  26.314  1.00  0.00     0.016 C 
ATOM     13  C   UNL A   1      43.027  41.769  25.419  1.00  0.00     0.001 C 
BRANCH   9  14
ATOM     14  C   UNL A   1      46.213  43.569  24.192  1.00  0.00     0.228 C 
ATOM     15  N   UNL A   1      46.513  44.019  22.922  1.00  0.00    -0.325 N 
ATOM     16  H   UNL A   1      47.370  43.642  22.618  1.00  0.00     0.169 HD
ATOM     17  O   UNL A   1      46.975  42.670  24.577  1.00  0.00    -0.274 OA
BRANCH  15  18
ATOM     18  C   UNL A   1      45.955  44.863  21.921  1.00  0.00     0.054 A 
ATOM     19  C   UNL A   1      45.005  44.414  20.921  1.00  0.00     0.063 A 
ATOM     20  C   UNL A   1      44.640  45.318  19.892  1.00  0.00     0.016 A 
ATOM     21  C   UNL A   1      45.191  46.591  19.797  1.00  0.00     0.001 A 
ATOM     22  C   UNL A   1      46.403  46.191  21.846  1.00  0.00     0.027 A 
ATOM     23  C   UNL A   1      46.067  47.025  20.774  1.00  0.00     0.002 A 
BRANCH  19  24
ATOM     24  C   UNL A   1      44.506  43.014  20.558  1.00  0.00     0.257 C 
ATOM     25  N   UNL A   1      43.415  42.723  19.781  1.00  0.00    -0.322 N 
ATOM     26  H   UNL A   1      42.995  41.850  19.958  1.00  0.00     0.170 HD
ATOM     27  O   UNL A   1      45.053  42.028  21.069  1.00  0.00    -0.269 OA
BRANCH  25  28
ATOM     28  C   UNL A   1      42.817  43.472  18.785  1.00  0.00     0.041 A 
ATOM     29  C   UNL A   1      41.735  46.711  16.287  1.00  0.00     0.044 C 
ATOM     30  C   UNL A   1      41.972  45.461  17.074  1.00  0.00    -0.051 A 
ATOM     31  C   UNL A   1      42.994  44.591  16.680  1.00  0.00     0.005 A 
ATOM     32  C   UNL A   1      41.281  45.232  18.271  1.00  0.00     0.005 A 
ATOM     33  C   UNL A   1      43.404  43.578  17.531  1.00  0.00     0.026 A 
ATOM     34  C   UNL A   1      41.686  44.212  19.123  1.00  0.00     0.026 A 
ENDBRANCH  25  28
ENDBRANCH  19  24
ENDBRANCH  15  18
ENDBRANCH   9  14
ENDBRANCH   6   8
ENDBRANCH   5   6
ENDBRANCH   4   5
ENDBRANCH   3   4
ENDBRANCH   2   3
ENDBRANCH   1   2
BRANCH   1  35
ATOM     35  C   UNL A   1      42.847  40.587  30.824  1.00  0.00     0.188 C 
BRANCH  35  36
ATOM     36  O   UNL A   1      43.399  40.349  29.548  1.00  0.00    -0.376 OA
BRANCH  36  37
ATOM     37  C   UNL A   1      43.918  39.048  29.357  1.00  0.00     0.202 C 
BRANCH  37  38
ATOM     38  C   UNL A   1      43.700  38.187  28.093  1.00  0.00     0.261 C 
BRANCH  38  39
ATOM     39  O   UNL A   1      44.523  37.076  27.596  1.00  0.00    -0.460 OA
BRANCH  39  40
ATOM     40  C   UNL A   1      45.123  36.012  27.107  1.00  0.00     0.338 C 
ATOM     41  O   UNL A   1      46.150  36.205  26.449  1.00  0.00    -0.246 OA
BRANCH  40  42
ATOM     42  C   UNL A   1      44.534  34.635  27.102  1.00  0.00     0.060 A 
ATOM     43  C   UNL A   1      44.196  34.150  28.333  1.00  0.00     0.016 A 
ATOM     44  C   UNL A   1      44.280  33.760  26.029  1.00  0.00     0.016 A 
ATOM     45  C   UNL A   1      43.867  32.786  28.462  1.00  0.00     0.010 A 
ATOM     46  C   UNL A   1      44.029  32.361  26.205  1.00  0.00     0.010 A 
ATOM     47  C   UNL A   1      43.955  31.787  27.470  1.00  0.00    -0.014 A 
BRANCH  47  48
ATOM     48  C   UNL A   1      44.245  30.270  27.629  1.00  0.00     0.031 A 
ATOM     49  C   UNL A   1      45.525  29.674  27.143  1.00  0.00     0.074 A 
ATOM     50  C   UNL A   1      43.539  29.327  28.350  1.00  0.00     0.049 A 
ATOM     51  N   UNL A   1      45.727  28.397  26.990  1.00  0.00    -0.248 NA
ATOM     52  C   UNL A   1      46.632  30.480  26.657  1.00  0.00     0.031 C 
ATOM     53  C   UNL A   1      44.097  28.326  29.283  1.00  0.00     0.029 A 
ATOM     54  N   UNL A   1      42.196  29.026  28.449  1.00  0.00    -0.354 N 
ATOM     55  C   UNL A   1      47.059  28.229  26.705  1.00  0.00     0.074 A 
ATOM     56  C   UNL A   1      47.506  29.539  26.296  1.00  0.00     0.031 C 
ATOM     57  C   UNL A   1      43.108  27.595  29.844  1.00  0.00     0.029 A 
ATOM     58  C   UNL A   1      41.825  27.962  29.246  1.00  0.00     0.049 A 
ATOM     59  H   UNL A   1      41.522  29.554  27.964  1.00  0.00     0.167 HD
ATOM     60  C   UNL A   1      47.716  27.083  27.053  1.00  0.00     0.031 A 
ATOM     61  C   UNL A   1      40.660  27.252  29.099  1.00  0.00     0.031 A 
ATOM     62  C   UNL A   1      46.829  26.101  27.692  1.00  0.00     0.049 A 
ATOM     63  C   UNL A   1      41.113  25.921  28.568  1.00  0.00     0.074 A 
ATOM     64  C   UNL A   1      46.647  25.748  29.021  1.00  0.00     0.029 A 
ATOM     65  N   UNL A   1      45.766  25.524  26.992  1.00  0.00    -0.354 N 
ATOM     66  N   UNL A   1      42.363  25.713  28.269  1.00  0.00    -0.248 NA
ATOM     67  C   UNL A   1      40.280  24.757  28.304  1.00  0.00     0.031 C 
ATOM     68  C   UNL A   1      45.448  24.997  29.124  1.00  0.00     0.029 A 
ATOM     69  C   UNL A   1      44.916  24.844  27.854  1.00  0.00     0.049 A 
ATOM     70  H   UNL A   1      45.638  25.589  26.018  1.00  0.00     0.167 HD
ATOM     71  C   UNL A   1      42.531  24.472  27.777  1.00  0.00     0.074 A 
ATOM     72  C   UNL A   1      41.197  23.894  27.820  1.00  0.00     0.031 C 
ATOM     73  C   UNL A   1      43.766  24.075  27.367  1.00  0.00     0.031 A 
BRANCH  60  74
ATOM     74  C   UNL A   1      49.239  27.062  27.162  1.00  0.00    -0.014 A 
ATOM     75  C   UNL A   1      50.020  26.328  26.245  1.00  0.00     0.010 A 
ATOM     76  C   UNL A   1      49.956  27.699  28.196  1.00  0.00     0.010 A 
ATOM     77  C   UNL A   1      51.409  26.153  26.415  1.00  0.00     0.020 A 
ATOM     78  C   UNL A   1      51.327  27.489  28.414  1.00  0.00     0.020 A 
ATOM     79  C   UNL A   1      52.049  26.712  27.518  1.00  0.00     0.054 A 
BRANCH  79  80
ATOM     80  S   UNL A   1      53.828  26.452  27.756  1.00  0.00     0.124 S 
ATOM     81  O   UNL A   1      53.937  26.274  29.201  1.00  0.00    -0.237 OA
ATOM     82  O   UNL A   1      54.079  25.259  26.952  1.00  0.00    -0.237 OA
ATOM     83  O   UNL A   1      54.430  27.682  27.243  1.00  0.00    -0.744 OA
ENDBRANCH  79  80
ENDBRANCH  60  74
BRANCH  61  84
ATOM     84  C   UNL A   1      39.361  27.963  28.719  1.00  0.00    -0.014 A 
ATOM     85  C   UNL A   1      38.336  28.093  29.683  1.00  0.00     0.010 A 
ATOM     86  C   UNL A   1      39.237  28.794  27.601  1.00  0.00     0.010 A 
ATOM     87  C   UNL A   1      37.475  29.229  29.712  1.00  0.00     0.020 A 
ATOM     88  C   UNL A   1      38.386  29.935  27.618  1.00  0.00     0.020 A 
ATOM     89  C   UNL A   1      37.589  30.205  28.729  1.00  0.00     0.054 A 
BRANCH  89  90
ATOM     90  S   UNL A   1      37.025  31.924  29.075  1.00  0.00     0.124 S 
ATOM     91  O   UNL A   1      36.425  31.802  30.397  1.00  0.00    -0.237 OA
ATOM     92  O   UNL A   1      38.267  32.697  29.022  1.00  0.00    -0.237 OA
ATOM     93  O   UNL A   1      36.100  32.212  27.978  1.00  0.00    -0.744 OA
ENDBRANCH  89  90
ENDBRANCH  61  84
BRANCH  73  94
ATOM     94  C   UNL A   1      43.992  22.836  26.576  1.00  0.00    -0.014 A 
ATOM     95  C   UNL A   1      43.259  21.657  26.781  1.00  0.00     0.010 A 
ATOM     96  C   UNL A   1      44.902  22.875  25.500  1.00  0.00     0.010 A 
ATOM     97  C   UNL A   1      43.496  20.526  26.002  1.00  0.00     0.020 A 
ATOM     98  C   UNL A   1      45.107  21.770  24.684  1.00  0.00     0.020 A 
ATOM     99  C   UNL A   1      44.428  20.588  24.967  1.00  0.00     0.054 A 
BRANCH  99 100
ATOM    100  S   UNL A   1      44.719  19.123  23.957  1.00  0.00     0.124 S 
ATOM    101  O   UNL A   1      43.787  18.166  24.549  1.00  0.00    -0.237 OA
ATOM    102  O   UNL A   1      44.378  19.579  22.611  1.00  0.00    -0.237 OA
ATOM    103  O   UNL A   1      46.134  18.837  24.169  1.00  0.00    -0.744 OA
ENDBRANCH  99 100
ENDBRANCH  73  94
ENDBRANCH  47  48
ENDBRANCH  40  42
ENDBRANCH  39  40
ENDBRANCH  38  39
ENDBRANCH  37  38
ENDBRANCH  36  37
ENDBRANCH  35  36
ENDBRANCH   1  35
TORSDOF 24
ENDMDL
MODEL 2
REMARK VINA RESULT:     -11.3      9.885     15.709
REMARK SMILES Cc1ccc(NC(=O)c2ccccc2NC(=O)[C@H]2CCCC[C@H]2C(=O)OCCOCCOCCOC(=O)c2ccc(-c3c4nc(c(-c5ccc(S(=O)(=O)[O-])cc5)c5ccc([nH]5)c(-c5ccc(S(=O)(=O)[O-])cc5)c5nc(c(-c6ccc(S(=O)(=O)[O-])cc6)c6ccc3[nH]6)C=C5)C=C4)cc2)cc1
REMARK SMILES IDX 30 1 29 2 28 3 27 4 26 5 24 6 25 7 23 8 18 9 19 10 20 11
REMARK SMILES IDX 22 12 21 13 16 14 15 15 17 17 14 18 9 19 10 20 11 21 13 22
REMARK SMILES IDX 12 23 7 24 6 25 8 27 5 28 1 29 2 30 3 31 99 32 4 33 98 34
REMARK SMILES IDX 31 35 32 36 33 37 34 38 35 39 36 40 37 41 38 42 39 43 97 44
REMARK SMILES IDX 40 45 96 46 41 47 42 48 43 49 90 50 44 51 95 52 89 53 91 54
REMARK SMILES IDX 45 55 94 56 88 57 87 58 46 60 76 61 57 62 75 63 58 64 61 65
REMARK SMILES IDX 74 66 92 67 59 68 60 69 73 71 93 72 62 73 47 74 48 75 56 76
REMARK SMILES IDX 49 77 55 78 50 79 51 80 52 81 53 82 54 83 77 84 78 85 86 86
REMARK SMILES IDX 79 87 85 88 80 89 81 90 82 91 83 92 84 93 63 94 64 95 72 96
REMARK SMILES IDX 65 97 71 98 66 99 67 100 68 101 69 102 70 103
REMARK H PARENT 15 16 6 26 91 59 61 70
REMARK Flexibility Score: inf
ROOT
ATOM      1  C   UNL A   1      37.338  32.390  29.099  1.00  0.00     0.188 C 
ENDROOT
BRANCH   1   2
ATOM      2  O   UNL A   1      37.391  31.658  27.912  1.00  0.00    -0.376 OA
BRANCH   2   3
ATOM      3  C   UNL A   1      36.934  30.298  27.924  1.00  0.00     0.202 C 
BRANCH   3   4
ATOM      4  C   UNL A   1      35.435  29.841  28.214  1.00  0.00     0.261 C 
BRANCH   4   5
ATOM      5  O   UNL A   1      34.300  29.190  27.114  1.00  0.00    -0.463 OA
BRANCH   5   6
ATOM      6  C   UNL A   1      33.421  29.075  26.030  1.00  0.00     0.309 C 
ATOM      7  O   UNL A   1      32.483  29.896  26.042  1.00  0.00    -0.252 OA
BRANCH   6   8
ATOM      8  C   UNL A   1      33.222  27.986  24.766  1.00  0.00     0.111 C 
ATOM      9  C   UNL A   1      32.743  26.427  24.612  1.00  0.00     0.093 C 
ATOM     10  C   UNL A   1      33.593  25.767  23.465  1.00  0.00     0.014 C 
ATOM     11  C   UNL A   1      33.605  26.545  22.135  1.00  0.00     0.001 C 
ATOM     12  C   UNL A   1      33.190  28.708  23.384  1.00  0.00     0.016 C 
ATOM     13  C   UNL A   1      34.035  27.993  22.321  1.00  0.00     0.001 C 
BRANCH   9  14
ATOM     14  C   UNL A   1      31.266  26.064  24.193  1.00  0.00     0.228 C 
ATOM     15  N   UNL A   1      30.690  24.819  24.040  1.00  0.00    -0.325 N 
ATOM     16  H   UNL A   1      29.718  24.903  23.913  1.00  0.00     0.169 HD
ATOM     17  O   UNL A   1      30.479  26.991  23.956  1.00  0.00    -0.274 OA
BRANCH  15  18
ATOM     18  C   UNL A   1      31.082  23.450  24.008  1.00  0.00     0.054 A 
ATOM     19  C   UNL A   1      31.444  22.685  25.185  1.00  0.00     0.063 A 
ATOM     20  C   UNL A   1      31.956  21.376  24.999  1.00  0.00     0.016 A 
ATOM     21  C   UNL A   1      32.152  20.831  23.735  1.00  0.00     0.001 A 
ATOM     22  C   UNL A   1      31.196  22.821  22.759  1.00  0.00     0.027 A 
ATOM     23  C   UNL A   1      31.770  21.552  22.619  1.00  0.00     0.002 A 
BRANCH  19  24
ATOM     24  C   UNL A   1      31.672  23.110  26.637  1.00  0.00     0.257 C 
ATOM     25  N   UNL A   1      32.832  22.957  27.350  1.00  0.00    -0.322 N 
ATOM     26  H   UNL A   1      32.720  22.898  28.326  1.00  0.00     0.170 HD
ATOM     27  O   UNL A   1      30.717  23.548  27.293  1.00  0.00    -0.269 OA
BRANCH  25  28
ATOM     28  C   UNL A   1      34.138  22.876  26.902  1.00  0.00     0.041 A 
ATOM     29  C   UNL A   1      37.506  22.443  24.378  1.00  0.00     0.044 C 
ATOM     30  C   UNL A   1      36.448  22.595  25.425  1.00  0.00    -0.051 A 
ATOM     31  C   UNL A   1      35.964  23.872  25.725  1.00  0.00     0.005 A 
ATOM     32  C   UNL A   1      35.844  21.467  25.995  1.00  0.00     0.005 A 
ATOM     33  C   UNL A   1      34.815  24.014  26.485  1.00  0.00     0.026 A 
ATOM     34  C   UNL A   1      34.695  21.606  26.764  1.00  0.00     0.026 A 
ENDBRANCH  25  28
ENDBRANCH  19  24
ENDBRANCH  15  18
ENDBRANCH   9  14
ENDBRANCH   6   8
ENDBRANCH   5   6
ENDBRANCH   4   5
ENDBRANCH   3   4
ENDBRANCH   2   3
ENDBRANCH   1   2
BRANCH   1  35
ATOM     35  C   UNL A   1      36.453  33.611  28.897  1.00  0.00     0.188 C 
BRANCH  35  36
ATOM     36  O   UNL A   1      35.496  33.563  27.862  1.00  0.00    -0.376 OA
BRANCH  36  37
ATOM     37  C   UNL A   1      34.700  34.725  27.732  1.00  0.00     0.202 C 
BRANCH  37  38
ATOM     38  C   UNL A   1      33.639  35.186  28.754  1.00  0.00     0.261 C 
BRANCH  38  39
ATOM     39  O   UNL A   1      33.623  34.976  30.208  1.00  0.00    -0.460 OA
BRANCH  39  40
ATOM     40  C   UNL A   1      33.540  34.650  31.480  1.00  0.00     0.338 C 
ATOM     41  O   UNL A   1      32.785  35.330  32.182  1.00  0.00    -0.246 OA
BRANCH  40  42
ATOM     42  C   UNL A   1      34.448  33.676  32.165  1.00  0.00     0.060 A 
ATOM     43  C   UNL A   1      35.129  34.180  33.236  1.00  0.00     0.016 A 
ATOM     44  C   UNL A   1      34.715  32.325  31.875  1.00  0.00     0.016 A 
ATOM     45  C   UNL A   1      36.180  33.426  33.793  1.00  0.00     0.010 A 
ATOM     46  C   UNL A   1      35.846  31.622  32.403  1.00  0.00     0.010 A 
ATOM     47  C   UNL A   1      36.724  32.222  33.300  1.00  0.00    -0.014 A 
BRANCH  47  48
ATOM     48  C   UNL A   1      38.176  31.684  33.408  1.00  0.00     0.031 A 
ATOM     49  C   UNL A   1      38.637  30.532  32.577  1.00  0.00     0.074 A 
ATOM     50  C   UNL A   1      39.254  32.236  34.072  1.00  0.00     0.049 A 
ATOM     51  N   UNL A   1      39.728  29.858  32.801  1.00  0.00    -0.248 NA
ATOM     52  C   UNL A   1      37.831  29.960  31.512  1.00  0.00     0.031 C 
ATOM     53  C   UNL A   1      40.621  32.421  33.542  1.00  0.00     0.029 A 
ATOM     54  N   UNL A   1      39.413  32.766  35.337  1.00  0.00    -0.354 N 
ATOM     55  C   UNL A   1      39.903  29.007  31.737  1.00  0.00     0.074 A 
ATOM     56  C   UNL A   1      38.608  28.955  31.103  1.00  0.00     0.031 C 
ATOM     57  C   UNL A   1      41.407  33.034  34.455  1.00  0.00     0.029 A 
ATOM     58  C   UNL A   1      40.669  33.199  35.708  1.00  0.00     0.049 A 
ATOM     59  H   UNL A   1      38.651  32.831  35.957  1.00  0.00     0.167 HD
ATOM     60  C   UNL A   1      41.151  28.610  31.349  1.00  0.00     0.031 A 
ATOM     61  C   UNL A   1      41.103  33.301  37.006  1.00  0.00     0.031 A 
ATOM     62  C   UNL A   1      42.206  29.155  32.215  1.00  0.00     0.049 A 
ATOM     63  C   UNL A   1      42.103  32.188  37.141  1.00  0.00     0.074 A 
ATOM     64  C   UNL A   1      43.088  30.211  32.043  1.00  0.00     0.029 A 
ATOM     65  N   UNL A   1      42.289  28.801  33.565  1.00  0.00    -0.354 N 
ATOM     66  N   UNL A   1      42.298  31.345  36.168  1.00  0.00    -0.248 NA
ATOM     67  C   UNL A   1      42.926  31.890  38.304  1.00  0.00     0.031 C 
ATOM     68  C   UNL A   1      43.665  30.521  33.302  1.00  0.00     0.029 A 
ATOM     69  C   UNL A   1      43.178  29.626  34.239  1.00  0.00     0.049 A 
ATOM     70  H   UNL A   1      41.785  28.064  33.980  1.00  0.00     0.167 HD
ATOM     71  C   UNL A   1      43.203  30.414  36.522  1.00  0.00     0.074 A 
ATOM     72  C   UNL A   1      43.584  30.794  37.874  1.00  0.00     0.031 C 
ATOM     73  C   UNL A   1      43.515  29.417  35.652  1.00  0.00     0.031 A 
BRANCH  60  74
ATOM     74  C   UNL A   1      41.392  28.062  29.945  1.00  0.00    -0.014 A 
ATOM     75  C   UNL A   1      42.675  27.639  29.542  1.00  0.00     0.010 A 
ATOM     76  C   UNL A   1      40.394  28.001  28.950  1.00  0.00     0.010 A 
ATOM     77  C   UNL A   1      42.965  27.286  28.209  1.00  0.00     0.020 A 
ATOM     78  C   UNL A   1      40.675  27.709  27.606  1.00  0.00     0.020 A 
ATOM     79  C   UNL A   1      41.966  27.352  27.241  1.00  0.00     0.054 A 
BRANCH  79  80
ATOM     80  S   UNL A   1      42.351  26.936  25.518  1.00  0.00     0.124 S 
ATOM     81  O   UNL A   1      43.709  26.406  25.611  1.00  0.00    -0.237 OA
ATOM     82  O   UNL A   1      41.314  25.961  25.194  1.00  0.00    -0.237 OA
ATOM     83  O   UNL A   1      42.238  28.215  24.818  1.00  0.00    -0.744 OA
ENDBRANCH  79  80
ENDBRANCH  60  74
BRANCH  61  84
ATOM     84  C   UNL A   1      40.154  33.779  38.105  1.00  0.00    -0.014 A 
ATOM     85  C   UNL A   1      40.167  33.130  39.360  1.00  0.00     0.010 A 
ATOM     86  C   UNL A   1      39.516  35.024  38.083  1.00  0.00     0.010 A 
ATOM     87  C   UNL A   1      39.907  33.837  40.571  1.00  0.00     0.020 A 
ATOM     88  C   UNL A   1      39.256  35.742  39.285  1.00  0.00     0.020 A 
ATOM     89  C   UNL A   1      39.560  35.181  40.523  1.00  0.00     0.054 A 
BRANCH  89  90
ATOM     90  S   UNL A   1      39.873  36.261  41.983  1.00  0.00     0.124 S 
ATOM     91  O   UNL A   1      41.318  36.168  42.143  1.00  0.00    -0.237 OA
ATOM     92  O   UNL A   1      39.375  37.565  41.543  1.00  0.00    -0.237 OA
ATOM     93  O   UNL A   1      39.073  35.647  43.045  1.00  0.00    -0.744 OA
ENDBRANCH  89  90
ENDBRANCH  61  84
BRANCH  73  94
ATOM     94  C   UNL A   1      44.293  28.214  36.052  1.00  0.00    -0.014 A 
ATOM     95  C   UNL A   1      45.425  27.771  35.352  1.00  0.00     0.010 A 
ATOM     96  C   UNL A   1      43.948  27.551  37.247  1.00  0.00     0.010 A 
ATOM     97  C   UNL A   1      46.131  26.647  35.776  1.00  0.00     0.020 A 
ATOM     98  C   UNL A   1      44.678  26.462  37.708  1.00  0.00     0.020 A 
ATOM     99  C   UNL A   1      45.744  25.993  36.945  1.00  0.00     0.054 A 
BRANCH  99 100
ATOM    100  S   UNL A   1      46.671  24.547  37.492  1.00  0.00     0.124 S 
ATOM    101  O   UNL A   1      47.746  24.494  36.505  1.00  0.00    -0.237 OA
ATOM    102  O   UNL A   1      47.081  24.914  38.847  1.00  0.00    -0.237 OA
ATOM    103  O   UNL A   1      45.694  23.466  37.417  1.00  0.00    -0.744 OA
ENDBRANCH  99 100
ENDBRANCH  73  94
ENDBRANCH  47  48
ENDBRANCH  40  42
ENDBRANCH  39  40
ENDBRANCH  38  39
ENDBRANCH  37  38
ENDBRANCH  36  37
ENDBRANCH  35  36
ENDBRANCH   1  35
TORSDOF 24
ENDMDL
MODEL 3
REMARK VINA RESULT:     -11.0      1.299      2.030
REMARK SMILES Cc1ccc(NC(=O)c2ccccc2NC(=O)[C@H]2CCCC[C@H]2C(=O)OCCOCCOCCOC(=O)c2ccc(-c3c4nc(c(-c5ccc(S(=O)(=O)[O-])cc5)c5ccc([nH]5)c(-c5ccc(S(=O)(=O)[O-])cc5)c5nc(c(-c6ccc(S(=O)(=O)[O-])cc6)c6ccc3[nH]6)C=C5)C=C4)cc2)cc1
REMARK SMILES IDX 30 1 29 2 28 3 27 4 26 5 24 6 25 7 23 8 18 9 19 10 20 11
REMARK SMILES IDX 22 12 21 13 16 14 15 15 17 17 14 18 9 19 10 20 11 21 13 22
REMARK SMILES IDX 12 23 7 24 6 25 8 27 5 28 1 29 2 30 3 31 99 32 4 33 98 34
REMARK SMILES IDX 31 35 32 36 33 37 34 38 35 39 36 40 37 41 38 42 39 43 97 44
REMARK SMILES IDX 40 45 96 46 41 47 42 48 43 49 90 50 44 51 95 52 89 53 91 54
REMARK SMILES IDX 45 55 94 56 88 57 87 58 46 60 76 61 57 62 75 63 58 64 61 65
REMARK SMILES IDX 74 66 92 67 59 68 60 69 73 71 93 72 62 73 47 74 48 75 56 76
REMARK SMILES IDX 49 77 55 78 50 79 51 80 52 81 53 82 54 83 77 84 78 85 86 86
REMARK SMILES IDX 79 87 85 88 80 89 81 90 82 91 83 92 84 93 63 94 64 95 72 96
REMARK SMILES IDX 65 97 71 98 66 99 67 100 68 101 69 102 70 103
REMARK H PARENT 15 16 6 26 91 59 61 70
REMARK Flexibility Score: inf
ROOT
ATOM      1  C   UNL A   1      42.266  41.890  31.146  1.00  0.00     0.188 C 
ENDROOT
BRANCH   1   2
ATOM      2  O   UNL A   1      42.813  42.663  32.172  1.00  0.00    -0.376 OA
BRANCH   2   3
ATOM      3  C   UNL A   1      43.669  43.760  31.822  1.00  0.00     0.202 C 
BRANCH   3   4
ATOM      4  C   UNL A   1      43.880  44.318  30.344  1.00  0.00     0.261 C 
BRANCH   4   5
ATOM      5  O   UNL A   1      44.565  43.511  29.001  1.00  0.00    -0.463 OA
BRANCH   5   6
ATOM      6  C   UNL A   1      45.360  43.244  27.880  1.00  0.00     0.309 C 
ATOM      7  O   UNL A   1      45.214  44.055  26.945  1.00  0.00    -0.252 OA
BRANCH   6   8
ATOM      8  C   UNL A   1      46.376  41.991  27.408  1.00  0.00     0.111 C 
ATOM      9  C   UNL A   1      46.204  40.556  26.637  1.00  0.00     0.093 C 
ATOM     10  C   UNL A   1      47.211  39.534  27.281  1.00  0.00     0.014 C 
ATOM     11  C   UNL A   1      48.670  40.022  27.362  1.00  0.00     0.001 C 
ATOM     12  C   UNL A   1      47.874  42.425  27.432  1.00  0.00     0.016 C 
ATOM     13  C   UNL A   1      48.787  41.366  28.066  1.00  0.00     0.001 C 
BRANCH   9  14
ATOM     14  C   UNL A   1      46.513  40.414  25.097  1.00  0.00     0.228 C 
ATOM     15  N   UNL A   1      46.614  41.402  24.139  1.00  0.00    -0.325 N 
ATOM     16  H   UNL A   1      46.957  41.029  23.295  1.00  0.00     0.169 HD
ATOM     17  O   UNL A   1      46.694  39.277  24.637  1.00  0.00    -0.274 OA
BRANCH  15  18
ATOM     18  C   UNL A   1      46.368  42.798  24.004  1.00  0.00     0.054 A 
ATOM     19  C   UNL A   1      45.111  43.359  23.550  1.00  0.00     0.063 A 
ATOM     20  C   UNL A   1      45.047  44.756  23.320  1.00  0.00     0.016 A 
ATOM     21  C   UNL A   1      46.153  45.583  23.480  1.00  0.00     0.001 A 
ATOM     22  C   UNL A   1      47.427  43.685  24.254  1.00  0.00     0.027 A 
ATOM     23  C   UNL A   1      47.338  45.048  23.949  1.00  0.00     0.002 A 
BRANCH  19  24
ATOM     24  C   UNL A   1      43.862  42.698  22.964  1.00  0.00     0.257 C 
ATOM     25  N   UNL A   1      43.326  42.939  21.726  1.00  0.00    -0.322 N 
ATOM     26  H   UNL A   1      42.360  42.768  21.646  1.00  0.00     0.170 HD
ATOM     27  O   UNL A   1      43.191  41.940  23.678  1.00  0.00    -0.269 OA
BRANCH  25  28
ATOM     28  C   UNL A   1      43.941  43.387  20.571  1.00  0.00     0.041 A 
ATOM     29  C   UNL A   1      46.174  45.740  17.855  1.00  0.00     0.044 C 
ATOM     30  C   UNL A   1      45.334  44.794  18.654  1.00  0.00    -0.051 A 
ATOM     31  C   UNL A   1      45.952  43.735  19.327  1.00  0.00     0.005 A 
ATOM     32  C   UNL A   1      43.970  45.044  18.848  1.00  0.00     0.005 A 
ATOM     33  C   UNL A   1      45.246  43.014  20.274  1.00  0.00     0.026 A 
ATOM     34  C   UNL A   1      43.256  44.317  19.793  1.00  0.00     0.026 A 
ENDBRANCH  25  28
ENDBRANCH  19  24
ENDBRANCH  15  18
ENDBRANCH   9  14
ENDBRANCH   6   8
ENDBRANCH   5   6
ENDBRANCH   4   5
ENDBRANCH   3   4
ENDBRANCH   2   3
ENDBRANCH   1   2
BRANCH   1  35
ATOM     35  C   UNL A   1      43.084  40.617  30.984  1.00  0.00     0.188 C 
BRANCH  35  36
ATOM     36  O   UNL A   1      43.692  40.383  29.734  1.00  0.00    -0.376 OA
BRANCH  36  37
ATOM     37  C   UNL A   1      44.103  39.047  29.513  1.00  0.00     0.202 C 
BRANCH  37  38
ATOM     38  C   UNL A   1      43.732  38.204  28.274  1.00  0.00     0.261 C 
BRANCH  38  39
ATOM     39  O   UNL A   1      44.513  37.137  27.632  1.00  0.00    -0.460 OA
BRANCH  39  40
ATOM     40  C   UNL A   1      45.074  36.112  27.028  1.00  0.00     0.338 C 
ATOM     41  O   UNL A   1      46.009  36.359  26.260  1.00  0.00    -0.246 OA
BRANCH  40  42
ATOM     42  C   UNL A   1      44.520  34.720  27.033  1.00  0.00     0.060 A 
ATOM     43  C   UNL A   1      44.225  34.223  28.271  1.00  0.00     0.016 A 
ATOM     44  C   UNL A   1      44.262  33.842  25.964  1.00  0.00     0.016 A 
ATOM     45  C   UNL A   1      43.933  32.851  28.403  1.00  0.00     0.010 A 
ATOM     46  C   UNL A   1      44.051  32.436  26.141  1.00  0.00     0.010 A 
ATOM     47  C   UNL A   1      44.022  31.857  27.406  1.00  0.00    -0.014 A 
BRANCH  47  48
ATOM     48  C   UNL A   1      44.354  30.348  27.552  1.00  0.00     0.031 A 
ATOM     49  C   UNL A   1      45.625  29.781  27.010  1.00  0.00     0.074 A 
ATOM     50  C   UNL A   1      43.704  29.390  28.305  1.00  0.00     0.049 A 
ATOM     51  N   UNL A   1      45.850  28.509  26.849  1.00  0.00    -0.248 NA
ATOM     52  C   UNL A   1      46.690  30.611  26.474  1.00  0.00     0.031 C 
ATOM     53  C   UNL A   1      44.327  28.404  29.212  1.00  0.00     0.029 A 
ATOM     54  N   UNL A   1      42.374  29.057  28.464  1.00  0.00    -0.354 N 
ATOM     55  C   UNL A   1      47.171  28.371  26.504  1.00  0.00     0.074 A 
ATOM     56  C   UNL A   1      47.569  29.691  26.074  1.00  0.00     0.031 C 
ATOM     57  C   UNL A   1      43.381  27.651  29.818  1.00  0.00     0.029 A 
ATOM     58  C   UNL A   1      42.064  27.987  29.278  1.00  0.00     0.049 A 
ATOM     59  H   UNL A   1      41.667  29.569  28.010  1.00  0.00     0.167 HD
ATOM     60  C   UNL A   1      47.870  27.242  26.823  1.00  0.00     0.031 A 
ATOM     61  C   UNL A   1      40.911  27.249  29.184  1.00  0.00     0.031 A 
ATOM     62  C   UNL A   1      47.035  26.240  27.502  1.00  0.00     0.049 A 
ATOM     63  C   UNL A   1      41.370  25.929  28.634  1.00  0.00     0.074 A 
ATOM     64  C   UNL A   1      46.922  25.885  28.837  1.00  0.00     0.029 A 
ATOM     65  N   UNL A   1      45.956  25.637  26.850  1.00  0.00    -0.354 N 
ATOM     66  N   UNL A   1      42.610  25.749  28.279  1.00  0.00    -0.248 NA
ATOM     67  C   UNL A   1      40.554  24.745  28.408  1.00  0.00     0.031 C 
ATOM     68  C   UNL A   1      45.746  25.107  28.994  1.00  0.00     0.029 A 
ATOM     69  C   UNL A   1      45.162  24.939  27.750  1.00  0.00     0.049 A 
ATOM     70  H   UNL A   1      45.783  25.698  25.883  1.00  0.00     0.167 HD
ATOM     71  C   UNL A   1      42.785  24.511  27.781  1.00  0.00     0.074 A 
ATOM     72  C   UNL A   1      41.468  23.903  27.884  1.00  0.00     0.031 C 
ATOM     73  C   UNL A   1      44.009  24.143  27.315  1.00  0.00     0.031 A 
BRANCH  60  74
ATOM     74  C   UNL A   1      49.396  27.256  26.863  1.00  0.00    -0.014 A 
ATOM     75  C   UNL A   1      50.152  26.558  25.899  1.00  0.00     0.010 A 
ATOM     76  C   UNL A   1      50.144  27.893  27.875  1.00  0.00     0.010 A 
ATOM     77  C   UNL A   1      51.551  26.414  26.003  1.00  0.00     0.020 A 
ATOM     78  C   UNL A   1      51.527  27.712  28.028  1.00  0.00     0.020 A 
ATOM     79  C   UNL A   1      52.227  26.969  27.087  1.00  0.00     0.054 A 
BRANCH  79  80
ATOM     80  S   UNL A   1      54.021  26.749  27.239  1.00  0.00     0.124 S 
ATOM     81  O   UNL A   1      54.325  27.449  28.484  1.00  0.00    -0.237 OA
ATOM     82  O   UNL A   1      54.154  25.296  27.282  1.00  0.00    -0.237 OA
ATOM     83  O   UNL A   1      54.552  27.384  26.033  1.00  0.00    -0.744 OA
ENDBRANCH  79  80
ENDBRANCH  60  74
BRANCH  61  84
ATOM     84  C   UNL A   1      39.580  27.929  28.862  1.00  0.00    -0.014 A 
ATOM     85  C   UNL A   1      38.528  27.872  29.805  1.00  0.00     0.010 A 
ATOM     86  C   UNL A   1      39.430  28.893  27.859  1.00  0.00     0.010 A 
ATOM     87  C   UNL A   1      37.600  28.944  29.957  1.00  0.00     0.020 A 
ATOM     88  C   UNL A   1      38.511  29.971  28.000  1.00  0.00     0.020 A 
ATOM     89  C   UNL A   1      37.676  30.045  29.113  1.00  0.00     0.054 A 
BRANCH  89  90
ATOM     90  S   UNL A   1      37.002  31.669  29.664  1.00  0.00     0.124 S 
ATOM     91  O   UNL A   1      37.561  31.807  31.002  1.00  0.00    -0.237 OA
ATOM     92  O   UNL A   1      37.529  32.602  28.666  1.00  0.00    -0.237 OA
ATOM     93  O   UNL A   1      35.552  31.483  29.595  1.00  0.00    -0.744 OA
ENDBRANCH  89  90
ENDBRANCH  61  84
BRANCH  73  94
ATOM     94  C   UNL A   1      44.228  22.908  26.516  1.00  0.00    -0.014 A 
ATOM     95  C   UNL A   1      45.460  22.593  25.923  1.00  0.00     0.010 A 
ATOM     96  C   UNL A   1      43.190  21.956  26.442  1.00  0.00     0.010 A 
ATOM     97  C   UNL A   1      45.620  21.414  25.197  1.00  0.00     0.020 A 
ATOM     98  C   UNL A   1      43.358  20.754  25.766  1.00  0.00     0.020 A 
ATOM     99  C   UNL A   1      44.562  20.508  25.114  1.00  0.00     0.054 A 
BRANCH  99 100
ATOM    100  S   UNL A   1      44.784  18.981  24.183  1.00  0.00     0.124 S 
ATOM    101  O   UNL A   1      43.738  18.134  24.750  1.00  0.00    -0.237 OA
ATOM    102  O   UNL A   1      44.566  19.405  22.801  1.00  0.00    -0.237 OA
ATOM    103  O   UNL A   1      46.154  18.585  24.496  1.00  0.00    -0.744 OA
ENDBRANCH  99 100
ENDBRANCH  73  94
ENDBRANCH  47  48
ENDBRANCH  40  42
ENDBRANCH  39  40
ENDBRANCH  38  39
ENDBRANCH  37  38
ENDBRANCH  36  37
ENDBRANCH  35  36
ENDBRANCH   1  35
TORSDOF 24
ENDMDL
