MODEL 1
REMARK VINA RESULT:      -9.6      0.000      0.000
REMARK SMILES O=C(NCCC1=CCCCC1)C1=C(C(=O)OCCOCCOCCOC(=O)c2ccc(-c3c4nc(c(-c5ccc(S(=O)(=O)[O-])cc5)c5ccc([nH]5)c(-c5ccc(S(=O)(=O)[O-])cc5)c5nc(c(-c6ccc(S(=O)(=O)[O-])cc6)c6ccc3[nH]6)C=C5)C=C4)cc2)CCCC1
REMARK SMILES IDX 20 1 19 2 18 3 17 4 16 5 14 6 15 7 13 8 12 9 91 10 88 11
REMARK SMILES IDX 90 12 89 13 2 14 1 15 3 16 4 18 5 19 6 20 7 21 11 22 8 23
REMARK SMILES IDX 10 24 9 25 21 26 22 27 23 28 24 29 25 30 26 31 27 32 28 33
REMARK SMILES IDX 29 34 87 35 30 36 86 37 31 38 32 39 33 40 80 41 34 42 85 43
REMARK SMILES IDX 79 44 81 45 35 46 84 47 78 48 77 49 36 51 66 52 47 53 65 54
REMARK SMILES IDX 48 55 51 56 64 57 82 58 49 59 50 60 63 62 83 63 52 64 37 65
REMARK SMILES IDX 38 66 46 67 39 68 45 69 40 70 41 71 42 72 43 73 44 74 67 75
REMARK SMILES IDX 68 76 76 77 69 78 75 79 70 80 71 81 72 82 73 83 74 84 53 85
REMARK SMILES IDX 54 86 62 87 55 88 61 89 56 90 57 91 58 92 59 93 60 94
REMARK H PARENT 3 17 81 50 51 61
REMARK Flexibility Score: inf
ROOT
ATOM      1  C   UNL A   1      31.447  28.586  24.598  1.00  0.00     0.188 C 
ENDROOT
BRANCH   1   2
ATOM      2  O   UNL A   1      30.372  27.682  24.449  1.00  0.00    -0.376 OA
BRANCH   2   3
ATOM      3  C   UNL A   1      30.627  26.299  24.272  1.00  0.00     0.202 C 
BRANCH   3   4
ATOM      4  C   UNL A   1      30.676  25.295  25.430  1.00  0.00     0.261 C 
BRANCH   4   5
ATOM      5  O   UNL A   1      31.796  24.403  25.444  1.00  0.00    -0.460 OA
BRANCH   5   6
ATOM      6  C   UNL A   1      33.004  24.965  25.703  1.00  0.00     0.334 C 
ATOM      7  O   UNL A   1      33.187  25.972  26.372  1.00  0.00    -0.247 OA
BRANCH   6   8
ATOM      8  C   UNL A   1      34.127  24.185  25.122  1.00  0.00     0.046 C 
ATOM      9  C   UNL A   1      34.443  24.147  23.809  1.00  0.00     0.027 C 
ATOM     10  C   UNL A   1      35.601  23.337  23.268  1.00  0.00     0.042 C 
ATOM     11  C   UNL A   1      34.940  23.440  26.153  1.00  0.00     0.044 C 
ATOM     12  C   UNL A   1      36.284  22.432  24.294  1.00  0.00     0.005 C 
ATOM     13  C   UNL A   1      36.343  23.088  25.664  1.00  0.00     0.005 C 
BRANCH   9  14
ATOM     14  C   UNL A   1      33.683  24.827  22.729  1.00  0.00     0.247 C 
ATOM     15  O   UNL A   1      33.729  26.051  22.614  1.00  0.00    -0.270 OA
ATOM     16  N   UNL A   1      32.834  24.129  21.936  1.00  0.00    -0.352 N 
ATOM     17  H   UNL A   1      32.301  24.685  21.324  1.00  0.00     0.163 HD
BRANCH  16  18
ATOM     18  C   UNL A   1      32.575  22.703  21.830  1.00  0.00     0.120 C 
BRANCH  18  19
ATOM     19  C   UNL A   1      31.746  22.129  22.974  1.00  0.00     0.052 C 
BRANCH  19  20
ATOM     20  C   UNL A   1      32.313  20.848  23.557  1.00  0.00    -0.072 C 
ATOM     21  C   UNL A   1      32.688  20.760  24.847  1.00  0.00    -0.028 C 
ATOM     22  C   UNL A   1      32.398  19.649  22.645  1.00  0.00     0.031 C 
ATOM     23  C   UNL A   1      33.195  19.498  25.488  1.00  0.00     0.027 C 
ATOM     24  C   UNL A   1      32.394  18.326  23.401  1.00  0.00     0.005 C 
ATOM     25  C   UNL A   1      33.444  18.352  24.504  1.00  0.00     0.004 C 
ENDBRANCH  19  20
ENDBRANCH  18  19
ENDBRANCH  16  18
ENDBRANCH   9  14
ENDBRANCH   6   8
ENDBRANCH   5   6
ENDBRANCH   4   5
ENDBRANCH   3   4
ENDBRANCH   2   3
ENDBRANCH   1   2
BRANCH   1  26
ATOM     26  C   UNL A   1      31.829  29.064  26.015  1.00  0.00     0.188 C 
BRANCH  26  27
ATOM     27  O   UNL A   1      32.800  30.072  26.166  1.00  0.00    -0.376 OA
BRANCH  27  28
ATOM     28  C   UNL A   1      32.490  31.250  26.887  1.00  0.00     0.202 C 
BRANCH  28  29
ATOM     29  C   UNL A   1      33.478  32.019  27.789  1.00  0.00     0.261 C 
BRANCH  29  30
ATOM     30  O   UNL A   1      33.642  33.425  27.568  1.00  0.00    -0.460 OA
BRANCH  30  31
ATOM     31  C   UNL A   1      33.533  34.214  28.672  1.00  0.00     0.338 C 
ATOM     32  O   UNL A   1      32.592  34.918  28.977  1.00  0.00    -0.246 OA
BRANCH  31  33
ATOM     33  C   UNL A   1      34.653  33.900  29.592  1.00  0.00     0.060 A 
ATOM     34  C   UNL A   1      35.965  34.171  29.172  1.00  0.00     0.016 A 
ATOM     35  C   UNL A   1      34.417  33.363  30.857  1.00  0.00     0.016 A 
ATOM     36  C   UNL A   1      37.045  33.892  30.009  1.00  0.00     0.010 A 
ATOM     37  C   UNL A   1      35.503  33.050  31.681  1.00  0.00     0.010 A 
ATOM     38  C   UNL A   1      36.824  33.286  31.251  1.00  0.00    -0.014 A 
BRANCH  38  39
ATOM     39  C   UNL A   1      37.967  32.713  32.005  1.00  0.00     0.031 A 
ATOM     40  C   UNL A   1      38.694  31.537  31.407  1.00  0.00     0.074 A 
ATOM     41  C   UNL A   1      38.368  33.224  33.182  1.00  0.00     0.049 A 
ATOM     42  N   UNL A   1      39.687  30.840  31.894  1.00  0.00    -0.248 NA
ATOM     43  C   UNL A   1      38.232  31.088  30.083  1.00  0.00     0.031 C 
ATOM     44  C   UNL A   1      37.784  34.387  33.847  1.00  0.00     0.029 A 
ATOM     45  N   UNL A   1      39.364  32.812  34.035  1.00  0.00    -0.354 N 
ATOM     46  C   UNL A   1      39.957  29.859  30.947  1.00  0.00     0.074 A 
ATOM     47  C   UNL A   1      39.008  30.037  29.870  1.00  0.00     0.031 C 
ATOM     48  C   UNL A   1      38.422  34.586  35.014  1.00  0.00     0.029 A 
ATOM     49  C   UNL A   1      39.433  33.545  35.196  1.00  0.00     0.049 A 
ATOM     50  H   UNL A   1      39.971  32.064  33.834  1.00  0.00     0.167 HD
ATOM     51  C   UNL A   1      40.908  28.895  30.970  1.00  0.00     0.031 A 
ATOM     52  C   UNL A   1      40.204  33.379  36.292  1.00  0.00     0.031 A 
ATOM     53  C   UNL A   1      41.837  28.705  32.052  1.00  0.00     0.049 A 
ATOM     54  C   UNL A   1      41.207  32.253  36.331  1.00  0.00     0.074 A 
ATOM     55  C   UNL A   1      42.853  27.772  32.158  1.00  0.00     0.029 A 
ATOM     56  N   UNL A   1      41.852  29.447  33.224  1.00  0.00    -0.354 N 
ATOM     57  N   UNL A   1      41.478  31.355  35.412  1.00  0.00    -0.248 NA
ATOM     58  C   UNL A   1      42.016  32.125  37.552  1.00  0.00     0.031 C 
ATOM     59  C   UNL A   1      43.435  27.902  33.423  1.00  0.00     0.029 A 
ATOM     60  C   UNL A   1      42.835  28.968  34.074  1.00  0.00     0.049 A 
ATOM     61  H   UNL A   1      41.253  30.203  33.422  1.00  0.00     0.167 HD
ATOM     62  C   UNL A   1      42.504  30.573  35.935  1.00  0.00     0.074 A 
ATOM     63  C   UNL A   1      42.817  31.114  37.242  1.00  0.00     0.031 C 
ATOM     64  C   UNL A   1      43.133  29.506  35.380  1.00  0.00     0.031 A 
BRANCH  51  65
ATOM     65  C   UNL A   1      40.949  27.935  29.809  1.00  0.00    -0.014 A 
ATOM     66  C   UNL A   1      39.990  26.917  29.658  1.00  0.00     0.010 A 
ATOM     67  C   UNL A   1      41.962  28.067  28.840  1.00  0.00     0.010 A 
ATOM     68  C   UNL A   1      40.071  26.021  28.589  1.00  0.00     0.020 A 
ATOM     69  C   UNL A   1      42.028  27.194  27.752  1.00  0.00     0.020 A 
ATOM     70  C   UNL A   1      41.092  26.162  27.644  1.00  0.00     0.054 A 
BRANCH  70  71
ATOM     71  S   UNL A   1      41.170  24.990  26.264  1.00  0.00     0.124 S 
ATOM     72  O   UNL A   1      41.512  25.864  25.144  1.00  0.00    -0.237 OA
ATOM     73  O   UNL A   1      42.224  24.070  26.685  1.00  0.00    -0.237 OA
ATOM     74  O   UNL A   1      39.829  24.416  26.217  1.00  0.00    -0.744 OA
ENDBRANCH  70  71
ENDBRANCH  51  65
BRANCH  52  75
ATOM     75  C   UNL A   1      40.037  34.293  37.457  1.00  0.00    -0.014 A 
ATOM     76  C   UNL A   1      40.702  35.531  37.506  1.00  0.00     0.010 A 
ATOM     77  C   UNL A   1      39.194  33.930  38.525  1.00  0.00     0.010 A 
ATOM     78  C   UNL A   1      40.526  36.388  38.598  1.00  0.00     0.020 A 
ATOM     79  C   UNL A   1      38.993  34.797  39.603  1.00  0.00     0.020 A 
ATOM     80  C   UNL A   1      39.665  36.020  39.635  1.00  0.00     0.054 A 
BRANCH  80  81
ATOM     81  S   UNL A   1      39.391  37.184  40.999  1.00  0.00     0.124 S 
ATOM     82  O   UNL A   1      38.562  38.206  40.367  1.00  0.00    -0.237 OA
ATOM     83  O   UNL A   1      38.721  36.350  41.993  1.00  0.00    -0.237 OA
ATOM     84  O   UNL A   1      40.741  37.610  41.363  1.00  0.00    -0.744 OA
ENDBRANCH  80  81
ENDBRANCH  52  75
BRANCH  64  85
ATOM     85  C   UNL A   1      44.250  28.863  36.165  1.00  0.00    -0.014 A 
ATOM     86  C   UNL A   1      44.023  27.748  36.992  1.00  0.00     0.010 A 
ATOM     87  C   UNL A   1      45.564  29.350  36.025  1.00  0.00     0.010 A 
ATOM     88  C   UNL A   1      45.080  27.156  37.690  1.00  0.00     0.020 A 
ATOM     89  C   UNL A   1      46.628  28.741  36.695  1.00  0.00     0.020 A 
ATOM     90  C   UNL A   1      46.377  27.656  37.536  1.00  0.00     0.054 A 
BRANCH  90  91
ATOM     91  S   UNL A   1      47.736  26.846  38.425  1.00  0.00     0.124 S 
ATOM     92  O   UNL A   1      48.909  27.484  37.833  1.00  0.00    -0.237 OA
ATOM     93  O   UNL A   1      47.464  27.198  39.816  1.00  0.00    -0.237 OA
ATOM     94  O   UNL A   1      47.568  25.432  38.102  1.00  0.00    -0.744 OA
ENDBRANCH  90  91
ENDBRANCH  64  85
ENDBRANCH  38  39
ENDBRANCH  31  33
ENDBRANCH  30  31
ENDBRANCH  29  30
ENDBRANCH  28  29
ENDBRANCH  27  28
ENDBRANCH  26  27
ENDBRANCH   1  26
TORSDOF 24
ENDMDL
MODEL 2
REMARK VINA RESULT:      -9.4      5.854     10.736
REMARK SMILES O=C(NCCC1=CCCCC1)C1=C(C(=O)OCCOCCOCCOC(=O)c2ccc(-c3c4nc(c(-c5ccc(S(=O)(=O)[O-])cc5)c5ccc([nH]5)c(-c5ccc(S(=O)(=O)[O-])cc5)c5nc(c(-c6ccc(S(=O)(=O)[O-])cc6)c6ccc3[nH]6)C=C5)C=C4)cc2)CCCC1
REMARK SMILES IDX 20 1 19 2 18 3 17 4 16 5 14 6 15 7 13 8 12 9 91 10 88 11
REMARK SMILES IDX 90 12 89 13 2 14 1 15 3 16 4 18 5 19 6 20 7 21 11 22 8 23
REMARK SMILES IDX 10 24 9 25 21 26 22 27 23 28 24 29 25 30 26 31 27 32 28 33
REMARK SMILES IDX 29 34 87 35 30 36 86 37 31 38 32 39 33 40 80 41 34 42 85 43
REMARK SMILES IDX 79 44 81 45 35 46 84 47 78 48 77 49 36 51 66 52 47 53 65 54
REMARK SMILES IDX 48 55 51 56 64 57 82 58 49 59 50 60 63 62 83 63 52 64 37 65
REMARK SMILES IDX 38 66 46 67 39 68 45 69 40 70 41 71 42 72 43 73 44 74 67 75
REMARK SMILES IDX 68 76 76 77 69 78 75 79 70 80 71 81 72 82 73 83 74 84 53 85
REMARK SMILES IDX 54 86 62 87 55 88 61 89 56 90 57 91 58 92 59 93 60 94
REMARK H PARENT 3 17 81 50 51 61
REMARK Flexibility Score: inf
ROOT
ATOM      1  C   UNL A   1      34.883  32.363  27.660  1.00  0.00     0.188 C 
ENDROOT
BRANCH   1   2
ATOM      2  O   UNL A   1      33.702  31.715  28.086  1.00  0.00    -0.376 OA
BRANCH   2   3
ATOM      3  C   UNL A   1      32.843  31.108  27.136  1.00  0.00     0.202 C 
BRANCH   3   4
ATOM      4  C   UNL A   1      32.340  29.665  27.253  1.00  0.00     0.261 C 
BRANCH   4   5
ATOM      5  O   UNL A   1      33.312  28.637  27.036  1.00  0.00    -0.460 OA
BRANCH   5   6
ATOM      6  C   UNL A   1      33.365  28.121  25.781  1.00  0.00     0.334 C 
ATOM      7  O   UNL A   1      34.218  28.378  24.945  1.00  0.00    -0.247 OA
BRANCH   6   8
ATOM      8  C   UNL A   1      32.280  27.137  25.528  1.00  0.00     0.046 C 
ATOM      9  C   UNL A   1      31.464  27.148  24.453  1.00  0.00     0.027 C 
ATOM     10  C   UNL A   1      30.374  26.120  24.241  1.00  0.00     0.042 C 
ATOM     11  C   UNL A   1      32.180  26.065  26.587  1.00  0.00     0.044 C 
ATOM     12  C   UNL A   1      30.155  25.167  25.416  1.00  0.00     0.005 C 
ATOM     13  C   UNL A   1      31.467  24.808  26.095  1.00  0.00     0.005 C 
BRANCH   9  14
ATOM     14  C   UNL A   1      31.476  28.178  23.382  1.00  0.00     0.247 C 
ATOM     15  O   UNL A   1      30.644  29.084  23.383  1.00  0.00    -0.270 OA
ATOM     16  N   UNL A   1      32.319  28.068  22.327  1.00  0.00    -0.352 N 
ATOM     17  H   UNL A   1      32.177  28.740  21.622  1.00  0.00     0.163 HD
BRANCH  16  18
ATOM     18  C   UNL A   1      33.397  27.132  22.053  1.00  0.00     0.120 C 
BRANCH  18  19
ATOM     19  C   UNL A   1      32.930  25.730  21.678  1.00  0.00     0.052 C 
BRANCH  19  20
ATOM     20  C   UNL A   1      33.436  24.646  22.611  1.00  0.00    -0.072 C 
ATOM     21  C   UNL A   1      34.319  24.909  23.592  1.00  0.00    -0.028 C 
ATOM     22  C   UNL A   1      32.873  23.258  22.432  1.00  0.00     0.031 C 
ATOM     23  C   UNL A   1      34.802  23.886  24.582  1.00  0.00     0.027 C 
ATOM     24  C   UNL A   1      32.948  22.417  23.701  1.00  0.00     0.005 C 
ATOM     25  C   UNL A   1      34.362  22.454  24.268  1.00  0.00     0.004 C 
ENDBRANCH  19  20
ENDBRANCH  18  19
ENDBRANCH  16  18
ENDBRANCH   9  14
ENDBRANCH   6   8
ENDBRANCH   5   6
ENDBRANCH   4   5
ENDBRANCH   3   4
ENDBRANCH   2   3
ENDBRANCH   1   2
BRANCH   1  26
ATOM     26  C   UNL A   1      35.120  33.831  28.078  1.00  0.00     0.188 C 
BRANCH  26  27
ATOM     27  O   UNL A   1      36.122  34.127  29.021  1.00  0.00    -0.376 OA
BRANCH  27  28
ATOM     28  C   UNL A   1      35.875  33.930  30.400  1.00  0.00     0.202 C 
BRANCH  28  29
ATOM     29  C   UNL A   1      36.963  33.875  31.493  1.00  0.00     0.261 C 
BRANCH  29  30
ATOM     30  O   UNL A   1      37.364  32.589  31.981  1.00  0.00    -0.460 OA
BRANCH  30  31
ATOM     31  C   UNL A   1      36.939  31.520  31.255  1.00  0.00     0.338 C 
ATOM     32  O   UNL A   1      35.796  31.260  30.938  1.00  0.00    -0.246 OA
BRANCH  31  33
ATOM     33  C   UNL A   1      38.124  30.831  30.687  1.00  0.00     0.060 A 
ATOM     34  C   UNL A   1      39.032  30.220  31.566  1.00  0.00     0.016 A 
ATOM     35  C   UNL A   1      38.329  30.770  29.309  1.00  0.00     0.016 A 
ATOM     36  C   UNL A   1      40.157  29.560  31.071  1.00  0.00     0.010 A 
ATOM     37  C   UNL A   1      39.477  30.139  28.816  1.00  0.00     0.010 A 
ATOM     38  C   UNL A   1      40.411  29.556  29.695  1.00  0.00    -0.014 A 
BRANCH  38  39
ATOM     39  C   UNL A   1      41.742  29.131  29.193  1.00  0.00     0.031 A 
ATOM     40  C   UNL A   1      42.834  30.165  29.112  1.00  0.00     0.074 A 
ATOM     41  C   UNL A   1      41.991  27.860  28.831  1.00  0.00     0.049 A 
ATOM     42  N   UNL A   1      44.058  30.046  28.668  1.00  0.00    -0.248 NA
ATOM     43  C   UNL A   1      42.494  31.513  29.595  1.00  0.00     0.031 C 
ATOM     44  C   UNL A   1      41.038  26.753  28.905  1.00  0.00     0.029 A 
ATOM     45  N   UNL A   1      43.129  27.291  28.312  1.00  0.00    -0.354 N 
ATOM     46  C   UNL A   1      44.628  31.307  28.799  1.00  0.00     0.074 A 
ATOM     47  C   UNL A   1      43.610  32.179  29.342  1.00  0.00     0.031 C 
ATOM     48  C   UNL A   1      41.628  25.641  28.433  1.00  0.00     0.029 A 
ATOM     49  C   UNL A   1      42.984  25.963  27.990  1.00  0.00     0.049 A 
ATOM     50  H   UNL A   1      43.970  27.788  28.185  1.00  0.00     0.167 HD
ATOM     51  C   UNL A   1      45.886  31.706  28.494  1.00  0.00     0.031 A 
ATOM     52  C   UNL A   1      43.837  25.111  27.381  1.00  0.00     0.031 A 
ATOM     53  C   UNL A   1      46.892  30.843  27.933  1.00  0.00     0.049 A 
ATOM     54  C   UNL A   1      45.209  25.594  26.981  1.00  0.00     0.074 A 
ATOM     55  C   UNL A   1      48.203  31.147  27.613  1.00  0.00     0.029 A 
ATOM     56  N   UNL A   1      46.695  29.513  27.591  1.00  0.00    -0.354 N 
ATOM     57  N   UNL A   1      45.749  26.779  27.145  1.00  0.00    -0.248 NA
ATOM     58  C   UNL A   1      46.091  24.619  26.322  1.00  0.00     0.031 C 
ATOM     59  C   UNL A   1      48.777  30.023  27.010  1.00  0.00     0.029 A 
ATOM     60  C   UNL A   1      47.849  28.994  27.027  1.00  0.00     0.049 A 
ATOM     61  H   UNL A   1      45.859  29.012  27.728  1.00  0.00     0.167 HD
ATOM     62  C   UNL A   1      47.040  26.684  26.633  1.00  0.00     0.074 A 
ATOM     63  C   UNL A   1      47.206  25.321  26.170  1.00  0.00     0.031 C 
ATOM     64  C   UNL A   1      48.002  27.638  26.558  1.00  0.00     0.031 A 
BRANCH  51  65
ATOM     65  C   UNL A   1      46.224  33.159  28.710  1.00  0.00    -0.014 A 
ATOM     66  C   UNL A   1      46.080  34.111  27.685  1.00  0.00     0.010 A 
ATOM     67  C   UNL A   1      46.679  33.581  29.974  1.00  0.00     0.010 A 
ATOM     68  C   UNL A   1      46.431  35.446  27.904  1.00  0.00     0.020 A 
ATOM     69  C   UNL A   1      46.999  34.920  30.207  1.00  0.00     0.020 A 
ATOM     70  C   UNL A   1      46.892  35.841  29.163  1.00  0.00     0.054 A 
BRANCH  70  71
ATOM     71  S   UNL A   1      47.334  37.581  29.422  1.00  0.00     0.124 S 
ATOM     72  O   UNL A   1      46.068  38.257  29.148  1.00  0.00    -0.237 OA
ATOM     73  O   UNL A   1      47.765  37.596  30.817  1.00  0.00    -0.237 OA
ATOM     74  O   UNL A   1      48.391  37.821  28.444  1.00  0.00    -0.744 OA
ENDBRANCH  70  71
ENDBRANCH  51  65
BRANCH  52  75
ATOM     75  C   UNL A   1      43.404  23.715  27.091  1.00  0.00    -0.014 A 
ATOM     76  C   UNL A   1      43.348  22.749  28.110  1.00  0.00     0.010 A 
ATOM     77  C   UNL A   1      43.031  23.349  25.783  1.00  0.00     0.010 A 
ATOM     78  C   UNL A   1      42.925  21.445  27.829  1.00  0.00     0.020 A 
ATOM     79  C   UNL A   1      42.580  22.055  25.505  1.00  0.00     0.020 A 
ATOM     80  C   UNL A   1      42.534  21.109  26.529  1.00  0.00     0.054 A 
BRANCH  80  81
ATOM     81  S   UNL A   1      41.913  19.435  26.209  1.00  0.00     0.124 S 
ATOM     82  O   UNL A   1      42.334  18.718  27.408  1.00  0.00    -0.237 OA
ATOM     83  O   UNL A   1      40.476  19.655  26.074  1.00  0.00    -0.237 OA
ATOM     84  O   UNL A   1      42.594  19.047  24.975  1.00  0.00    -0.744 OA
ENDBRANCH  80  81
ENDBRANCH  52  75
BRANCH  64  85
ATOM     85  C   UNL A   1      49.340  27.243  25.982  1.00  0.00    -0.014 A 
ATOM     86  C   UNL A   1      50.252  26.458  26.711  1.00  0.00     0.010 A 
ATOM     87  C   UNL A   1      49.664  27.616  24.664  1.00  0.00     0.010 A 
ATOM     88  C   UNL A   1      51.475  26.085  26.145  1.00  0.00     0.020 A 
ATOM     89  C   UNL A   1      50.871  27.217  24.083  1.00  0.00     0.020 A 
ATOM     90  C   UNL A   1      51.777  26.467  24.834  1.00  0.00     0.054 A 
BRANCH  90  91
ATOM     91  S   UNL A   1      53.355  25.939  24.111  1.00  0.00     0.124 S 
ATOM     92  O   UNL A   1      54.282  26.933  24.645  1.00  0.00    -0.237 OA
ATOM     93  O   UNL A   1      53.511  24.585  24.637  1.00  0.00    -0.237 OA
ATOM     94  O   UNL A   1      53.121  26.018  22.671  1.00  0.00    -0.744 OA
ENDBRANCH  90  91
ENDBRANCH  64  85
ENDBRANCH  38  39
ENDBRANCH  31  33
ENDBRANCH  30  31
ENDBRANCH  29  30
ENDBRANCH  28  29
ENDBRANCH  27  28
ENDBRANCH  26  27
ENDBRANCH   1  26
TORSDOF 24
ENDMDL
MODEL 3
REMARK VINA RESULT:      -9.3      6.303     11.543
REMARK SMILES O=C(NCCC1=CCCCC1)C1=C(C(=O)OCCOCCOCCOC(=O)c2ccc(-c3c4nc(c(-c5ccc(S(=O)(=O)[O-])cc5)c5ccc([nH]5)c(-c5ccc(S(=O)(=O)[O-])cc5)c5nc(c(-c6ccc(S(=O)(=O)[O-])cc6)c6ccc3[nH]6)C=C5)C=C4)cc2)CCCC1
REMARK SMILES IDX 20 1 19 2 18 3 17 4 16 5 14 6 15 7 13 8 12 9 91 10 88 11
REMARK SMILES IDX 90 12 89 13 2 14 1 15 3 16 4 18 5 19 6 20 7 21 11 22 8 23
REMARK SMILES IDX 10 24 9 25 21 26 22 27 23 28 24 29 25 30 26 31 27 32 28 33
REMARK SMILES IDX 29 34 87 35 30 36 86 37 31 38 32 39 33 40 80 41 34 42 85 43
REMARK SMILES IDX 79 44 81 45 35 46 84 47 78 48 77 49 36 51 66 52 47 53 65 54
REMARK SMILES IDX 48 55 51 56 64 57 82 58 49 59 50 60 63 62 83 63 52 64 37 65
REMARK SMILES IDX 38 66 46 67 39 68 45 69 40 70 41 71 42 72 43 73 44 74 67 75
REMARK SMILES IDX 68 76 76 77 69 78 75 79 70 80 71 81 72 82 73 83 74 84 53 85
REMARK SMILES IDX 54 86 62 87 55 88 61 89 56 90 57 91 58 92 59 93 60 94
REMARK H PARENT 3 17 81 50 51 61
REMARK Flexibility Score: inf
ROOT
ATOM      1  C   UNL A   1      35.896  23.804  24.078  1.00  0.00     0.188 C 
ENDROOT
BRANCH   1   2
ATOM      2  O   UNL A   1      34.789  23.351  23.326  1.00  0.00    -0.376 OA
BRANCH   2   3
ATOM      3  C   UNL A   1      33.726  24.238  23.024  1.00  0.00     0.202 C 
BRANCH   3   4
ATOM      4  C   UNL A   1      33.716  25.715  23.434  1.00  0.00     0.261 C 
BRANCH   4   5
ATOM      5  O   UNL A   1      33.073  26.617  22.527  1.00  0.00    -0.460 OA
BRANCH   5   6
ATOM      6  C   UNL A   1      31.877  27.116  22.929  1.00  0.00     0.334 C 
ATOM      7  O   UNL A   1      30.839  27.072  22.285  1.00  0.00    -0.247 OA
BRANCH   6   8
ATOM      8  C   UNL A   1      31.935  27.691  24.299  1.00  0.00     0.046 C 
ATOM      9  C   UNL A   1      31.320  27.170  25.382  1.00  0.00     0.027 C 
ATOM     10  C   UNL A   1      31.412  27.795  26.757  1.00  0.00     0.042 C 
ATOM     11  C   UNL A   1      32.795  28.928  24.396  1.00  0.00     0.044 C 
ATOM     12  C   UNL A   1      32.116  29.151  26.798  1.00  0.00     0.005 C 
ATOM     13  C   UNL A   1      33.277  29.207  25.818  1.00  0.00     0.005 C 
BRANCH   9  14
ATOM     14  C   UNL A   1      30.436  25.976  25.368  1.00  0.00     0.247 C 
ATOM     15  O   UNL A   1      29.263  26.076  25.012  1.00  0.00    -0.270 OA
ATOM     16  N   UNL A   1      30.868  24.790  25.862  1.00  0.00    -0.352 N 
ATOM     17  H   UNL A   1      30.176  24.092  25.906  1.00  0.00     0.163 HD
BRANCH  16  18
ATOM     18  C   UNL A   1      32.175  24.369  26.339  1.00  0.00     0.120 C 
BRANCH  18  19
ATOM     19  C   UNL A   1      32.196  22.979  26.968  1.00  0.00     0.052 C 
BRANCH  19  20
ATOM     20  C   UNL A   1      32.508  21.867  25.985  1.00  0.00    -0.072 C 
ATOM     21  C   UNL A   1      31.840  21.739  24.823  1.00  0.00    -0.028 C 
ATOM     22  C   UNL A   1      33.636  20.928  26.335  1.00  0.00     0.031 C 
ATOM     23  C   UNL A   1      32.153  20.694  23.788  1.00  0.00     0.027 C 
ATOM     24  C   UNL A   1      34.258  20.265  25.112  1.00  0.00     0.005 C 
ATOM     25  C   UNL A   1      33.171  19.646  24.243  1.00  0.00     0.004 C 
ENDBRANCH  19  20
ENDBRANCH  18  19
ENDBRANCH  16  18
ENDBRANCH   9  14
ENDBRANCH   6   8
ENDBRANCH   5   6
ENDBRANCH   4   5
ENDBRANCH   3   4
ENDBRANCH   2   3
ENDBRANCH   1   2
BRANCH   1  26
ATOM     26  C   UNL A   1      36.610  22.813  25.024  1.00  0.00     0.188 C 
BRANCH  26  27
ATOM     27  O   UNL A   1      37.418  21.798  24.480  1.00  0.00    -0.376 OA
BRANCH  27  28
ATOM     28  C   UNL A   1      38.111  20.910  25.337  1.00  0.00     0.202 C 
BRANCH  28  29
ATOM     29  C   UNL A   1      39.383  21.265  26.135  1.00  0.00     0.261 C 
BRANCH  29  30
ATOM     30  O   UNL A   1      40.069  20.209  26.817  1.00  0.00    -0.460 OA
BRANCH  30  31
ATOM     31  C   UNL A   1      41.328  19.938  26.376  1.00  0.00     0.338 C 
ATOM     32  O   UNL A   1      41.689  18.962  25.751  1.00  0.00    -0.246 OA
BRANCH  31  33
ATOM     33  C   UNL A   1      42.166  21.148  26.561  1.00  0.00     0.060 A 
ATOM     34  C   UNL A   1      42.434  21.586  27.868  1.00  0.00     0.016 A 
ATOM     35  C   UNL A   1      42.695  21.831  25.467  1.00  0.00     0.016 A 
ATOM     36  C   UNL A   1      43.220  22.719  28.083  1.00  0.00     0.010 A 
ATOM     37  C   UNL A   1      43.453  22.987  25.685  1.00  0.00     0.010 A 
ATOM     38  C   UNL A   1      43.696  23.453  26.992  1.00  0.00    -0.014 A 
BRANCH  38  39
ATOM     39  C   UNL A   1      44.263  24.808  27.207  1.00  0.00     0.031 A 
ATOM     40  C   UNL A   1      43.325  25.914  27.613  1.00  0.00     0.074 A 
ATOM     41  C   UNL A   1      45.577  25.058  27.064  1.00  0.00     0.049 A 
ATOM     42  N   UNL A   1      43.575  27.182  27.814  1.00  0.00    -0.248 NA
ATOM     43  C   UNL A   1      41.917  25.535  27.815  1.00  0.00     0.031 C 
ATOM     44  C   UNL A   1      46.598  24.070  26.722  1.00  0.00     0.029 A 
ATOM     45  N   UNL A   1      46.273  26.238  27.179  1.00  0.00    -0.354 N 
ATOM     46  C   UNL A   1      42.353  27.756  28.147  1.00  0.00     0.074 A 
ATOM     47  C   UNL A   1      41.362  26.703  28.098  1.00  0.00     0.031 C 
ATOM     48  C   UNL A   1      47.789  24.688  26.638  1.00  0.00     0.029 A 
ATOM     49  C   UNL A   1      47.611  26.119  26.884  1.00  0.00     0.049 A 
ATOM     50  H   UNL A   1      45.854  27.087  27.447  1.00  0.00     0.167 HD
ATOM     51  C   UNL A   1      42.078  29.044  28.464  1.00  0.00     0.031 A 
ATOM     52  C   UNL A   1      48.575  27.059  26.795  1.00  0.00     0.031 A 
ATOM     53  C   UNL A   1      43.061  30.095  28.491  1.00  0.00     0.049 A 
ATOM     54  C   UNL A   1      48.234  28.501  27.080  1.00  0.00     0.074 A 
ATOM     55  C   UNL A   1      42.886  31.426  28.824  1.00  0.00     0.029 A 
ATOM     56  N   UNL A   1      44.398  29.939  28.154  1.00  0.00    -0.354 N 
ATOM     57  N   UNL A   1      47.083  29.025  27.430  1.00  0.00    -0.248 NA
ATOM     58  C   UNL A   1      49.328  29.478  26.966  1.00  0.00     0.031 C 
ATOM     59  C   UNL A   1      44.099  32.091  28.619  1.00  0.00     0.029 A 
ATOM     60  C   UNL A   1      45.051  31.159  28.235  1.00  0.00     0.049 A 
ATOM     61  H   UNL A   1      44.820  29.088  27.897  1.00  0.00     0.167 HD
ATOM     62  C   UNL A   1      47.319  30.385  27.603  1.00  0.00     0.074 A 
ATOM     63  C   UNL A   1      48.727  30.601  27.335  1.00  0.00     0.031 C 
ATOM     64  C   UNL A   1      46.451  31.367  27.956  1.00  0.00     0.031 A 
BRANCH  51  65
ATOM     65  C   UNL A   1      40.641  29.395  28.752  1.00  0.00    -0.014 A 
ATOM     66  C   UNL A   1      39.651  29.328  27.755  1.00  0.00     0.010 A 
ATOM     67  C   UNL A   1      40.273  29.785  30.054  1.00  0.00     0.010 A 
ATOM     68  C   UNL A   1      38.332  29.690  28.042  1.00  0.00     0.020 A 
ATOM     69  C   UNL A   1      38.950  30.115  30.353  1.00  0.00     0.020 A 
ATOM     70  C   UNL A   1      37.991  30.086  29.339  1.00  0.00     0.054 A 
BRANCH  70  71
ATOM     71  S   UNL A   1      36.271  30.544  29.685  1.00  0.00     0.124 S 
ATOM     72  O   UNL A   1      36.391  31.970  29.974  1.00  0.00    -0.237 OA
ATOM     73  O   UNL A   1      35.594  30.212  28.434  1.00  0.00    -0.237 OA
ATOM     74  O   UNL A   1      35.910  29.707  30.825  1.00  0.00    -0.744 OA
ENDBRANCH  70  71
ENDBRANCH  51  65
BRANCH  52  75
ATOM     75  C   UNL A   1      49.955  26.666  26.395  1.00  0.00    -0.014 A 
ATOM     76  C   UNL A   1      50.901  26.266  27.355  1.00  0.00     0.010 A 
ATOM     77  C   UNL A   1      50.327  26.677  25.036  1.00  0.00     0.010 A 
ATOM     78  C   UNL A   1      52.189  25.884  26.966  1.00  0.00     0.020 A 
ATOM     79  C   UNL A   1      51.603  26.268  24.641  1.00  0.00     0.020 A 
ATOM     80  C   UNL A   1      52.529  25.878  25.610  1.00  0.00     0.054 A 
BRANCH  80  81
ATOM     81  S   UNL A   1      54.179  25.300  25.125  1.00  0.00     0.124 S 
ATOM     82  O   UNL A   1      54.999  25.736  26.251  1.00  0.00    -0.237 OA
ATOM     83  O   UNL A   1      53.984  23.858  25.006  1.00  0.00    -0.237 OA
ATOM     84  O   UNL A   1      54.429  25.994  23.863  1.00  0.00    -0.744 OA
ENDBRANCH  80  81
ENDBRANCH  52  75
BRANCH  64  85
ATOM     85  C   UNL A   1      46.996  32.766  28.108  1.00  0.00    -0.014 A 
ATOM     86  C   UNL A   1      46.927  33.701  27.059  1.00  0.00     0.010 A 
ATOM     87  C   UNL A   1      47.534  33.169  29.345  1.00  0.00     0.010 A 
ATOM     88  C   UNL A   1      47.417  34.999  27.233  1.00  0.00     0.020 A 
ATOM     89  C   UNL A   1      47.994  34.475  29.533  1.00  0.00     0.020 A 
ATOM     90  C   UNL A   1      47.948  35.378  28.470  1.00  0.00     0.054 A 
BRANCH  90  91
ATOM     91  S   UNL A   1      48.544  37.079  28.681  1.00  0.00     0.124 S 
ATOM     92  O   UNL A   1      49.869  37.014  28.071  1.00  0.00    -0.237 OA
ATOM     93  O   UNL A   1      47.550  37.859  27.948  1.00  0.00    -0.237 OA
ATOM     94  O   UNL A   1      48.535  37.273  30.129  1.00  0.00    -0.744 OA
ENDBRANCH  90  91
ENDBRANCH  64  85
ENDBRANCH  38  39
ENDBRANCH  31  33
ENDBRANCH  30  31
ENDBRANCH  29  30
ENDBRANCH  28  29
ENDBRANCH  27  28
ENDBRANCH  26  27
ENDBRANCH   1  26
TORSDOF 24
ENDMDL
