MODEL 1
REMARK VINA RESULT:      -8.9      0.000      0.000
REMARK SMILES COc1nc2c(cc1C(=O)NCc1ccc(C(=O)OCCOCCOCCOC(=O)c3ccc(-c4c5nc(c(-c6ccc(S(=O)(=O)[O-])cc6)c6ccc([nH]6)c(-c6ccc(S(=O)(=O)[O-])cc6)c6nc(c(-c7ccc(S(=O)(=O)[O-])cc7)c7ccc4[nH]7)C=C6)C=C5)cc3)s1)CCC2
REMARK SMILES IDX 23 1 22 2 21 3 20 4 19 5 17 6 18 7 16 8 13 9 14 10 91 11
REMARK SMILES IDX 15 12 12 13 11 14 9 15 10 16 8 18 3 19 4 20 5 21 7 22 6 23
REMARK SMILES IDX 94 24 92 25 93 26 2 27 1 28 24 29 25 30 26 31 27 32 28 33
REMARK SMILES IDX 29 34 30 35 31 36 32 37 90 38 33 39 89 40 34 41 35 42 36 43
REMARK SMILES IDX 83 44 37 45 88 46 82 47 84 48 38 49 87 50 81 51 80 52 39 54
REMARK SMILES IDX 69 55 50 56 68 57 51 58 54 59 67 60 85 61 52 62 53 63 66 65
REMARK SMILES IDX 86 66 55 67 40 68 41 69 49 70 42 71 48 72 43 73 44 74 45 75
REMARK SMILES IDX 46 76 47 77 70 78 71 79 79 80 72 81 78 82 73 83 74 84 75 85
REMARK SMILES IDX 76 86 77 87 56 88 57 89 65 90 58 91 64 92 59 93 60 94 61 95
REMARK SMILES IDX 62 96 63 97
REMARK H PARENT 11 17 84 53 54 64
REMARK Flexibility Score: inf
ROOT
ATOM      1  C   UNL A   1      33.823  34.656  29.941  1.00  0.00     0.188 C 
ENDROOT
BRANCH   1   2
ATOM      2  O   UNL A   1      35.023  34.217  29.322  1.00  0.00    -0.376 OA
BRANCH   2   3
ATOM      3  C   UNL A   1      34.878  33.351  28.208  1.00  0.00     0.202 C 
BRANCH   3   4
ATOM      4  C   UNL A   1      35.844  32.157  28.161  1.00  0.00     0.261 C 
BRANCH   4   5
ATOM      5  O   UNL A   1      35.407  31.060  27.347  1.00  0.00    -0.459 OA
BRANCH   5   6
ATOM      6  C   UNL A   1      34.962  29.941  27.984  1.00  0.00     0.348 C 
ATOM      7  O   UNL A   1      35.444  29.500  29.019  1.00  0.00    -0.245 OA
BRANCH   6   8
ATOM      8  C   UNL A   1      33.776  29.466  27.296  1.00  0.00     0.112 A 
ATOM      9  C   UNL A   1      32.156  29.007  25.490  1.00  0.00     0.025 A 
ATOM     10  C   UNL A   1      32.055  28.092  26.520  1.00  0.00     0.018 A 
ATOM     11  S   UNL A   1      33.252  30.266  25.878  1.00  0.00    -0.131 S 
ATOM     12  C   UNL A   1      33.001  28.348  27.556  1.00  0.00     0.028 A 
BRANCH   9  13
ATOM     13  C   UNL A   1      31.532  28.934  24.134  1.00  0.00     0.163 C 
BRANCH  13  14
ATOM     14  N   UNL A   1      32.518  29.044  23.086  1.00  0.00    -0.347 N 
ATOM     15  C   UNL A   1      33.273  28.060  22.495  1.00  0.00     0.257 C 
ATOM     16  O   UNL A   1      34.044  28.382  21.590  1.00  0.00    -0.269 OA
ATOM     17  H   UNL A   1      32.671  29.955  22.745  1.00  0.00     0.164 HD
BRANCH  15  18
ATOM     18  C   UNL A   1      33.246  26.640  22.930  1.00  0.00     0.102 A 
ATOM     19  C   UNL A   1      32.540  25.613  22.292  1.00  0.00     0.226 A 
ATOM     20  N   UNL A   1      32.492  24.325  22.719  1.00  0.00    -0.218 NA
ATOM     21  C   UNL A   1      33.245  24.048  23.796  1.00  0.00     0.048 A 
ATOM     22  C   UNL A   1      34.070  26.283  24.009  1.00  0.00     0.025 A 
ATOM     23  C   UNL A   1      34.064  24.967  24.437  1.00  0.00    -0.025 A 
ATOM     24  C   UNL A   1      33.368  22.684  24.420  1.00  0.00     0.057 C 
ATOM     25  C   UNL A   1      34.883  24.307  25.496  1.00  0.00     0.038 C 
ATOM     26  C   UNL A   1      34.081  23.019  25.739  1.00  0.00     0.011 C 
BRANCH  19  27
ATOM     27  O   UNL A   1      31.809  25.841  21.154  1.00  0.00    -0.480 OA
ATOM     28  C   UNL A   1      32.587  25.495  20.014  1.00  0.00     0.280 C 
ENDBRANCH  19  27
ENDBRANCH  15  18
ENDBRANCH  13  14
ENDBRANCH   9  13
ENDBRANCH   6   8
ENDBRANCH   5   6
ENDBRANCH   4   5
ENDBRANCH   3   4
ENDBRANCH   2   3
ENDBRANCH   1   2
BRANCH   1  29
ATOM     29  C   UNL A   1      33.861  34.546  31.479  1.00  0.00     0.188 C 
BRANCH  29  30
ATOM     30  O   UNL A   1      34.159  33.289  32.079  1.00  0.00    -0.376 OA
BRANCH  30  31
ATOM     31  C   UNL A   1      35.348  33.176  32.857  1.00  0.00     0.202 C 
BRANCH  31  32
ATOM     32  C   UNL A   1      36.696  33.331  32.144  1.00  0.00     0.261 C 
BRANCH  32  33
ATOM     33  O   UNL A   1      37.344  32.082  31.851  1.00  0.00    -0.460 OA
BRANCH  33  34
ATOM     34  C   UNL A   1      38.379  31.768  32.671  1.00  0.00     0.338 C 
ATOM     35  O   UNL A   1      38.447  31.935  33.876  1.00  0.00    -0.246 OA
BRANCH  34  36
ATOM     36  C   UNL A   1      39.412  31.043  31.912  1.00  0.00     0.060 A 
ATOM     37  C   UNL A   1      40.298  30.216  32.614  1.00  0.00     0.016 A 
ATOM     38  C   UNL A   1      39.576  31.268  30.544  1.00  0.00     0.016 A 
ATOM     39  C   UNL A   1      41.365  29.617  31.947  1.00  0.00     0.010 A 
ATOM     40  C   UNL A   1      40.664  30.689  29.884  1.00  0.00     0.010 A 
ATOM     41  C   UNL A   1      41.576  29.884  30.588  1.00  0.00    -0.014 A 
BRANCH  41  42
ATOM     42  C   UNL A   1      42.842  29.453  29.952  1.00  0.00     0.031 A 
ATOM     43  C   UNL A   1      42.914  28.082  29.340  1.00  0.00     0.074 A 
ATOM     44  C   UNL A   1      43.904  30.278  29.898  1.00  0.00     0.049 A 
ATOM     45  N   UNL A   1      43.914  27.507  28.723  1.00  0.00    -0.248 NA
ATOM     46  C   UNL A   1      41.699  27.255  29.425  1.00  0.00     0.031 C 
ATOM     47  C   UNL A   1      43.940  31.645  30.414  1.00  0.00     0.029 A 
ATOM     48  N   UNL A   1      45.158  30.078  29.379  1.00  0.00    -0.354 N 
ATOM     49  C   UNL A   1      43.445  26.257  28.338  1.00  0.00     0.074 A 
ATOM     50  C   UNL A   1      42.081  26.148  28.805  1.00  0.00     0.031 C 
ATOM     51  C   UNL A   1      45.162  32.160  30.192  1.00  0.00     0.029 A 
ATOM     52  C   UNL A   1      45.997  31.154  29.538  1.00  0.00     0.049 A 
ATOM     53  H   UNL A   1      45.431  29.242  28.935  1.00  0.00     0.167 HD
ATOM     54  C   UNL A   1      44.094  25.288  27.654  1.00  0.00     0.031 A 
ATOM     55  C   UNL A   1      47.294  31.305  29.206  1.00  0.00     0.031 A 
ATOM     56  C   UNL A   1      45.459  25.381  27.217  1.00  0.00     0.049 A 
ATOM     57  C   UNL A   1      48.024  30.176  28.529  1.00  0.00     0.074 A 
ATOM     58  C   UNL A   1      46.200  24.448  26.514  1.00  0.00     0.029 A 
ATOM     59  N   UNL A   1      46.292  26.461  27.458  1.00  0.00    -0.354 N 
ATOM     60  N   UNL A   1      47.561  29.010  28.149  1.00  0.00    -0.248 NA
ATOM     61  C   UNL A   1      49.452  30.382  28.238  1.00  0.00     0.031 C 
ATOM     62  C   UNL A   1      47.497  24.948  26.364  1.00  0.00     0.029 A 
ATOM     63  C   UNL A   1      47.548  26.209  26.936  1.00  0.00     0.049 A 
ATOM     64  H   UNL A   1      46.029  27.284  27.928  1.00  0.00     0.167 HD
ATOM     65  C   UNL A   1      48.634  28.348  27.563  1.00  0.00     0.074 A 
ATOM     66  C   UNL A   1      49.770  29.244  27.631  1.00  0.00     0.031 C 
ATOM     67  C   UNL A   1      48.670  27.110  27.014  1.00  0.00     0.031 A 
BRANCH  54  68
ATOM     68  C   UNL A   1      43.336  24.028  27.349  1.00  0.00    -0.014 A 
ATOM     69  C   UNL A   1      43.231  23.006  28.308  1.00  0.00     0.010 A 
ATOM     70  C   UNL A   1      42.672  23.890  26.117  1.00  0.00     0.010 A 
ATOM     71  C   UNL A   1      42.486  21.857  28.034  1.00  0.00     0.020 A 
ATOM     72  C   UNL A   1      41.912  22.749  25.845  1.00  0.00     0.020 A 
ATOM     73  C   UNL A   1      41.828  21.738  26.806  1.00  0.00     0.054 A 
BRANCH  73  74
ATOM     74  S   UNL A   1      40.844  20.247  26.493  1.00  0.00     0.124 S 
ATOM     75  O   UNL A   1      41.689  19.516  25.550  1.00  0.00    -0.237 OA
ATOM     76  O   UNL A   1      40.736  19.657  27.825  1.00  0.00    -0.237 OA
ATOM     77  O   UNL A   1      39.596  20.761  25.936  1.00  0.00    -0.744 OA
ENDBRANCH  73  74
ENDBRANCH  54  68
BRANCH  55  78
ATOM     78  C   UNL A   1      47.986  32.581  29.521  1.00  0.00    -0.014 A 
ATOM     79  C   UNL A   1      47.780  33.720  28.725  1.00  0.00     0.010 A 
ATOM     80  C   UNL A   1      48.828  32.671  30.645  1.00  0.00     0.010 A 
ATOM     81  C   UNL A   1      48.398  34.930  29.052  1.00  0.00     0.020 A 
ATOM     82  C   UNL A   1      49.434  33.883  30.984  1.00  0.00     0.020 A 
ATOM     83  C   UNL A   1      49.213  35.007  30.186  1.00  0.00     0.054 A 
BRANCH  83  84
ATOM     84  S   UNL A   1      49.952  36.606  30.617  1.00  0.00     0.124 S 
ATOM     85  O   UNL A   1      49.553  37.443  29.490  1.00  0.00    -0.237 OA
ATOM     86  O   UNL A   1      49.305  36.910  31.891  1.00  0.00    -0.237 OA
ATOM     87  O   UNL A   1      51.381  36.314  30.704  1.00  0.00    -0.744 OA
ENDBRANCH  83  84
ENDBRANCH  55  78
BRANCH  67  88
ATOM     88  C   UNL A   1      49.967  26.634  26.422  1.00  0.00    -0.014 A 
ATOM     89  C   UNL A   1      50.262  26.858  25.067  1.00  0.00     0.010 A 
ATOM     90  C   UNL A   1      50.950  26.082  27.262  1.00  0.00     0.010 A 
ATOM     91  C   UNL A   1      51.526  26.542  24.562  1.00  0.00     0.020 A 
ATOM     92  C   UNL A   1      52.221  25.781  26.764  1.00  0.00     0.020 A 
ATOM     93  C   UNL A   1      52.501  26.018  25.417  1.00  0.00     0.054 A 
BRANCH  93  94
ATOM     94  S   UNL A   1      54.157  25.698  24.749  1.00  0.00     0.124 S 
ATOM     95  O   UNL A   1      55.016  26.370  25.719  1.00  0.00    -0.237 OA
ATOM     96  O   UNL A   1      54.221  24.239  24.756  1.00  0.00    -0.237 OA
ATOM     97  O   UNL A   1      54.123  26.310  23.423  1.00  0.00    -0.744 OA
ENDBRANCH  93  94
ENDBRANCH  67  88
ENDBRANCH  41  42
ENDBRANCH  34  36
ENDBRANCH  33  34
ENDBRANCH  32  33
ENDBRANCH  31  32
ENDBRANCH  30  31
ENDBRANCH  29  30
ENDBRANCH   1  29
TORSDOF 24
ENDMDL
MODEL 2
REMARK VINA RESULT:      -8.7      1.355      8.078
REMARK SMILES COc1nc2c(cc1C(=O)NCc1ccc(C(=O)OCCOCCOCCOC(=O)c3ccc(-c4c5nc(c(-c6ccc(S(=O)(=O)[O-])cc6)c6ccc([nH]6)c(-c6ccc(S(=O)(=O)[O-])cc6)c6nc(c(-c7ccc(S(=O)(=O)[O-])cc7)c7ccc4[nH]7)C=C6)C=C5)cc3)s1)CCC2
REMARK SMILES IDX 23 1 22 2 21 3 20 4 19 5 17 6 18 7 16 8 13 9 14 10 91 11
REMARK SMILES IDX 15 12 12 13 11 14 9 15 10 16 8 18 3 19 4 20 5 21 7 22 6 23
REMARK SMILES IDX 94 24 92 25 93 26 2 27 1 28 24 29 25 30 26 31 27 32 28 33
REMARK SMILES IDX 29 34 30 35 31 36 32 37 90 38 33 39 89 40 34 41 35 42 36 43
REMARK SMILES IDX 83 44 37 45 88 46 82 47 84 48 38 49 87 50 81 51 80 52 39 54
REMARK SMILES IDX 69 55 50 56 68 57 51 58 54 59 67 60 85 61 52 62 53 63 66 65
REMARK SMILES IDX 86 66 55 67 40 68 41 69 49 70 42 71 48 72 43 73 44 74 45 75
REMARK SMILES IDX 46 76 47 77 70 78 71 79 79 80 72 81 78 82 73 83 74 84 75 85
REMARK SMILES IDX 76 86 77 87 56 88 57 89 65 90 58 91 64 92 59 93 60 94 61 95
REMARK SMILES IDX 62 96 63 97
REMARK H PARENT 11 17 84 53 54 64
REMARK Flexibility Score: inf
ROOT
ATOM      1  C   UNL A   1      32.599  36.136  31.343  1.00  0.00     0.188 C 
ENDROOT
BRANCH   1   2
ATOM      2  O   UNL A   1      33.325  36.499  30.179  1.00  0.00    -0.376 OA
BRANCH   2   3
ATOM      3  C   UNL A   1      33.004  35.796  28.989  1.00  0.00     0.202 C 
BRANCH   3   4
ATOM      4  C   UNL A   1      34.201  35.305  28.160  1.00  0.00     0.261 C 
BRANCH   4   5
ATOM      5  O   UNL A   1      34.368  33.880  28.129  1.00  0.00    -0.459 OA
BRANCH   5   6
ATOM      6  C   UNL A   1      35.618  33.387  28.352  1.00  0.00     0.348 C 
ATOM      7  O   UNL A   1      36.576  34.069  28.693  1.00  0.00    -0.245 OA
BRANCH   6   8
ATOM      8  C   UNL A   1      35.565  31.941  28.237  1.00  0.00     0.112 A 
ATOM      9  C   UNL A   1      34.960  29.688  27.428  1.00  0.00     0.025 A 
ATOM     10  C   UNL A   1      36.193  29.701  28.051  1.00  0.00     0.018 A 
ATOM     11  S   UNL A   1      34.173  31.203  27.572  1.00  0.00    -0.131 S 
ATOM     12  C   UNL A   1      36.549  31.005  28.505  1.00  0.00     0.028 A 
BRANCH   9  13
ATOM     13  C   UNL A   1      34.358  28.595  26.606  1.00  0.00     0.163 C 
BRANCH  13  14
ATOM     14  N   UNL A   1      33.016  28.283  27.033  1.00  0.00    -0.347 N 
ATOM     15  C   UNL A   1      32.202  27.242  26.654  1.00  0.00     0.257 C 
ATOM     16  O   UNL A   1      31.088  27.155  27.172  1.00  0.00    -0.269 OA
ATOM     17  H   UNL A   1      32.626  28.904  27.690  1.00  0.00     0.164 HD
BRANCH  15  18
ATOM     18  C   UNL A   1      32.577  26.251  25.613  1.00  0.00     0.102 A 
ATOM     19  C   UNL A   1      32.479  26.454  24.231  1.00  0.00     0.226 A 
ATOM     20  N   UNL A   1      32.790  25.529  23.288  1.00  0.00    -0.218 NA
ATOM     21  C   UNL A   1      33.287  24.373  23.758  1.00  0.00     0.048 A 
ATOM     22  C   UNL A   1      33.166  25.053  26.049  1.00  0.00     0.025 A 
ATOM     23  C   UNL A   1      33.524  24.111  25.100  1.00  0.00    -0.025 A 
ATOM     24  C   UNL A   1      33.728  23.222  22.895  1.00  0.00     0.057 C 
ATOM     25  C   UNL A   1      34.223  22.803  25.275  1.00  0.00     0.038 C 
ATOM     26  C   UNL A   1      33.905  22.111  23.941  1.00  0.00     0.011 C 
BRANCH  19  27
ATOM     27  O   UNL A   1      32.036  27.642  23.708  1.00  0.00    -0.480 OA
ATOM     28  C   UNL A   1      33.153  28.457  23.368  1.00  0.00     0.280 C 
ENDBRANCH  19  27
ENDBRANCH  15  18
ENDBRANCH  13  14
ENDBRANCH   9  13
ENDBRANCH   6   8
ENDBRANCH   5   6
ENDBRANCH   4   5
ENDBRANCH   3   4
ENDBRANCH   2   3
ENDBRANCH   1   2
BRANCH   1  29
ATOM     29  C   UNL A   1      33.286  35.024  32.162  1.00  0.00     0.188 C 
BRANCH  29  30
ATOM     30  O   UNL A   1      34.323  34.256  31.559  1.00  0.00    -0.376 OA
BRANCH  30  31
ATOM     31  C   UNL A   1      35.643  34.372  32.084  1.00  0.00     0.202 C 
BRANCH  31  32
ATOM     32  C   UNL A   1      36.102  33.342  33.122  1.00  0.00     0.261 C 
BRANCH  32  33
ATOM     33  O   UNL A   1      37.439  32.859  32.907  1.00  0.00    -0.460 OA
BRANCH  33  34
ATOM     34  C   UNL A   1      37.520  31.662  32.273  1.00  0.00     0.338 C 
ATOM     35  O   UNL A   1      36.600  30.945  31.924  1.00  0.00    -0.246 OA
BRANCH  34  36
ATOM     36  C   UNL A   1      38.922  31.379  31.922  1.00  0.00     0.060 A 
ATOM     37  C   UNL A   1      39.427  31.898  30.724  1.00  0.00     0.016 A 
ATOM     38  C   UNL A   1      39.690  30.518  32.708  1.00  0.00     0.016 A 
ATOM     39  C   UNL A   1      40.707  31.545  30.299  1.00  0.00     0.010 A 
ATOM     40  C   UNL A   1      40.961  30.142  32.264  1.00  0.00     0.010 A 
ATOM     41  C   UNL A   1      41.463  30.633  31.047  1.00  0.00    -0.014 A 
BRANCH  41  42
ATOM     42  C   UNL A   1      42.704  30.072  30.466  1.00  0.00     0.031 A 
ATOM     43  C   UNL A   1      43.952  30.909  30.481  1.00  0.00     0.074 A 
ATOM     44  C   UNL A   1      42.727  28.827  29.956  1.00  0.00     0.049 A 
ATOM     45  N   UNL A   1      45.148  30.613  30.040  1.00  0.00    -0.248 NA
ATOM     46  C   UNL A   1      43.842  32.251  31.077  1.00  0.00     0.031 C 
ATOM     47  C   UNL A   1      41.594  27.904  29.928  1.00  0.00     0.029 A 
ATOM     48  N   UNL A   1      43.749  28.129  29.364  1.00  0.00    -0.354 N 
ATOM     49  C   UNL A   1      45.933  31.726  30.315  1.00  0.00     0.074 A 
ATOM     50  C   UNL A   1      45.078  32.709  30.944  1.00  0.00     0.031 C 
ATOM     51  C   UNL A   1      41.983  26.759  29.340  1.00  0.00     0.029 A 
ATOM     52  C   UNL A   1      43.382  26.877  28.933  1.00  0.00     0.049 A 
ATOM     53  H   UNL A   1      44.659  28.491  29.258  1.00  0.00     0.167 HD
ATOM     54  C   UNL A   1      47.250  31.910  30.071  1.00  0.00     0.031 A 
ATOM     55  C   UNL A   1      44.091  25.939  28.274  1.00  0.00     0.031 A 
ATOM     56  C   UNL A   1      48.094  30.948  29.418  1.00  0.00     0.049 A 
ATOM     57  C   UNL A   1      45.531  26.204  27.926  1.00  0.00     0.074 A 
ATOM     58  C   UNL A   1      49.442  31.047  29.129  1.00  0.00     0.029 A 
ATOM     59  N   UNL A   1      47.666  29.722  28.938  1.00  0.00    -0.354 N 
ATOM     60  N   UNL A   1      46.266  27.250  28.215  1.00  0.00    -0.248 NA
ATOM     61  C   UNL A   1      46.236  25.164  27.161  1.00  0.00     0.031 C 
ATOM     62  C   UNL A   1      49.823  29.894  28.435  1.00  0.00     0.029 A 
ATOM     63  C   UNL A   1      48.720  29.061  28.333  1.00  0.00     0.049 A 
ATOM     64  H   UNL A   1      46.749  29.371  29.016  1.00  0.00     0.167 HD
ATOM     65  C   UNL A   1      47.523  26.991  27.681  1.00  0.00     0.074 A 
ATOM     66  C   UNL A   1      47.453  25.686  27.056  1.00  0.00     0.031 C 
ATOM     67  C   UNL A   1      48.635  27.764  27.712  1.00  0.00     0.031 A 
BRANCH  54  68
ATOM     68  C   UNL A   1      47.859  33.215  30.495  1.00  0.00    -0.014 A 
ATOM     69  C   UNL A   1      47.860  34.321  29.627  1.00  0.00     0.010 A 
ATOM     70  C   UNL A   1      48.380  33.356  31.794  1.00  0.00     0.010 A 
ATOM     71  C   UNL A   1      48.387  35.545  30.047  1.00  0.00     0.020 A 
ATOM     72  C   UNL A   1      48.893  34.582  32.222  1.00  0.00     0.020 A 
ATOM     73  C   UNL A   1      48.896  35.669  31.343  1.00  0.00     0.054 A 
BRANCH  73  74
ATOM     74  S   UNL A   1      49.546  37.279  31.866  1.00  0.00     0.124 S 
ATOM     75  O   UNL A   1      48.629  37.643  32.943  1.00  0.00    -0.237 OA
ATOM     76  O   UNL A   1      50.905  36.949  32.284  1.00  0.00    -0.237 OA
ATOM     77  O   UNL A   1      49.447  38.103  30.664  1.00  0.00    -0.744 OA
ENDBRANCH  73  74
ENDBRANCH  54  68
BRANCH  55  78
ATOM     78  C   UNL A   1      43.436  24.662  27.892  1.00  0.00    -0.014 A 
ATOM     79  C   UNL A   1      42.769  24.541  26.662  1.00  0.00     0.010 A 
ATOM     80  C   UNL A   1      43.509  23.546  28.747  1.00  0.00     0.010 A 
ATOM     81  C   UNL A   1      42.193  23.325  26.288  1.00  0.00     0.020 A 
ATOM     82  C   UNL A   1      42.948  22.324  28.369  1.00  0.00     0.020 A 
ATOM     83  C   UNL A   1      42.295  22.220  27.139  1.00  0.00     0.054 A 
BRANCH  83  84
ATOM     84  S   UNL A   1      41.589  20.639  26.599  1.00  0.00     0.124 S 
ATOM     85  O   UNL A   1      40.161  20.936  26.563  1.00  0.00    -0.237 OA
ATOM     86  O   UNL A   1      42.228  20.446  25.300  1.00  0.00    -0.237 OA
ATOM     87  O   UNL A   1      42.007  19.701  27.639  1.00  0.00    -0.744 OA
ENDBRANCH  83  84
ENDBRANCH  55  78
BRANCH  67  88
ATOM     88  C   UNL A   1      49.886  27.234  27.070  1.00  0.00    -0.014 A 
ATOM     89  C   UNL A   1      50.899  26.649  27.847  1.00  0.00     0.010 A 
ATOM     90  C   UNL A   1      49.983  27.199  25.667  1.00  0.00     0.010 A 
ATOM     91  C   UNL A   1      51.989  26.030  27.230  1.00  0.00     0.020 A 
ATOM     92  C   UNL A   1      51.063  26.566  25.046  1.00  0.00     0.020 A 
ATOM     93  C   UNL A   1      52.057  25.981  25.833  1.00  0.00     0.054 A 
BRANCH  93  94
ATOM     94  S   UNL A   1      53.442  25.098  25.063  1.00  0.00     0.124 S 
ATOM     95  O   UNL A   1      54.595  25.673  25.752  1.00  0.00    -0.237 OA
ATOM     96  O   UNL A   1      53.146  23.706  25.387  1.00  0.00    -0.237 OA
ATOM     97  O   UNL A   1      53.332  25.442  23.647  1.00  0.00    -0.744 OA
ENDBRANCH  93  94
ENDBRANCH  67  88
ENDBRANCH  41  42
ENDBRANCH  34  36
ENDBRANCH  33  34
ENDBRANCH  32  33
ENDBRANCH  31  32
ENDBRANCH  30  31
ENDBRANCH  29  30
ENDBRANCH   1  29
TORSDOF 24
ENDMDL
MODEL 3
REMARK VINA RESULT:      -8.1      4.435      7.846
REMARK SMILES COc1nc2c(cc1C(=O)NCc1ccc(C(=O)OCCOCCOCCOC(=O)c3ccc(-c4c5nc(c(-c6ccc(S(=O)(=O)[O-])cc6)c6ccc([nH]6)c(-c6ccc(S(=O)(=O)[O-])cc6)c6nc(c(-c7ccc(S(=O)(=O)[O-])cc7)c7ccc4[nH]7)C=C6)C=C5)cc3)s1)CCC2
REMARK SMILES IDX 23 1 22 2 21 3 20 4 19 5 17 6 18 7 16 8 13 9 14 10 91 11
REMARK SMILES IDX 15 12 12 13 11 14 9 15 10 16 8 18 3 19 4 20 5 21 7 22 6 23
REMARK SMILES IDX 94 24 92 25 93 26 2 27 1 28 24 29 25 30 26 31 27 32 28 33
REMARK SMILES IDX 29 34 30 35 31 36 32 37 90 38 33 39 89 40 34 41 35 42 36 43
REMARK SMILES IDX 83 44 37 45 88 46 82 47 84 48 38 49 87 50 81 51 80 52 39 54
REMARK SMILES IDX 69 55 50 56 68 57 51 58 54 59 67 60 85 61 52 62 53 63 66 65
REMARK SMILES IDX 86 66 55 67 40 68 41 69 49 70 42 71 48 72 43 73 44 74 45 75
REMARK SMILES IDX 46 76 47 77 70 78 71 79 79 80 72 81 78 82 73 83 74 84 75 85
REMARK SMILES IDX 76 86 77 87 56 88 57 89 65 90 58 91 64 92 59 93 60 94 61 95
REMARK SMILES IDX 62 96 63 97
REMARK H PARENT 11 17 84 53 54 64
REMARK Flexibility Score: inf
ROOT
ATOM      1  C   UNL A   1      40.462  33.204  31.118  1.00  0.00     0.188 C 
ENDROOT
BRANCH   1   2
ATOM      2  O   UNL A   1      41.379  34.134  31.674  1.00  0.00    -0.376 OA
BRANCH   2   3
ATOM      3  C   UNL A   1      42.653  34.211  31.056  1.00  0.00     0.202 C 
BRANCH   3   4
ATOM      4  C   UNL A   1      43.787  34.766  31.932  1.00  0.00     0.261 C 
BRANCH   4   5
ATOM      5  O   UNL A   1      43.872  34.191  33.244  1.00  0.00    -0.459 OA
BRANCH   5   6
ATOM      6  C   UNL A   1      44.604  33.051  33.387  1.00  0.00     0.348 C 
ATOM      7  O   UNL A   1      45.814  32.984  33.215  1.00  0.00    -0.245 OA
BRANCH   6   8
ATOM      8  C   UNL A   1      43.728  32.006  33.882  1.00  0.00     0.112 A 
ATOM      9  C   UNL A   1      41.695  30.848  34.670  1.00  0.00     0.025 A 
ATOM     10  C   UNL A   1      42.614  29.970  34.129  1.00  0.00     0.018 A 
ATOM     11  S   UNL A   1      42.335  32.434  34.778  1.00  0.00    -0.131 S 
ATOM     12  C   UNL A   1      43.782  30.641  33.661  1.00  0.00     0.028 A 
BRANCH   9  13
ATOM     13  C   UNL A   1      40.269  30.579  35.028  1.00  0.00     0.163 C 
BRANCH  13  14
ATOM     14  N   UNL A   1      39.948  31.064  36.349  1.00  0.00    -0.347 N 
ATOM     15  C   UNL A   1      39.081  32.063  36.722  1.00  0.00     0.257 C 
ATOM     16  O   UNL A   1      38.943  32.294  37.924  1.00  0.00    -0.269 OA
ATOM     17  H   UNL A   1      40.417  30.614  37.088  1.00  0.00     0.164 HD
BRANCH  15  18
ATOM     18  C   UNL A   1      38.347  32.911  35.750  1.00  0.00     0.102 A 
ATOM     19  C   UNL A   1      38.759  34.174  35.306  1.00  0.00     0.226 A 
ATOM     20  N   UNL A   1      38.062  34.959  34.444  1.00  0.00    -0.218 NA
ATOM     21  C   UNL A   1      36.936  34.415  33.955  1.00  0.00     0.048 A 
ATOM     22  C   UNL A   1      37.199  32.362  35.156  1.00  0.00     0.025 A 
ATOM     23  C   UNL A   1      36.494  33.132  34.247  1.00  0.00    -0.025 A 
ATOM     24  C   UNL A   1      36.026  35.089  32.964  1.00  0.00     0.057 C 
ATOM     25  C   UNL A   1      35.299  32.777  33.425  1.00  0.00     0.038 C 
ATOM     26  C   UNL A   1      34.797  34.167  33.007  1.00  0.00     0.011 C 
BRANCH  19  27
ATOM     27  O   UNL A   1      39.934  34.738  35.732  1.00  0.00    -0.480 OA
ATOM     28  C   UNL A   1      40.463  35.568  34.704  1.00  0.00     0.280 C 
ENDBRANCH  19  27
ENDBRANCH  15  18
ENDBRANCH  13  14
ENDBRANCH   9  13
ENDBRANCH   6   8
ENDBRANCH   5   6
ENDBRANCH   4   5
ENDBRANCH   3   4
ENDBRANCH   2   3
ENDBRANCH   1   2
BRANCH   1  29
ATOM     29  C   UNL A   1      39.589  32.506  32.181  1.00  0.00     0.188 C 
BRANCH  29  30
ATOM     30  O   UNL A   1      38.934  31.286  31.851  1.00  0.00    -0.376 OA
BRANCH  30  31
ATOM     31  C   UNL A   1      37.764  31.344  31.038  1.00  0.00     0.202 C 
BRANCH  31  32
ATOM     32  C   UNL A   1      36.723  30.228  31.187  1.00  0.00     0.261 C 
BRANCH  32  33
ATOM     33  O   UNL A   1      37.022  29.051  30.417  1.00  0.00    -0.460 OA
BRANCH  33  34
ATOM     34  C   UNL A   1      37.127  29.253  29.080  1.00  0.00     0.338 C 
ATOM     35  O   UNL A   1      36.301  29.756  28.339  1.00  0.00    -0.246 OA
BRANCH  34  36
ATOM     36  C   UNL A   1      38.481  28.893  28.627  1.00  0.00     0.060 A 
ATOM     37  C   UNL A   1      39.382  28.374  29.565  1.00  0.00     0.016 A 
ATOM     38  C   UNL A   1      38.890  29.172  27.322  1.00  0.00     0.016 A 
ATOM     39  C   UNL A   1      40.708  28.143  29.201  1.00  0.00     0.010 A 
ATOM     40  C   UNL A   1      40.227  28.967  26.969  1.00  0.00     0.010 A 
ATOM     41  C   UNL A   1      41.145  28.477  27.913  1.00  0.00    -0.014 A 
BRANCH  41  42
ATOM     42  C   UNL A   1      42.596  28.468  27.614  1.00  0.00     0.031 A 
ATOM     43  C   UNL A   1      43.216  27.206  27.081  1.00  0.00     0.074 A 
ATOM     44  C   UNL A   1      43.345  29.571  27.792  1.00  0.00     0.049 A 
ATOM     45  N   UNL A   1      44.458  26.979  26.741  1.00  0.00    -0.248 NA
ATOM     46  C   UNL A   1      42.318  26.054  26.898  1.00  0.00     0.031 C 
ATOM     47  C   UNL A   1      42.849  30.864  28.258  1.00  0.00     0.029 A 
ATOM     48  N   UNL A   1      44.688  29.773  27.596  1.00  0.00    -0.354 N 
ATOM     49  C   UNL A   1      44.488  25.664  26.294  1.00  0.00     0.074 A 
ATOM     50  C   UNL A   1      43.147  25.137  26.422  1.00  0.00     0.031 C 
ATOM     51  C   UNL A   1      43.879  31.727  28.320  1.00  0.00     0.029 A 
ATOM     52  C   UNL A   1      45.106  31.040  27.918  1.00  0.00     0.049 A 
ATOM     53  H   UNL A   1      45.294  29.074  27.257  1.00  0.00     0.167 HD
ATOM     54  C   UNL A   1      45.539  24.960  25.816  1.00  0.00     0.031 A 
ATOM     55  C   UNL A   1      46.340  31.583  27.903  1.00  0.00     0.031 A 
ATOM     56  C   UNL A   1      46.878  25.470  25.718  1.00  0.00     0.049 A 
ATOM     57  C   UNL A   1      47.512  30.750  27.458  1.00  0.00     0.074 A 
ATOM     58  C   UNL A   1      48.008  24.830  25.244  1.00  0.00     0.029 A 
ATOM     59  N   UNL A   1      47.270  26.737  26.118  1.00  0.00    -0.354 N 
ATOM     60  N   UNL A   1      47.520  29.516  27.015  1.00  0.00    -0.248 NA
ATOM     61  C   UNL A   1      48.840  31.381  27.512  1.00  0.00     0.031 C 
ATOM     62  C   UNL A   1      49.094  25.696  25.395  1.00  0.00     0.029 A 
ATOM     63  C   UNL A   1      48.630  26.891  25.922  1.00  0.00     0.049 A 
ATOM     64  H   UNL A   1      46.670  27.426  26.485  1.00  0.00     0.167 HD
ATOM     65  C   UNL A   1      48.849  29.226  26.725  1.00  0.00     0.074 A 
ATOM     66  C   UNL A   1      49.617  30.415  27.036  1.00  0.00     0.031 C 
ATOM     67  C   UNL A   1      49.381  28.079  26.240  1.00  0.00     0.031 A 
BRANCH  54  68
ATOM     68  C   UNL A   1      45.285  23.546  25.378  1.00  0.00    -0.014 A 
ATOM     69  C   UNL A   1      45.039  23.248  24.027  1.00  0.00     0.010 A 
ATOM     70  C   UNL A   1      45.354  22.499  26.316  1.00  0.00     0.010 A 
ATOM     71  C   UNL A   1      44.850  21.925  23.621  1.00  0.00     0.020 A 
ATOM     72  C   UNL A   1      45.182  21.174  25.911  1.00  0.00     0.020 A 
ATOM     73  C   UNL A   1      44.927  20.896  24.565  1.00  0.00     0.054 A 
BRANCH  73  74
ATOM     74  S   UNL A   1      44.706  19.187  24.000  1.00  0.00     0.124 S 
ATOM     75  O   UNL A   1      43.455  18.809  24.653  1.00  0.00    -0.237 OA
ATOM     76  O   UNL A   1      44.634  19.342  22.550  1.00  0.00    -0.237 OA
ATOM     77  O   UNL A   1      45.895  18.498  24.495  1.00  0.00    -0.744 OA
ENDBRANCH  73  74
ENDBRANCH  54  68
BRANCH  55  78
ATOM     78  C   UNL A   1      46.525  32.992  28.336  1.00  0.00    -0.014 A 
ATOM     79  C   UNL A   1      46.524  34.033  27.393  1.00  0.00     0.010 A 
ATOM     80  C   UNL A   1      46.667  33.300  29.701  1.00  0.00     0.010 A 
ATOM     81  C   UNL A   1      46.653  35.361  27.809  1.00  0.00     0.020 A 
ATOM     82  C   UNL A   1      46.781  34.627  30.122  1.00  0.00     0.020 A 
ATOM     83  C   UNL A   1      46.771  35.651  29.172  1.00  0.00     0.054 A 
BRANCH  83  84
ATOM     84  S   UNL A   1      46.876  37.387  29.685  1.00  0.00     0.124 S 
ATOM     85  O   UNL A   1      47.147  38.065  28.420  1.00  0.00    -0.237 OA
ATOM     86  O   UNL A   1      45.552  37.620  30.256  1.00  0.00    -0.237 OA
ATOM     87  O   UNL A   1      47.976  37.397  30.647  1.00  0.00    -0.744 OA
ENDBRANCH  83  84
ENDBRANCH  55  78
BRANCH  67  88
ATOM     88  C   UNL A   1      50.863  28.034  25.992  1.00  0.00    -0.014 A 
ATOM     89  C   UNL A   1      51.746  27.608  26.997  1.00  0.00     0.010 A 
ATOM     90  C   UNL A   1      51.357  28.289  24.700  1.00  0.00     0.010 A 
ATOM     91  C   UNL A   1      53.103  27.432  26.712  1.00  0.00     0.020 A 
ATOM     92  C   UNL A   1      52.710  28.099  24.407  1.00  0.00     0.020 A 
ATOM     93  C   UNL A   1      53.573  27.666  25.415  1.00  0.00     0.054 A 
BRANCH  93  94
ATOM     94  S   UNL A   1      55.323  27.348  25.058  1.00  0.00     0.124 S 
ATOM     95  O   UNL A   1      55.732  28.583  24.395  1.00  0.00    -0.237 OA
ATOM     96  O   UNL A   1      55.881  27.134  26.390  1.00  0.00    -0.237 OA
ATOM     97  O   UNL A   1      55.295  26.165  24.200  1.00  0.00    -0.744 OA
ENDBRANCH  93  94
ENDBRANCH  67  88
ENDBRANCH  41  42
ENDBRANCH  34  36
ENDBRANCH  33  34
ENDBRANCH  32  33
ENDBRANCH  31  32
ENDBRANCH  30  31
ENDBRANCH  29  30
ENDBRANCH   1  29
TORSDOF 24
ENDMDL
