MODEL 1
REMARK VINA RESULT:      -9.6      0.000      0.000
REMARK SMILES CC[C@]1(C(=O)OCCOCCOCCOC(=O)c2ccc(-c3c4nc(c(-c5ccc(S(=O)(=O)[O-])cc5)c5ccc([nH]5)c(-c5ccc(S(=O)(=O)[O-])cc5)c5nc(c(-c6ccc(S(=O)(=O)[O-])cc6)c6ccc3[nH]6)C=C5)C=C4)cc2)CC[N@@H+](Cc2nc(C)ccc2O)C1
REMARK SMILES IDX 10 1 9 2 8 3 7 4 6 5 4 6 5 7 3 8 78 9 90 10 79 11 80 12 2 14
REMARK SMILES IDX 1 15 81 16 82 17 83 18 88 19 84 20 87 21 85 22 86 23 89 24
REMARK SMILES IDX 11 26 12 27 13 28 14 29 15 30 16 31 17 32 18 33 19 34 77 35
REMARK SMILES IDX 20 36 76 37 21 38 22 39 23 40 70 41 24 42 75 43 69 44 71 45
REMARK SMILES IDX 25 46 74 47 68 48 67 49 26 51 56 52 37 53 55 54 38 55 41 56
REMARK SMILES IDX 54 57 72 58 39 59 40 60 53 62 73 63 42 64 27 65 28 66 36 67
REMARK SMILES IDX 29 68 35 69 30 70 31 71 32 72 33 73 34 74 57 75 58 76 66 77
REMARK SMILES IDX 59 78 65 79 60 80 61 81 62 82 63 83 64 84 43 85 44 86 52 87
REMARK SMILES IDX 45 88 51 89 46 90 47 91 48 92 49 93 50 94
REMARK H PARENT 80 13 89 25 71 50 41 61
REMARK Flexibility Score: inf
ROOT
ATOM      1  C   UNL A   1      34.384  31.308  28.280  1.00  0.00     0.188 C 
ENDROOT
BRANCH   1   2
ATOM      2  O   UNL A   1      33.569  31.591  27.157  1.00  0.00    -0.376 OA
BRANCH   2   3
ATOM      3  C   UNL A   1      32.463  30.736  26.903  1.00  0.00     0.202 C 
BRANCH   3   4
ATOM      4  C   UNL A   1      32.731  29.323  26.376  1.00  0.00     0.261 C 
BRANCH   4   5
ATOM      5  O   UNL A   1      31.551  28.685  25.846  1.00  0.00    -0.463 OA
BRANCH   5   6
ATOM      6  C   UNL A   1      31.336  27.418  26.283  1.00  0.00     0.318 C 
ATOM      7  O   UNL A   1      31.433  27.118  27.470  1.00  0.00    -0.251 OA
BRANCH   6   8
ATOM      8  C   UNL A   1      30.945  26.395  25.201  1.00  0.00     0.122 C 
ATOM      9  C   UNL A   1      32.043  25.654  24.409  1.00  0.00     0.086 C 
ATOM     10  C   UNL A   1      30.262  25.233  25.961  1.00  0.00     0.281 C 
ATOM     11  C   UNL A   1      31.527  24.230  24.269  1.00  0.00     0.264 C 
ATOM     12  N   UNL A   1      30.886  23.961  25.548  1.00  0.00    -0.329 N 
ATOM     13  H   UNL A   1      30.167  23.242  25.466  1.00  0.00     0.348 HD
BRANCH   8  14
ATOM     14  C   UNL A   1      30.083  27.123  24.125  1.00  0.00     0.021 C 
ATOM     15  C   UNL A   1      28.674  26.613  23.870  1.00  0.00     0.005 C 
ENDBRANCH   8  14
BRANCH  12  16
ATOM     16  C   UNL A   1      31.799  23.342  26.546  1.00  0.00     0.323 C 
BRANCH  16  17
ATOM     17  C   UNL A   1      33.040  22.589  26.075  1.00  0.00     0.136 A 
ATOM     18  N   UNL A   1      34.237  23.242  26.172  1.00  0.00    -0.248 NA
ATOM     19  C   UNL A   1      32.967  21.269  25.634  1.00  0.00     0.142 A 
ATOM     20  C   UNL A   1      35.373  22.563  25.869  1.00  0.00     0.038 A 
ATOM     21  C   UNL A   1      34.138  20.591  25.308  1.00  0.00     0.050 A 
ATOM     22  C   UNL A   1      36.674  23.304  25.983  1.00  0.00     0.067 C 
ATOM     23  C   UNL A   1      35.358  21.246  25.428  1.00  0.00     0.027 A 
BRANCH  19  24
ATOM     24  O   UNL A   1      31.764  20.635  25.544  1.00  0.00    -0.506 OA
ATOM     25  H   UNL A   1      31.235  20.739  24.778  1.00  0.00     0.293 HD
ENDBRANCH  19  24
ENDBRANCH  16  17
ENDBRANCH  12  16
ENDBRANCH   6   8
ENDBRANCH   5   6
ENDBRANCH   4   5
ENDBRANCH   3   4
ENDBRANCH   2   3
ENDBRANCH   1   2
BRANCH   1  26
ATOM     26  C   UNL A   1      34.746  32.457  29.233  1.00  0.00     0.188 C 
BRANCH  26  27
ATOM     27  O   UNL A   1      34.462  32.414  30.614  1.00  0.00    -0.376 OA
BRANCH  27  28
ATOM     28  C   UNL A   1      35.486  32.706  31.544  1.00  0.00     0.202 C 
BRANCH  28  29
ATOM     29  C   UNL A   1      36.243  31.605  32.302  1.00  0.00     0.261 C 
BRANCH  29  30
ATOM     30  O   UNL A   1      36.472  30.387  31.582  1.00  0.00    -0.460 OA
BRANCH  30  31
ATOM     31  C   UNL A   1      37.325  29.517  32.184  1.00  0.00     0.338 C 
ATOM     32  O   UNL A   1      37.034  28.641  32.987  1.00  0.00    -0.246 OA
BRANCH  31  33
ATOM     33  C   UNL A   1      38.655  29.617  31.550  1.00  0.00     0.060 A 
ATOM     34  C   UNL A   1      38.726  29.671  30.149  1.00  0.00     0.016 A 
ATOM     35  C   UNL A   1      39.819  29.634  32.318  1.00  0.00     0.016 A 
ATOM     36  C   UNL A   1      39.964  29.707  29.511  1.00  0.00     0.010 A 
ATOM     37  C   UNL A   1      41.060  29.643  31.676  1.00  0.00     0.010 A 
ATOM     38  C   UNL A   1      41.138  29.641  30.270  1.00  0.00    -0.014 A 
BRANCH  38  39
ATOM     39  C   UNL A   1      42.427  29.354  29.594  1.00  0.00     0.031 A 
ATOM     40  C   UNL A   1      42.632  27.978  29.012  1.00  0.00     0.074 A 
ATOM     41  C   UNL A   1      43.376  30.298  29.458  1.00  0.00     0.049 A 
ATOM     42  N   UNL A   1      43.678  27.483  28.405  1.00  0.00    -0.248 NA
ATOM     43  C   UNL A   1      41.503  27.039  29.130  1.00  0.00     0.031 C 
ATOM     44  C   UNL A   1      43.273  31.680  29.925  1.00  0.00     0.029 A 
ATOM     45  N   UNL A   1      44.620  30.229  28.882  1.00  0.00    -0.354 N 
ATOM     46  C   UNL A   1      43.333  26.178  28.066  1.00  0.00     0.074 A 
ATOM     47  C   UNL A   1      41.999  25.945  28.572  1.00  0.00     0.031 C 
ATOM     48  C   UNL A   1      44.411  32.330  29.616  1.00  0.00     0.029 A 
ATOM     49  C   UNL A   1      45.333  31.402  28.964  1.00  0.00     0.049 A 
ATOM     50  H   UNL A   1      44.968  29.417  28.449  1.00  0.00     0.167 HD
ATOM     51  C   UNL A   1      44.056  25.261  27.382  1.00  0.00     0.031 A 
ATOM     52  C   UNL A   1      46.592  31.685  28.573  1.00  0.00     0.031 A 
ATOM     53  C   UNL A   1      45.390  25.486  26.893  1.00  0.00     0.049 A 
ATOM     54  C   UNL A   1      47.416  30.607  27.907  1.00  0.00     0.074 A 
ATOM     55  C   UNL A   1      46.212  24.615  26.201  1.00  0.00     0.029 A 
ATOM     56  N   UNL A   1      46.097  26.669  27.045  1.00  0.00    -0.354 N 
ATOM     57  N   UNL A   1      47.073  29.380  27.589  1.00  0.00    -0.248 NA
ATOM     58  C   UNL A   1      48.794  30.960  27.538  1.00  0.00     0.031 C 
ATOM     59  C   UNL A   1      47.438  25.253  25.983  1.00  0.00     0.029 A 
ATOM     60  C   UNL A   1      47.353  26.544  26.476  1.00  0.00     0.049 A 
ATOM     61  H   UNL A   1      45.756  27.479  27.489  1.00  0.00     0.167 HD
ATOM     62  C   UNL A   1      48.181  28.833  26.946  1.00  0.00     0.074 A 
ATOM     63  C   UNL A   1      49.193  29.867  26.904  1.00  0.00     0.031 C 
ATOM     64  C   UNL A   1      48.347  27.587  26.434  1.00  0.00     0.031 A 
BRANCH  51  65
ATOM     65  C   UNL A   1      43.421  23.916  27.132  1.00  0.00    -0.014 A 
ATOM     66  C   UNL A   1      43.261  22.987  28.175  1.00  0.00     0.010 A 
ATOM     67  C   UNL A   1      42.927  23.601  25.854  1.00  0.00     0.010 A 
ATOM     68  C   UNL A   1      42.640  21.758  27.939  1.00  0.00     0.020 A 
ATOM     69  C   UNL A   1      42.279  22.385  25.619  1.00  0.00     0.020 A 
ATOM     70  C   UNL A   1      42.149  21.467  26.663  1.00  0.00     0.054 A 
BRANCH  70  71
ATOM     71  S   UNL A   1      41.302  19.884  26.400  1.00  0.00     0.124 S 
ATOM     72  O   UNL A   1      42.117  19.276  25.351  1.00  0.00    -0.237 OA
ATOM     73  O   UNL A   1      41.395  19.252  27.713  1.00  0.00    -0.237 OA
ATOM     74  O   UNL A   1      39.955  20.274  25.992  1.00  0.00    -0.744 OA
ENDBRANCH  70  71
ENDBRANCH  51  65
BRANCH  52  75
ATOM     75  C   UNL A   1      47.179  33.035  28.814  1.00  0.00    -0.014 A 
ATOM     76  C   UNL A   1      47.488  33.887  27.738  1.00  0.00     0.010 A 
ATOM     77  C   UNL A   1      47.490  33.452  30.122  1.00  0.00     0.010 A 
ATOM     78  C   UNL A   1      48.134  35.107  27.960  1.00  0.00     0.020 A 
ATOM     79  C   UNL A   1      48.103  34.687  30.351  1.00  0.00     0.020 A 
ATOM     80  C   UNL A   1      48.441  35.497  29.267  1.00  0.00     0.054 A 
BRANCH  80  81
ATOM     81  S   UNL A   1      49.278  37.086  29.532  1.00  0.00     0.124 S 
ATOM     82  O   UNL A   1      49.843  36.912  30.866  1.00  0.00    -0.237 OA
ATOM     83  O   UNL A   1      50.241  37.121  28.434  1.00  0.00    -0.237 OA
ATOM     84  O   UNL A   1      48.195  38.062  29.432  1.00  0.00    -0.744 OA
ENDBRANCH  80  81
ENDBRANCH  52  75
BRANCH  64  85
ATOM     85  C   UNL A   1      49.650  27.291  25.735  1.00  0.00    -0.014 A 
ATOM     86  C   UNL A   1      49.761  27.333  24.333  1.00  0.00     0.010 A 
ATOM     87  C   UNL A   1      50.793  26.996  26.501  1.00  0.00     0.010 A 
ATOM     88  C   UNL A   1      50.977  27.034  23.711  1.00  0.00     0.020 A 
ATOM     89  C   UNL A   1      52.019  26.733  25.885  1.00  0.00     0.020 A 
ATOM     90  C   UNL A   1      52.098  26.733  24.491  1.00  0.00     0.054 A 
BRANCH  90  91
ATOM     91  S   UNL A   1      53.667  26.368  23.659  1.00  0.00     0.124 S 
ATOM     92  O   UNL A   1      54.122  25.179  24.374  1.00  0.00    -0.237 OA
ATOM     93  O   UNL A   1      53.252  26.149  22.275  1.00  0.00    -0.237 OA
ATOM     94  O   UNL A   1      54.466  27.572  23.880  1.00  0.00    -0.744 OA
ENDBRANCH  90  91
ENDBRANCH  64  85
ENDBRANCH  38  39
ENDBRANCH  31  33
ENDBRANCH  30  31
ENDBRANCH  29  30
ENDBRANCH  28  29
ENDBRANCH  27  28
ENDBRANCH  26  27
ENDBRANCH   1  26
TORSDOF 24
ENDMDL
MODEL 2
REMARK VINA RESULT:      -9.5      5.738     11.828
REMARK SMILES CC[C@]1(C(=O)OCCOCCOCCOC(=O)c2ccc(-c3c4nc(c(-c5ccc(S(=O)(=O)[O-])cc5)c5ccc([nH]5)c(-c5ccc(S(=O)(=O)[O-])cc5)c5nc(c(-c6ccc(S(=O)(=O)[O-])cc6)c6ccc3[nH]6)C=C5)C=C4)cc2)CC[N@@H+](Cc2nc(C)ccc2O)C1
REMARK SMILES IDX 10 1 9 2 8 3 7 4 6 5 4 6 5 7 3 8 78 9 90 10 79 11 80 12 2 14
REMARK SMILES IDX 1 15 81 16 82 17 83 18 88 19 84 20 87 21 85 22 86 23 89 24
REMARK SMILES IDX 11 26 12 27 13 28 14 29 15 30 16 31 17 32 18 33 19 34 77 35
REMARK SMILES IDX 20 36 76 37 21 38 22 39 23 40 70 41 24 42 75 43 69 44 71 45
REMARK SMILES IDX 25 46 74 47 68 48 67 49 26 51 56 52 37 53 55 54 38 55 41 56
REMARK SMILES IDX 54 57 72 58 39 59 40 60 53 62 73 63 42 64 27 65 28 66 36 67
REMARK SMILES IDX 29 68 35 69 30 70 31 71 32 72 33 73 34 74 57 75 58 76 66 77
REMARK SMILES IDX 59 78 65 79 60 80 61 81 62 82 63 83 64 84 43 85 44 86 52 87
REMARK SMILES IDX 45 88 51 89 46 90 47 91 48 92 49 93 50 94
REMARK H PARENT 80 13 89 25 71 50 41 61
REMARK Flexibility Score: inf
ROOT
ATOM      1  C   UNL A   1      39.557  23.015  27.270  1.00  0.00     0.188 C 
ENDROOT
BRANCH   1   2
ATOM      2  O   UNL A   1      39.105  23.726  26.131  1.00  0.00    -0.376 OA
BRANCH   2   3
ATOM      3  C   UNL A   1      37.712  23.717  25.849  1.00  0.00     0.202 C 
BRANCH   3   4
ATOM      4  C   UNL A   1      37.208  22.891  24.661  1.00  0.00     0.261 C 
BRANCH   4   5
ATOM      5  O   UNL A   1      35.772  22.914  24.526  1.00  0.00    -0.463 OA
BRANCH   5   6
ATOM      6  C   UNL A   1      35.105  22.038  25.319  1.00  0.00     0.318 C 
ATOM      7  O   UNL A   1      35.696  21.205  26.003  1.00  0.00    -0.251 OA
BRANCH   6   8
ATOM      8  C   UNL A   1      33.572  22.173  25.322  1.00  0.00     0.122 C 
ATOM      9  C   UNL A   1      32.812  22.301  26.659  1.00  0.00     0.086 C 
ATOM     10  C   UNL A   1      33.277  23.539  24.657  1.00  0.00     0.281 C 
ATOM     11  C   UNL A   1      31.722  23.326  26.391  1.00  0.00     0.264 C 
ATOM     12  N   UNL A   1      32.366  24.306  25.528  1.00  0.00    -0.329 N 
ATOM     13  H   UNL A   1      31.687  24.805  24.953  1.00  0.00     0.348 HD
BRANCH   8  14
ATOM     14  C   UNL A   1      32.967  20.917  24.624  1.00  0.00     0.021 C 
ATOM     15  C   UNL A   1      32.295  21.100  23.273  1.00  0.00     0.005 C 
ENDBRANCH   8  14
BRANCH  12  16
ATOM     16  C   UNL A   1      32.990  25.430  26.277  1.00  0.00     0.323 C 
BRANCH  16  17
ATOM     17  C   UNL A   1      32.816  26.862  25.781  1.00  0.00     0.136 A 
ATOM     18  N   UNL A   1      33.466  27.204  24.627  1.00  0.00    -0.248 NA
ATOM     19  C   UNL A   1      31.974  27.762  26.433  1.00  0.00     0.142 A 
ATOM     20  C   UNL A   1      33.244  28.433  24.096  1.00  0.00     0.038 A 
ATOM     21  C   UNL A   1      31.770  29.026  25.887  1.00  0.00     0.050 A 
ATOM     22  C   UNL A   1      33.971  28.782  22.831  1.00  0.00     0.067 C 
ATOM     23  C   UNL A   1      32.413  29.367  24.702  1.00  0.00     0.027 A 
BRANCH  19  24
ATOM     24  O   UNL A   1      31.334  27.403  27.580  1.00  0.00    -0.506 OA
ATOM     25  H   UNL A   1      30.465  27.711  27.750  1.00  0.00     0.293 HD
ENDBRANCH  19  24
ENDBRANCH  16  17
ENDBRANCH  12  16
ENDBRANCH   6   8
ENDBRANCH   5   6
ENDBRANCH   4   5
ENDBRANCH   3   4
ENDBRANCH   2   3
ENDBRANCH   1   2
BRANCH   1  26
ATOM     26  C   UNL A   1      40.642  21.943  27.083  1.00  0.00     0.188 C 
BRANCH  26  27
ATOM     27  O   UNL A   1      41.240  21.681  25.834  1.00  0.00    -0.376 OA
BRANCH  27  28
ATOM     28  C   UNL A   1      42.604  21.996  25.635  1.00  0.00     0.202 C 
BRANCH  28  29
ATOM     29  C   UNL A   1      43.063  23.382  25.158  1.00  0.00     0.261 C 
BRANCH  29  30
ATOM     30  O   UNL A   1      43.160  24.395  26.167  1.00  0.00    -0.460 OA
BRANCH  30  31
ATOM     31  C   UNL A   1      42.326  25.454  25.998  1.00  0.00     0.338 C 
ATOM     32  O   UNL A   1      41.564  25.646  25.059  1.00  0.00    -0.246 OA
BRANCH  31  33
ATOM     33  C   UNL A   1      42.283  26.249  27.242  1.00  0.00     0.060 A 
ATOM     34  C   UNL A   1      41.353  25.892  28.232  1.00  0.00     0.016 A 
ATOM     35  C   UNL A   1      43.129  27.342  27.427  1.00  0.00     0.016 A 
ATOM     36  C   UNL A   1      41.242  26.652  29.395  1.00  0.00     0.010 A 
ATOM     37  C   UNL A   1      42.998  28.118  28.582  1.00  0.00     0.010 A 
ATOM     38  C   UNL A   1      42.029  27.798  29.552  1.00  0.00    -0.014 A 
BRANCH  38  39
ATOM     39  C   UNL A   1      41.690  28.774  30.617  1.00  0.00     0.031 A 
ATOM     40  C   UNL A   1      42.557  28.808  31.851  1.00  0.00     0.074 A 
ATOM     41  C   UNL A   1      40.670  29.639  30.480  1.00  0.00     0.049 A 
ATOM     42  N   UNL A   1      42.445  29.546  32.923  1.00  0.00    -0.248 NA
ATOM     43  C   UNL A   1      43.705  27.884  31.873  1.00  0.00     0.031 C 
ATOM     44  C   UNL A   1      39.796  29.746  29.312  1.00  0.00     0.029 A 
ATOM     45  N   UNL A   1      40.198  30.599  31.342  1.00  0.00    -0.354 N 
ATOM     46  C   UNL A   1      43.506  29.181  33.744  1.00  0.00     0.074 A 
ATOM     47  C   UNL A   1      44.226  28.126  33.067  1.00  0.00     0.031 C 
ATOM     48  C   UNL A   1      38.892  30.718  29.532  1.00  0.00     0.029 A 
ATOM     49  C   UNL A   1      39.099  31.277  30.867  1.00  0.00     0.049 A 
ATOM     50  H   UNL A   1      40.608  30.786  32.216  1.00  0.00     0.167 HD
ATOM     51  C   UNL A   1      43.860  29.687  34.948  1.00  0.00     0.031 A 
ATOM     52  C   UNL A   1      38.340  32.225  31.453  1.00  0.00     0.031 A 
ATOM     53  C   UNL A   1      43.134  30.725  35.631  1.00  0.00     0.049 A 
ATOM     54  C   UNL A   1      38.696  32.696  32.844  1.00  0.00     0.074 A 
ATOM     55  C   UNL A   1      43.404  31.298  36.862  1.00  0.00     0.029 A 
ATOM     56  N   UNL A   1      41.996  31.347  35.141  1.00  0.00    -0.354 N 
ATOM     57  N   UNL A   1      39.706  32.344  33.605  1.00  0.00    -0.248 NA
ATOM     58  C   UNL A   1      37.811  33.702  33.448  1.00  0.00     0.031 C 
ATOM     59  C   UNL A   1      42.396  32.226  37.141  1.00  0.00     0.029 A 
ATOM     60  C   UNL A   1      41.540  32.283  36.054  1.00  0.00     0.049 A 
ATOM     61  H   UNL A   1      41.576  31.153  34.272  1.00  0.00     0.167 HD
ATOM     62  C   UNL A   1      39.599  33.118  34.758  1.00  0.00     0.074 A 
ATOM     63  C   UNL A   1      38.439  33.967  34.584  1.00  0.00     0.031 C 
ATOM     64  C   UNL A   1      40.388  33.128  35.862  1.00  0.00     0.031 A 
BRANCH  51  65
ATOM     65  C   UNL A   1      45.084  29.114  35.615  1.00  0.00    -0.014 A 
ATOM     66  C   UNL A   1      44.990  27.998  36.465  1.00  0.00     0.010 A 
ATOM     67  C   UNL A   1      46.351  29.662  35.344  1.00  0.00     0.010 A 
ATOM     68  C   UNL A   1      46.137  27.455  37.050  1.00  0.00     0.020 A 
ATOM     69  C   UNL A   1      47.504  29.104  35.903  1.00  0.00     0.020 A 
ATOM     70  C   UNL A   1      47.387  28.008  36.761  1.00  0.00     0.054 A 
BRANCH  70  71
ATOM     71  S   UNL A   1      48.862  27.248  37.495  1.00  0.00     0.124 S 
ATOM     72  O   UNL A   1      49.650  26.913  36.312  1.00  0.00    -0.237 OA
ATOM     73  O   UNL A   1      49.397  28.327  38.321  1.00  0.00    -0.237 OA
ATOM     74  O   UNL A   1      48.333  26.105  38.234  1.00  0.00    -0.744 OA
ENDBRANCH  70  71
ENDBRANCH  51  65
BRANCH  52  75
ATOM     75  C   UNL A   1      37.150  32.788  30.752  1.00  0.00    -0.014 A 
ATOM     76  C   UNL A   1      37.286  33.864  29.856  1.00  0.00     0.010 A 
ATOM     77  C   UNL A   1      35.863  32.290  31.026  1.00  0.00     0.010 A 
ATOM     78  C   UNL A   1      36.158  34.458  29.282  1.00  0.00     0.020 A 
ATOM     79  C   UNL A   1      34.735  32.857  30.426  1.00  0.00     0.020 A 
ATOM     80  C   UNL A   1      34.888  33.952  29.574  1.00  0.00     0.054 A 
BRANCH  80  81
ATOM     81  S   UNL A   1      33.437  34.736  28.816  1.00  0.00     0.124 S 
ATOM     82  O   UNL A   1      34.016  35.939  28.226  1.00  0.00    -0.237 OA
ATOM     83  O   UNL A   1      32.987  33.718  27.871  1.00  0.00    -0.237 OA
ATOM     84  O   UNL A   1      32.542  34.963  29.949  1.00  0.00    -0.744 OA
ENDBRANCH  80  81
ENDBRANCH  52  75
BRANCH  64  85
ATOM     85  C   UNL A   1      40.058  34.125  36.944  1.00  0.00    -0.014 A 
ATOM     86  C   UNL A   1      40.515  35.454  36.886  1.00  0.00     0.010 A 
ATOM     87  C   UNL A   1      39.246  33.729  38.024  1.00  0.00     0.010 A 
ATOM     88  C   UNL A   1      40.210  36.352  37.914  1.00  0.00     0.020 A 
ATOM     89  C   UNL A   1      38.909  34.633  39.034  1.00  0.00     0.020 A 
ATOM     90  C   UNL A   1      39.411  35.934  38.983  1.00  0.00     0.054 A 
BRANCH  90  91
ATOM     91  S   UNL A   1      39.015  37.124  40.293  1.00  0.00     0.124 S 
ATOM     92  O   UNL A   1      40.323  37.352  40.902  1.00  0.00    -0.237 OA
ATOM     93  O   UNL A   1      38.464  38.251  39.545  1.00  0.00    -0.237 OA
ATOM     94  O   UNL A   1      38.053  36.411  41.132  1.00  0.00    -0.744 OA
ENDBRANCH  90  91
ENDBRANCH  64  85
ENDBRANCH  38  39
ENDBRANCH  31  33
ENDBRANCH  30  31
ENDBRANCH  29  30
ENDBRANCH  28  29
ENDBRANCH  27  28
ENDBRANCH  26  27
ENDBRANCH   1  26
TORSDOF 24
ENDMDL
MODEL 3
REMARK VINA RESULT:      -9.5      1.899      8.389
REMARK SMILES CC[C@]1(C(=O)OCCOCCOCCOC(=O)c2ccc(-c3c4nc(c(-c5ccc(S(=O)(=O)[O-])cc5)c5ccc([nH]5)c(-c5ccc(S(=O)(=O)[O-])cc5)c5nc(c(-c6ccc(S(=O)(=O)[O-])cc6)c6ccc3[nH]6)C=C5)C=C4)cc2)CC[N@@H+](Cc2nc(C)ccc2O)C1
REMARK SMILES IDX 10 1 9 2 8 3 7 4 6 5 4 6 5 7 3 8 78 9 90 10 79 11 80 12 2 14
REMARK SMILES IDX 1 15 81 16 82 17 83 18 88 19 84 20 87 21 85 22 86 23 89 24
REMARK SMILES IDX 11 26 12 27 13 28 14 29 15 30 16 31 17 32 18 33 19 34 77 35
REMARK SMILES IDX 20 36 76 37 21 38 22 39 23 40 70 41 24 42 75 43 69 44 71 45
REMARK SMILES IDX 25 46 74 47 68 48 67 49 26 51 56 52 37 53 55 54 38 55 41 56
REMARK SMILES IDX 54 57 72 58 39 59 40 60 53 62 73 63 42 64 27 65 28 66 36 67
REMARK SMILES IDX 29 68 35 69 30 70 31 71 32 72 33 73 34 74 57 75 58 76 66 77
REMARK SMILES IDX 59 78 65 79 60 80 61 81 62 82 63 83 64 84 43 85 44 86 52 87
REMARK SMILES IDX 45 88 51 89 46 90 47 91 48 92 49 93 50 94
REMARK H PARENT 80 13 89 25 71 50 41 61
REMARK Flexibility Score: inf
ROOT
ATOM      1  C   UNL A   1      33.494  31.991  27.994  1.00  0.00     0.188 C 
ENDROOT
BRANCH   1   2
ATOM      2  O   UNL A   1      34.497  31.308  27.263  1.00  0.00    -0.376 OA
BRANCH   2   3
ATOM      3  C   UNL A   1      34.832  29.986  27.665  1.00  0.00     0.202 C 
BRANCH   3   4
ATOM      4  C   UNL A   1      34.152  28.809  26.960  1.00  0.00     0.261 C 
BRANCH   4   5
ATOM      5  O   UNL A   1      32.814  29.112  26.515  1.00  0.00    -0.463 OA
BRANCH   5   6
ATOM      6  C   UNL A   1      32.025  28.032  26.285  1.00  0.00     0.318 C 
ATOM      7  O   UNL A   1      31.391  27.490  27.188  1.00  0.00    -0.251 OA
BRANCH   6   8
ATOM      8  C   UNL A   1      31.960  27.550  24.825  1.00  0.00     0.122 C 
ATOM      9  C   UNL A   1      33.011  26.551  24.297  1.00  0.00     0.086 C 
ATOM     10  C   UNL A   1      30.655  26.723  24.722  1.00  0.00     0.281 C 
ATOM     11  C   UNL A   1      32.229  25.598  23.407  1.00  0.00     0.264 C 
ATOM     12  N   UNL A   1      30.966  25.417  24.110  1.00  0.00    -0.329 N 
ATOM     13  H   UNL A   1      30.214  25.154  23.473  1.00  0.00     0.348 HD
BRANCH   8  14
ATOM     14  C   UNL A   1      32.070  28.794  23.891  1.00  0.00     0.021 C 
ATOM     15  C   UNL A   1      33.364  29.003  23.123  1.00  0.00     0.005 C 
ENDBRANCH   8  14
BRANCH  12  16
ATOM     16  C   UNL A   1      30.972  24.258  25.043  1.00  0.00     0.323 C 
BRANCH  16  17
ATOM     17  C   UNL A   1      31.984  23.133  24.849  1.00  0.00     0.136 A 
ATOM     18  N   UNL A   1      32.896  22.938  25.849  1.00  0.00    -0.248 NA
ATOM     19  C   UNL A   1      31.936  22.293  23.737  1.00  0.00     0.142 A 
ATOM     20  C   UNL A   1      33.738  21.876  25.763  1.00  0.00     0.038 A 
ATOM     21  C   UNL A   1      32.818  21.220  23.653  1.00  0.00     0.050 A 
ATOM     22  C   UNL A   1      34.730  21.687  26.873  1.00  0.00     0.067 C 
ATOM     23  C   UNL A   1      33.731  21.007  24.679  1.00  0.00     0.027 A 
BRANCH  19  24
ATOM     24  O   UNL A   1      31.020  22.503  22.751  1.00  0.00    -0.506 OA
ATOM     25  H   UNL A   1      31.227  22.285  21.864  1.00  0.00     0.293 HD
ENDBRANCH  19  24
ENDBRANCH  16  17
ENDBRANCH  12  16
ENDBRANCH   6   8
ENDBRANCH   5   6
ENDBRANCH   4   5
ENDBRANCH   3   4
ENDBRANCH   2   3
ENDBRANCH   1   2
BRANCH   1  26
ATOM     26  C   UNL A   1      33.461  33.526  27.939  1.00  0.00     0.188 C 
BRANCH  26  27
ATOM     27  O   UNL A   1      32.849  34.306  28.941  1.00  0.00    -0.376 OA
BRANCH  27  28
ATOM     28  C   UNL A   1      33.656  35.001  29.871  1.00  0.00     0.202 C 
BRANCH  28  29
ATOM     29  C   UNL A   1      34.120  34.364  31.189  1.00  0.00     0.261 C 
BRANCH  29  30
ATOM     30  O   UNL A   1      34.493  32.982  31.124  1.00  0.00    -0.460 OA
BRANCH  30  31
ATOM     31  C   UNL A   1      35.342  32.571  32.103  1.00  0.00     0.338 C 
ATOM     32  O   UNL A   1      35.142  32.608  33.310  1.00  0.00    -0.246 OA
BRANCH  31  33
ATOM     33  C   UNL A   1      36.472  31.838  31.497  1.00  0.00     0.060 A 
ATOM     34  C   UNL A   1      37.330  31.115  32.341  1.00  0.00     0.016 A 
ATOM     35  C   UNL A   1      36.699  31.876  30.122  1.00  0.00     0.016 A 
ATOM     36  C   UNL A   1      38.440  30.458  31.815  1.00  0.00     0.010 A 
ATOM     37  C   UNL A   1      37.828  31.239  29.599  1.00  0.00     0.010 A 
ATOM     38  C   UNL A   1      38.723  30.560  30.448  1.00  0.00    -0.014 A 
BRANCH  38  39
ATOM     39  C   UNL A   1      40.056  30.144  29.947  1.00  0.00     0.031 A 
ATOM     40  C   UNL A   1      41.160  31.170  29.930  1.00  0.00     0.074 A 
ATOM     41  C   UNL A   1      40.298  28.879  29.558  1.00  0.00     0.049 A 
ATOM     42  N   UNL A   1      42.393  31.055  29.512  1.00  0.00    -0.248 NA
ATOM     43  C   UNL A   1      40.826  32.505  30.459  1.00  0.00     0.031 C 
ATOM     44  C   UNL A   1      39.331  27.782  29.583  1.00  0.00     0.029 A 
ATOM     45  N   UNL A   1      41.444  28.306  29.064  1.00  0.00    -0.354 N 
ATOM     46  C   UNL A   1      42.982  32.296  29.730  1.00  0.00     0.074 A 
ATOM     47  C   UNL A   1      41.961  33.162  30.276  1.00  0.00     0.031 C 
ATOM     48  C   UNL A   1      39.927  26.666  29.122  1.00  0.00     0.029 A 
ATOM     49  C   UNL A   1      41.302  26.978  28.736  1.00  0.00     0.049 A 
ATOM     50  H   UNL A   1      42.288  28.800  28.955  1.00  0.00     0.167 HD
ATOM     51  C   UNL A   1      44.261  32.678  29.509  1.00  0.00     0.031 A 
ATOM     52  C   UNL A   1      42.178  26.121  28.174  1.00  0.00     0.031 A 
ATOM     53  C   UNL A   1      45.273  31.822  28.949  1.00  0.00     0.049 A 
ATOM     54  C   UNL A   1      43.569  26.606  27.838  1.00  0.00     0.074 A 
ATOM     55  C   UNL A   1      46.596  32.119  28.673  1.00  0.00     0.029 A 
ATOM     56  N   UNL A   1      45.074  30.501  28.581  1.00  0.00    -0.354 N 
ATOM     57  N   UNL A   1      44.112  27.781  28.055  1.00  0.00    -0.248 NA
ATOM     58  C   UNL A   1      44.468  25.640  27.191  1.00  0.00     0.031 C 
ATOM     59  C   UNL A   1      47.182  30.994  28.086  1.00  0.00     0.029 A 
ATOM     60  C   UNL A   1      46.245  29.974  28.062  1.00  0.00     0.049 A 
ATOM     61  H   UNL A   1      44.227  30.008  28.676  1.00  0.00     0.167 HD
ATOM     62  C   UNL A   1      45.427  27.679  27.609  1.00  0.00     0.074 A 
ATOM     63  C   UNL A   1      45.601  26.324  27.130  1.00  0.00     0.031 C 
ATOM     64  C   UNL A   1      46.405  28.619  27.597  1.00  0.00     0.031 A 
BRANCH  51  65
ATOM     65  C   UNL A   1      44.638  34.095  29.862  1.00  0.00    -0.014 A 
ATOM     66  C   UNL A   1      44.375  35.155  28.977  1.00  0.00     0.010 A 
ATOM     67  C   UNL A   1      45.210  34.376  31.115  1.00  0.00     0.010 A 
ATOM     68  C   UNL A   1      44.698  36.468  29.330  1.00  0.00     0.020 A 
ATOM     69  C   UNL A   1      45.507  35.691  31.485  1.00  0.00     0.020 A 
ATOM     70  C   UNL A   1      45.257  36.728  30.584  1.00  0.00     0.054 A 
BRANCH  70  71
ATOM     71  S   UNL A   1      45.618  38.448  31.033  1.00  0.00     0.124 S 
ATOM     72  O   UNL A   1      44.776  38.636  32.211  1.00  0.00    -0.237 OA
ATOM     73  O   UNL A   1      47.056  38.415  31.287  1.00  0.00    -0.237 OA
ATOM     74  O   UNL A   1      45.213  39.208  29.853  1.00  0.00    -0.744 OA
ENDBRANCH  70  71
ENDBRANCH  51  65
BRANCH  52  75
ATOM     75  C   UNL A   1      41.777  24.719  27.862  1.00  0.00    -0.014 A 
ATOM     76  C   UNL A   1      42.312  23.639  28.589  1.00  0.00     0.010 A 
ATOM     77  C   UNL A   1      40.903  24.450  26.792  1.00  0.00     0.010 A 
ATOM     78  C   UNL A   1      42.017  22.322  28.227  1.00  0.00     0.020 A 
ATOM     79  C   UNL A   1      40.576  23.135  26.449  1.00  0.00     0.020 A 
ATOM     80  C   UNL A   1      41.153  22.078  27.155  1.00  0.00     0.054 A 
BRANCH  80  81
ATOM     81  S   UNL A   1      40.781  20.360  26.704  1.00  0.00     0.124 S 
ATOM     82  O   UNL A   1      41.896  20.030  25.822  1.00  0.00    -0.237 OA
ATOM     83  O   UNL A   1      40.777  19.688  28.001  1.00  0.00    -0.237 OA
ATOM     84  O   UNL A   1      39.475  20.454  26.054  1.00  0.00    -0.744 OA
ENDBRANCH  80  81
ENDBRANCH  52  75
BRANCH  64  85
ATOM     85  C   UNL A   1      47.766  28.202  27.100  1.00  0.00    -0.014 A 
ATOM     86  C   UNL A   1      48.086  28.210  25.730  1.00  0.00     0.010 A 
ATOM     87  C   UNL A   1      48.754  27.824  28.029  1.00  0.00     0.010 A 
ATOM     88  C   UNL A   1      49.349  27.799  25.296  1.00  0.00     0.020 A 
ATOM     89  C   UNL A   1      50.030  27.447  27.601  1.00  0.00     0.020 A 
ATOM     90  C   UNL A   1      50.313  27.417  26.235  1.00  0.00     0.054 A 
BRANCH  90  91
ATOM     91  S   UNL A   1      51.950  26.905  25.646  1.00  0.00     0.124 S 
ATOM     92  O   UNL A   1      51.907  25.459  25.845  1.00  0.00    -0.237 OA
ATOM     93  O   UNL A   1      51.941  27.349  24.254  1.00  0.00    -0.237 OA
ATOM     94  O   UNL A   1      52.874  27.628  26.517  1.00  0.00    -0.744 OA
ENDBRANCH  90  91
ENDBRANCH  64  85
ENDBRANCH  38  39
ENDBRANCH  31  33
ENDBRANCH  30  31
ENDBRANCH  29  30
ENDBRANCH  28  29
ENDBRANCH  27  28
ENDBRANCH  26  27
ENDBRANCH   1  26
TORSDOF 24
ENDMDL
