MODEL 1
REMARK VINA RESULT:     -10.1      0.000      0.000
REMARK SMILES N#Cc1ccccc1Cn1cccc1C(=O)OCCOCCOCCOC(=O)c1ccc(-c2c3nc(c(-c4ccc(S(=O)(=O)[O-])cc4)c4ccc([nH]4)c(-c4ccc(S(=O)(=O)[O-])cc4)c4nc(c(-c5ccc(S(=O)(=O)[O-])cc5)c5ccc2[nH]5)C=C4)C=C3)cc1
REMARK SMILES IDX 21 1 20 2 19 3 18 4 17 5 15 6 16 7 14 8 10 9 11 10 12 11
REMARK SMILES IDX 13 12 9 13 8 14 3 15 4 16 5 17 7 18 6 19 2 20 1 21 22 22
REMARK SMILES IDX 23 23 24 24 25 25 26 26 27 27 28 28 29 29 30 30 88 31 31 32
REMARK SMILES IDX 87 33 32 34 33 35 34 36 81 37 35 38 86 39 80 40 82 41 36 42
REMARK SMILES IDX 85 43 79 44 78 45 37 47 67 48 48 49 66 50 49 51 52 52 65 53
REMARK SMILES IDX 83 54 50 55 51 56 64 58 84 59 53 60 38 61 39 62 47 63 40 64
REMARK SMILES IDX 46 65 41 66 42 67 43 68 44 69 45 70 68 71 69 72 77 73 70 74
REMARK SMILES IDX 76 75 71 76 72 77 73 78 74 79 75 80 54 81 55 82 63 83 56 84
REMARK SMILES IDX 62 85 57 86 58 87 59 88 60 89 61 90
REMARK H PARENT 82 46 52 57
REMARK Flexibility Score: inf
ROOT
ATOM      1  C   UNL A   1      44.360  42.640  24.942  1.00  0.00     0.188 C 
ENDROOT
BRANCH   1   2
ATOM      2  O   UNL A   1      45.015  42.046  23.846  1.00  0.00    -0.376 OA
BRANCH   2   3
ATOM      3  C   UNL A   1      46.293  42.508  23.448  1.00  0.00     0.202 C 
BRANCH   3   4
ATOM      4  C   UNL A   1      46.567  43.791  22.630  1.00  0.00     0.261 C 
BRANCH   4   5
ATOM      5  O   UNL A   1      45.531  44.286  21.775  1.00  0.00    -0.459 OA
BRANCH   5   6
ATOM      6  C   UNL A   1      45.302  43.567  20.644  1.00  0.00     0.355 C 
ATOM      7  O   UNL A   1      46.146  42.898  20.062  1.00  0.00    -0.244 OA
BRANCH   6   8
ATOM      8  C   UNL A   1      43.886  43.532  20.335  1.00  0.00     0.127 A 
ATOM      9  N   UNL A   1      43.208  43.904  19.178  1.00  0.00    -0.338 N 
ATOM     10  C   UNL A   1      41.893  43.500  19.314  1.00  0.00     0.087 A 
ATOM     11  C   UNL A   1      41.666  43.125  20.614  1.00  0.00     0.020 A 
ATOM     12  C   UNL A   1      42.919  43.114  21.245  1.00  0.00     0.035 A 
BRANCH   9  13
ATOM     13  C   UNL A   1      43.775  44.445  17.927  1.00  0.00     0.159 C 
BRANCH  13  14
ATOM     14  C   UNL A   1      43.287  45.845  17.561  1.00  0.00    -0.010 A 
ATOM     15  C   UNL A   1      43.792  47.012  18.173  1.00  0.00     0.057 A 
ATOM     16  C   UNL A   1      43.226  48.271  17.882  1.00  0.00     0.020 A 
ATOM     17  C   UNL A   1      42.211  48.397  16.938  1.00  0.00     0.001 A 
ATOM     18  C   UNL A   1      42.330  46.023  16.540  1.00  0.00     0.007 A 
ATOM     19  C   UNL A   1      41.786  47.276  16.242  1.00  0.00     0.000 A 
BRANCH  15  20
ATOM     20  C   UNL A   1      44.943  46.984  19.019  1.00  0.00     0.099 C 
ATOM     21  N   UNL A   1      45.860  47.021  19.755  1.00  0.00    -0.192 NA
ENDBRANCH  15  20
ENDBRANCH  13  14
ENDBRANCH   9  13
ENDBRANCH   6   8
ENDBRANCH   5   6
ENDBRANCH   4   5
ENDBRANCH   3   4
ENDBRANCH   2   3
ENDBRANCH   1   2
BRANCH   1  22
ATOM     22  C   UNL A   1      43.913  41.643  26.021  1.00  0.00     0.188 C 
BRANCH  22  23
ATOM     23  O   UNL A   1      44.107  40.249  25.863  1.00  0.00    -0.376 OA
BRANCH  23  24
ATOM     24  C   UNL A   1      45.123  39.506  26.520  1.00  0.00     0.202 C 
BRANCH  24  25
ATOM     25  C   UNL A   1      45.018  38.969  27.948  1.00  0.00     0.261 C 
BRANCH  25  26
ATOM     26  O   UNL A   1      45.480  37.654  28.158  1.00  0.00    -0.460 OA
BRANCH  26  27
ATOM     27  C   UNL A   1      45.125  37.217  29.380  1.00  0.00     0.338 C 
ATOM     28  O   UNL A   1      45.175  37.811  30.443  1.00  0.00    -0.246 OA
BRANCH  27  29
ATOM     29  C   UNL A   1      44.765  35.818  29.283  1.00  0.00     0.060 A 
ATOM     30  C   UNL A   1      43.923  35.459  28.230  1.00  0.00     0.016 A 
ATOM     31  C   UNL A   1      44.893  35.083  30.465  1.00  0.00     0.016 A 
ATOM     32  C   UNL A   1      43.042  34.429  28.450  1.00  0.00     0.010 A 
ATOM     33  C   UNL A   1      43.967  34.103  30.709  1.00  0.00     0.010 A 
ATOM     34  C   UNL A   1      43.030  33.816  29.713  1.00  0.00    -0.014 A 
BRANCH  34  35
ATOM     35  C   UNL A   1      42.125  32.687  29.900  1.00  0.00     0.031 A 
ATOM     36  C   UNL A   1      42.758  31.458  29.204  1.00  0.00     0.074 A 
ATOM     37  C   UNL A   1      40.939  32.991  30.528  1.00  0.00     0.049 A 
ATOM     38  N   UNL A   1      42.173  30.452  28.648  1.00  0.00    -0.248 NA
ATOM     39  C   UNL A   1      44.241  31.365  28.992  1.00  0.00     0.031 C 
ATOM     40  C   UNL A   1      40.608  34.296  31.173  1.00  0.00     0.029 A 
ATOM     41  N   UNL A   1      39.768  32.303  30.766  1.00  0.00    -0.354 N 
ATOM     42  C   UNL A   1      43.166  29.533  28.239  1.00  0.00     0.074 A 
ATOM     43  C   UNL A   1      44.420  30.198  28.369  1.00  0.00     0.031 C 
ATOM     44  C   UNL A   1      39.323  34.327  31.609  1.00  0.00     0.029 A 
ATOM     45  C   UNL A   1      38.685  33.059  31.319  1.00  0.00     0.049 A 
ATOM     46  H   UNL A   1      39.683  31.343  30.568  1.00  0.00     0.167 HD
ATOM     47  C   UNL A   1      42.869  28.233  27.956  1.00  0.00     0.031 A 
ATOM     48  C   UNL A   1      37.368  32.683  31.467  1.00  0.00     0.031 A 
ATOM     49  C   UNL A   1      41.457  28.058  28.035  1.00  0.00     0.049 A 
ATOM     50  C   UNL A   1      37.368  31.263  31.088  1.00  0.00     0.074 A 
ATOM     51  C   UNL A   1      40.449  28.516  27.227  1.00  0.00     0.029 A 
ATOM     52  N   UNL A   1      40.960  27.768  29.286  1.00  0.00    -0.354 N 
ATOM     53  N   UNL A   1      37.864  30.302  31.804  1.00  0.00    -0.248 NA
ATOM     54  C   UNL A   1      36.884  30.899  29.749  1.00  0.00     0.031 C 
ATOM     55  C   UNL A   1      39.522  29.011  28.164  1.00  0.00     0.029 A 
ATOM     56  C   UNL A   1      39.830  28.526  29.442  1.00  0.00     0.049 A 
ATOM     57  H   UNL A   1      41.342  27.137  29.939  1.00  0.00     0.167 HD
ATOM     58  C   UNL A   1      38.117  29.345  30.857  1.00  0.00     0.074 A 
ATOM     59  C   UNL A   1      37.218  29.612  29.750  1.00  0.00     0.031 C 
ATOM     60  C   UNL A   1      39.355  28.791  30.776  1.00  0.00     0.031 A 
BRANCH  47  61
ATOM     61  C   UNL A   1      43.700  26.990  27.845  1.00  0.00    -0.014 A 
ATOM     62  C   UNL A   1      45.028  27.088  28.337  1.00  0.00     0.010 A 
ATOM     63  C   UNL A   1      43.396  25.912  27.002  1.00  0.00     0.010 A 
ATOM     64  C   UNL A   1      46.045  26.255  27.883  1.00  0.00     0.020 A 
ATOM     65  C   UNL A   1      44.412  25.034  26.578  1.00  0.00     0.020 A 
ATOM     66  C   UNL A   1      45.736  25.247  26.981  1.00  0.00     0.054 A 
BRANCH  66  67
ATOM     67  S   UNL A   1      47.109  24.272  26.311  1.00  0.00     0.124 S 
ATOM     68  O   UNL A   1      46.536  22.931  26.252  1.00  0.00    -0.237 OA
ATOM     69  O   UNL A   1      47.340  24.909  25.016  1.00  0.00    -0.237 OA
ATOM     70  O   UNL A   1      48.175  24.461  27.291  1.00  0.00    -0.744 OA
ENDBRANCH  66  67
ENDBRANCH  47  61
BRANCH  48  71
ATOM     71  C   UNL A   1      35.982  33.256  31.751  1.00  0.00    -0.014 A 
ATOM     72  C   UNL A   1      35.328  33.356  32.985  1.00  0.00     0.010 A 
ATOM     73  C   UNL A   1      35.294  33.879  30.662  1.00  0.00     0.010 A 
ATOM     74  C   UNL A   1      34.168  34.173  33.137  1.00  0.00     0.020 A 
ATOM     75  C   UNL A   1      34.194  34.730  30.803  1.00  0.00     0.020 A 
ATOM     76  C   UNL A   1      33.652  34.908  32.059  1.00  0.00     0.054 A 
BRANCH  76  77
ATOM     77  S   UNL A   1      32.396  36.204  32.300  1.00  0.00     0.124 S 
ATOM     78  O   UNL A   1      32.337  36.842  30.989  1.00  0.00    -0.237 OA
ATOM     79  O   UNL A   1      31.214  35.436  32.684  1.00  0.00    -0.237 OA
ATOM     80  O   UNL A   1      32.955  37.032  33.369  1.00  0.00    -0.744 OA
ENDBRANCH  76  77
ENDBRANCH  48  71
BRANCH  60  81
ATOM     81  C   UNL A   1      40.200  28.830  32.045  1.00  0.00    -0.014 A 
ATOM     82  C   UNL A   1      41.045  29.936  32.257  1.00  0.00     0.010 A 
ATOM     83  C   UNL A   1      40.253  27.794  33.003  1.00  0.00     0.010 A 
ATOM     84  C   UNL A   1      41.895  30.018  33.369  1.00  0.00     0.020 A 
ATOM     85  C   UNL A   1      41.112  27.863  34.124  1.00  0.00     0.020 A 
ATOM     86  C   UNL A   1      41.923  28.985  34.304  1.00  0.00     0.054 A 
BRANCH  86  87
ATOM     87  S   UNL A   1      43.017  29.153  35.748  1.00  0.00     0.124 S 
ATOM     88  O   UNL A   1      44.111  29.976  35.235  1.00  0.00    -0.237 OA
ATOM     89  O   UNL A   1      42.151  29.811  36.724  1.00  0.00    -0.237 OA
ATOM     90  O   UNL A   1      43.385  27.777  36.077  1.00  0.00    -0.744 OA
ENDBRANCH  86  87
ENDBRANCH  60  81
ENDBRANCH  34  35
ENDBRANCH  27  29
ENDBRANCH  26  27
ENDBRANCH  25  26
ENDBRANCH  24  25
ENDBRANCH  23  24
ENDBRANCH  22  23
ENDBRANCH   1  22
TORSDOF 23
ENDMDL
MODEL 2
REMARK VINA RESULT:     -10.0      8.374     13.123
REMARK SMILES N#Cc1ccccc1Cn1cccc1C(=O)OCCOCCOCCOC(=O)c1ccc(-c2c3nc(c(-c4ccc(S(=O)(=O)[O-])cc4)c4ccc([nH]4)c(-c4ccc(S(=O)(=O)[O-])cc4)c4nc(c(-c5ccc(S(=O)(=O)[O-])cc5)c5ccc2[nH]5)C=C4)C=C3)cc1
REMARK SMILES IDX 21 1 20 2 19 3 18 4 17 5 15 6 16 7 14 8 10 9 11 10 12 11
REMARK SMILES IDX 13 12 9 13 8 14 3 15 4 16 5 17 7 18 6 19 2 20 1 21 22 22
REMARK SMILES IDX 23 23 24 24 25 25 26 26 27 27 28 28 29 29 30 30 88 31 31 32
REMARK SMILES IDX 87 33 32 34 33 35 34 36 81 37 35 38 86 39 80 40 82 41 36 42
REMARK SMILES IDX 85 43 79 44 78 45 37 47 67 48 48 49 66 50 49 51 52 52 65 53
REMARK SMILES IDX 83 54 50 55 51 56 64 58 84 59 53 60 38 61 39 62 47 63 40 64
REMARK SMILES IDX 46 65 41 66 42 67 43 68 44 69 45 70 68 71 69 72 77 73 70 74
REMARK SMILES IDX 76 75 71 76 72 77 73 78 74 79 75 80 54 81 55 82 63 83 56 84
REMARK SMILES IDX 62 85 57 86 58 87 59 88 60 89 61 90
REMARK H PARENT 82 46 52 57
REMARK Flexibility Score: inf
ROOT
ATOM      1  C   UNL A   1      30.175  29.579  23.732  1.00  0.00     0.188 C 
ENDROOT
BRANCH   1   2
ATOM      2  O   UNL A   1      30.103  28.205  23.437  1.00  0.00    -0.376 OA
BRANCH   2   3
ATOM      3  C   UNL A   1      30.241  27.248  24.471  1.00  0.00     0.202 C 
BRANCH   3   4
ATOM      4  C   UNL A   1      29.886  25.747  24.356  1.00  0.00     0.261 C 
BRANCH   4   5
ATOM      5  O   UNL A   1      30.926  24.828  24.007  1.00  0.00    -0.459 OA
BRANCH   5   6
ATOM      6  C   UNL A   1      31.161  23.830  24.901  1.00  0.00     0.355 C 
ATOM      7  O   UNL A   1      30.293  23.256  25.545  1.00  0.00    -0.244 OA
BRANCH   6   8
ATOM      8  C   UNL A   1      32.543  23.400  24.839  1.00  0.00     0.127 A 
ATOM      9  N   UNL A   1      33.715  24.091  25.131  1.00  0.00    -0.338 N 
ATOM     10  C   UNL A   1      34.757  23.183  25.098  1.00  0.00     0.087 A 
ATOM     11  C   UNL A   1      34.317  22.009  24.541  1.00  0.00     0.020 A 
ATOM     12  C   UNL A   1      32.927  22.132  24.408  1.00  0.00     0.035 A 
BRANCH   9  13
ATOM     13  C   UNL A   1      33.856  25.484  25.598  1.00  0.00     0.159 C 
BRANCH  13  14
ATOM     14  C   UNL A   1      33.838  26.532  24.486  1.00  0.00    -0.010 A 
ATOM     15  C   UNL A   1      33.881  27.918  24.746  1.00  0.00     0.057 A 
ATOM     16  C   UNL A   1      33.746  28.844  23.692  1.00  0.00     0.020 A 
ATOM     17  C   UNL A   1      33.639  28.414  22.371  1.00  0.00     0.001 A 
ATOM     18  C   UNL A   1      33.830  26.136  23.133  1.00  0.00     0.007 A 
ATOM     19  C   UNL A   1      33.714  27.059  22.089  1.00  0.00     0.000 A 
BRANCH  15  20
ATOM     20  C   UNL A   1      34.161  28.435  26.048  1.00  0.00     0.099 C 
ATOM     21  N   UNL A   1      34.461  28.824  27.117  1.00  0.00    -0.192 NA
ENDBRANCH  15  20
ENDBRANCH  13  14
ENDBRANCH   9  13
ENDBRANCH   6   8
ENDBRANCH   5   6
ENDBRANCH   4   5
ENDBRANCH   3   4
ENDBRANCH   2   3
ENDBRANCH   1   2
BRANCH   1  22
ATOM     22  C   UNL A   1      30.964  29.906  25.009  1.00  0.00     0.188 C 
BRANCH  22  23
ATOM     23  O   UNL A   1      31.002  31.220  25.536  1.00  0.00    -0.376 OA
BRANCH  23  24
ATOM     24  C   UNL A   1      31.783  31.607  26.657  1.00  0.00     0.202 C 
BRANCH  24  25
ATOM     25  C   UNL A   1      31.908  33.040  27.174  1.00  0.00     0.261 C 
BRANCH  25  26
ATOM     26  O   UNL A   1      33.205  33.471  27.517  1.00  0.00    -0.460 OA
BRANCH  26  27
ATOM     27  C   UNL A   1      33.150  34.474  28.412  1.00  0.00     0.338 C 
ATOM     28  O   UNL A   1      32.357  35.399  28.469  1.00  0.00    -0.246 OA
BRANCH  27  29
ATOM     29  C   UNL A   1      34.300  34.377  29.286  1.00  0.00     0.060 A 
ATOM     30  C   UNL A   1      35.551  34.577  28.700  1.00  0.00     0.016 A 
ATOM     31  C   UNL A   1      34.097  33.653  30.465  1.00  0.00     0.016 A 
ATOM     32  C   UNL A   1      36.609  33.871  29.216  1.00  0.00     0.010 A 
ATOM     33  C   UNL A   1      35.137  32.896  30.934  1.00  0.00     0.010 A 
ATOM     34  C   UNL A   1      36.370  32.986  30.280  1.00  0.00    -0.014 A 
BRANCH  34  35
ATOM     35  C   UNL A   1      37.521  32.292  30.846  1.00  0.00     0.031 A 
ATOM     36  C   UNL A   1      37.720  30.982  30.044  1.00  0.00     0.074 A 
ATOM     37  C   UNL A   1      38.064  32.883  31.963  1.00  0.00     0.049 A 
ATOM     38  N   UNL A   1      38.198  29.853  30.443  1.00  0.00    -0.248 NA
ATOM     39  C   UNL A   1      37.229  30.856  28.631  1.00  0.00     0.031 C 
ATOM     40  C   UNL A   1      37.695  34.225  32.502  1.00  0.00     0.029 A 
ATOM     41  N   UNL A   1      39.021  32.511  32.884  1.00  0.00    -0.354 N 
ATOM     42  C   UNL A   1      38.277  28.987  29.329  1.00  0.00     0.074 A 
ATOM     43  C   UNL A   1      37.561  29.615  28.268  1.00  0.00     0.031 C 
ATOM     44  C   UNL A   1      38.323  34.483  33.677  1.00  0.00     0.029 A 
ATOM     45  C   UNL A   1      39.175  33.363  34.024  1.00  0.00     0.049 A 
ATOM     46  H   UNL A   1      39.569  31.703  32.763  1.00  0.00     0.167 HD
ATOM     47  C   UNL A   1      39.061  27.871  29.341  1.00  0.00     0.031 A 
ATOM     48  C   UNL A   1      39.898  33.132  35.174  1.00  0.00     0.031 A 
ATOM     49  C   UNL A   1      39.626  27.722  30.640  1.00  0.00     0.049 A 
ATOM     50  C   UNL A   1      40.617  31.883  34.885  1.00  0.00     0.074 A 
ATOM     51  C   UNL A   1      39.048  27.389  31.838  1.00  0.00     0.029 A 
ATOM     52  N   UNL A   1      40.804  28.399  30.861  1.00  0.00    -0.354 N 
ATOM     53  N   UNL A   1      41.620  31.773  34.071  1.00  0.00    -0.248 NA
ATOM     54  C   UNL A   1      40.100  30.633  35.459  1.00  0.00     0.031 C 
ATOM     55  C   UNL A   1      39.596  28.351  32.707  1.00  0.00     0.029 A 
ATOM     56  C   UNL A   1      40.703  28.964  32.105  1.00  0.00     0.049 A 
ATOM     57  H   UNL A   1      41.570  28.463  30.245  1.00  0.00     0.167 HD
ATOM     58  C   UNL A   1      41.569  30.446  33.737  1.00  0.00     0.074 A 
ATOM     59  C   UNL A   1      40.891  29.771  34.827  1.00  0.00     0.031 C 
ATOM     60  C   UNL A   1      41.550  30.083  32.427  1.00  0.00     0.031 A 
BRANCH  47  61
ATOM     61  C   UNL A   1      39.608  26.989  28.258  1.00  0.00    -0.014 A 
ATOM     62  C   UNL A   1      39.551  25.594  28.511  1.00  0.00     0.010 A 
ATOM     63  C   UNL A   1      40.458  27.432  27.236  1.00  0.00     0.010 A 
ATOM     64  C   UNL A   1      40.418  24.698  27.894  1.00  0.00     0.020 A 
ATOM     65  C   UNL A   1      41.305  26.523  26.573  1.00  0.00     0.020 A 
ATOM     66  C   UNL A   1      41.314  25.174  26.946  1.00  0.00     0.054 A 
BRANCH  66  67
ATOM     67  S   UNL A   1      42.516  24.001  26.267  1.00  0.00     0.124 S 
ATOM     68  O   UNL A   1      42.920  24.655  25.026  1.00  0.00    -0.237 OA
ATOM     69  O   UNL A   1      43.537  23.961  27.312  1.00  0.00    -0.237 OA
ATOM     70  O   UNL A   1      41.746  22.770  26.110  1.00  0.00    -0.744 OA
ENDBRANCH  66  67
ENDBRANCH  47  61
BRANCH  48  71
ATOM     71  C   UNL A   1      40.081  33.646  36.599  1.00  0.00    -0.014 A 
ATOM     72  C   UNL A   1      41.083  33.307  37.515  1.00  0.00     0.010 A 
ATOM     73  C   UNL A   1      39.203  34.688  37.038  1.00  0.00     0.010 A 
ATOM     74  C   UNL A   1      41.291  34.080  38.696  1.00  0.00     0.020 A 
ATOM     75  C   UNL A   1      39.427  35.493  38.159  1.00  0.00     0.020 A 
ATOM     76  C   UNL A   1      40.504  35.209  38.971  1.00  0.00     0.054 A 
BRANCH  76  77
ATOM     77  S   UNL A   1      40.959  36.396  40.276  1.00  0.00     0.124 S 
ATOM     78  O   UNL A   1      41.855  35.615  41.122  1.00  0.00    -0.237 OA
ATOM     79  O   UNL A   1      41.585  37.477  39.520  1.00  0.00    -0.237 OA
ATOM     80  O   UNL A   1      39.676  36.747  40.886  1.00  0.00    -0.744 OA
ENDBRANCH  76  77
ENDBRANCH  48  71
BRANCH  60  81
ATOM     81  C   UNL A   1      42.143  31.081  31.438  1.00  0.00    -0.014 A 
ATOM     82  C   UNL A   1      43.543  31.151  31.310  1.00  0.00     0.010 A 
ATOM     83  C   UNL A   1      41.387  32.003  30.682  1.00  0.00     0.010 A 
ATOM     84  C   UNL A   1      44.166  32.082  30.467  1.00  0.00     0.020 A 
ATOM     85  C   UNL A   1      42.004  32.951  29.834  1.00  0.00     0.020 A 
ATOM     86  C   UNL A   1      43.396  32.976  29.726  1.00  0.00     0.054 A 
BRANCH  86  87
ATOM     87  S   UNL A   1      44.249  34.143  28.619  1.00  0.00     0.124 S 
ATOM     88  O   UNL A   1      44.338  33.398  27.365  1.00  0.00    -0.237 OA
ATOM     89  O   UNL A   1      43.336  35.283  28.601  1.00  0.00    -0.237 OA
ATOM     90  O   UNL A   1      45.530  34.386  29.281  1.00  0.00    -0.744 OA
ENDBRANCH  86  87
ENDBRANCH  60  81
ENDBRANCH  34  35
ENDBRANCH  27  29
ENDBRANCH  26  27
ENDBRANCH  25  26
ENDBRANCH  24  25
ENDBRANCH  23  24
ENDBRANCH  22  23
ENDBRANCH   1  22
TORSDOF 23
ENDMDL
MODEL 3
REMARK VINA RESULT:      -9.9      8.186     13.665
REMARK SMILES N#Cc1ccccc1Cn1cccc1C(=O)OCCOCCOCCOC(=O)c1ccc(-c2c3nc(c(-c4ccc(S(=O)(=O)[O-])cc4)c4ccc([nH]4)c(-c4ccc(S(=O)(=O)[O-])cc4)c4nc(c(-c5ccc(S(=O)(=O)[O-])cc5)c5ccc2[nH]5)C=C4)C=C3)cc1
REMARK SMILES IDX 21 1 20 2 19 3 18 4 17 5 15 6 16 7 14 8 10 9 11 10 12 11
REMARK SMILES IDX 13 12 9 13 8 14 3 15 4 16 5 17 7 18 6 19 2 20 1 21 22 22
REMARK SMILES IDX 23 23 24 24 25 25 26 26 27 27 28 28 29 29 30 30 88 31 31 32
REMARK SMILES IDX 87 33 32 34 33 35 34 36 81 37 35 38 86 39 80 40 82 41 36 42
REMARK SMILES IDX 85 43 79 44 78 45 37 47 67 48 48 49 66 50 49 51 52 52 65 53
REMARK SMILES IDX 83 54 50 55 51 56 64 58 84 59 53 60 38 61 39 62 47 63 40 64
REMARK SMILES IDX 46 65 41 66 42 67 43 68 44 69 45 70 68 71 69 72 77 73 70 74
REMARK SMILES IDX 76 75 71 76 72 77 73 78 74 79 75 80 54 81 55 82 63 83 56 84
REMARK SMILES IDX 62 85 57 86 58 87 59 88 60 89 61 90
REMARK H PARENT 82 46 52 57
REMARK Flexibility Score: inf
ROOT
ATOM      1  C   UNL A   1      30.731  28.377  23.373  1.00  0.00     0.188 C 
ENDROOT
BRANCH   1   2
ATOM      2  O   UNL A   1      31.141  27.484  22.365  1.00  0.00    -0.376 OA
BRANCH   2   3
ATOM      3  C   UNL A   1      32.479  27.022  22.328  1.00  0.00     0.202 C 
BRANCH   3   4
ATOM      4  C   UNL A   1      32.936  25.641  21.800  1.00  0.00     0.261 C 
BRANCH   4   5
ATOM      5  O   UNL A   1      33.982  24.959  22.500  1.00  0.00    -0.459 OA
BRANCH   5   6
ATOM      6  C   UNL A   1      33.896  23.603  22.521  1.00  0.00     0.355 C 
ATOM      7  O   UNL A   1      33.207  22.938  21.757  1.00  0.00    -0.244 OA
BRANCH   6   8
ATOM      8  C   UNL A   1      34.877  23.039  23.425  1.00  0.00     0.127 A 
ATOM      9  N   UNL A   1      34.739  22.586  24.734  1.00  0.00    -0.338 N 
ATOM     10  C   UNL A   1      35.922  21.967  25.091  1.00  0.00     0.087 A 
ATOM     11  C   UNL A   1      36.881  22.245  24.150  1.00  0.00     0.020 A 
ATOM     12  C   UNL A   1      36.221  22.888  23.092  1.00  0.00     0.035 A 
BRANCH   9  13
ATOM     13  C   UNL A   1      33.517  22.561  25.563  1.00  0.00     0.159 C 
BRANCH  13  14
ATOM     14  C   UNL A   1      32.949  23.938  25.899  1.00  0.00    -0.010 A 
ATOM     15  C   UNL A   1      31.584  24.149  26.187  1.00  0.00     0.057 A 
ATOM     16  C   UNL A   1      31.090  25.456  26.378  1.00  0.00     0.020 A 
ATOM     17  C   UNL A   1      31.946  26.554  26.358  1.00  0.00     0.001 A 
ATOM     18  C   UNL A   1      33.800  25.060  25.985  1.00  0.00     0.007 A 
ATOM     19  C   UNL A   1      33.307  26.352  26.193  1.00  0.00     0.000 A 
BRANCH  15  20
ATOM     20  C   UNL A   1      30.680  23.063  26.396  1.00  0.00     0.099 C 
ATOM     21  N   UNL A   1      29.878  22.221  26.581  1.00  0.00    -0.192 NA
ENDBRANCH  15  20
ENDBRANCH  13  14
ENDBRANCH   9  13
ENDBRANCH   6   8
ENDBRANCH   5   6
ENDBRANCH   4   5
ENDBRANCH   3   4
ENDBRANCH   2   3
ENDBRANCH   1   2
BRANCH   1  22
ATOM     22  C   UNL A   1      31.887  29.096  24.083  1.00  0.00     0.188 C 
BRANCH  22  23
ATOM     23  O   UNL A   1      31.663  29.897  25.230  1.00  0.00    -0.376 OA
BRANCH  23  24
ATOM     24  C   UNL A   1      32.672  30.246  26.167  1.00  0.00     0.202 C 
BRANCH  24  25
ATOM     25  C   UNL A   1      32.567  31.400  27.164  1.00  0.00     0.261 C 
BRANCH  25  26
ATOM     26  O   UNL A   1      33.756  32.105  27.433  1.00  0.00    -0.460 OA
BRANCH  26  27
ATOM     27  C   UNL A   1      33.500  33.209  28.158  1.00  0.00     0.338 C 
ATOM     28  O   UNL A   1      32.589  34.010  28.026  1.00  0.00    -0.246 OA
BRANCH  27  29
ATOM     29  C   UNL A   1      34.580  33.403  29.103  1.00  0.00     0.060 A 
ATOM     30  C   UNL A   1      35.791  33.859  28.583  1.00  0.00     0.016 A 
ATOM     31  C   UNL A   1      34.462  32.693  30.301  1.00  0.00     0.016 A 
ATOM     32  C   UNL A   1      36.942  33.427  29.195  1.00  0.00     0.010 A 
ATOM     33  C   UNL A   1      35.609  32.206  30.868  1.00  0.00     0.010 A 
ATOM     34  C   UNL A   1      36.833  32.548  30.285  1.00  0.00    -0.014 A 
BRANCH  34  35
ATOM     35  C   UNL A   1      38.068  32.150  30.951  1.00  0.00     0.031 A 
ATOM     36  C   UNL A   1      38.535  30.818  30.317  1.00  0.00     0.074 A 
ATOM     37  C   UNL A   1      38.448  32.957  31.999  1.00  0.00     0.049 A 
ATOM     38  N   UNL A   1      39.195  29.851  30.858  1.00  0.00    -0.248 NA
ATOM     39  C   UNL A   1      38.133  30.441  28.921  1.00  0.00     0.031 C 
ATOM     40  C   UNL A   1      37.818  34.260  32.365  1.00  0.00     0.029 A 
ATOM     41  N   UNL A   1      39.418  32.879  32.976  1.00  0.00    -0.354 N 
ATOM     42  C   UNL A   1      39.477  28.892  29.858  1.00  0.00     0.074 A 
ATOM     43  C   UNL A   1      38.701  29.250  28.717  1.00  0.00     0.031 C 
ATOM     44  C   UNL A   1      38.340  34.764  33.512  1.00  0.00     0.029 A 
ATOM     45  C   UNL A   1      39.368  33.870  34.007  1.00  0.00     0.049 A 
ATOM     46  H   UNL A   1      40.110  32.179  32.963  1.00  0.00     0.167 HD
ATOM     47  C   UNL A   1      40.450  27.952  30.019  1.00  0.00     0.031 A 
ATOM     48  C   UNL A   1      40.074  33.912  35.189  1.00  0.00     0.031 A 
ATOM     49  C   UNL A   1      40.980  28.061  31.336  1.00  0.00     0.049 A 
ATOM     50  C   UNL A   1      41.020  32.793  35.067  1.00  0.00     0.074 A 
ATOM     51  C   UNL A   1      40.425  27.766  32.555  1.00  0.00     0.029 A 
ATOM     52  N   UNL A   1      42.005  28.966  31.496  1.00  0.00    -0.354 N 
ATOM     53  N   UNL A   1      42.059  32.779  34.290  1.00  0.00    -0.248 NA
ATOM     54  C   UNL A   1      40.718  31.544  35.778  1.00  0.00     0.031 C 
ATOM     55  C   UNL A   1      40.752  28.907  33.312  1.00  0.00     0.029 A 
ATOM     56  C   UNL A   1      41.752  29.641  32.661  1.00  0.00     0.049 A 
ATOM     57  H   UNL A   1      42.770  29.101  30.891  1.00  0.00     0.167 HD
ATOM     58  C   UNL A   1      42.265  31.437  34.117  1.00  0.00     0.074 A 
ATOM     59  C   UNL A   1      41.678  30.777  35.269  1.00  0.00     0.031 C 
ATOM     60  C   UNL A   1      42.366  30.928  32.861  1.00  0.00     0.031 A 
BRANCH  47  61
ATOM     61  C   UNL A   1      41.193  27.068  29.061  1.00  0.00    -0.014 A 
ATOM     62  C   UNL A   1      40.487  25.928  28.597  1.00  0.00     0.010 A 
ATOM     63  C   UNL A   1      42.584  27.088  28.888  1.00  0.00     0.010 A 
ATOM     64  C   UNL A   1      41.143  24.792  28.137  1.00  0.00     0.020 A 
ATOM     65  C   UNL A   1      43.251  25.958  28.378  1.00  0.00     0.020 A 
ATOM     66  C   UNL A   1      42.529  24.803  28.057  1.00  0.00     0.054 A 
BRANCH  66  67
ATOM     67  S   UNL A   1      43.353  23.259  27.584  1.00  0.00     0.124 S 
ATOM     68  O   UNL A   1      43.024  23.155  26.166  1.00  0.00    -0.237 OA
ATOM     69  O   UNL A   1      44.754  23.551  27.881  1.00  0.00    -0.237 OA
ATOM     70  O   UNL A   1      42.734  22.259  28.451  1.00  0.00    -0.744 OA
ENDBRANCH  66  67
ENDBRANCH  47  61
BRANCH  48  71
ATOM     71  C   UNL A   1      40.102  34.611  36.545  1.00  0.00    -0.014 A 
ATOM     72  C   UNL A   1      39.779  35.942  36.834  1.00  0.00     0.010 A 
ATOM     73  C   UNL A   1      40.374  33.803  37.695  1.00  0.00     0.010 A 
ATOM     74  C   UNL A   1      39.573  36.374  38.178  1.00  0.00     0.020 A 
ATOM     75  C   UNL A   1      40.119  34.191  39.014  1.00  0.00     0.020 A 
ATOM     76  C   UNL A   1      39.677  35.475  39.251  1.00  0.00     0.054 A 
BRANCH  76  77
ATOM     77  S   UNL A   1      39.094  35.910  40.922  1.00  0.00     0.124 S 
ATOM     78  O   UNL A   1      40.238  35.566  41.760  1.00  0.00    -0.237 OA
ATOM     79  O   UNL A   1      38.806  37.336  40.798  1.00  0.00    -0.237 OA
ATOM     80  O   UNL A   1      37.912  35.066  41.105  1.00  0.00    -0.744 OA
ENDBRANCH  76  77
ENDBRANCH  48  71
BRANCH  60  81
ATOM     81  C   UNL A   1      42.806  31.900  31.770  1.00  0.00    -0.014 A 
ATOM     82  C   UNL A   1      41.837  32.387  30.873  1.00  0.00     0.010 A 
ATOM     83  C   UNL A   1      44.141  32.299  31.545  1.00  0.00     0.010 A 
ATOM     84  C   UNL A   1      42.171  33.236  29.808  1.00  0.00     0.020 A 
ATOM     85  C   UNL A   1      44.491  33.149  30.471  1.00  0.00     0.020 A 
ATOM     86  C   UNL A   1      43.496  33.621  29.613  1.00  0.00     0.054 A 
BRANCH  86  87
ATOM     87  S   UNL A   1      43.875  34.752  28.238  1.00  0.00     0.124 S 
ATOM     88  O   UNL A   1      42.769  35.706  28.286  1.00  0.00    -0.237 OA
ATOM     89  O   UNL A   1      45.177  35.291  28.624  1.00  0.00    -0.237 OA
ATOM     90  O   UNL A   1      43.888  33.886  27.060  1.00  0.00    -0.744 OA
ENDBRANCH  86  87
ENDBRANCH  60  81
ENDBRANCH  34  35
ENDBRANCH  27  29
ENDBRANCH  26  27
ENDBRANCH  25  26
ENDBRANCH  24  25
ENDBRANCH  23  24
ENDBRANCH  22  23
ENDBRANCH   1  22
TORSDOF 23
ENDMDL
