MODEL 1
REMARK VINA RESULT:     -10.2      0.000      0.000
REMARK SMILES O=C(OCCOCCOCCOC(=O)c1cncnc1N1CC[C@H]2[NH2+]CCC[C@]2(CO)C1)c1ccc(-c2c3nc(c(-c4ccc(S(=O)(=O)[O-])cc4)c4ccc([nH]4)c(-c4ccc(S(=O)(=O)[O-])cc4)c4nc(c(-c5ccc(S(=O)(=O)[O-])cc5)c5ccc2[nH]5)C=C4)C=C3)cc1
REMARK SMILES IDX 7 1 6 2 5 3 4 4 3 5 2 6 1 7 33 8 34 9 92 10 35 11 91 12
REMARK SMILES IDX 36 13 37 14 38 15 85 16 39 17 90 18 84 19 86 20 40 21 89 22
REMARK SMILES IDX 83 23 82 24 41 26 71 27 52 28 70 29 53 30 56 31 69 32 87 33
REMARK SMILES IDX 54 34 55 35 68 37 88 38 57 39 42 40 43 41 51 42 44 43 50 44
REMARK SMILES IDX 45 45 46 46 47 47 48 48 49 49 72 50 73 51 81 52 74 53 80 54
REMARK SMILES IDX 75 55 76 56 77 57 78 58 79 59 58 60 59 61 67 62 60 63 66 64
REMARK SMILES IDX 61 65 62 66 63 67 64 68 65 69 8 70 9 71 10 72 11 73 12 74
REMARK SMILES IDX 13 75 14 76 15 77 16 78 20 79 17 80 19 81 18 82 21 83 22 84
REMARK SMILES IDX 32 85 23 86 29 87 24 88 28 89 25 90 27 91 26 92 30 95 31 96
REMARK H PARENT 86 25 56 36 25 93 25 94 31 97
REMARK Flexibility Score: inf
ROOT
ATOM      1  C   UNL A   1      40.542  22.970  27.414  1.00  0.00     0.188 C 
ENDROOT
BRANCH   1   2
ATOM      2  O   UNL A   1      41.705  23.784  27.314  1.00  0.00    -0.376 OA
BRANCH   2   3
ATOM      3  C   UNL A   1      42.440  23.700  26.101  1.00  0.00     0.202 C 
BRANCH   3   4
ATOM      4  C   UNL A   1      42.761  25.054  25.449  1.00  0.00     0.261 C 
BRANCH   4   5
ATOM      5  O   UNL A   1      41.584  25.877  25.366  1.00  0.00    -0.460 OA
BRANCH   5   6
ATOM      6  C   UNL A   1      41.607  27.229  25.488  1.00  0.00     0.338 C 
ATOM      7  O   UNL A   1      42.279  27.895  24.706  1.00  0.00    -0.246 OA
BRANCH   6   8
ATOM      8  C   UNL A   1      41.076  27.879  26.737  1.00  0.00     0.060 A 
ATOM      9  C   UNL A   1      41.395  29.164  27.171  1.00  0.00     0.016 A 
ATOM     10  C   UNL A   1      40.186  27.125  27.528  1.00  0.00     0.016 A 
ATOM     11  C   UNL A   1      40.919  29.654  28.385  1.00  0.00     0.010 A 
ATOM     12  C   UNL A   1      39.661  27.631  28.726  1.00  0.00     0.010 A 
ATOM     13  C   UNL A   1      40.086  28.877  29.194  1.00  0.00    -0.014 A 
BRANCH  13  14
ATOM     14  C   UNL A   1      39.923  29.316  30.601  1.00  0.00     0.031 A 
ATOM     15  C   UNL A   1      41.023  28.974  31.572  1.00  0.00     0.074 A 
ATOM     16  C   UNL A   1      38.955  30.190  30.936  1.00  0.00     0.049 A 
ATOM     17  N   UNL A   1      41.257  29.470  32.759  1.00  0.00    -0.248 NA
ATOM     18  C   UNL A   1      42.009  27.969  31.137  1.00  0.00     0.031 C 
ATOM     19  C   UNL A   1      37.880  30.634  30.049  1.00  0.00     0.029 A 
ATOM     20  N   UNL A   1      38.753  30.905  32.089  1.00  0.00    -0.354 N 
ATOM     21  C   UNL A   1      42.435  28.867  33.188  1.00  0.00     0.074 A 
ATOM     22  C   UNL A   1      42.833  27.926  32.170  1.00  0.00     0.031 C 
ATOM     23  C   UNL A   1      37.151  31.573  30.679  1.00  0.00     0.029 A 
ATOM     24  C   UNL A   1      37.700  31.788  32.015  1.00  0.00     0.049 A 
ATOM     25  H   UNL A   1      39.309  30.796  32.894  1.00  0.00     0.167 HD
ATOM     26  C   UNL A   1      43.142  29.097  34.316  1.00  0.00     0.031 A 
ATOM     27  C   UNL A   1      37.241  32.678  32.919  1.00  0.00     0.031 A 
ATOM     28  C   UNL A   1      42.724  30.001  35.349  1.00  0.00     0.049 A 
ATOM     29  C   UNL A   1      37.989  32.833  34.220  1.00  0.00     0.074 A 
ATOM     30  C   UNL A   1      43.318  30.250  36.571  1.00  0.00     0.029 A 
ATOM     31  N   UNL A   1      41.593  30.800  35.277  1.00  0.00    -0.354 N 
ATOM     32  N   UNL A   1      39.104  32.254  34.605  1.00  0.00    -0.248 NA
ATOM     33  C   UNL A   1      37.428  33.770  35.202  1.00  0.00     0.031 C 
ATOM     34  C   UNL A   1      42.520  31.170  37.259  1.00  0.00     0.029 A 
ATOM     35  C   UNL A   1      41.462  31.534  36.441  1.00  0.00     0.049 A 
ATOM     36  H   UNL A   1      40.976  30.840  34.511  1.00  0.00     0.167 HD
ATOM     37  C   UNL A   1      39.386  32.773  35.864  1.00  0.00     0.074 A 
ATOM     38  C   UNL A   1      38.341  33.732  36.163  1.00  0.00     0.031 C 
ATOM     39  C   UNL A   1      40.409  32.482  36.705  1.00  0.00     0.031 A 
BRANCH  26  40
ATOM     40  C   UNL A   1      44.420  28.324  34.484  1.00  0.00    -0.014 A 
ATOM     41  C   UNL A   1      44.420  27.057  35.097  1.00  0.00     0.010 A 
ATOM     42  C   UNL A   1      45.638  28.877  34.051  1.00  0.00     0.010 A 
ATOM     43  C   UNL A   1      45.620  26.376  35.313  1.00  0.00     0.020 A 
ATOM     44  C   UNL A   1      46.838  28.188  34.244  1.00  0.00     0.020 A 
ATOM     45  C   UNL A   1      46.823  26.950  34.891  1.00  0.00     0.054 A 
BRANCH  45  46
ATOM     46  S   UNL A   1      48.367  26.047  35.186  1.00  0.00     0.124 S 
ATOM     47  O   UNL A   1      48.026  24.707  34.715  1.00  0.00    -0.237 OA
ATOM     48  O   UNL A   1      49.327  26.777  34.363  1.00  0.00    -0.237 OA
ATOM     49  O   UNL A   1      48.569  26.166  36.629  1.00  0.00    -0.744 OA
ENDBRANCH  45  46
ENDBRANCH  26  40
BRANCH  27  50
ATOM     50  C   UNL A   1      36.007  33.470  32.646  1.00  0.00    -0.014 A 
ATOM     51  C   UNL A   1      35.987  34.499  31.687  1.00  0.00     0.010 A 
ATOM     52  C   UNL A   1      34.841  33.222  33.394  1.00  0.00     0.010 A 
ATOM     53  C   UNL A   1      34.843  35.288  31.513  1.00  0.00     0.020 A 
ATOM     54  C   UNL A   1      33.686  33.986  33.202  1.00  0.00     0.020 A 
ATOM     55  C   UNL A   1      33.701  35.030  32.276  1.00  0.00     0.054 A 
BRANCH  55  56
ATOM     56  S   UNL A   1      32.227  36.062  32.038  1.00  0.00     0.124 S 
ATOM     57  O   UNL A   1      32.266  36.318  30.602  1.00  0.00    -0.237 OA
ATOM     58  O   UNL A   1      31.152  35.186  32.496  1.00  0.00    -0.237 OA
ATOM     59  O   UNL A   1      32.479  37.223  32.888  1.00  0.00    -0.744 OA
ENDBRANCH  55  56
ENDBRANCH  27  50
BRANCH  39  60
ATOM     60  C   UNL A   1      40.459  33.223  38.013  1.00  0.00    -0.014 A 
ATOM     61  C   UNL A   1      41.290  34.343  38.182  1.00  0.00     0.010 A 
ATOM     62  C   UNL A   1      39.617  32.825  39.067  1.00  0.00     0.010 A 
ATOM     63  C   UNL A   1      41.306  35.032  39.396  1.00  0.00     0.020 A 
ATOM     64  C   UNL A   1      39.608  33.528  40.273  1.00  0.00     0.020 A 
ATOM     65  C   UNL A   1      40.465  34.619  40.435  1.00  0.00     0.054 A 
BRANCH  65  66
ATOM     66  S   UNL A   1      40.473  35.553  41.989  1.00  0.00     0.124 S 
ATOM     67  O   UNL A   1      41.903  35.676  42.262  1.00  0.00    -0.237 OA
ATOM     68  O   UNL A   1      39.795  36.794  41.623  1.00  0.00    -0.237 OA
ATOM     69  O   UNL A   1      39.733  34.695  42.912  1.00  0.00    -0.744 OA
ENDBRANCH  65  66
ENDBRANCH  39  60
ENDBRANCH  13  14
ENDBRANCH   6   8
ENDBRANCH   5   6
ENDBRANCH   4   5
ENDBRANCH   3   4
ENDBRANCH   2   3
ENDBRANCH   1   2
BRANCH   1  70
ATOM     70  C   UNL A   1      39.248  23.455  26.743  1.00  0.00     0.188 C 
BRANCH  70  71
ATOM     71  O   UNL A   1      38.527  22.573  25.898  1.00  0.00    -0.376 OA
BRANCH  71  72
ATOM     72  C   UNL A   1      37.436  23.094  25.152  1.00  0.00     0.202 C 
BRANCH  72  73
ATOM     73  C   UNL A   1      36.459  22.086  24.540  1.00  0.00     0.261 C 
BRANCH  73  74
ATOM     74  O   UNL A   1      36.073  20.995  25.398  1.00  0.00    -0.460 OA
BRANCH  74  75
ATOM     75  C   UNL A   1      34.797  21.003  25.877  1.00  0.00     0.343 C 
ATOM     76  O   UNL A   1      34.445  21.329  26.994  1.00  0.00    -0.246 OA
BRANCH  75  77
ATOM     77  C   UNL A   1      33.912  20.421  24.858  1.00  0.00     0.120 A 
ATOM     78  C   UNL A   1      33.947  19.045  24.703  1.00  0.00     0.132 A 
ATOM     79  C   UNL A   1      32.955  21.107  24.113  1.00  0.00     0.146 A 
ATOM     80  N   UNL A   1      33.136  18.359  23.877  1.00  0.00    -0.244 NA
ATOM     81  N   UNL A   1      32.123  20.429  23.284  1.00  0.00    -0.219 NA
ATOM     82  C   UNL A   1      32.247  19.095  23.208  1.00  0.00     0.224 A 
BRANCH  79  83
ATOM     83  N   UNL A   1      32.895  22.518  24.015  1.00  0.00    -0.355 N 
ATOM     84  C   UNL A   1      31.898  22.899  23.019  1.00  0.00     0.124 C 
ATOM     85  C   UNL A   1      32.963  23.217  25.313  1.00  0.00     0.133 C 
ATOM     86  C   UNL A   1      31.310  24.290  23.186  1.00  0.00     0.087 C 
ATOM     87  C   UNL A   1      32.619  24.741  25.274  1.00  0.00     0.063 C 
ATOM     88  C   UNL A   1      32.327  25.206  23.833  1.00  0.00     0.194 C 
ATOM     89  C   UNL A   1      33.826  25.596  25.752  1.00  0.00     0.023 C 
ATOM     90  N   UNL A   1      31.884  26.610  23.819  1.00  0.00    -0.343 N 
ATOM     91  C   UNL A   1      33.587  27.107  25.576  1.00  0.00     0.062 C 
ATOM     92  C   UNL A   1      32.996  27.480  24.211  1.00  0.00     0.260 C 
ATOM     93  H   UNL A   1      31.112  26.728  24.476  1.00  0.00     0.346 HD
ATOM     94  H   UNL A   1      31.574  26.859  22.880  1.00  0.00     0.346 HD
BRANCH  87  95
ATOM     95  C   UNL A   1      31.395  25.012  26.212  1.00  0.00     0.171 C 
BRANCH  95  96
ATOM     96  O   UNL A   1      31.277  24.035  27.245  1.00  0.00    -0.395 OA
ATOM     97  H   UNL A   1      30.597  24.315  27.879  1.00  0.00     0.210 HD
ENDBRANCH  95  96
ENDBRANCH  87  95
ENDBRANCH  79  83
ENDBRANCH  75  77
ENDBRANCH  74  75
ENDBRANCH  73  74
ENDBRANCH  72  73
ENDBRANCH  71  72
ENDBRANCH  70  71
ENDBRANCH   1  70
TORSDOF 23
ENDMDL
MODEL 2
REMARK VINA RESULT:     -10.1      6.241      8.512
REMARK SMILES O=C(OCCOCCOCCOC(=O)c1cncnc1N1CC[C@H]2[NH2+]CCC[C@]2(CO)C1)c1ccc(-c2c3nc(c(-c4ccc(S(=O)(=O)[O-])cc4)c4ccc([nH]4)c(-c4ccc(S(=O)(=O)[O-])cc4)c4nc(c(-c5ccc(S(=O)(=O)[O-])cc5)c5ccc2[nH]5)C=C4)C=C3)cc1
REMARK SMILES IDX 7 1 6 2 5 3 4 4 3 5 2 6 1 7 33 8 34 9 92 10 35 11 91 12
REMARK SMILES IDX 36 13 37 14 38 15 85 16 39 17 90 18 84 19 86 20 40 21 89 22
REMARK SMILES IDX 83 23 82 24 41 26 71 27 52 28 70 29 53 30 56 31 69 32 87 33
REMARK SMILES IDX 54 34 55 35 68 37 88 38 57 39 42 40 43 41 51 42 44 43 50 44
REMARK SMILES IDX 45 45 46 46 47 47 48 48 49 49 72 50 73 51 81 52 74 53 80 54
REMARK SMILES IDX 75 55 76 56 77 57 78 58 79 59 58 60 59 61 67 62 60 63 66 64
REMARK SMILES IDX 61 65 62 66 63 67 64 68 65 69 8 70 9 71 10 72 11 73 12 74
REMARK SMILES IDX 13 75 14 76 15 77 16 78 20 79 17 80 19 81 18 82 21 83 22 84
REMARK SMILES IDX 32 85 23 86 29 87 24 88 28 89 25 90 27 91 26 92 30 95 31 96
REMARK H PARENT 86 25 56 36 25 93 25 94 31 97
REMARK Flexibility Score: inf
ROOT
ATOM      1  C   UNL A   1      41.195  20.625  27.523  1.00  0.00     0.188 C 
ENDROOT
BRANCH   1   2
ATOM      2  O   UNL A   1      41.974  19.469  27.242  1.00  0.00    -0.376 OA
BRANCH   2   3
ATOM      3  C   UNL A   1      42.038  19.056  25.884  1.00  0.00     0.202 C 
BRANCH   3   4
ATOM      4  C   UNL A   1      43.401  18.500  25.445  1.00  0.00     0.261 C 
BRANCH   4   5
ATOM      5  O   UNL A   1      43.873  19.169  24.262  1.00  0.00    -0.460 OA
BRANCH   5   6
ATOM      6  C   UNL A   1      44.921  20.032  24.258  1.00  0.00     0.338 C 
ATOM      7  O   UNL A   1      46.041  19.619  23.972  1.00  0.00    -0.246 OA
BRANCH   6   8
ATOM      8  C   UNL A   1      44.779  21.390  24.890  1.00  0.00     0.060 A 
ATOM      9  C   UNL A   1      44.639  22.589  24.194  1.00  0.00     0.016 A 
ATOM     10  C   UNL A   1      44.787  21.450  26.298  1.00  0.00     0.016 A 
ATOM     11  C   UNL A   1      44.597  23.810  24.863  1.00  0.00     0.010 A 
ATOM     12  C   UNL A   1      44.692  22.672  26.981  1.00  0.00     0.010 A 
ATOM     13  C   UNL A   1      44.668  23.866  26.257  1.00  0.00    -0.014 A 
BRANCH  13  14
ATOM     14  C   UNL A   1      44.975  25.186  26.858  1.00  0.00     0.031 A 
ATOM     15  C   UNL A   1      46.382  25.709  26.716  1.00  0.00     0.074 A 
ATOM     16  C   UNL A   1      43.984  25.987  27.291  1.00  0.00     0.049 A 
ATOM     17  N   UNL A   1      46.830  26.923  26.894  1.00  0.00    -0.248 NA
ATOM     18  C   UNL A   1      47.410  24.746  26.282  1.00  0.00     0.031 C 
ATOM     19  C   UNL A   1      42.578  25.598  27.407  1.00  0.00     0.029 A 
ATOM     20  N   UNL A   1      43.995  27.309  27.659  1.00  0.00    -0.354 N 
ATOM     21  C   UNL A   1      48.178  26.874  26.555  1.00  0.00     0.074 A 
ATOM     22  C   UNL A   1      48.491  25.505  26.224  1.00  0.00     0.031 C 
ATOM     23  C   UNL A   1      41.856  26.668  27.784  1.00  0.00     0.029 A 
ATOM     24  C   UNL A   1      42.747  27.813  27.947  1.00  0.00     0.049 A 
ATOM     25  H   UNL A   1      44.818  27.846  27.712  1.00  0.00     0.167 HD
ATOM     26  C   UNL A   1      49.074  27.885  26.494  1.00  0.00     0.031 A 
ATOM     27  C   UNL A   1      42.367  29.061  28.290  1.00  0.00     0.031 A 
ATOM     28  C   UNL A   1      48.776  29.238  26.866  1.00  0.00     0.049 A 
ATOM     29  C   UNL A   1      43.413  30.148  28.323  1.00  0.00     0.074 A 
ATOM     30  C   UNL A   1      49.627  30.325  26.923  1.00  0.00     0.029 A 
ATOM     31  N   UNL A   1      47.520  29.683  27.252  1.00  0.00    -0.354 N 
ATOM     32  N   UNL A   1      44.683  30.080  27.996  1.00  0.00    -0.248 NA
ATOM     33  C   UNL A   1      42.973  31.481  28.755  1.00  0.00     0.031 C 
ATOM     34  C   UNL A   1      48.893  31.422  27.388  1.00  0.00     0.029 A 
ATOM     35  C   UNL A   1      47.575  31.029  27.564  1.00  0.00     0.049 A 
ATOM     36  H   UNL A   1      46.711  29.125  27.296  1.00  0.00     0.167 HD
ATOM     37  C   UNL A   1      45.187  31.367  28.164  1.00  0.00     0.074 A 
ATOM     38  C   UNL A   1      44.079  32.195  28.595  1.00  0.00     0.031 C 
ATOM     39  C   UNL A   1      46.452  31.824  27.988  1.00  0.00     0.031 A 
BRANCH  26  40
ATOM     40  C   UNL A   1      50.463  27.533  26.037  1.00  0.00    -0.014 A 
ATOM     41  C   UNL A   1      51.479  27.252  26.971  1.00  0.00     0.010 A 
ATOM     42  C   UNL A   1      50.765  27.508  24.665  1.00  0.00     0.010 A 
ATOM     43  C   UNL A   1      52.782  26.996  26.541  1.00  0.00     0.020 A 
ATOM     44  C   UNL A   1      52.063  27.229  24.230  1.00  0.00     0.020 A 
ATOM     45  C   UNL A   1      53.067  26.993  25.172  1.00  0.00     0.054 A 
BRANCH  45  46
ATOM     46  S   UNL A   1      54.769  26.660  24.640  1.00  0.00     0.124 S 
ATOM     47  O   UNL A   1      55.121  25.506  25.464  1.00  0.00    -0.237 OA
ATOM     48  O   UNL A   1      54.611  26.389  23.214  1.00  0.00    -0.237 OA
ATOM     49  O   UNL A   1      55.481  27.895  24.962  1.00  0.00    -0.744 OA
ENDBRANCH  45  46
ENDBRANCH  26  40
BRANCH  27  50
ATOM     50  C   UNL A   1      40.950  29.351  28.654  1.00  0.00    -0.014 A 
ATOM     51  C   UNL A   1      40.537  29.451  29.995  1.00  0.00     0.010 A 
ATOM     52  C   UNL A   1      39.983  29.483  27.639  1.00  0.00     0.010 A 
ATOM     53  C   UNL A   1      39.186  29.634  30.313  1.00  0.00     0.020 A 
ATOM     54  C   UNL A   1      38.637  29.697  27.950  1.00  0.00     0.020 A 
ATOM     55  C   UNL A   1      38.243  29.750  29.287  1.00  0.00     0.054 A 
BRANCH  55  56
ATOM     56  S   UNL A   1      36.495  29.987  29.716  1.00  0.00     0.124 S 
ATOM     57  O   UNL A   1      36.407  29.312  31.007  1.00  0.00    -0.237 OA
ATOM     58  O   UNL A   1      36.374  31.442  29.752  1.00  0.00    -0.237 OA
ATOM     59  O   UNL A   1      35.781  29.337  28.620  1.00  0.00    -0.744 OA
ENDBRANCH  55  56
ENDBRANCH  27  50
BRANCH  39  60
ATOM     60  C   UNL A   1      46.697  33.287  28.239  1.00  0.00    -0.014 A 
ATOM     61  C   UNL A   1      46.603  34.228  27.200  1.00  0.00     0.010 A 
ATOM     62  C   UNL A   1      46.966  33.730  29.547  1.00  0.00     0.010 A 
ATOM     63  C   UNL A   1      46.810  35.585  27.456  1.00  0.00     0.020 A 
ATOM     64  C   UNL A   1      47.145  35.088  29.813  1.00  0.00     0.020 A 
ATOM     65  C   UNL A   1      47.082  36.006  28.762  1.00  0.00     0.054 A 
BRANCH  65  66
ATOM     66  S   UNL A   1      47.308  37.777  29.079  1.00  0.00     0.124 S 
ATOM     67  O   UNL A   1      46.072  38.121  29.778  1.00  0.00    -0.237 OA
ATOM     68  O   UNL A   1      48.520  37.806  29.894  1.00  0.00    -0.237 OA
ATOM     69  O   UNL A   1      47.450  38.352  27.743  1.00  0.00    -0.744 OA
ENDBRANCH  65  66
ENDBRANCH  39  60
ENDBRANCH  13  14
ENDBRANCH   6   8
ENDBRANCH   5   6
ENDBRANCH   4   5
ENDBRANCH   3   4
ENDBRANCH   2   3
ENDBRANCH   1   2
BRANCH   1  70
ATOM     70  C   UNL A   1      41.013  21.673  26.415  1.00  0.00     0.188 C 
BRANCH  70  71
ATOM     71  O   UNL A   1      39.935  22.592  26.493  1.00  0.00    -0.376 OA
BRANCH  71  72
ATOM     72  C   UNL A   1      38.643  22.152  26.103  1.00  0.00     0.202 C 
BRANCH  72  73
ATOM     73  C   UNL A   1      37.610  23.226  25.752  1.00  0.00     0.261 C 
BRANCH  73  74
ATOM     74  O   UNL A   1      36.234  22.799  25.784  1.00  0.00    -0.460 OA
BRANCH  74  75
ATOM     75  C   UNL A   1      35.577  22.734  24.591  1.00  0.00     0.343 C 
ATOM     76  O   UNL A   1      35.811  23.396  23.599  1.00  0.00    -0.246 OA
BRANCH  75  77
ATOM     77  C   UNL A   1      34.435  21.819  24.737  1.00  0.00     0.120 A 
ATOM     78  C   UNL A   1      34.702  20.461  24.673  1.00  0.00     0.132 A 
ATOM     79  C   UNL A   1      33.127  22.183  25.049  1.00  0.00     0.146 A 
ATOM     80  N   UNL A   1      33.781  19.502  24.876  1.00  0.00    -0.244 NA
ATOM     81  N   UNL A   1      32.189  21.227  25.267  1.00  0.00    -0.219 NA
ATOM     82  C   UNL A   1      32.557  19.940  25.175  1.00  0.00     0.224 A 
BRANCH  79  83
ATOM     83  N   UNL A   1      32.640  23.510  24.983  1.00  0.00    -0.355 N 
ATOM     84  C   UNL A   1      33.175  24.287  26.097  1.00  0.00     0.124 C 
ATOM     85  C   UNL A   1      32.613  24.075  23.620  1.00  0.00     0.133 C 
ATOM     86  C   UNL A   1      33.231  25.788  25.876  1.00  0.00     0.087 C 
ATOM     87  C   UNL A   1      32.353  25.614  23.535  1.00  0.00     0.063 C 
ATOM     88  C   UNL A   1      32.122  26.214  24.938  1.00  0.00     0.194 C 
ATOM     89  C   UNL A   1      31.057  25.917  22.732  1.00  0.00     0.023 C 
ATOM     90  N   UNL A   1      32.002  27.679  24.863  1.00  0.00    -0.343 N 
ATOM     91  C   UNL A   1      30.677  27.408  22.764  1.00  0.00     0.062 C 
ATOM     92  C   UNL A   1      30.766  28.036  24.160  1.00  0.00     0.260 C 
ATOM     93  H   UNL A   1      32.802  28.060  24.357  1.00  0.00     0.346 HD
ATOM     94  H   UNL A   1      31.979  28.066  25.806  1.00  0.00     0.346 HD
BRANCH  87  95
ATOM     95  C   UNL A   1      33.569  26.298  22.825  1.00  0.00     0.171 C 
BRANCH  95  96
ATOM     96  O   UNL A   1      33.660  25.944  21.445  1.00  0.00    -0.395 OA
ATOM     97  H   UNL A   1      33.339  26.679  20.900  1.00  0.00     0.210 HD
ENDBRANCH  95  96
ENDBRANCH  87  95
ENDBRANCH  79  83
ENDBRANCH  75  77
ENDBRANCH  74  75
ENDBRANCH  73  74
ENDBRANCH  72  73
ENDBRANCH  71  72
ENDBRANCH  70  71
ENDBRANCH   1  70
TORSDOF 23
ENDMDL
MODEL 3
REMARK VINA RESULT:     -10.0      2.230      3.222
REMARK SMILES O=C(OCCOCCOCCOC(=O)c1cncnc1N1CC[C@H]2[NH2+]CCC[C@]2(CO)C1)c1ccc(-c2c3nc(c(-c4ccc(S(=O)(=O)[O-])cc4)c4ccc([nH]4)c(-c4ccc(S(=O)(=O)[O-])cc4)c4nc(c(-c5ccc(S(=O)(=O)[O-])cc5)c5ccc2[nH]5)C=C4)C=C3)cc1
REMARK SMILES IDX 7 1 6 2 5 3 4 4 3 5 2 6 1 7 33 8 34 9 92 10 35 11 91 12
REMARK SMILES IDX 36 13 37 14 38 15 85 16 39 17 90 18 84 19 86 20 40 21 89 22
REMARK SMILES IDX 83 23 82 24 41 26 71 27 52 28 70 29 53 30 56 31 69 32 87 33
REMARK SMILES IDX 54 34 55 35 68 37 88 38 57 39 42 40 43 41 51 42 44 43 50 44
REMARK SMILES IDX 45 45 46 46 47 47 48 48 49 49 72 50 73 51 81 52 74 53 80 54
REMARK SMILES IDX 75 55 76 56 77 57 78 58 79 59 58 60 59 61 67 62 60 63 66 64
REMARK SMILES IDX 61 65 62 66 63 67 64 68 65 69 8 70 9 71 10 72 11 73 12 74
REMARK SMILES IDX 13 75 14 76 15 77 16 78 20 79 17 80 19 81 18 82 21 83 22 84
REMARK SMILES IDX 32 85 23 86 29 87 24 88 28 89 25 90 27 91 26 92 30 95 31 96
REMARK H PARENT 86 25 56 36 25 93 25 94 31 97
REMARK Flexibility Score: inf
ROOT
ATOM      1  C   UNL A   1      38.562  21.393  25.434  1.00  0.00     0.188 C 
ENDROOT
BRANCH   1   2
ATOM      2  O   UNL A   1      39.600  22.050  26.152  1.00  0.00    -0.376 OA
BRANCH   2   3
ATOM      3  C   UNL A   1      40.739  21.269  26.485  1.00  0.00     0.202 C 
BRANCH   3   4
ATOM      4  C   UNL A   1      42.087  21.905  26.111  1.00  0.00     0.261 C 
BRANCH   4   5
ATOM      5  O   UNL A   1      41.894  23.178  25.468  1.00  0.00    -0.460 OA
BRANCH   5   6
ATOM      6  C   UNL A   1      42.664  24.266  25.717  1.00  0.00     0.338 C 
ATOM      7  O   UNL A   1      43.843  24.264  25.371  1.00  0.00    -0.246 OA
BRANCH   6   8
ATOM      8  C   UNL A   1      42.182  25.326  26.670  1.00  0.00     0.060 A 
ATOM      9  C   UNL A   1      42.816  26.545  26.904  1.00  0.00     0.016 A 
ATOM     10  C   UNL A   1      40.993  25.063  27.379  1.00  0.00     0.016 A 
ATOM     11  C   UNL A   1      42.340  27.432  27.866  1.00  0.00     0.010 A 
ATOM     12  C   UNL A   1      40.478  25.975  28.313  1.00  0.00     0.010 A 
ATOM     13  C   UNL A   1      41.195  27.136  28.610  1.00  0.00    -0.014 A 
BRANCH  13  14
ATOM     14  C   UNL A   1      40.967  27.941  29.834  1.00  0.00     0.031 A 
ATOM     15  C   UNL A   1      42.005  27.866  30.924  1.00  0.00     0.074 A 
ATOM     16  C   UNL A   1      40.004  28.881  29.865  1.00  0.00     0.049 A 
ATOM     17  N   UNL A   1      42.187  28.663  31.944  1.00  0.00    -0.248 NA
ATOM     18  C   UNL A   1      42.989  26.772  30.833  1.00  0.00     0.031 C 
ATOM     19  C   UNL A   1      38.988  29.078  28.830  1.00  0.00     0.029 A 
ATOM     20  N   UNL A   1      39.758  29.883  30.769  1.00  0.00    -0.354 N 
ATOM     21  C   UNL A   1      43.326  28.188  32.587  1.00  0.00     0.074 A 
ATOM     22  C   UNL A   1      43.755  27.003  31.886  1.00  0.00     0.031 C 
ATOM     23  C   UNL A   1      38.249  30.158  29.140  1.00  0.00     0.029 A 
ATOM     24  C   UNL A   1      38.731  30.722  30.398  1.00  0.00     0.049 A 
ATOM     25  H   UNL A   1      40.267  29.992  31.604  1.00  0.00     0.167 HD
ATOM     26  C   UNL A   1      43.977  28.709  33.651  1.00  0.00     0.031 A 
ATOM     27  C   UNL A   1      38.246  31.827  31.000  1.00  0.00     0.031 A 
ATOM     28  C   UNL A   1      43.526  29.862  34.375  1.00  0.00     0.049 A 
ATOM     29  C   UNL A   1      38.927  32.322  32.253  1.00  0.00     0.074 A 
ATOM     30  C   UNL A   1      44.060  30.428  35.517  1.00  0.00     0.029 A 
ATOM     31  N   UNL A   1      42.419  30.621  34.025  1.00  0.00    -0.354 N 
ATOM     32  N   UNL A   1      40.005  31.859  32.843  1.00  0.00    -0.248 NA
ATOM     33  C   UNL A   1      38.336  33.495  32.911  1.00  0.00     0.031 C 
ATOM     34  C   UNL A   1      43.248  31.506  35.884  1.00  0.00     0.029 A 
ATOM     35  C   UNL A   1      42.244  31.644  34.938  1.00  0.00     0.049 A 
ATOM     36  H   UNL A   1      41.845  30.457  33.242  1.00  0.00     0.167 HD
ATOM     37  C   UNL A   1      40.231  32.698  33.930  1.00  0.00     0.074 A 
ATOM     38  C   UNL A   1      39.195  33.710  33.898  1.00  0.00     0.031 C 
ATOM     39  C   UNL A   1      41.202  32.637  34.875  1.00  0.00     0.031 A 
BRANCH  26  40
ATOM     40  C   UNL A   1      45.226  28.000  34.094  1.00  0.00    -0.014 A 
ATOM     41  C   UNL A   1      46.482  28.356  33.568  1.00  0.00     0.010 A 
ATOM     42  C   UNL A   1      45.144  26.949  35.024  1.00  0.00     0.010 A 
ATOM     43  C   UNL A   1      47.628  27.646  33.932  1.00  0.00     0.020 A 
ATOM     44  C   UNL A   1      46.292  26.250  35.408  1.00  0.00     0.020 A 
ATOM     45  C   UNL A   1      47.524  26.592  34.845  1.00  0.00     0.054 A 
BRANCH  45  46
ATOM     46  S   UNL A   1      49.026  25.683  35.298  1.00  0.00     0.124 S 
ATOM     47  O   UNL A   1      49.880  26.751  35.813  1.00  0.00    -0.237 OA
ATOM     48  O   UNL A   1      48.538  24.734  36.294  1.00  0.00    -0.237 OA
ATOM     49  O   UNL A   1      49.466  25.089  34.037  1.00  0.00    -0.744 OA
ENDBRANCH  45  46
ENDBRANCH  26  40
BRANCH  27  50
ATOM     50  C   UNL A   1      37.047  32.526  30.453  1.00  0.00    -0.014 A 
ATOM     51  C   UNL A   1      37.162  33.544  29.488  1.00  0.00     0.010 A 
ATOM     52  C   UNL A   1      35.767  32.200  30.941  1.00  0.00     0.010 A 
ATOM     53  C   UNL A   1      36.030  34.247  29.057  1.00  0.00     0.020 A 
ATOM     54  C   UNL A   1      34.631  32.877  30.490  1.00  0.00     0.020 A 
ATOM     55  C   UNL A   1      34.772  33.913  29.565  1.00  0.00     0.054 A 
BRANCH  55  56
ATOM     56  S   UNL A   1      33.315  34.834  28.995  1.00  0.00     0.124 S 
ATOM     57  O   UNL A   1      33.914  36.065  28.490  1.00  0.00    -0.237 OA
ATOM     58  O   UNL A   1      32.755  33.941  27.984  1.00  0.00    -0.237 OA
ATOM     59  O   UNL A   1      32.507  34.980  30.203  1.00  0.00    -0.744 OA
ENDBRANCH  55  56
ENDBRANCH  27  50
BRANCH  39  60
ATOM     60  C   UNL A   1      41.199  33.703  35.936  1.00  0.00    -0.014 A 
ATOM     61  C   UNL A   1      41.723  34.982  35.682  1.00  0.00     0.010 A 
ATOM     62  C   UNL A   1      40.609  33.437  37.185  1.00  0.00     0.010 A 
ATOM     63  C   UNL A   1      41.691  35.967  36.671  1.00  0.00     0.020 A 
ATOM     64  C   UNL A   1      40.548  34.428  38.166  1.00  0.00     0.020 A 
ATOM     65  C   UNL A   1      41.104  35.683  37.908  1.00  0.00     0.054 A 
BRANCH  65  66
ATOM     66  S   UNL A   1      41.038  36.989  39.164  1.00  0.00     0.124 S 
ATOM     67  O   UNL A   1      42.214  37.789  38.831  1.00  0.00    -0.237 OA
ATOM     68  O   UNL A   1      39.750  37.624  38.899  1.00  0.00    -0.237 OA
ATOM     69  O   UNL A   1      41.118  36.259  40.427  1.00  0.00    -0.744 OA
ENDBRANCH  65  66
ENDBRANCH  39  60
ENDBRANCH  13  14
ENDBRANCH   6   8
ENDBRANCH   5   6
ENDBRANCH   4   5
ENDBRANCH   3   4
ENDBRANCH   2   3
ENDBRANCH   1   2
BRANCH   1  70
ATOM     70  C   UNL A   1      37.233  22.133  25.225  1.00  0.00     0.188 C 
BRANCH  70  71
ATOM     71  O   UNL A   1      36.709  22.270  23.914  1.00  0.00    -0.376 OA
BRANCH  71  72
ATOM     72  C   UNL A   1      35.491  22.980  23.744  1.00  0.00     0.202 C 
BRANCH  72  73
ATOM     73  C   UNL A   1      34.999  23.823  24.924  1.00  0.00     0.261 C 
BRANCH  73  74
ATOM     74  O   UNL A   1      33.956  24.769  24.618  1.00  0.00    -0.460 OA
BRANCH  74  75
ATOM     75  C   UNL A   1      32.890  24.309  23.904  1.00  0.00     0.343 C 
ATOM     76  O   UNL A   1      32.749  24.367  22.697  1.00  0.00    -0.246 OA
BRANCH  75  77
ATOM     77  C   UNL A   1      31.861  23.845  24.845  1.00  0.00     0.120 A 
ATOM     78  C   UNL A   1      31.830  22.489  25.128  1.00  0.00     0.132 A 
ATOM     79  C   UNL A   1      30.989  24.653  25.571  1.00  0.00     0.146 A 
ATOM     80  N   UNL A   1      31.009  21.927  26.034  1.00  0.00    -0.244 NA
ATOM     81  N   UNL A   1      30.161  24.103  26.494  1.00  0.00    -0.219 NA
ATOM     82  C   UNL A   1      30.211  22.775  26.685  1.00  0.00     0.224 A 
BRANCH  79  83
ATOM     83  N   UNL A   1      30.763  26.021  25.290  1.00  0.00    -0.355 N 
ATOM     84  C   UNL A   1      31.763  26.836  25.972  1.00  0.00     0.124 C 
ATOM     85  C   UNL A   1      30.403  26.297  23.885  1.00  0.00     0.133 C 
ATOM     86  C   UNL A   1      32.024  28.199  25.355  1.00  0.00     0.087 C 
ATOM     87  C   UNL A   1      30.422  27.804  23.470  1.00  0.00     0.063 C 
ATOM     88  C   UNL A   1      30.771  28.705  24.672  1.00  0.00     0.194 C 
ATOM     89  C   UNL A   1      29.016  28.268  22.995  1.00  0.00     0.023 C 
ATOM     90  N   UNL A   1      30.909  30.107  24.248  1.00  0.00    -0.343 N 
ATOM     91  C   UNL A   1      28.952  29.784  22.732  1.00  0.00     0.062 C 
ATOM     92  C   UNL A   1      29.602  30.627  23.835  1.00  0.00     0.260 C 
ATOM     93  H   UNL A   1      31.559  30.163  23.463  1.00  0.00     0.346 HD
ATOM     94  H   UNL A   1      31.264  30.664  25.025  1.00  0.00     0.346 HD
BRANCH  87  95
ATOM     95  C   UNL A   1      31.448  27.999  22.304  1.00  0.00     0.171 C 
BRANCH  95  96
ATOM     96  O   UNL A   1      31.362  26.963  21.326  1.00  0.00    -0.395 OA
ATOM     97  H   UNL A   1      32.219  26.865  20.882  1.00  0.00     0.210 HD
ENDBRANCH  95  96
ENDBRANCH  87  95
ENDBRANCH  79  83
ENDBRANCH  75  77
ENDBRANCH  74  75
ENDBRANCH  73  74
ENDBRANCH  72  73
ENDBRANCH  71  72
ENDBRANCH  70  71
ENDBRANCH   1  70
TORSDOF 23
ENDMDL
