MODEL 1
REMARK VINA RESULT:      -9.3      0.000      0.000
REMARK SMILES CC[C@H]1CO[C@@H](C)CN1c1cccc(F)c1C(=O)OCCOCCOCCOC(=O)c1ccc(-c2c3nc(c(-c4ccc(S(=O)(=O)[O-])cc4)c4ccc([nH]4)c(-c4ccc(S(=O)(=O)[O-])cc4)c4nc(c(-c5ccc(S(=O)(=O)[O-])cc5)c5ccc2[nH]5)C=C4)C=C3)cc1
REMARK SMILES IDX 24 1 23 2 22 3 21 4 20 5 19 6 17 7 18 8 16 9 10 10 11 11
REMARK SMILES IDX 12 12 14 13 13 14 15 15 9 16 3 17 4 18 5 19 8 20 6 21 7 22
REMARK SMILES IDX 2 23 1 24 25 25 26 26 27 27 28 28 29 29 30 30 31 31 32 32
REMARK SMILES IDX 90 33 33 34 89 35 34 36 35 37 36 38 83 39 37 40 88 41 82 42
REMARK SMILES IDX 84 43 38 44 87 45 81 46 80 47 39 49 69 50 50 51 68 52 51 53
REMARK SMILES IDX 54 54 67 55 85 56 52 57 53 58 66 60 86 61 55 62 40 63 41 64
REMARK SMILES IDX 49 65 42 66 48 67 43 68 44 69 45 70 46 71 47 72 70 73 71 74
REMARK SMILES IDX 79 75 72 76 78 77 73 78 74 79 75 80 76 81 77 82 56 83 57 84
REMARK SMILES IDX 65 85 58 86 64 87 59 88 60 89 61 90 62 91 63 92
REMARK H PARENT 84 48 54 59
REMARK Flexibility Score: inf
ROOT
ATOM      1  C   UNL A   1      37.294  22.315  25.664  1.00  0.00     0.188 C 
ENDROOT
BRANCH   1   2
ATOM      2  C   UNL A   1      36.663  23.657  25.264  1.00  0.00     0.188 C 
BRANCH   2   3
ATOM      3  O   UNL A   1      35.298  23.771  25.675  1.00  0.00    -0.376 OA
BRANCH   3   4
ATOM      4  C   UNL A   1      34.970  22.931  26.784  1.00  0.00     0.202 C 
BRANCH   4   5
ATOM      5  C   UNL A   1      33.470  22.948  27.073  1.00  0.00     0.261 C 
BRANCH   5   6
ATOM      6  O   UNL A   1      32.834  24.086  26.463  1.00  0.00    -0.460 OA
BRANCH   6   7
ATOM      7  C   UNL A   1      31.725  23.894  25.709  1.00  0.00     0.343 C 
ATOM      8  O   UNL A   1      30.575  23.874  26.108  1.00  0.00    -0.246 OA
BRANCH   7   9
ATOM      9  C   UNL A   1      32.178  23.708  24.313  1.00  0.00     0.119 A 
ATOM     10  C   UNL A   1      32.502  24.787  23.461  1.00  0.00     0.055 A 
ATOM     11  C   UNL A   1      32.943  24.475  22.160  1.00  0.00     0.027 A 
ATOM     12  C   UNL A   1      33.034  23.152  21.710  1.00  0.00     0.005 A 
ATOM     13  C   UNL A   1      32.268  22.388  23.851  1.00  0.00     0.139 A 
ATOM     14  C   UNL A   1      32.695  22.107  22.559  1.00  0.00     0.040 A 
ATOM     15  F   UNL A   1      31.937  21.357  24.645  1.00  0.00    -0.206 F 
BRANCH  10  16
ATOM     16  N   UNL A   1      32.446  26.111  23.884  1.00  0.00    -0.363 N 
ATOM     17  C   UNL A   1      31.459  27.098  23.356  1.00  0.00     0.108 C 
ATOM     18  C   UNL A   1      31.363  28.244  24.404  1.00  0.00     0.185 C 
ATOM     19  O   UNL A   1      32.637  28.861  24.652  1.00  0.00    -0.375 OA
ATOM     20  C   UNL A   1      33.762  26.761  24.048  1.00  0.00     0.148 C 
ATOM     21  C   UNL A   1      33.660  27.935  25.043  1.00  0.00     0.134 C 
ATOM     22  C   UNL A   1      33.481  27.530  26.496  1.00  0.00     0.040 C 
BRANCH  17  23
ATOM     23  C   UNL A   1      30.065  26.523  23.063  1.00  0.00     0.024 C 
ATOM     24  C   UNL A   1      29.146  26.679  24.272  1.00  0.00     0.006 C 
ENDBRANCH  17  23
ENDBRANCH  10  16
ENDBRANCH   7   9
ENDBRANCH   6   7
ENDBRANCH   5   6
ENDBRANCH   4   5
ENDBRANCH   3   4
ENDBRANCH   2   3
ENDBRANCH   1   2
BRANCH   1  25
ATOM     25  O   UNL A   1      38.715  22.174  25.679  1.00  0.00    -0.376 OA
BRANCH  25  26
ATOM     26  C   UNL A   1      39.423  22.622  26.821  1.00  0.00     0.202 C 
BRANCH  26  27
ATOM     27  C   UNL A   1      40.262  23.890  26.625  1.00  0.00     0.261 C 
BRANCH  27  28
ATOM     28  O   UNL A   1      39.535  25.120  26.786  1.00  0.00    -0.460 OA
BRANCH  28  29
ATOM     29  C   UNL A   1      40.294  26.241  26.692  1.00  0.00     0.338 C 
ATOM     30  O   UNL A   1      40.997  26.573  25.751  1.00  0.00    -0.246 OA
BRANCH  29  31
ATOM     31  C   UNL A   1      40.111  27.096  27.887  1.00  0.00     0.060 A 
ATOM     32  C   UNL A   1      40.836  28.294  27.959  1.00  0.00     0.016 A 
ATOM     33  C   UNL A   1      39.331  26.688  28.973  1.00  0.00     0.016 A 
ATOM     34  C   UNL A   1      40.813  29.062  29.127  1.00  0.00     0.010 A 
ATOM     35  C   UNL A   1      39.322  27.452  30.148  1.00  0.00     0.010 A 
ATOM     36  C   UNL A   1      40.087  28.627  30.245  1.00  0.00    -0.014 A 
BRANCH  36  37
ATOM     37  C   UNL A   1      40.234  29.329  31.549  1.00  0.00     0.031 A 
ATOM     38  C   UNL A   1      39.240  30.382  31.935  1.00  0.00     0.074 A 
ATOM     39  C   UNL A   1      41.237  29.037  32.397  1.00  0.00     0.049 A 
ATOM     40  N   UNL A   1      39.195  31.106  33.022  1.00  0.00    -0.248 NA
ATOM     41  C   UNL A   1      38.162  30.656  30.974  1.00  0.00     0.031 C 
ATOM     42  C   UNL A   1      42.246  28.024  32.151  1.00  0.00     0.029 A 
ATOM     43  N   UNL A   1      41.581  29.554  33.622  1.00  0.00    -0.354 N 
ATOM     44  C   UNL A   1      38.081  31.921  32.883  1.00  0.00     0.074 A 
ATOM     45  C   UNL A   1      37.490  31.614  31.596  1.00  0.00     0.031 C 
ATOM     46  C   UNL A   1      43.104  27.982  33.182  1.00  0.00     0.029 A 
ATOM     47  C   UNL A   1      42.721  28.997  34.156  1.00  0.00     0.049 A 
ATOM     48  H   UNL A   1      41.062  30.256  34.075  1.00  0.00     0.167 HD
ATOM     49  C   UNL A   1      37.598  32.844  33.746  1.00  0.00     0.031 A 
ATOM     50  C   UNL A   1      43.400  29.279  35.285  1.00  0.00     0.031 A 
ATOM     51  C   UNL A   1      38.212  33.187  35.001  1.00  0.00     0.049 A 
ATOM     52  C   UNL A   1      42.891  30.371  36.184  1.00  0.00     0.074 A 
ATOM     53  C   UNL A   1      37.791  34.118  35.936  1.00  0.00     0.029 A 
ATOM     54  N   UNL A   1      39.387  32.636  35.489  1.00  0.00    -0.354 N 
ATOM     55  N   UNL A   1      41.812  31.104  36.054  1.00  0.00    -0.248 NA
ATOM     56  C   UNL A   1      43.690  30.679  37.378  1.00  0.00     0.031 C 
ATOM     57  C   UNL A   1      38.740  34.168  36.962  1.00  0.00     0.029 A 
ATOM     58  C   UNL A   1      39.722  33.228  36.696  1.00  0.00     0.049 A 
ATOM     59  H   UNL A   1      39.907  31.929  35.043  1.00  0.00     0.167 HD
ATOM     60  C   UNL A   1      41.791  31.945  37.160  1.00  0.00     0.074 A 
ATOM     61  C   UNL A   1      42.956  31.620  37.957  1.00  0.00     0.031 C 
ATOM     62  C   UNL A   1      40.886  32.901  37.482  1.00  0.00     0.031 A 
BRANCH  49  63
ATOM     63  C   UNL A   1      36.359  33.582  33.328  1.00  0.00    -0.014 A 
ATOM     64  C   UNL A   1      36.443  34.842  32.710  1.00  0.00     0.010 A 
ATOM     65  C   UNL A   1      35.097  33.001  33.542  1.00  0.00     0.010 A 
ATOM     66  C   UNL A   1      35.281  35.526  32.346  1.00  0.00     0.020 A 
ATOM     67  C   UNL A   1      33.934  33.672  33.158  1.00  0.00     0.020 A 
ATOM     68  C   UNL A   1      34.033  34.938  32.578  1.00  0.00     0.054 A 
BRANCH  68  69
ATOM     69  S   UNL A   1      32.540  35.842  32.087  1.00  0.00     0.124 S 
ATOM     70  O   UNL A   1      32.726  37.120  32.770  1.00  0.00    -0.237 OA
ATOM     71  O   UNL A   1      32.656  35.885  30.631  1.00  0.00    -0.237 OA
ATOM     72  O   UNL A   1      31.451  35.015  32.598  1.00  0.00    -0.744 OA
ENDBRANCH  68  69
ENDBRANCH  49  63
BRANCH  50  73
ATOM     73  C   UNL A   1      44.650  28.541  35.621  1.00  0.00    -0.014 A 
ATOM     74  C   UNL A   1      45.892  28.963  35.114  1.00  0.00     0.010 A 
ATOM     75  C   UNL A   1      44.603  27.396  36.438  1.00  0.00     0.010 A 
ATOM     76  C   UNL A   1      47.057  28.241  35.396  1.00  0.00     0.020 A 
ATOM     77  C   UNL A   1      45.768  26.687  36.745  1.00  0.00     0.020 A 
ATOM     78  C   UNL A   1      46.986  27.107  36.210  1.00  0.00     0.054 A 
BRANCH  78  79
ATOM     79  S   UNL A   1      48.515  26.205  36.591  1.00  0.00     0.124 S 
ATOM     80  O   UNL A   1      49.517  26.996  35.884  1.00  0.00    -0.237 OA
ATOM     81  O   UNL A   1      48.568  26.275  38.049  1.00  0.00    -0.237 OA
ATOM     82  O   UNL A   1      48.270  24.872  36.047  1.00  0.00    -0.744 OA
ENDBRANCH  78  79
ENDBRANCH  50  73
BRANCH  62  83
ATOM     83  C   UNL A   1      41.101  33.651  38.769  1.00  0.00    -0.014 A 
ATOM     84  C   UNL A   1      40.544  33.197  39.978  1.00  0.00     0.010 A 
ATOM     85  C   UNL A   1      41.916  34.797  38.777  1.00  0.00     0.010 A 
ATOM     86  C   UNL A   1      40.778  33.892  41.168  1.00  0.00     0.020 A 
ATOM     87  C   UNL A   1      42.174  35.480  39.969  1.00  0.00     0.020 A 
ATOM     88  C   UNL A   1      41.591  35.029  41.155  1.00  0.00     0.054 A 
BRANCH  88  89
ATOM     89  S   UNL A   1      41.922  35.886  42.720  1.00  0.00     0.124 S 
ATOM     90  O   UNL A   1      43.357  35.674  42.885  1.00  0.00    -0.237 OA
ATOM     91  O   UNL A   1      41.519  37.260  42.426  1.00  0.00    -0.237 OA
ATOM     92  O   UNL A   1      41.074  35.188  43.683  1.00  0.00    -0.744 OA
ENDBRANCH  88  89
ENDBRANCH  62  83
ENDBRANCH  36  37
ENDBRANCH  29  31
ENDBRANCH  28  29
ENDBRANCH  27  28
ENDBRANCH  26  27
ENDBRANCH  25  26
ENDBRANCH   1  25
TORSDOF 22
ENDMDL
MODEL 2
REMARK VINA RESULT:      -9.2      1.794      8.345
REMARK SMILES CC[C@H]1CO[C@@H](C)CN1c1cccc(F)c1C(=O)OCCOCCOCCOC(=O)c1ccc(-c2c3nc(c(-c4ccc(S(=O)(=O)[O-])cc4)c4ccc([nH]4)c(-c4ccc(S(=O)(=O)[O-])cc4)c4nc(c(-c5ccc(S(=O)(=O)[O-])cc5)c5ccc2[nH]5)C=C4)C=C3)cc1
REMARK SMILES IDX 24 1 23 2 22 3 21 4 20 5 19 6 17 7 18 8 16 9 10 10 11 11
REMARK SMILES IDX 12 12 14 13 13 14 15 15 9 16 3 17 4 18 5 19 8 20 6 21 7 22
REMARK SMILES IDX 2 23 1 24 25 25 26 26 27 27 28 28 29 29 30 30 31 31 32 32
REMARK SMILES IDX 90 33 33 34 89 35 34 36 35 37 36 38 83 39 37 40 88 41 82 42
REMARK SMILES IDX 84 43 38 44 87 45 81 46 80 47 39 49 69 50 50 51 68 52 51 53
REMARK SMILES IDX 54 54 67 55 85 56 52 57 53 58 66 60 86 61 55 62 40 63 41 64
REMARK SMILES IDX 49 65 42 66 48 67 43 68 44 69 45 70 46 71 47 72 70 73 71 74
REMARK SMILES IDX 79 75 72 76 78 77 73 78 74 79 75 80 76 81 77 82 56 83 57 84
REMARK SMILES IDX 65 85 58 86 64 87 59 88 60 89 61 90 62 91 63 92
REMARK H PARENT 84 48 54 59
REMARK Flexibility Score: inf
ROOT
ATOM      1  C   UNL A   1      40.091  20.967  26.251  1.00  0.00     0.188 C 
ENDROOT
BRANCH   1   2
ATOM      2  C   UNL A   1      38.854  20.703  25.381  1.00  0.00     0.188 C 
BRANCH   2   3
ATOM      3  O   UNL A   1      37.985  21.836  25.295  1.00  0.00    -0.376 OA
BRANCH   3   4
ATOM      4  C   UNL A   1      36.667  21.505  24.851  1.00  0.00     0.202 C 
BRANCH   4   5
ATOM      5  C   UNL A   1      36.166  22.495  23.801  1.00  0.00     0.261 C 
BRANCH   5   6
ATOM      6  O   UNL A   1      34.879  23.028  24.160  1.00  0.00    -0.460 OA
BRANCH   6   7
ATOM      7  C   UNL A   1      34.800  23.943  25.157  1.00  0.00     0.343 C 
ATOM      8  O   UNL A   1      35.656  24.752  25.465  1.00  0.00    -0.246 OA
BRANCH   7   9
ATOM      9  C   UNL A   1      33.479  23.768  25.801  1.00  0.00     0.119 A 
ATOM     10  C   UNL A   1      32.347  24.538  25.453  1.00  0.00     0.055 A 
ATOM     11  C   UNL A   1      31.142  24.258  26.126  1.00  0.00     0.027 A 
ATOM     12  C   UNL A   1      31.064  23.276  27.121  1.00  0.00     0.005 A 
ATOM     13  C   UNL A   1      33.392  22.791  26.801  1.00  0.00     0.139 A 
ATOM     14  C   UNL A   1      32.193  22.541  27.459  1.00  0.00     0.040 A 
ATOM     15  F   UNL A   1      34.468  22.073  27.158  1.00  0.00    -0.206 F 
BRANCH  10  16
ATOM     16  N   UNL A   1      32.385  25.503  24.452  1.00  0.00    -0.363 N 
ATOM     17  C   UNL A   1      32.605  26.954  24.723  1.00  0.00     0.108 C 
ATOM     18  C   UNL A   1      33.097  27.592  23.392  1.00  0.00     0.185 C 
ATOM     19  O   UNL A   1      32.161  27.398  22.318  1.00  0.00    -0.375 OA
ATOM     20  C   UNL A   1      31.359  25.343  23.402  1.00  0.00     0.148 C 
ATOM     21  C   UNL A   1      31.816  26.023  22.096  1.00  0.00     0.134 C 
ATOM     22  C   UNL A   1      32.934  25.308  21.359  1.00  0.00     0.040 C 
BRANCH  17  23
ATOM     23  C   UNL A   1      33.595  27.256  25.857  1.00  0.00     0.024 C 
ATOM     24  C   UNL A   1      32.999  28.252  26.850  1.00  0.00     0.006 C 
ENDBRANCH  17  23
ENDBRANCH  10  16
ENDBRANCH   7   9
ENDBRANCH   6   7
ENDBRANCH   5   6
ENDBRANCH   4   5
ENDBRANCH   3   4
ENDBRANCH   2   3
ENDBRANCH   1   2
BRANCH   1  25
ATOM     25  O   UNL A   1      41.286  21.472  25.654  1.00  0.00    -0.376 OA
BRANCH  25  26
ATOM     26  C   UNL A   1      42.364  21.825  26.502  1.00  0.00     0.202 C 
BRANCH  26  27
ATOM     27  C   UNL A   1      42.462  23.311  26.867  1.00  0.00     0.261 C 
BRANCH  27  28
ATOM     28  O   UNL A   1      41.378  24.120  26.378  1.00  0.00    -0.460 OA
BRANCH  28  29
ATOM     29  C   UNL A   1      41.734  25.374  26.002  1.00  0.00     0.338 C 
ATOM     30  O   UNL A   1      42.301  25.695  24.970  1.00  0.00    -0.246 OA
BRANCH  29  31
ATOM     31  C   UNL A   1      41.271  26.368  26.996  1.00  0.00     0.060 A 
ATOM     32  C   UNL A   1      41.934  27.601  27.054  1.00  0.00     0.016 A 
ATOM     33  C   UNL A   1      40.280  26.065  27.935  1.00  0.00     0.016 A 
ATOM     34  C   UNL A   1      41.635  28.515  28.070  1.00  0.00     0.010 A 
ATOM     35  C   UNL A   1      39.994  26.976  28.962  1.00  0.00     0.010 A 
ATOM     36  C   UNL A   1      40.690  28.193  29.054  1.00  0.00    -0.014 A 
BRANCH  36  37
ATOM     37  C   UNL A   1      40.529  29.068  30.248  1.00  0.00     0.031 A 
ATOM     38  C   UNL A   1      41.399  28.844  31.448  1.00  0.00     0.074 A 
ATOM     39  C   UNL A   1      39.622  30.061  30.276  1.00  0.00     0.049 A 
ATOM     40  N   UNL A   1      41.412  29.494  32.582  1.00  0.00    -0.248 NA
ATOM     41  C   UNL A   1      42.376  27.749  31.360  1.00  0.00     0.031 C 
ATOM     42  C   UNL A   1      38.740  30.394  29.174  1.00  0.00     0.029 A 
ATOM     43  N   UNL A   1      39.285  30.967  31.252  1.00  0.00    -0.354 N 
ATOM     44  C   UNL A   1      42.401  28.893  33.346  1.00  0.00     0.074 A 
ATOM     45  C   UNL A   1      42.953  27.813  32.552  1.00  0.00     0.031 C 
ATOM     46  C   UNL A   1      37.955  31.426  29.519  1.00  0.00     0.029 A 
ATOM     47  C   UNL A   1      38.259  31.811  30.891  1.00  0.00     0.049 A 
ATOM     48  H   UNL A   1      39.734  31.008  32.126  1.00  0.00     0.167 HD
ATOM     49  C   UNL A   1      42.810  29.209  34.596  1.00  0.00     0.031 A 
ATOM     50  C   UNL A   1      37.615  32.770  31.585  1.00  0.00     0.031 A 
ATOM     51  C   UNL A   1      42.230  30.246  35.407  1.00  0.00     0.049 A 
ATOM     52  C   UNL A   1      38.029  33.041  33.004  1.00  0.00     0.074 A 
ATOM     53  C   UNL A   1      42.580  30.629  36.690  1.00  0.00     0.029 A 
ATOM     54  N   UNL A   1      41.165  31.050  35.028  1.00  0.00    -0.354 N 
ATOM     55  N   UNL A   1      38.996  32.487  33.696  1.00  0.00    -0.248 NA
ATOM     56  C   UNL A   1      37.267  34.059  33.739  1.00  0.00     0.031 C 
ATOM     57  C   UNL A   1      41.694  31.627  37.107  1.00  0.00     0.029 A 
ATOM     58  C   UNL A   1      40.827  31.906  36.063  1.00  0.00     0.049 A 
ATOM     59  H   UNL A   1      40.717  31.017  34.152  1.00  0.00     0.167 HD
ATOM     60  C   UNL A   1      38.971  33.105  34.941  1.00  0.00     0.074 A 
ATOM     61  C   UNL A   1      37.906  34.086  34.902  1.00  0.00     0.031 C 
ATOM     62  C   UNL A   1      39.762  32.877  36.018  1.00  0.00     0.031 A 
BRANCH  49  63
ATOM     63  C   UNL A   1      43.918  28.378  35.179  1.00  0.00    -0.014 A 
ATOM     64  C   UNL A   1      43.638  27.201  35.896  1.00  0.00     0.010 A 
ATOM     65  C   UNL A   1      45.254  28.772  34.992  1.00  0.00     0.010 A 
ATOM     66  C   UNL A   1      44.677  26.451  36.450  1.00  0.00     0.020 A 
ATOM     67  C   UNL A   1      46.297  28.011  35.525  1.00  0.00     0.020 A 
ATOM     68  C   UNL A   1      46.001  26.865  36.266  1.00  0.00     0.054 A 
BRANCH  68  69
ATOM     69  S   UNL A   1      47.332  25.867  36.987  1.00  0.00     0.124 S 
ATOM     70  O   UNL A   1      47.482  26.477  38.305  1.00  0.00    -0.237 OA
ATOM     71  O   UNL A   1      46.764  24.521  36.977  1.00  0.00    -0.237 OA
ATOM     72  O   UNL A   1      48.452  26.073  36.073  1.00  0.00    -0.744 OA
ENDBRANCH  68  69
ENDBRANCH  49  63
BRANCH  50  73
ATOM     73  C   UNL A   1      36.492  33.528  30.965  1.00  0.00    -0.014 A 
ATOM     74  C   UNL A   1      35.294  33.742  31.670  1.00  0.00     0.010 A 
ATOM     75  C   UNL A   1      36.608  34.026  29.654  1.00  0.00     0.010 A 
ATOM     76  C   UNL A   1      34.227  34.417  31.067  1.00  0.00     0.020 A 
ATOM     77  C   UNL A   1      35.554  34.725  29.058  1.00  0.00     0.020 A 
ATOM     78  C   UNL A   1      34.364  34.903  29.764  1.00  0.00     0.054 A 
BRANCH  78  79
ATOM     79  S   UNL A   1      32.978  35.804  29.015  1.00  0.00     0.124 S 
ATOM     80  O   UNL A   1      32.227  36.236  30.188  1.00  0.00    -0.237 OA
ATOM     81  O   UNL A   1      33.656  36.865  28.272  1.00  0.00    -0.237 OA
ATOM     82  O   UNL A   1      32.322  34.796  28.186  1.00  0.00    -0.744 OA
ENDBRANCH  78  79
ENDBRANCH  50  73
BRANCH  62  83
ATOM     83  C   UNL A   1      39.526  33.723  37.240  1.00  0.00    -0.014 A 
ATOM     84  C   UNL A   1      38.719  33.268  38.298  1.00  0.00     0.010 A 
ATOM     85  C   UNL A   1      40.166  34.971  37.353  1.00  0.00     0.010 A 
ATOM     86  C   UNL A   1      38.535  34.057  39.436  1.00  0.00     0.020 A 
ATOM     87  C   UNL A   1      40.006  35.752  38.501  1.00  0.00     0.020 A 
ATOM     88  C   UNL A   1      39.180  35.295  39.530  1.00  0.00     0.054 A 
BRANCH  88  89
ATOM     89  S   UNL A   1      38.968  36.280  41.038  1.00  0.00     0.124 S 
ATOM     90  O   UNL A   1      38.667  37.602  40.498  1.00  0.00    -0.237 OA
ATOM     91  O   UNL A   1      37.858  35.607  41.709  1.00  0.00    -0.237 OA
ATOM     92  O   UNL A   1      40.258  36.162  41.713  1.00  0.00    -0.744 OA
ENDBRANCH  88  89
ENDBRANCH  62  83
ENDBRANCH  36  37
ENDBRANCH  29  31
ENDBRANCH  28  29
ENDBRANCH  27  28
ENDBRANCH  26  27
ENDBRANCH  25  26
ENDBRANCH   1  25
TORSDOF 22
ENDMDL
MODEL 3
REMARK VINA RESULT:      -8.8      6.618     11.986
REMARK SMILES CC[C@H]1CO[C@@H](C)CN1c1cccc(F)c1C(=O)OCCOCCOCCOC(=O)c1ccc(-c2c3nc(c(-c4ccc(S(=O)(=O)[O-])cc4)c4ccc([nH]4)c(-c4ccc(S(=O)(=O)[O-])cc4)c4nc(c(-c5ccc(S(=O)(=O)[O-])cc5)c5ccc2[nH]5)C=C4)C=C3)cc1
REMARK SMILES IDX 24 1 23 2 22 3 21 4 20 5 19 6 17 7 18 8 16 9 10 10 11 11
REMARK SMILES IDX 12 12 14 13 13 14 15 15 9 16 3 17 4 18 5 19 8 20 6 21 7 22
REMARK SMILES IDX 2 23 1 24 25 25 26 26 27 27 28 28 29 29 30 30 31 31 32 32
REMARK SMILES IDX 90 33 33 34 89 35 34 36 35 37 36 38 83 39 37 40 88 41 82 42
REMARK SMILES IDX 84 43 38 44 87 45 81 46 80 47 39 49 69 50 50 51 68 52 51 53
REMARK SMILES IDX 54 54 67 55 85 56 52 57 53 58 66 60 86 61 55 62 40 63 41 64
REMARK SMILES IDX 49 65 42 66 48 67 43 68 44 69 45 70 46 71 47 72 70 73 71 74
REMARK SMILES IDX 79 75 72 76 78 77 73 78 74 79 75 80 76 81 77 82 56 83 57 84
REMARK SMILES IDX 65 85 58 86 64 87 59 88 60 89 61 90 62 91 63 92
REMARK H PARENT 84 48 54 59
REMARK Flexibility Score: inf
ROOT
ATOM      1  C   UNL A   1      32.342  32.055  27.021  1.00  0.00     0.188 C 
ENDROOT
BRANCH   1   2
ATOM      2  C   UNL A   1      32.331  30.523  26.907  1.00  0.00     0.188 C 
BRANCH   2   3
ATOM      3  O   UNL A   1      32.753  30.060  25.622  1.00  0.00    -0.376 OA
BRANCH   3   4
ATOM      4  C   UNL A   1      33.650  28.949  25.687  1.00  0.00     0.202 C 
BRANCH   4   5
ATOM      5  C   UNL A   1      33.177  27.908  26.699  1.00  0.00     0.261 C 
BRANCH   5   6
ATOM      6  O   UNL A   1      33.360  26.572  26.196  1.00  0.00    -0.460 OA
BRANCH   6   7
ATOM      7  C   UNL A   1      32.270  25.837  25.869  1.00  0.00     0.343 C 
ATOM      8  O   UNL A   1      31.510  25.286  26.645  1.00  0.00    -0.246 OA
BRANCH   7   9
ATOM      9  C   UNL A   1      32.183  25.826  24.392  1.00  0.00     0.119 A 
ATOM     10  C   UNL A   1      32.903  24.913  23.588  1.00  0.00     0.055 A 
ATOM     11  C   UNL A   1      32.716  24.992  22.194  1.00  0.00     0.027 A 
ATOM     12  C   UNL A   1      31.874  25.950  21.617  1.00  0.00     0.005 A 
ATOM     13  C   UNL A   1      31.348  26.783  23.804  1.00  0.00     0.139 A 
ATOM     14  C   UNL A   1      31.188  26.848  22.425  1.00  0.00     0.040 A 
ATOM     15  F   UNL A   1      30.681  27.671  24.558  1.00  0.00    -0.206 F 
BRANCH  10  16
ATOM     16  N   UNL A   1      33.727  23.934  24.132  1.00  0.00    -0.363 N 
ATOM     17  C   UNL A   1      33.228  22.849  25.027  1.00  0.00     0.108 C 
ATOM     18  C   UNL A   1      34.285  21.709  24.986  1.00  0.00     0.185 C 
ATOM     19  O   UNL A   1      35.588  22.161  25.390  1.00  0.00    -0.375 OA
ATOM     20  C   UNL A   1      35.028  24.428  24.626  1.00  0.00     0.148 C 
ATOM     21  C   UNL A   1      36.065  23.287  24.642  1.00  0.00     0.134 C 
ATOM     22  C   UNL A   1      36.553  22.847  23.272  1.00  0.00     0.040 C 
BRANCH  17  23
ATOM     23  C   UNL A   1      31.838  22.303  24.668  1.00  0.00     0.024 C 
ATOM     24  C   UNL A   1      31.040  21.973  25.927  1.00  0.00     0.006 C 
ENDBRANCH  17  23
ENDBRANCH  10  16
ENDBRANCH   7   9
ENDBRANCH   6   7
ENDBRANCH   5   6
ENDBRANCH   4   5
ENDBRANCH   3   4
ENDBRANCH   2   3
ENDBRANCH   1   2
BRANCH   1  25
ATOM     25  O   UNL A   1      33.204  32.691  27.965  1.00  0.00    -0.376 OA
BRANCH  25  26
ATOM     26  C   UNL A   1      34.573  32.330  27.975  1.00  0.00     0.202 C 
BRANCH  26  27
ATOM     27  C   UNL A   1      34.982  31.310  29.044  1.00  0.00     0.261 C 
BRANCH  27  28
ATOM     28  O   UNL A   1      36.257  31.565  29.660  1.00  0.00    -0.460 OA
BRANCH  28  29
ATOM     29  C   UNL A   1      36.693  30.580  30.485  1.00  0.00     0.338 C 
ATOM     30  O   UNL A   1      36.143  30.175  31.496  1.00  0.00    -0.246 OA
BRANCH  29  31
ATOM     31  C   UNL A   1      37.935  29.970  29.958  1.00  0.00     0.060 A 
ATOM     32  C   UNL A   1      38.909  29.559  30.876  1.00  0.00     0.016 A 
ATOM     33  C   UNL A   1      38.196  29.900  28.586  1.00  0.00     0.016 A 
ATOM     34  C   UNL A   1      40.158  29.116  30.428  1.00  0.00     0.010 A 
ATOM     35  C   UNL A   1      39.455  29.470  28.140  1.00  0.00     0.010 A 
ATOM     36  C   UNL A   1      40.454  29.104  29.058  1.00  0.00    -0.014 A 
BRANCH  36  37
ATOM     37  C   UNL A   1      41.844  28.839  28.597  1.00  0.00     0.031 A 
ATOM     38  C   UNL A   1      42.227  27.453  28.175  1.00  0.00     0.074 A 
ATOM     39  C   UNL A   1      42.767  29.816  28.544  1.00  0.00     0.049 A 
ATOM     40  N   UNL A   1      43.383  27.018  27.746  1.00  0.00    -0.248 NA
ATOM     41  C   UNL A   1      41.178  26.426  28.248  1.00  0.00     0.031 C 
ATOM     42  C   UNL A   1      42.515  31.199  28.901  1.00  0.00     0.029 A 
ATOM     43  N   UNL A   1      44.091  29.806  28.179  1.00  0.00    -0.354 N 
ATOM     44  C   UNL A   1      43.203  25.667  27.490  1.00  0.00     0.074 A 
ATOM     45  C   UNL A   1      41.831  25.350  27.831  1.00  0.00     0.031 C 
ATOM     46  C   UNL A   1      43.638  31.918  28.745  1.00  0.00     0.029 A 
ATOM     47  C   UNL A   1      44.707  31.032  28.303  1.00  0.00     0.049 A 
ATOM     48  H   UNL A   1      44.556  29.000  27.859  1.00  0.00     0.167 HD
ATOM     49  C   UNL A   1      44.100  24.771  27.019  1.00  0.00     0.031 A 
ATOM     50  C   UNL A   1      45.988  31.403  28.109  1.00  0.00     0.031 A 
ATOM     51  C   UNL A   1      45.477  25.070  26.728  1.00  0.00     0.049 A 
ATOM     52  C   UNL A   1      46.985  30.368  27.671  1.00  0.00     0.074 A 
ATOM     53  C   UNL A   1      46.458  24.218  26.252  1.00  0.00     0.029 A 
ATOM     54  N   UNL A   1      46.077  26.308  26.907  1.00  0.00    -0.354 N 
ATOM     55  N   UNL A   1      46.786  29.101  27.395  1.00  0.00    -0.248 NA
ATOM     56  C   UNL A   1      48.380  30.806  27.521  1.00  0.00     0.031 C 
ATOM     57  C   UNL A   1      47.663  24.925  26.194  1.00  0.00     0.029 A 
ATOM     58  C   UNL A   1      47.421  26.234  26.580  1.00  0.00     0.049 A 
ATOM     59  H   UNL A   1      45.615  27.119  27.220  1.00  0.00     0.167 HD
ATOM     60  C   UNL A   1      48.025  28.597  27.019  1.00  0.00     0.074 A 
ATOM     61  C   UNL A   1      48.964  29.697  27.086  1.00  0.00     0.031 C 
ATOM     62  C   UNL A   1      48.351  27.334  26.653  1.00  0.00     0.031 A 
BRANCH  49  63
ATOM     63  C   UNL A   1      43.618  23.361  26.834  1.00  0.00    -0.014 A 
ATOM     64  C   UNL A   1      43.195  22.592  27.934  1.00  0.00     0.010 A 
ATOM     65  C   UNL A   1      43.574  22.804  25.545  1.00  0.00     0.010 A 
ATOM     66  C   UNL A   1      42.771  21.275  27.749  1.00  0.00     0.020 A 
ATOM     67  C   UNL A   1      43.127  21.494  25.354  1.00  0.00     0.020 A 
ATOM     68  C   UNL A   1      42.745  20.732  26.460  1.00  0.00     0.054 A 
BRANCH  68  69
ATOM     69  S   UNL A   1      42.179  19.023  26.246  1.00  0.00     0.124 S 
ATOM     70  O   UNL A   1      43.106  18.525  25.234  1.00  0.00    -0.237 OA
ATOM     71  O   UNL A   1      42.348  18.461  27.584  1.00  0.00    -0.237 OA
ATOM     72  O   UNL A   1      40.795  19.169  25.806  1.00  0.00    -0.744 OA
ENDBRANCH  68  69
ENDBRANCH  49  63
BRANCH  50  73
ATOM     73  C   UNL A   1      46.413  32.810  28.354  1.00  0.00    -0.014 A 
ATOM     74  C   UNL A   1      46.859  33.215  29.625  1.00  0.00     0.010 A 
ATOM     75  C   UNL A   1      46.355  33.762  27.319  1.00  0.00     0.010 A 
ATOM     76  C   UNL A   1      47.215  34.547  29.861  1.00  0.00     0.020 A 
ATOM     77  C   UNL A   1      46.737  35.088  27.543  1.00  0.00     0.020 A 
ATOM     78  C   UNL A   1      47.151  35.475  28.818  1.00  0.00     0.054 A 
BRANCH  78  79
ATOM     79  S   UNL A   1      47.650  37.190  29.139  1.00  0.00     0.124 S 
ATOM     80  O   UNL A   1      47.678  37.230  30.597  1.00  0.00    -0.237 OA
ATOM     81  O   UNL A   1      48.951  37.269  28.478  1.00  0.00    -0.237 OA
ATOM     82  O   UNL A   1      46.592  37.978  28.510  1.00  0.00    -0.744 OA
ENDBRANCH  78  79
ENDBRANCH  50  73
BRANCH  62  83
ATOM     83  C   UNL A   1      49.782  27.074  26.266  1.00  0.00    -0.014 A 
ATOM     84  C   UNL A   1      50.743  26.709  27.225  1.00  0.00     0.010 A 
ATOM     85  C   UNL A   1      50.157  27.145  24.912  1.00  0.00     0.010 A 
ATOM     86  C   UNL A   1      52.060  26.446  26.841  1.00  0.00     0.020 A 
ATOM     87  C   UNL A   1      51.467  26.857  24.520  1.00  0.00     0.020 A 
ATOM     88  C   UNL A   1      52.414  26.521  25.490  1.00  0.00     0.054 A 
BRANCH  88  89
ATOM     89  S   UNL A   1      54.117  26.126  25.008  1.00  0.00     0.124 S 
ATOM     90  O   UNL A   1      54.864  26.480  26.211  1.00  0.00    -0.237 OA
ATOM     91  O   UNL A   1      54.044  24.697  24.710  1.00  0.00    -0.237 OA
ATOM     92  O   UNL A   1      54.358  26.984  23.849  1.00  0.00    -0.744 OA
ENDBRANCH  88  89
ENDBRANCH  62  83
ENDBRANCH  36  37
ENDBRANCH  29  31
ENDBRANCH  28  29
ENDBRANCH  27  28
ENDBRANCH  26  27
ENDBRANCH  25  26
ENDBRANCH   1  25
TORSDOF 22
ENDMDL
