MODEL 1
REMARK VINA RESULT:      -8.1      0.000      0.000
REMARK SMILES Cc1c(C(=O)OCCOCCOCCOC(=O)c2ccc(-c3c4nc(c(-c5ccc(S(=O)(=O)[O-])cc5)c5ccc([nH]5)c(-c5ccc(S(=O)(=O)[O-])cc5)c5nc(c(-c6ccc(S(=O)(=O)[O-])cc6)c6ccc3[nH]6)C=C5)C=C4)cc2)oc2c1/C(=N/NC(=O)C(c1ccccc1)c1ccccc1)CCC2
REMARK SMILES IDX 10 1 9 2 8 3 7 4 6 5 4 6 5 7 3 8 1 9 2 10 80 11 78 12 79 13
REMARK SMILES IDX 81 14 101 15 82 16 99 17 100 18 83 19 84 20 85 22 86 23
REMARK SMILES IDX 87 24 88 25 92 26 89 27 91 28 90 29 93 30 94 31 98 32 95 33
REMARK SMILES IDX 97 34 96 35 11 36 12 37 13 38 14 39 15 40 16 41 17 42 18 43
REMARK SMILES IDX 19 44 77 45 20 46 76 47 21 48 22 49 23 50 70 51 24 52 75 53
REMARK SMILES IDX 69 54 71 55 25 56 74 57 68 58 67 59 26 61 56 62 37 63 55 64
REMARK SMILES IDX 38 65 41 66 54 67 72 68 39 69 40 70 53 72 73 73 42 74 27 75
REMARK SMILES IDX 28 76 36 77 29 78 35 79 30 80 31 81 32 82 33 83 34 84 57 85
REMARK SMILES IDX 58 86 66 87 59 88 65 89 60 90 61 91 62 92 63 93 64 94 43 95
REMARK SMILES IDX 44 96 52 97 45 98 51 99 46 100 47 101 48 102 49 103 50 104
REMARK H PARENT 83 21 71 60 41 71
REMARK Flexibility Score: inf
ROOT
ATOM      1  C   UNL A   1      42.884  33.115  39.291  1.00  0.00     0.188 C 
ENDROOT
BRANCH   1   2
ATOM      2  O   UNL A   1      43.337  34.463  39.231  1.00  0.00    -0.376 OA
BRANCH   2   3
ATOM      3  C   UNL A   1      43.671  35.173  40.409  1.00  0.00     0.202 C 
BRANCH   3   4
ATOM      4  C   UNL A   1      42.834  36.410  40.755  1.00  0.00     0.261 C 
BRANCH   4   5
ATOM      5  O   UNL A   1      41.556  36.447  40.123  1.00  0.00    -0.457 OA
BRANCH   5   6
ATOM      6  C   UNL A   1      41.533  36.896  38.830  1.00  0.00     0.374 C 
ATOM      7  O   UNL A   1      42.283  37.720  38.353  1.00  0.00    -0.242 OA
BRANCH   6   8
ATOM      8  C   UNL A   1      40.546  36.119  38.109  1.00  0.00     0.215 A 
ATOM      9  C   UNL A   1      40.993  36.603  35.601  1.00  0.00     0.049 C 
ATOM     10  C   UNL A   1      40.283  35.979  36.747  1.00  0.00     0.012 A 
ATOM     11  C   UNL A   1      39.190  35.071  36.668  1.00  0.00     0.043 A 
ATOM     12  O   UNL A   1      39.760  35.261  38.833  1.00  0.00    -0.453 OA
ATOM     13  C   UNL A   1      38.992  34.605  37.950  1.00  0.00     0.114 A 
ATOM     14  C   UNL A   1      38.314  34.620  35.588  1.00  0.00     0.072 C 
ATOM     15  C   UNL A   1      38.051  33.580  38.450  1.00  0.00     0.076 C 
ATOM     16  N   UNL A   1      38.734  34.910  34.395  1.00  0.00    -0.177 NA
ATOM     17  C   UNL A   1      37.064  33.997  36.177  1.00  0.00     0.059 C 
ATOM     18  C   UNL A   1      37.359  32.940  37.247  1.00  0.00     0.014 C 
BRANCH  16  19
ATOM     19  N   UNL A   1      38.293  34.813  33.109  1.00  0.00    -0.246 N 
ATOM     20  C   UNL A   1      38.425  33.995  32.009  1.00  0.00     0.252 C 
ATOM     21  H   UNL A   1      37.691  35.564  32.902  1.00  0.00     0.193 HD
ATOM     22  O   UNL A   1      37.728  34.262  31.018  1.00  0.00    -0.272 OA
BRANCH  20  23
ATOM     23  C   UNL A   1      39.374  32.792  31.963  1.00  0.00     0.140 C 
BRANCH  23  24
ATOM     24  C   UNL A   1      40.682  33.242  31.215  1.00  0.00    -0.031 A 
ATOM     25  C   UNL A   1      41.263  34.517  31.463  1.00  0.00     0.005 A 
ATOM     26  C   UNL A   1      41.378  32.421  30.314  1.00  0.00     0.005 A 
ATOM     27  C   UNL A   1      42.520  34.886  30.982  1.00  0.00     0.000 A 
ATOM     28  C   UNL A   1      42.643  32.796  29.820  1.00  0.00     0.000 A 
ATOM     29  C   UNL A   1      43.224  34.013  30.175  1.00  0.00     0.000 A 
ENDBRANCH  23  24
BRANCH  23  30
ATOM     30  C   UNL A   1      39.356  32.101  33.373  1.00  0.00    -0.031 A 
ATOM     31  C   UNL A   1      38.283  31.347  33.873  1.00  0.00     0.005 A 
ATOM     32  C   UNL A   1      40.491  32.190  34.225  1.00  0.00     0.005 A 
ATOM     33  C   UNL A   1      38.422  30.577  35.045  1.00  0.00     0.000 A 
ATOM     34  C   UNL A   1      40.643  31.406  35.371  1.00  0.00     0.000 A 
ATOM     35  C   UNL A   1      39.615  30.573  35.767  1.00  0.00     0.000 A 
ENDBRANCH  23  30
ENDBRANCH  20  23
ENDBRANCH  16  19
ENDBRANCH   6   8
ENDBRANCH   5   6
ENDBRANCH   4   5
ENDBRANCH   3   4
ENDBRANCH   2   3
ENDBRANCH   1   2
BRANCH   1  36
ATOM     36  C   UNL A   1      43.732  31.904  38.828  1.00  0.00     0.188 C 
BRANCH  36  37
ATOM     37  O   UNL A   1      43.027  30.849  38.190  1.00  0.00    -0.376 OA
BRANCH  37  38
ATOM     38  C   UNL A   1      43.774  30.095  37.240  1.00  0.00     0.202 C 
BRANCH  38  39
ATOM     39  C   UNL A   1      42.915  29.138  36.420  1.00  0.00     0.261 C 
BRANCH  39  40
ATOM     40  O   UNL A   1      42.863  27.826  36.962  1.00  0.00    -0.460 OA
BRANCH  40  41
ATOM     41  C   UNL A   1      44.033  27.161  37.041  1.00  0.00     0.338 C 
ATOM     42  O   UNL A   1      44.670  26.914  38.050  1.00  0.00    -0.246 OA
BRANCH  41  43
ATOM     43  C   UNL A   1      44.453  26.822  35.675  1.00  0.00     0.060 A 
ATOM     44  C   UNL A   1      45.383  27.668  35.070  1.00  0.00     0.016 A 
ATOM     45  C   UNL A   1      43.709  25.881  34.944  1.00  0.00     0.016 A 
ATOM     46  C   UNL A   1      45.340  27.792  33.702  1.00  0.00     0.010 A 
ATOM     47  C   UNL A   1      43.648  26.021  33.583  1.00  0.00     0.010 A 
ATOM     48  C   UNL A   1      44.370  27.065  33.011  1.00  0.00    -0.014 A 
BRANCH  48  49
ATOM     49  C   UNL A   1      43.949  27.576  31.727  1.00  0.00     0.031 A 
ATOM     50  C   UNL A   1      42.544  27.996  31.634  1.00  0.00     0.074 A 
ATOM     51  C   UNL A   1      44.855  27.736  30.743  1.00  0.00     0.049 A 
ATOM     52  N   UNL A   1      41.629  27.509  30.867  1.00  0.00    -0.248 NA
ATOM     53  C   UNL A   1      42.070  28.999  32.597  1.00  0.00     0.031 C 
ATOM     54  C   UNL A   1      46.316  27.624  30.845  1.00  0.00     0.029 A 
ATOM     55  N   UNL A   1      44.667  28.187  29.476  1.00  0.00    -0.354 N 
ATOM     56  C   UNL A   1      40.489  28.257  31.128  1.00  0.00     0.074 A 
ATOM     57  C   UNL A   1      40.771  29.036  32.309  1.00  0.00     0.031 C 
ATOM     58  C   UNL A   1      46.876  28.241  29.783  1.00  0.00     0.029 A 
ATOM     59  C   UNL A   1      45.819  28.690  28.891  1.00  0.00     0.049 A 
ATOM     60  H   UNL A   1      43.796  28.159  29.017  1.00  0.00     0.167 HD
ATOM     61  C   UNL A   1      39.466  28.347  30.238  1.00  0.00     0.031 A 
ATOM     62  C   UNL A   1      45.876  29.528  27.827  1.00  0.00     0.031 A 
ATOM     63  C   UNL A   1      39.568  27.369  29.190  1.00  0.00     0.049 A 
ATOM     64  C   UNL A   1      44.574  29.427  27.113  1.00  0.00     0.074 A 
ATOM     65  C   UNL A   1      39.548  25.990  29.151  1.00  0.00     0.029 A 
ATOM     66  N   UNL A   1      40.095  27.785  27.988  1.00  0.00    -0.354 N 
ATOM     67  N   UNL A   1      44.177  28.351  26.489  1.00  0.00    -0.248 NA
ATOM     68  C   UNL A   1      43.511  30.360  27.462  1.00  0.00     0.031 C 
ATOM     69  C   UNL A   1      40.456  25.634  28.114  1.00  0.00     0.029 A 
ATOM     70  C   UNL A   1      40.957  26.811  27.552  1.00  0.00     0.049 A 
ATOM     71  H   UNL A   1      39.889  28.629  27.524  1.00  0.00     0.167 HD
ATOM     72  C   UNL A   1      42.813  28.268  26.744  1.00  0.00     0.074 A 
ATOM     73  C   UNL A   1      42.442  29.589  27.243  1.00  0.00     0.031 C 
ATOM     74  C   UNL A   1      42.174  27.061  26.803  1.00  0.00     0.031 A 
BRANCH  61  75
ATOM     75  C   UNL A   1      38.570  29.548  30.132  1.00  0.00    -0.014 A 
ATOM     76  C   UNL A   1      37.401  29.598  30.913  1.00  0.00     0.010 A 
ATOM     77  C   UNL A   1      38.701  30.502  29.101  1.00  0.00     0.010 A 
ATOM     78  C   UNL A   1      36.380  30.512  30.624  1.00  0.00     0.020 A 
ATOM     79  C   UNL A   1      37.715  31.450  28.838  1.00  0.00     0.020 A 
ATOM     80  C   UNL A   1      36.539  31.418  29.575  1.00  0.00     0.054 A 
BRANCH  80  81
ATOM     81  S   UNL A   1      35.159  32.488  29.106  1.00  0.00     0.124 S 
ATOM     82  O   UNL A   1      35.841  33.541  28.360  1.00  0.00    -0.237 OA
ATOM     83  O   UNL A   1      34.321  31.590  28.317  1.00  0.00    -0.237 OA
ATOM     84  O   UNL A   1      34.591  32.894  30.390  1.00  0.00    -0.744 OA
ENDBRANCH  80  81
ENDBRANCH  61  75
BRANCH  62  85
ATOM     85  C   UNL A   1      46.847  30.637  27.634  1.00  0.00    -0.014 A 
ATOM     86  C   UNL A   1      48.223  30.390  27.487  1.00  0.00     0.010 A 
ATOM     87  C   UNL A   1      46.391  31.946  27.359  1.00  0.00     0.010 A 
ATOM     88  C   UNL A   1      49.095  31.401  27.041  1.00  0.00     0.020 A 
ATOM     89  C   UNL A   1      47.253  32.961  26.935  1.00  0.00     0.020 A 
ATOM     90  C   UNL A   1      48.601  32.676  26.755  1.00  0.00     0.054 A 
BRANCH  90  91
ATOM     91  S   UNL A   1      49.696  33.928  26.028  1.00  0.00     0.124 S 
ATOM     92  O   UNL A   1      50.543  33.129  25.149  1.00  0.00    -0.237 OA
ATOM     93  O   UNL A   1      48.754  34.823  25.361  1.00  0.00    -0.237 OA
ATOM     94  O   UNL A   1      50.376  34.507  27.187  1.00  0.00    -0.744 OA
ENDBRANCH  90  91
ENDBRANCH  62  85
BRANCH  74  95
ATOM     95  C   UNL A   1      42.912  25.832  26.316  1.00  0.00    -0.014 A 
ATOM     96  C   UNL A   1      42.609  25.194  25.096  1.00  0.00     0.010 A 
ATOM     97  C   UNL A   1      44.067  25.432  27.011  1.00  0.00     0.010 A 
ATOM     98  C   UNL A   1      43.431  24.176  24.594  1.00  0.00     0.020 A 
ATOM     99  C   UNL A   1      44.901  24.430  26.505  1.00  0.00     0.020 A 
ATOM    100  C   UNL A   1      44.577  23.803  25.301  1.00  0.00     0.054 A 
BRANCH 100 101
ATOM    101  S   UNL A   1      45.685  22.550  24.597  1.00  0.00     0.124 S 
ATOM    102  O   UNL A   1      44.775  21.739  23.794  1.00  0.00    -0.237 OA
ATOM    103  O   UNL A   1      46.647  23.351  23.843  1.00  0.00    -0.237 OA
ATOM    104  O   UNL A   1      46.241  21.878  25.771  1.00  0.00    -0.744 OA
ENDBRANCH 100 101
ENDBRANCH  74  95
ENDBRANCH  48  49
ENDBRANCH  41  43
ENDBRANCH  40  41
ENDBRANCH  39  40
ENDBRANCH  38  39
ENDBRANCH  37  38
ENDBRANCH  36  37
ENDBRANCH   1  36
TORSDOF 24
ENDMDL
MODEL 2
REMARK VINA RESULT:      -8.0      1.585      3.427
REMARK SMILES Cc1c(C(=O)OCCOCCOCCOC(=O)c2ccc(-c3c4nc(c(-c5ccc(S(=O)(=O)[O-])cc5)c5ccc([nH]5)c(-c5ccc(S(=O)(=O)[O-])cc5)c5nc(c(-c6ccc(S(=O)(=O)[O-])cc6)c6ccc3[nH]6)C=C5)C=C4)cc2)oc2c1/C(=N/NC(=O)C(c1ccccc1)c1ccccc1)CCC2
REMARK SMILES IDX 10 1 9 2 8 3 7 4 6 5 4 6 5 7 3 8 1 9 2 10 80 11 78 12 79 13
REMARK SMILES IDX 81 14 101 15 82 16 99 17 100 18 83 19 84 20 85 22 86 23
REMARK SMILES IDX 87 24 88 25 92 26 89 27 91 28 90 29 93 30 94 31 98 32 95 33
REMARK SMILES IDX 97 34 96 35 11 36 12 37 13 38 14 39 15 40 16 41 17 42 18 43
REMARK SMILES IDX 19 44 77 45 20 46 76 47 21 48 22 49 23 50 70 51 24 52 75 53
REMARK SMILES IDX 69 54 71 55 25 56 74 57 68 58 67 59 26 61 56 62 37 63 55 64
REMARK SMILES IDX 38 65 41 66 54 67 72 68 39 69 40 70 53 72 73 73 42 74 27 75
REMARK SMILES IDX 28 76 36 77 29 78 35 79 30 80 31 81 32 82 33 83 34 84 57 85
REMARK SMILES IDX 58 86 66 87 59 88 65 89 60 90 61 91 62 92 63 93 64 94 43 95
REMARK SMILES IDX 44 96 52 97 45 98 51 99 46 100 47 101 48 102 49 103 50 104
REMARK H PARENT 83 21 71 60 41 71
REMARK Flexibility Score: inf
ROOT
ATOM      1  C   UNL A   1      41.141  32.967  39.455  1.00  0.00     0.188 C 
ENDROOT
BRANCH   1   2
ATOM      2  O   UNL A   1      40.599  34.281  39.382  1.00  0.00    -0.376 OA
BRANCH   2   3
ATOM      3  C   UNL A   1      41.240  35.371  40.018  1.00  0.00     0.202 C 
BRANCH   3   4
ATOM      4  C   UNL A   1      41.813  36.478  39.126  1.00  0.00     0.261 C 
BRANCH   4   5
ATOM      5  O   UNL A   1      41.496  36.338  37.743  1.00  0.00    -0.457 OA
BRANCH   5   6
ATOM      6  C   UNL A   1      42.471  35.795  36.950  1.00  0.00     0.374 C 
ATOM      7  O   UNL A   1      43.649  35.720  37.226  1.00  0.00    -0.242 OA
BRANCH   6   8
ATOM      8  C   UNL A   1      41.827  35.213  35.791  1.00  0.00     0.215 A 
ATOM      9  C   UNL A   1      43.015  36.271  33.743  1.00  0.00     0.049 C 
ATOM     10  C   UNL A   1      42.024  35.398  34.423  1.00  0.00     0.012 A 
ATOM     11  C   UNL A   1      41.084  34.537  33.789  1.00  0.00     0.043 A 
ATOM     12  O   UNL A   1      40.917  34.211  36.006  1.00  0.00    -0.453 OA
ATOM     13  C   UNL A   1      40.523  33.783  34.797  1.00  0.00     0.114 A 
ATOM     14  C   UNL A   1      40.636  34.356  32.410  1.00  0.00     0.072 C 
ATOM     15  C   UNL A   1      39.550  32.672  34.719  1.00  0.00     0.076 C 
ATOM     16  N   UNL A   1      41.392  34.917  31.518  1.00  0.00    -0.177 NA
ATOM     17  C   UNL A   1      39.313  33.615  32.401  1.00  0.00     0.059 C 
ATOM     18  C   UNL A   1      39.329  32.336  33.245  1.00  0.00     0.014 C 
BRANCH  16  19
ATOM     19  N   UNL A   1      41.393  35.126  30.171  1.00  0.00    -0.246 N 
ATOM     20  C   UNL A   1      42.272  35.167  29.112  1.00  0.00     0.252 C 
ATOM     21  H   UNL A   1      40.477  35.303  29.857  1.00  0.00     0.193 HD
ATOM     22  O   UNL A   1      41.788  35.315  27.980  1.00  0.00    -0.272 OA
BRANCH  20  23
ATOM     23  C   UNL A   1      43.791  35.035  29.273  1.00  0.00     0.140 C 
BRANCH  23  24
ATOM     24  C   UNL A   1      44.063  33.977  30.404  1.00  0.00    -0.031 A 
ATOM     25  C   UNL A   1      43.429  32.703  30.380  1.00  0.00     0.005 A 
ATOM     26  C   UNL A   1      44.965  34.187  31.458  1.00  0.00     0.005 A 
ATOM     27  C   UNL A   1      43.781  31.661  31.239  1.00  0.00     0.000 A 
ATOM     28  C   UNL A   1      45.316  33.139  32.333  1.00  0.00     0.000 A 
ATOM     29  C   UNL A   1      44.746  31.873  32.205  1.00  0.00     0.000 A 
ENDBRANCH  23  24
BRANCH  23  30
ATOM     30  C   UNL A   1      44.432  34.982  27.840  1.00  0.00    -0.031 A 
ATOM     31  C   UNL A   1      45.386  35.893  27.364  1.00  0.00     0.005 A 
ATOM     32  C   UNL A   1      44.076  33.941  26.938  1.00  0.00     0.005 A 
ATOM     33  C   UNL A   1      46.077  35.657  26.158  1.00  0.00     0.000 A 
ATOM     34  C   UNL A   1      44.777  33.687  25.758  1.00  0.00     0.000 A 
ATOM     35  C   UNL A   1      45.803  34.533  25.380  1.00  0.00     0.000 A 
ENDBRANCH  23  30
ENDBRANCH  20  23
ENDBRANCH  16  19
ENDBRANCH   6   8
ENDBRANCH   5   6
ENDBRANCH   4   5
ENDBRANCH   3   4
ENDBRANCH   2   3
ENDBRANCH   1   2
BRANCH   1  36
ATOM     36  C   UNL A   1      42.479  32.552  38.796  1.00  0.00     0.188 C 
BRANCH  36  37
ATOM     37  O   UNL A   1      42.593  31.193  38.401  1.00  0.00    -0.376 OA
BRANCH  37  38
ATOM     38  C   UNL A   1      43.160  30.970  37.114  1.00  0.00     0.202 C 
BRANCH  38  39
ATOM     39  C   UNL A   1      42.422  29.909  36.304  1.00  0.00     0.261 C 
BRANCH  39  40
ATOM     40  O   UNL A   1      42.398  28.637  36.936  1.00  0.00    -0.460 OA
BRANCH  40  41
ATOM     41  C   UNL A   1      43.576  27.987  37.023  1.00  0.00     0.338 C 
ATOM     42  O   UNL A   1      44.280  27.873  38.010  1.00  0.00    -0.246 OA
BRANCH  41  43
ATOM     43  C   UNL A   1      43.906  27.472  35.687  1.00  0.00     0.060 A 
ATOM     44  C   UNL A   1      44.953  28.099  35.008  1.00  0.00     0.016 A 
ATOM     45  C   UNL A   1      43.003  26.611  35.042  1.00  0.00     0.016 A 
ATOM     46  C   UNL A   1      44.904  28.116  33.635  1.00  0.00     0.010 A 
ATOM     47  C   UNL A   1      42.940  26.648  33.675  1.00  0.00     0.010 A 
ATOM     48  C   UNL A   1      43.813  27.507  33.012  1.00  0.00    -0.014 A 
BRANCH  48  49
ATOM     49  C   UNL A   1      43.457  27.974  31.692  1.00  0.00     0.031 A 
ATOM     50  C   UNL A   1      42.039  28.303  31.490  1.00  0.00     0.074 A 
ATOM     51  C   UNL A   1      44.422  28.180  30.775  1.00  0.00     0.049 A 
ATOM     52  N   UNL A   1      41.216  27.749  30.667  1.00  0.00    -0.248 NA
ATOM     53  C   UNL A   1      41.433  29.285  32.399  1.00  0.00     0.031 C 
ATOM     54  C   UNL A   1      45.875  28.163  30.986  1.00  0.00     0.029 A 
ATOM     55  N   UNL A   1      44.300  28.602  29.491  1.00  0.00    -0.354 N 
ATOM     56  C   UNL A   1      40.015  28.426  30.831  1.00  0.00     0.074 A 
ATOM     57  C   UNL A   1      40.159  29.236  32.015  1.00  0.00     0.031 C 
ATOM     58  C   UNL A   1      46.473  28.801  29.957  1.00  0.00     0.029 A 
ATOM     59  C   UNL A   1      45.459  29.170  28.983  1.00  0.00     0.049 A 
ATOM     60  H   UNL A   1      43.469  28.513  28.969  1.00  0.00     0.167 HD
ATOM     61  C   UNL A   1      39.057  28.440  29.867  1.00  0.00     0.031 A 
ATOM     62  C   UNL A   1      45.542  29.998  27.912  1.00  0.00     0.031 A 
ATOM     63  C   UNL A   1      39.298  27.458  28.845  1.00  0.00     0.049 A 
ATOM     64  C   UNL A   1      44.306  29.805  27.107  1.00  0.00     0.074 A 
ATOM     65  C   UNL A   1      39.368  26.080  28.828  1.00  0.00     0.029 A 
ATOM     66  N   UNL A   1      39.886  27.892  27.678  1.00  0.00    -0.354 N 
ATOM     67  N   UNL A   1      44.024  28.699  26.473  1.00  0.00    -0.248 NA
ATOM     68  C   UNL A   1      43.163  30.673  27.361  1.00  0.00     0.031 C 
ATOM     69  C   UNL A   1      40.370  25.769  27.867  1.00  0.00     0.029 A 
ATOM     70  C   UNL A   1      40.837  26.969  27.323  1.00  0.00     0.049 A 
ATOM     71  H   UNL A   1      39.663  28.715  27.186  1.00  0.00     0.167 HD
ATOM     72  C   UNL A   1      42.652  28.532  26.629  1.00  0.00     0.074 A 
ATOM     73  C   UNL A   1      42.164  29.832  27.078  1.00  0.00     0.031 C 
ATOM     74  C   UNL A   1      42.088  27.287  26.661  1.00  0.00     0.031 A 
BRANCH  61  75
ATOM     75  C   UNL A   1      38.098  29.580  29.675  1.00  0.00    -0.014 A 
ATOM     76  C   UNL A   1      38.591  30.814  29.212  1.00  0.00     0.010 A 
ATOM     77  C   UNL A   1      36.782  29.558  30.184  1.00  0.00     0.010 A 
ATOM     78  C   UNL A   1      37.827  31.982  29.324  1.00  0.00     0.020 A 
ATOM     79  C   UNL A   1      35.995  30.705  30.252  1.00  0.00     0.020 A 
ATOM     80  C   UNL A   1      36.542  31.919  29.862  1.00  0.00     0.054 A 
BRANCH  80  81
ATOM     81  S   UNL A   1      35.622  33.449  30.149  1.00  0.00     0.124 S 
ATOM     82  O   UNL A   1      35.814  34.152  28.885  1.00  0.00    -0.237 OA
ATOM     83  O   UNL A   1      34.270  32.958  30.406  1.00  0.00    -0.237 OA
ATOM     84  O   UNL A   1      36.293  34.040  31.305  1.00  0.00    -0.744 OA
ENDBRANCH  80  81
ENDBRANCH  61  75
BRANCH  62  85
ATOM     85  C   UNL A   1      46.453  31.164  27.772  1.00  0.00    -0.014 A 
ATOM     86  C   UNL A   1      46.536  32.154  28.766  1.00  0.00     0.010 A 
ATOM     87  C   UNL A   1      47.429  31.188  26.750  1.00  0.00     0.010 A 
ATOM     88  C   UNL A   1      47.579  33.100  28.759  1.00  0.00     0.020 A 
ATOM     89  C   UNL A   1      48.456  32.136  26.724  1.00  0.00     0.020 A 
ATOM     90  C   UNL A   1      48.540  33.075  27.745  1.00  0.00     0.054 A 
BRANCH  90  91
ATOM     91  S   UNL A   1      49.970  34.190  27.827  1.00  0.00     0.124 S 
ATOM     92  O   UNL A   1      49.370  35.433  28.298  1.00  0.00    -0.237 OA
ATOM     93  O   UNL A   1      50.849  33.509  28.774  1.00  0.00    -0.237 OA
ATOM     94  O   UNL A   1      50.461  34.222  26.449  1.00  0.00    -0.744 OA
ENDBRANCH  90  91
ENDBRANCH  62  85
BRANCH  74  95
ATOM     95  C   UNL A   1      42.936  26.102  26.250  1.00  0.00    -0.014 A 
ATOM     96  C   UNL A   1      42.637  25.302  25.128  1.00  0.00     0.010 A 
ATOM     97  C   UNL A   1      44.171  25.913  26.895  1.00  0.00     0.010 A 
ATOM     98  C   UNL A   1      43.541  24.334  24.675  1.00  0.00     0.020 A 
ATOM     99  C   UNL A   1      45.086  24.961  26.436  1.00  0.00     0.020 A 
ATOM    100  C   UNL A   1      44.765  24.172  25.330  1.00  0.00     0.054 A 
BRANCH 100 101
ATOM    101  S   UNL A   1      45.968  22.980  24.679  1.00  0.00     0.124 S 
ATOM    102  O   UNL A   1      46.888  23.834  23.933  1.00  0.00    -0.237 OA
ATOM    103  O   UNL A   1      46.516  22.373  25.891  1.00  0.00    -0.237 OA
ATOM    104  O   UNL A   1      45.157  22.079  23.860  1.00  0.00    -0.744 OA
ENDBRANCH 100 101
ENDBRANCH  74  95
ENDBRANCH  48  49
ENDBRANCH  41  43
ENDBRANCH  40  41
ENDBRANCH  39  40
ENDBRANCH  38  39
ENDBRANCH  37  38
ENDBRANCH  36  37
ENDBRANCH   1  36
TORSDOF 24
ENDMDL
MODEL 3
REMARK VINA RESULT:      -7.9      1.821      3.118
REMARK SMILES Cc1c(C(=O)OCCOCCOCCOC(=O)c2ccc(-c3c4nc(c(-c5ccc(S(=O)(=O)[O-])cc5)c5ccc([nH]5)c(-c5ccc(S(=O)(=O)[O-])cc5)c5nc(c(-c6ccc(S(=O)(=O)[O-])cc6)c6ccc3[nH]6)C=C5)C=C4)cc2)oc2c1/C(=N/NC(=O)C(c1ccccc1)c1ccccc1)CCC2
REMARK SMILES IDX 10 1 9 2 8 3 7 4 6 5 4 6 5 7 3 8 1 9 2 10 80 11 78 12 79 13
REMARK SMILES IDX 81 14 101 15 82 16 99 17 100 18 83 19 84 20 85 22 86 23
REMARK SMILES IDX 87 24 88 25 92 26 89 27 91 28 90 29 93 30 94 31 98 32 95 33
REMARK SMILES IDX 97 34 96 35 11 36 12 37 13 38 14 39 15 40 16 41 17 42 18 43
REMARK SMILES IDX 19 44 77 45 20 46 76 47 21 48 22 49 23 50 70 51 24 52 75 53
REMARK SMILES IDX 69 54 71 55 25 56 74 57 68 58 67 59 26 61 56 62 37 63 55 64
REMARK SMILES IDX 38 65 41 66 54 67 72 68 39 69 40 70 53 72 73 73 42 74 27 75
REMARK SMILES IDX 28 76 36 77 29 78 35 79 30 80 31 81 32 82 33 83 34 84 57 85
REMARK SMILES IDX 58 86 66 87 59 88 65 89 60 90 61 91 62 92 63 93 64 94 43 95
REMARK SMILES IDX 44 96 52 97 45 98 51 99 46 100 47 101 48 102 49 103 50 104
REMARK H PARENT 83 21 71 60 41 71
REMARK Flexibility Score: inf
ROOT
ATOM      1  C   UNL A   1      40.562  33.113  38.913  1.00  0.00     0.188 C 
ENDROOT
BRANCH   1   2
ATOM      2  O   UNL A   1      40.204  34.489  38.854  1.00  0.00    -0.376 OA
BRANCH   2   3
ATOM      3  C   UNL A   1      41.002  35.477  39.478  1.00  0.00     0.202 C 
BRANCH   3   4
ATOM      4  C   UNL A   1      41.983  36.260  38.596  1.00  0.00     0.261 C 
BRANCH   4   5
ATOM      5  O   UNL A   1      41.714  36.170  37.199  1.00  0.00    -0.457 OA
BRANCH   5   6
ATOM      6  C   UNL A   1      42.628  35.481  36.449  1.00  0.00     0.374 C 
ATOM      7  O   UNL A   1      43.774  35.247  36.768  1.00  0.00    -0.242 OA
BRANCH   6   8
ATOM      8  C   UNL A   1      41.947  34.975  35.275  1.00  0.00     0.215 A 
ATOM      9  C   UNL A   1      43.101  36.130  33.261  1.00  0.00     0.049 C 
ATOM     10  C   UNL A   1      42.114  35.234  33.915  1.00  0.00     0.012 A 
ATOM     11  C   UNL A   1      41.146  34.424  33.258  1.00  0.00     0.043 A 
ATOM     12  O   UNL A   1      41.027  33.975  35.456  1.00  0.00    -0.453 OA
ATOM     13  C   UNL A   1      40.597  33.623  34.236  1.00  0.00     0.114 A 
ATOM     14  C   UNL A   1      40.661  34.327  31.882  1.00  0.00     0.072 C 
ATOM     15  C   UNL A   1      39.605  32.532  34.119  1.00  0.00     0.076 C 
ATOM     16  N   UNL A   1      41.404  34.927  31.005  1.00  0.00    -0.177 NA
ATOM     17  C   UNL A   1      39.327  33.608  31.865  1.00  0.00     0.059 C 
ATOM     18  C   UNL A   1      39.343  32.282  32.635  1.00  0.00     0.014 C 
BRANCH  16  19
ATOM     19  N   UNL A   1      41.377  35.212  29.672  1.00  0.00    -0.246 N 
ATOM     20  C   UNL A   1      42.229  35.293  28.594  1.00  0.00     0.252 C 
ATOM     21  H   UNL A   1      40.457  35.427  29.393  1.00  0.00     0.193 HD
ATOM     22  O   UNL A   1      41.720  35.516  27.485  1.00  0.00    -0.272 OA
BRANCH  20  23
ATOM     23  C   UNL A   1      43.748  35.120  28.707  1.00  0.00     0.140 C 
BRANCH  23  24
ATOM     24  C   UNL A   1      44.387  36.552  28.825  1.00  0.00    -0.031 A 
ATOM     25  C   UNL A   1      45.282  37.036  27.830  1.00  0.00     0.005 A 
ATOM     26  C   UNL A   1      44.089  37.448  29.863  1.00  0.00     0.005 A 
ATOM     27  C   UNL A   1      45.719  38.361  27.780  1.00  0.00     0.000 A 
ATOM     28  C   UNL A   1      44.536  38.783  29.819  1.00  0.00     0.000 A 
ATOM     29  C   UNL A   1      45.326  39.245  28.767  1.00  0.00     0.000 A 
ENDBRANCH  23  24
BRANCH  23  30
ATOM     30  C   UNL A   1      44.033  33.940  29.704  1.00  0.00    -0.031 A 
ATOM     31  C   UNL A   1      44.771  34.065  30.890  1.00  0.00     0.005 A 
ATOM     32  C   UNL A   1      43.502  32.646  29.446  1.00  0.00     0.005 A 
ATOM     33  C   UNL A   1      44.799  33.024  31.840  1.00  0.00     0.000 A 
ATOM     34  C   UNL A   1      43.503  31.622  30.395  1.00  0.00     0.000 A 
ATOM     35  C   UNL A   1      44.129  31.823  31.611  1.00  0.00     0.000 A 
ENDBRANCH  23  30
ENDBRANCH  20  23
ENDBRANCH  16  19
ENDBRANCH   6   8
ENDBRANCH   5   6
ENDBRANCH   4   5
ENDBRANCH   3   4
ENDBRANCH   2   3
ENDBRANCH   1   2
BRANCH   1  36
ATOM     36  C   UNL A   1      41.964  32.573  38.537  1.00  0.00     0.188 C 
BRANCH  36  37
ATOM     37  O   UNL A   1      42.023  31.222  38.103  1.00  0.00    -0.376 OA
BRANCH  37  38
ATOM     38  C   UNL A   1      42.620  31.011  36.827  1.00  0.00     0.202 C 
BRANCH  38  39
ATOM     39  C   UNL A   1      41.949  29.902  36.023  1.00  0.00     0.261 C 
BRANCH  39  40
ATOM     40  O   UNL A   1      42.107  28.614  36.602  1.00  0.00    -0.460 OA
BRANCH  40  41
ATOM     41  C   UNL A   1      43.373  28.184  36.771  1.00  0.00     0.338 C 
ATOM     42  O   UNL A   1      44.030  28.221  37.796  1.00  0.00    -0.246 OA
BRANCH  41  43
ATOM     43  C   UNL A   1      43.863  27.699  35.473  1.00  0.00     0.060 A 
ATOM     44  C   UNL A   1      44.796  28.498  34.810  1.00  0.00     0.016 A 
ATOM     45  C   UNL A   1      43.180  26.653  34.831  1.00  0.00     0.016 A 
ATOM     46  C   UNL A   1      44.810  28.457  33.437  1.00  0.00     0.010 A 
ATOM     47  C   UNL A   1      43.176  26.629  33.462  1.00  0.00     0.010 A 
ATOM     48  C   UNL A   1      43.893  27.621  32.798  1.00  0.00    -0.014 A 
BRANCH  48  49
ATOM     49  C   UNL A   1      43.514  27.961  31.446  1.00  0.00     0.031 A 
ATOM     50  C   UNL A   1      42.093  28.270  31.236  1.00  0.00     0.074 A 
ATOM     51  C   UNL A   1      44.464  28.080  30.498  1.00  0.00     0.049 A 
ATOM     52  N   UNL A   1      41.258  27.641  30.483  1.00  0.00    -0.248 NA
ATOM     53  C   UNL A   1      41.501  29.333  32.058  1.00  0.00     0.031 C 
ATOM     54  C   UNL A   1      45.921  28.083  30.686  1.00  0.00     0.029 A 
ATOM     55  N   UNL A   1      44.322  28.379  29.182  1.00  0.00    -0.354 N 
ATOM     56  C   UNL A   1      40.059  28.330  30.601  1.00  0.00     0.074 A 
ATOM     57  C   UNL A   1      40.221  29.248  31.701  1.00  0.00     0.031 C 
ATOM     58  C   UNL A   1      46.501  28.621  29.592  1.00  0.00     0.029 A 
ATOM     59  C   UNL A   1      45.471  28.896  28.604  1.00  0.00     0.049 A 
ATOM     60  H   UNL A   1      43.482  28.241  28.685  1.00  0.00     0.167 HD
ATOM     61  C   UNL A   1      39.085  28.252  29.656  1.00  0.00     0.031 A 
ATOM     62  C   UNL A   1      45.535  29.619  27.458  1.00  0.00     0.031 A 
ATOM     63  C   UNL A   1      39.312  27.178  28.728  1.00  0.00     0.049 A 
ATOM     64  C   UNL A   1      44.287  29.351  26.695  1.00  0.00     0.074 A 
ATOM     65  C   UNL A   1      39.383  25.805  28.840  1.00  0.00     0.029 A 
ATOM     66  N   UNL A   1      39.880  27.500  27.516  1.00  0.00    -0.354 N 
ATOM     67  N   UNL A   1      43.997  28.190  26.173  1.00  0.00    -0.248 NA
ATOM     68  C   UNL A   1      43.147  30.239  26.885  1.00  0.00     0.031 C 
ATOM     69  C   UNL A   1      40.371  25.405  27.897  1.00  0.00     0.029 A 
ATOM     70  C   UNL A   1      40.827  26.548  27.234  1.00  0.00     0.049 A 
ATOM     71  H   UNL A   1      39.647  28.273  26.952  1.00  0.00     0.167 HD
ATOM     72  C   UNL A   1      42.628  28.039  26.366  1.00  0.00     0.074 A 
ATOM     73  C   UNL A   1      42.145  29.375  26.698  1.00  0.00     0.031 C 
ATOM     74  C   UNL A   1      42.066  26.802  26.525  1.00  0.00     0.031 A 
BRANCH  61  75
ATOM     75  C   UNL A   1      38.122  29.370  29.372  1.00  0.00    -0.014 A 
ATOM     76  C   UNL A   1      38.627  30.619  28.971  1.00  0.00     0.010 A 
ATOM     77  C   UNL A   1      36.762  29.309  29.742  1.00  0.00     0.010 A 
ATOM     78  C   UNL A   1      37.825  31.767  29.010  1.00  0.00     0.020 A 
ATOM     79  C   UNL A   1      35.942  30.435  29.735  1.00  0.00     0.020 A 
ATOM     80  C   UNL A   1      36.493  31.666  29.411  1.00  0.00     0.054 A 
BRANCH  80  81
ATOM     81  S   UNL A   1      35.508  33.169  29.611  1.00  0.00     0.124 S 
ATOM     82  O   UNL A   1      36.486  34.091  30.181  1.00  0.00    -0.237 OA
ATOM     83  O   UNL A   1      35.089  33.453  28.241  1.00  0.00    -0.237 OA
ATOM     84  O   UNL A   1      34.435  32.757  30.512  1.00  0.00    -0.744 OA
ENDBRANCH  80  81
ENDBRANCH  61  75
BRANCH  62  85
ATOM     85  C   UNL A   1      46.443  30.766  27.194  1.00  0.00    -0.014 A 
ATOM     86  C   UNL A   1      45.979  32.093  27.233  1.00  0.00     0.010 A 
ATOM     87  C   UNL A   1      47.841  30.570  27.127  1.00  0.00     0.010 A 
ATOM     88  C   UNL A   1      46.881  33.174  27.249  1.00  0.00     0.020 A 
ATOM     89  C   UNL A   1      48.742  31.638  27.123  1.00  0.00     0.020 A 
ATOM     90  C   UNL A   1      48.258  32.938  27.208  1.00  0.00     0.054 A 
BRANCH  90  91
ATOM     91  S   UNL A   1      49.419  34.321  27.393  1.00  0.00     0.124 S 
ATOM     92  O   UNL A   1      50.713  33.651  27.337  1.00  0.00    -0.237 OA
ATOM     93  O   UNL A   1      49.090  35.165  26.247  1.00  0.00    -0.237 OA
ATOM     94  O   UNL A   1      49.071  34.891  28.694  1.00  0.00    -0.744 OA
ENDBRANCH  90  91
ENDBRANCH  62  85
BRANCH  74  95
ATOM     95  C   UNL A   1      42.909  25.584  26.214  1.00  0.00    -0.014 A 
ATOM     96  C   UNL A   1      43.570  24.838  27.212  1.00  0.00     0.010 A 
ATOM     97  C   UNL A   1      42.871  25.064  24.908  1.00  0.00     0.010 A 
ATOM     98  C   UNL A   1      44.185  23.617  26.908  1.00  0.00     0.020 A 
ATOM     99  C   UNL A   1      43.467  23.836  24.603  1.00  0.00     0.020 A 
ATOM    100  C   UNL A   1      44.126  23.120  25.603  1.00  0.00     0.054 A 
BRANCH 100 101
ATOM    101  S   UNL A   1      44.845  21.495  25.240  1.00  0.00     0.124 S 
ATOM    102  O   UNL A   1      46.185  21.607  25.807  1.00  0.00    -0.237 OA
ATOM    103  O   UNL A   1      43.942  20.576  25.933  1.00  0.00    -0.237 OA
ATOM    104  O   UNL A   1      44.795  21.411  23.780  1.00  0.00    -0.744 OA
ENDBRANCH 100 101
ENDBRANCH  74  95
ENDBRANCH  48  49
ENDBRANCH  41  43
ENDBRANCH  40  41
ENDBRANCH  39  40
ENDBRANCH  38  39
ENDBRANCH  37  38
ENDBRANCH  36  37
ENDBRANCH   1  36
TORSDOF 24
ENDMDL
