MODEL 1
REMARK VINA RESULT:      -9.4      0.000      0.000
REMARK SMILES C[C@@H]1CCN(c2cncc(C(=O)OCCOCCOCCOC(=O)c3ccc(-c4c5nc(c(-c6ccc(S(=O)(=O)[O-])cc6)c6ccc([nH]6)c(-c6ccc(S(=O)(=O)[O-])cc6)c6nc(c(-c7ccc(S(=O)(=O)[O-])cc7)c7ccc4[nH]7)C=C6)C=C5)cc3)n2)[C@H](C)C1
REMARK SMILES IDX 18 1 17 2 16 3 15 4 14 5 13 6 11 7 12 8 10 9 6 10 7 11 85 12
REMARK SMILES IDX 8 13 9 14 5 15 1 16 2 17 3 18 88 19 4 20 86 21 87 22 19 23
REMARK SMILES IDX 20 24 21 25 22 26 23 27 24 28 25 29 26 30 84 31 27 32 83 33
REMARK SMILES IDX 28 34 29 35 30 36 77 37 31 38 82 39 76 40 78 41 32 42 81 43
REMARK SMILES IDX 75 44 74 45 33 47 63 48 44 49 62 50 45 51 48 52 61 53 79 54
REMARK SMILES IDX 46 55 47 56 60 58 80 59 49 60 34 61 35 62 43 63 36 64 42 65
REMARK SMILES IDX 37 66 38 67 39 68 40 69 41 70 64 71 65 72 73 73 66 74 72 75
REMARK SMILES IDX 67 76 68 77 69 78 70 79 71 80 50 81 51 82 59 83 52 84 58 85
REMARK SMILES IDX 53 86 54 87 55 88 56 89 57 90
REMARK H PARENT 78 46 48 57
REMARK Flexibility Score: inf
ROOT
ATOM      1  C   UNL A   1      41.093  22.297  26.172  1.00  0.00     0.188 C 
ENDROOT
BRANCH   1   2
ATOM      2  C   UNL A   1      40.034  22.918  27.106  1.00  0.00     0.188 C 
BRANCH   2   3
ATOM      3  O   UNL A   1      39.119  23.885  26.624  1.00  0.00    -0.376 OA
BRANCH   3   4
ATOM      4  C   UNL A   1      37.880  23.487  26.064  1.00  0.00     0.202 C 
BRANCH   4   5
ATOM      5  C   UNL A   1      37.658  22.085  25.475  1.00  0.00     0.261 C 
BRANCH   5   6
ATOM      6  O   UNL A   1      36.513  21.944  24.628  1.00  0.00    -0.458 OA
BRANCH   6   7
ATOM      7  C   UNL A   1      35.817  20.782  24.763  1.00  0.00     0.358 C 
ATOM      8  O   UNL A   1      36.281  19.674  24.968  1.00  0.00    -0.244 OA
BRANCH   7   9
ATOM      9  C   UNL A   1      34.374  21.082  24.839  1.00  0.00     0.169 A 
ATOM     10  C   UNL A   1      32.650  22.625  24.955  1.00  0.00     0.148 A 
ATOM     11  C   UNL A   1      31.793  21.549  25.220  1.00  0.00     0.157 A 
ATOM     12  N   UNL A   1      33.973  22.379  24.797  1.00  0.00    -0.221 NA
ATOM     13  N   UNL A   1      32.183  20.246  25.280  1.00  0.00    -0.258 NA
ATOM     14  C   UNL A   1      33.497  20.035  25.052  1.00  0.00     0.147 A 
BRANCH  10  15
ATOM     15  N   UNL A   1      32.210  23.920  24.771  1.00  0.00    -0.353 N 
ATOM     16  C   UNL A   1      31.232  27.472  23.905  1.00  0.00     0.008 C 
ATOM     17  C   UNL A   1      31.654  26.233  23.113  1.00  0.00    -0.011 C 
ATOM     18  C   UNL A   1      30.657  25.070  23.260  1.00  0.00     0.025 C 
ATOM     19  C   UNL A   1      33.080  25.774  23.449  1.00  0.00     0.028 C 
ATOM     20  C   UNL A   1      30.815  24.297  24.571  1.00  0.00     0.118 C 
ATOM     21  C   UNL A   1      33.222  24.980  24.757  1.00  0.00     0.081 C 
ATOM     22  C   UNL A   1      33.163  25.822  26.028  1.00  0.00     0.031 C 
ENDBRANCH  10  15
ENDBRANCH   7   9
ENDBRANCH   6   7
ENDBRANCH   5   6
ENDBRANCH   4   5
ENDBRANCH   3   4
ENDBRANCH   2   3
ENDBRANCH   1   2
BRANCH   1  23
ATOM     23  O   UNL A   1      42.406  22.133  26.650  1.00  0.00    -0.376 OA
BRANCH  23  24
ATOM     24  C   UNL A   1      43.513  22.699  25.972  1.00  0.00     0.202 C 
BRANCH  24  25
ATOM     25  C   UNL A   1      43.513  24.003  25.155  1.00  0.00     0.261 C 
BRANCH  25  26
ATOM     26  O   UNL A   1      43.581  25.243  25.857  1.00  0.00    -0.460 OA
BRANCH  26  27
ATOM     27  C   UNL A   1      42.426  25.946  25.909  1.00  0.00     0.338 C 
ATOM     28  O   UNL A   1      41.532  25.965  25.069  1.00  0.00    -0.246 OA
BRANCH  27  29
ATOM     29  C   UNL A   1      42.316  26.589  27.226  1.00  0.00     0.060 A 
ATOM     30  C   UNL A   1      41.456  26.032  28.182  1.00  0.00     0.016 A 
ATOM     31  C   UNL A   1      43.034  27.753  27.505  1.00  0.00     0.016 A 
ATOM     32  C   UNL A   1      41.295  26.656  29.419  1.00  0.00     0.010 A 
ATOM     33  C   UNL A   1      42.857  28.385  28.737  1.00  0.00     0.010 A 
ATOM     34  C   UNL A   1      41.967  27.855  29.690  1.00  0.00    -0.014 A 
BRANCH  34  35
ATOM     35  C   UNL A   1      41.624  28.645  30.897  1.00  0.00     0.031 A 
ATOM     36  C   UNL A   1      40.449  29.583  30.834  1.00  0.00     0.074 A 
ATOM     37  C   UNL A   1      42.345  28.537  32.027  1.00  0.00     0.049 A 
ATOM     38  N   UNL A   1      40.008  30.420  31.737  1.00  0.00    -0.248 NA
ATOM     39  C   UNL A   1      39.669  29.575  29.586  1.00  0.00     0.031 C 
ATOM     40  C   UNL A   1      43.477  27.635  32.227  1.00  0.00     0.029 A 
ATOM     41  N   UNL A   1      42.234  29.210  33.219  1.00  0.00    -0.354 N 
ATOM     42  C   UNL A   1      38.910  31.049  31.162  1.00  0.00     0.074 A 
ATOM     43  C   UNL A   1      38.765  30.514  29.825  1.00  0.00     0.031 C 
ATOM     44  C   UNL A   1      43.966  27.818  33.467  1.00  0.00     0.029 A 
ATOM     45  C   UNL A   1      43.207  28.877  34.132  1.00  0.00     0.049 A 
ATOM     46  H   UNL A   1      41.526  29.868  33.404  1.00  0.00     0.167 HD
ATOM     47  C   UNL A   1      38.092  31.985  31.700  1.00  0.00     0.031 A 
ATOM     48  C   UNL A   1      43.470  29.386  35.352  1.00  0.00     0.031 A 
ATOM     49  C   UNL A   1      38.250  32.528  33.023  1.00  0.00     0.049 A 
ATOM     50  C   UNL A   1      42.595  30.486  35.899  1.00  0.00     0.074 A 
ATOM     51  C   UNL A   1      37.464  33.470  33.664  1.00  0.00     0.029 A 
ATOM     52  N   UNL A   1      39.264  32.186  33.905  1.00  0.00    -0.354 N 
ATOM     53  N   UNL A   1      41.544  31.053  35.356  1.00  0.00    -0.248 NA
ATOM     54  C   UNL A   1      42.940  31.010  37.229  1.00  0.00     0.031 C 
ATOM     55  C   UNL A   1      38.040  33.745  34.908  1.00  0.00     0.029 A 
ATOM     56  C   UNL A   1      39.143  32.921  35.071  1.00  0.00     0.049 A 
ATOM     57  H   UNL A   1      39.967  31.521  33.726  1.00  0.00     0.167 HD
ATOM     58  C   UNL A   1      41.084  31.976  36.291  1.00  0.00     0.074 A 
ATOM     59  C   UNL A   1      41.964  31.885  37.437  1.00  0.00     0.031 C 
ATOM     60  C   UNL A   1      40.024  32.819  36.209  1.00  0.00     0.031 A 
BRANCH  47  61
ATOM     61  C   UNL A   1      36.975  32.511  30.837  1.00  0.00    -0.014 A 
ATOM     62  C   UNL A   1      35.681  31.965  30.903  1.00  0.00     0.010 A 
ATOM     63  C   UNL A   1      37.217  33.596  29.974  1.00  0.00     0.010 A 
ATOM     64  C   UNL A   1      34.659  32.467  30.091  1.00  0.00     0.020 A 
ATOM     65  C   UNL A   1      36.191  34.121  29.184  1.00  0.00     0.020 A 
ATOM     66  C   UNL A   1      34.922  33.541  29.236  1.00  0.00     0.054 A 
BRANCH  66  67
ATOM     67  S   UNL A   1      33.572  34.188  28.212  1.00  0.00     0.124 S 
ATOM     68  O   UNL A   1      32.761  34.898  29.197  1.00  0.00    -0.237 OA
ATOM     69  O   UNL A   1      34.277  35.035  27.252  1.00  0.00    -0.237 OA
ATOM     70  O   UNL A   1      32.958  32.990  27.647  1.00  0.00    -0.744 OA
ENDBRANCH  66  67
ENDBRANCH  47  61
BRANCH  48  71
ATOM     71  C   UNL A   1      44.630  28.877  36.137  1.00  0.00    -0.014 A 
ATOM     72  C   UNL A   1      44.478  27.802  37.030  1.00  0.00     0.010 A 
ATOM     73  C   UNL A   1      45.897  29.474  35.999  1.00  0.00     0.010 A 
ATOM     74  C   UNL A   1      45.565  27.344  37.781  1.00  0.00     0.020 A 
ATOM     75  C   UNL A   1      46.993  29.000  36.726  1.00  0.00     0.020 A 
ATOM     76  C   UNL A   1      46.818  27.945  37.622  1.00  0.00     0.054 A 
BRANCH  76  77
ATOM     77  S   UNL A   1      48.223  27.302  38.572  1.00  0.00     0.124 S 
ATOM     78  O   UNL A   1      48.775  26.306  37.660  1.00  0.00    -0.237 OA
ATOM     79  O   UNL A   1      49.039  28.496  38.774  1.00  0.00    -0.237 OA
ATOM     80  O   UNL A   1      47.603  26.768  39.782  1.00  0.00    -0.744 OA
ENDBRANCH  76  77
ENDBRANCH  48  71
BRANCH  60  81
ATOM     81  C   UNL A   1      39.722  33.685  37.405  1.00  0.00    -0.014 A 
ATOM     82  C   UNL A   1      38.877  33.241  38.438  1.00  0.00     0.010 A 
ATOM     83  C   UNL A   1      40.353  34.937  37.529  1.00  0.00     0.010 A 
ATOM     84  C   UNL A   1      38.646  34.047  39.558  1.00  0.00     0.020 A 
ATOM     85  C   UNL A   1      40.149  35.731  38.660  1.00  0.00     0.020 A 
ATOM     86  C   UNL A   1      39.285  35.287  39.662  1.00  0.00     0.054 A 
BRANCH  86  87
ATOM     87  S   UNL A   1      39.010  36.290  41.149  1.00  0.00     0.124 S 
ATOM     88  O   UNL A   1      37.825  35.662  41.725  1.00  0.00    -0.237 OA
ATOM     89  O   UNL A   1      40.249  36.098  41.898  1.00  0.00    -0.237 OA
ATOM     90  O   UNL A   1      38.808  37.639  40.626  1.00  0.00    -0.744 OA
ENDBRANCH  86  87
ENDBRANCH  60  81
ENDBRANCH  34  35
ENDBRANCH  27  29
ENDBRANCH  26  27
ENDBRANCH  25  26
ENDBRANCH  24  25
ENDBRANCH  23  24
ENDBRANCH   1  23
TORSDOF 21
ENDMDL
MODEL 2
REMARK VINA RESULT:      -9.4      3.637      9.358
REMARK SMILES C[C@@H]1CCN(c2cncc(C(=O)OCCOCCOCCOC(=O)c3ccc(-c4c5nc(c(-c6ccc(S(=O)(=O)[O-])cc6)c6ccc([nH]6)c(-c6ccc(S(=O)(=O)[O-])cc6)c6nc(c(-c7ccc(S(=O)(=O)[O-])cc7)c7ccc4[nH]7)C=C6)C=C5)cc3)n2)[C@H](C)C1
REMARK SMILES IDX 18 1 17 2 16 3 15 4 14 5 13 6 11 7 12 8 10 9 6 10 7 11 85 12
REMARK SMILES IDX 8 13 9 14 5 15 1 16 2 17 3 18 88 19 4 20 86 21 87 22 19 23
REMARK SMILES IDX 20 24 21 25 22 26 23 27 24 28 25 29 26 30 84 31 27 32 83 33
REMARK SMILES IDX 28 34 29 35 30 36 77 37 31 38 82 39 76 40 78 41 32 42 81 43
REMARK SMILES IDX 75 44 74 45 33 47 63 48 44 49 62 50 45 51 48 52 61 53 79 54
REMARK SMILES IDX 46 55 47 56 60 58 80 59 49 60 34 61 35 62 43 63 36 64 42 65
REMARK SMILES IDX 37 66 38 67 39 68 40 69 41 70 64 71 65 72 73 73 66 74 72 75
REMARK SMILES IDX 67 76 68 77 69 78 70 79 71 80 50 81 51 82 59 83 52 84 58 85
REMARK SMILES IDX 53 86 54 87 55 88 56 89 57 90
REMARK H PARENT 78 46 48 57
REMARK Flexibility Score: inf
ROOT
ATOM      1  C   UNL A   1      34.243  25.742  25.446  1.00  0.00     0.188 C 
ENDROOT
BRANCH   1   2
ATOM      2  C   UNL A   1      33.686  27.033  26.081  1.00  0.00     0.188 C 
BRANCH   2   3
ATOM      3  O   UNL A   1      33.672  28.250  25.360  1.00  0.00    -0.376 OA
BRANCH   3   4
ATOM      4  C   UNL A   1      34.167  28.307  24.034  1.00  0.00     0.202 C 
BRANCH   4   5
ATOM      5  C   UNL A   1      33.241  28.480  22.819  1.00  0.00     0.261 C 
BRANCH   5   6
ATOM      6  O   UNL A   1      32.626  27.282  22.335  1.00  0.00    -0.458 OA
BRANCH   6   7
ATOM      7  C   UNL A   1      31.289  27.170  22.564  1.00  0.00     0.358 C 
ATOM      8  O   UNL A   1      30.391  27.626  21.877  1.00  0.00    -0.244 OA
BRANCH   7   9
ATOM      9  C   UNL A   1      31.060  26.219  23.669  1.00  0.00     0.169 A 
ATOM     10  C   UNL A   1      31.118  24.057  24.498  1.00  0.00     0.148 A 
ATOM     11  C   UNL A   1      30.399  24.531  25.603  1.00  0.00     0.157 A 
ATOM     12  N   UNL A   1      31.420  24.921  23.499  1.00  0.00    -0.221 NA
ATOM     13  N   UNL A   1      30.019  25.827  25.780  1.00  0.00    -0.258 NA
ATOM     14  C   UNL A   1      30.394  26.669  24.795  1.00  0.00     0.147 A 
BRANCH  10  15
ATOM     15  N   UNL A   1      31.603  22.769  24.404  1.00  0.00    -0.353 N 
ATOM     16  C   UNL A   1      33.328  19.408  24.164  1.00  0.00     0.008 C 
ATOM     17  C   UNL A   1      33.676  20.772  24.763  1.00  0.00    -0.011 C 
ATOM     18  C   UNL A   1      32.723  21.179  25.900  1.00  0.00     0.025 C 
ATOM     19  C   UNL A   1      33.761  21.879  23.702  1.00  0.00     0.028 C 
ATOM     20  C   UNL A   1      31.384  21.729  25.404  1.00  0.00     0.118 C 
ATOM     21  C   UNL A   1      32.412  22.437  23.226  1.00  0.00     0.081 C 
ATOM     22  C   UNL A   1      31.647  21.534  22.264  1.00  0.00     0.031 C 
ENDBRANCH  10  15
ENDBRANCH   7   9
ENDBRANCH   6   7
ENDBRANCH   5   6
ENDBRANCH   4   5
ENDBRANCH   3   4
ENDBRANCH   2   3
ENDBRANCH   1   2
BRANCH   1  23
ATOM     23  O   UNL A   1      34.061  24.521  26.120  1.00  0.00    -0.376 OA
BRANCH  23  24
ATOM     24  C   UNL A   1      35.164  23.749  26.557  1.00  0.00     0.202 C 
BRANCH  24  25
ATOM     25  C   UNL A   1      36.290  23.183  25.672  1.00  0.00     0.261 C 
BRANCH  25  26
ATOM     26  O   UNL A   1      37.480  23.954  25.515  1.00  0.00    -0.460 OA
BRANCH  26  27
ATOM     27  C   UNL A   1      38.577  23.463  26.137  1.00  0.00     0.338 C 
ATOM     28  O   UNL A   1      39.042  22.332  26.036  1.00  0.00    -0.246 OA
BRANCH  27  29
ATOM     29  C   UNL A   1      39.247  24.555  26.858  1.00  0.00     0.060 A 
ATOM     30  C   UNL A   1      38.959  24.745  28.216  1.00  0.00     0.016 A 
ATOM     31  C   UNL A   1      40.129  25.405  26.190  1.00  0.00     0.016 A 
ATOM     32  C   UNL A   1      39.541  25.807  28.908  1.00  0.00     0.010 A 
ATOM     33  C   UNL A   1      40.696  26.478  26.880  1.00  0.00     0.010 A 
ATOM     34  C   UNL A   1      40.384  26.701  28.234  1.00  0.00    -0.014 A 
BRANCH  34  35
ATOM     35  C   UNL A   1      40.816  27.958  28.892  1.00  0.00     0.031 A 
ATOM     36  C   UNL A   1      42.213  28.038  29.446  1.00  0.00     0.074 A 
ATOM     37  C   UNL A   1      39.982  29.008  29.003  1.00  0.00     0.049 A 
ATOM     38  N   UNL A   1      42.782  29.003  30.120  1.00  0.00    -0.248 NA
ATOM     39  C   UNL A   1      43.081  26.874  29.208  1.00  0.00     0.031 C 
ATOM     40  C   UNL A   1      38.622  29.070  28.471  1.00  0.00     0.029 A 
ATOM     41  N   UNL A   1      40.160  30.223  29.617  1.00  0.00    -0.354 N 
ATOM     42  C   UNL A   1      44.069  28.558  30.399  1.00  0.00     0.074 A 
ATOM     43  C   UNL A   1      44.189  27.227  29.842  1.00  0.00     0.031 C 
ATOM     44  C   UNL A   1      38.083  30.259  28.792  1.00  0.00     0.029 A 
ATOM     45  C   UNL A   1      39.045  31.025  29.584  1.00  0.00     0.049 A 
ATOM     46  H   UNL A   1      41.007  30.495  30.039  1.00  0.00     0.167 HD
ATOM     47  C   UNL A   1      45.064  29.200  31.056  1.00  0.00     0.031 A 
ATOM     48  C   UNL A   1      38.816  32.227  30.151  1.00  0.00     0.031 A 
ATOM     49  C   UNL A   1      44.936  30.516  31.625  1.00  0.00     0.049 A 
ATOM     50  C   UNL A   1      39.912  32.888  30.949  1.00  0.00     0.074 A 
ATOM     51  C   UNL A   1      45.891  31.257  32.298  1.00  0.00     0.029 A 
ATOM     52  N   UNL A   1      43.781  31.282  31.597  1.00  0.00    -0.354 N 
ATOM     53  N   UNL A   1      41.133  32.468  31.183  1.00  0.00    -0.248 NA
ATOM     54  C   UNL A   1      39.600  34.192  31.554  1.00  0.00     0.031 C 
ATOM     55  C   UNL A   1      45.295  32.445  32.732  1.00  0.00     0.029 A 
ATOM     56  C   UNL A   1      43.990  32.475  32.267  1.00  0.00     0.049 A 
ATOM     57  H   UNL A   1      42.937  31.016  31.165  1.00  0.00     0.167 HD
ATOM     58  C   UNL A   1      41.743  33.469  31.934  1.00  0.00     0.074 A 
ATOM     59  C   UNL A   1      40.761  34.519  32.106  1.00  0.00     0.031 C 
ATOM     60  C   UNL A   1      43.005  33.516  32.430  1.00  0.00     0.031 A 
BRANCH  47  61
ATOM     61  C   UNL A   1      46.368  28.467  31.232  1.00  0.00    -0.014 A 
ATOM     62  C   UNL A   1      46.571  27.581  32.305  1.00  0.00     0.010 A 
ATOM     63  C   UNL A   1      47.395  28.641  30.285  1.00  0.00     0.010 A 
ATOM     64  C   UNL A   1      47.790  26.913  32.450  1.00  0.00     0.020 A 
ATOM     65  C   UNL A   1      48.604  27.951  30.410  1.00  0.00     0.020 A 
ATOM     66  C   UNL A   1      48.800  27.104  31.502  1.00  0.00     0.054 A 
BRANCH  66  67
ATOM     67  S   UNL A   1      50.363  26.206  31.702  1.00  0.00     0.124 S 
ATOM     68  O   UNL A   1      50.306  25.253  30.597  1.00  0.00    -0.237 OA
ATOM     69  O   UNL A   1      51.360  27.266  31.566  1.00  0.00    -0.237 OA
ATOM     70  O   UNL A   1      50.259  25.620  33.036  1.00  0.00    -0.744 OA
ENDBRANCH  66  67
ENDBRANCH  47  61
BRANCH  48  71
ATOM     71  C   UNL A   1      37.484  32.879  30.005  1.00  0.00    -0.014 A 
ATOM     72  C   UNL A   1      37.160  33.599  28.842  1.00  0.00     0.010 A 
ATOM     73  C   UNL A   1      36.533  32.787  31.038  1.00  0.00     0.010 A 
ATOM     74  C   UNL A   1      35.917  34.227  28.721  1.00  0.00     0.020 A 
ATOM     75  C   UNL A   1      35.278  33.390  30.908  1.00  0.00     0.020 A 
ATOM     76  C   UNL A   1      34.982  34.117  29.755  1.00  0.00     0.054 A 
BRANCH  76  77
ATOM     77  S   UNL A   1      33.358  34.900  29.554  1.00  0.00     0.124 S 
ATOM     78  O   UNL A   1      33.713  36.191  28.972  1.00  0.00    -0.237 OA
ATOM     79  O   UNL A   1      32.668  33.972  28.663  1.00  0.00    -0.237 OA
ATOM     80  O   UNL A   1      32.832  34.952  30.916  1.00  0.00    -0.744 OA
ENDBRANCH  76  77
ENDBRANCH  48  71
BRANCH  60  81
ATOM     81  C   UNL A   1      43.421  34.760  33.172  1.00  0.00    -0.014 A 
ATOM     82  C   UNL A   1      43.859  35.910  32.491  1.00  0.00     0.010 A 
ATOM     83  C   UNL A   1      43.303  34.800  34.574  1.00  0.00     0.010 A 
ATOM     84  C   UNL A   1      44.199  37.066  33.202  1.00  0.00     0.020 A 
ATOM     85  C   UNL A   1      43.613  35.962  35.285  1.00  0.00     0.020 A 
ATOM     86  C   UNL A   1      44.072  37.085  34.594  1.00  0.00     0.054 A 
BRANCH  86  87
ATOM     87  S   UNL A   1      44.470  38.613  35.488  1.00  0.00     0.124 S 
ATOM     88  O   UNL A   1      45.930  38.624  35.437  1.00  0.00    -0.237 OA
ATOM     89  O   UNL A   1      43.806  39.636  34.685  1.00  0.00    -0.237 OA
ATOM     90  O   UNL A   1      43.896  38.400  36.815  1.00  0.00    -0.744 OA
ENDBRANCH  86  87
ENDBRANCH  60  81
ENDBRANCH  34  35
ENDBRANCH  27  29
ENDBRANCH  26  27
ENDBRANCH  25  26
ENDBRANCH  24  25
ENDBRANCH  23  24
ENDBRANCH   1  23
TORSDOF 21
ENDMDL
MODEL 3
REMARK VINA RESULT:      -9.4      3.478      9.224
REMARK SMILES C[C@@H]1CCN(c2cncc(C(=O)OCCOCCOCCOC(=O)c3ccc(-c4c5nc(c(-c6ccc(S(=O)(=O)[O-])cc6)c6ccc([nH]6)c(-c6ccc(S(=O)(=O)[O-])cc6)c6nc(c(-c7ccc(S(=O)(=O)[O-])cc7)c7ccc4[nH]7)C=C6)C=C5)cc3)n2)[C@H](C)C1
REMARK SMILES IDX 18 1 17 2 16 3 15 4 14 5 13 6 11 7 12 8 10 9 6 10 7 11 85 12
REMARK SMILES IDX 8 13 9 14 5 15 1 16 2 17 3 18 88 19 4 20 86 21 87 22 19 23
REMARK SMILES IDX 20 24 21 25 22 26 23 27 24 28 25 29 26 30 84 31 27 32 83 33
REMARK SMILES IDX 28 34 29 35 30 36 77 37 31 38 82 39 76 40 78 41 32 42 81 43
REMARK SMILES IDX 75 44 74 45 33 47 63 48 44 49 62 50 45 51 48 52 61 53 79 54
REMARK SMILES IDX 46 55 47 56 60 58 80 59 49 60 34 61 35 62 43 63 36 64 42 65
REMARK SMILES IDX 37 66 38 67 39 68 40 69 41 70 64 71 65 72 73 73 66 74 72 75
REMARK SMILES IDX 67 76 68 77 69 78 70 79 71 80 50 81 51 82 59 83 52 84 58 85
REMARK SMILES IDX 53 86 54 87 55 88 56 89 57 90
REMARK H PARENT 78 46 48 57
REMARK Flexibility Score: inf
ROOT
ATOM      1  C   UNL A   1      34.799  21.737  26.230  1.00  0.00     0.188 C 
ENDROOT
BRANCH   1   2
ATOM      2  C   UNL A   1      33.263  21.595  26.243  1.00  0.00     0.188 C 
BRANCH   2   3
ATOM      3  O   UNL A   1      32.567  21.132  25.101  1.00  0.00    -0.376 OA
BRANCH   3   4
ATOM      4  C   UNL A   1      33.062  21.393  23.800  1.00  0.00     0.202 C 
BRANCH   4   5
ATOM      5  C   UNL A   1      32.166  21.938  22.676  1.00  0.00     0.261 C 
BRANCH   5   6
ATOM      6  O   UNL A   1      31.817  23.322  22.780  1.00  0.00    -0.458 OA
BRANCH   6   7
ATOM      7  C   UNL A   1      32.860  24.196  22.781  1.00  0.00     0.358 C 
ATOM      8  O   UNL A   1      34.034  23.932  22.583  1.00  0.00    -0.244 OA
BRANCH   7   9
ATOM      9  C   UNL A   1      32.341  25.577  22.848  1.00  0.00     0.169 A 
ATOM     10  C   UNL A   1      32.187  27.609  23.947  1.00  0.00     0.148 A 
ATOM     11  C   UNL A   1      31.184  27.954  23.031  1.00  0.00     0.157 A 
ATOM     12  N   UNL A   1      32.746  26.378  23.866  1.00  0.00    -0.221 NA
ATOM     13  N   UNL A   1      30.758  27.155  22.015  1.00  0.00    -0.258 NA
ATOM     14  C   UNL A   1      31.384  25.963  21.927  1.00  0.00     0.147 A 
BRANCH  10  15
ATOM     15  N   UNL A   1      32.692  28.485  24.886  1.00  0.00    -0.353 N 
ATOM     16  C   UNL A   1      33.963  30.596  27.760  1.00  0.00     0.008 C 
ATOM     17  C   UNL A   1      33.767  29.100  27.509  1.00  0.00    -0.011 C 
ATOM     18  C   UNL A   1      34.648  28.572  26.363  1.00  0.00     0.025 C 
ATOM     19  C   UNL A   1      32.295  28.727  27.279  1.00  0.00     0.028 C 
ATOM     20  C   UNL A   1      34.091  28.887  24.973  1.00  0.00     0.118 C 
ATOM     21  C   UNL A   1      31.753  29.028  25.874  1.00  0.00     0.081 C 
ATOM     22  C   UNL A   1      31.452  30.499  25.604  1.00  0.00     0.031 C 
ENDBRANCH  10  15
ENDBRANCH   7   9
ENDBRANCH   6   7
ENDBRANCH   5   6
ENDBRANCH   4   5
ENDBRANCH   3   4
ENDBRANCH   2   3
ENDBRANCH   1   2
BRANCH   1  23
ATOM     23  O   UNL A   1      35.440  22.054  25.018  1.00  0.00    -0.376 OA
BRANCH  23  24
ATOM     24  C   UNL A   1      36.648  21.423  24.637  1.00  0.00     0.202 C 
BRANCH  24  25
ATOM     25  C   UNL A   1      37.993  21.499  25.382  1.00  0.00     0.261 C 
BRANCH  25  26
ATOM     26  O   UNL A   1      38.278  22.668  26.147  1.00  0.00    -0.460 OA
BRANCH  26  27
ATOM     27  C   UNL A   1      39.590  22.906  26.379  1.00  0.00     0.338 C 
ATOM     28  O   UNL A   1      40.540  22.204  26.047  1.00  0.00    -0.246 OA
BRANCH  27  29
ATOM     29  C   UNL A   1      39.736  24.244  26.970  1.00  0.00     0.060 A 
ATOM     30  C   UNL A   1      40.443  25.224  26.261  1.00  0.00     0.016 A 
ATOM     31  C   UNL A   1      39.206  24.519  28.232  1.00  0.00     0.016 A 
ATOM     32  C   UNL A   1      40.641  26.484  26.826  1.00  0.00     0.010 A 
ATOM     33  C   UNL A   1      39.422  25.775  28.802  1.00  0.00     0.010 A 
ATOM     34  C   UNL A   1      40.162  26.755  28.115  1.00  0.00    -0.014 A 
BRANCH  34  35
ATOM     35  C   UNL A   1      40.568  27.997  28.814  1.00  0.00     0.031 A 
ATOM     36  C   UNL A   1      41.934  28.058  29.441  1.00  0.00     0.074 A 
ATOM     37  C   UNL A   1      39.737  29.052  28.898  1.00  0.00     0.049 A 
ATOM     38  N   UNL A   1      42.475  29.008  30.159  1.00  0.00    -0.248 NA
ATOM     39  C   UNL A   1      42.806  26.891  29.230  1.00  0.00     0.031 C 
ATOM     40  C   UNL A   1      38.407  29.133  28.297  1.00  0.00     0.029 A 
ATOM     41  N   UNL A   1      39.892  30.256  29.539  1.00  0.00    -0.354 N 
ATOM     42  C   UNL A   1      43.743  28.548  30.498  1.00  0.00     0.074 A 
ATOM     43  C   UNL A   1      43.881  27.225  29.927  1.00  0.00     0.031 C 
ATOM     44  C   UNL A   1      37.861  30.322  28.608  1.00  0.00     0.029 A 
ATOM     45  C   UNL A   1      38.785  31.068  29.461  1.00  0.00     0.049 A 
ATOM     46  H   UNL A   1      40.717  30.515  30.009  1.00  0.00     0.167 HD
ATOM     47  C   UNL A   1      44.707  29.172  31.216  1.00  0.00     0.031 A 
ATOM     48  C   UNL A   1      38.536  32.263  30.035  1.00  0.00     0.031 A 
ATOM     49  C   UNL A   1      44.558  30.480  31.798  1.00  0.00     0.049 A 
ATOM     50  C   UNL A   1      39.594  32.903  30.898  1.00  0.00     0.074 A 
ATOM     51  C   UNL A   1      45.482  31.203  32.532  1.00  0.00     0.029 A 
ATOM     52  N   UNL A   1      43.411  31.256  31.722  1.00  0.00    -0.354 N 
ATOM     53  N   UNL A   1      40.798  32.470  31.189  1.00  0.00    -0.248 NA
ATOM     54  C   UNL A   1      39.260  34.200  31.507  1.00  0.00     0.031 C 
ATOM     55  C   UNL A   1      44.873  32.389  32.953  1.00  0.00     0.029 A 
ATOM     56  C   UNL A   1      43.594  32.437  32.421  1.00  0.00     0.049 A 
ATOM     57  H   UNL A   1      42.590  31.004  31.243  1.00  0.00     0.167 HD
ATOM     58  C   UNL A   1      41.375  33.454  31.986  1.00  0.00     0.074 A 
ATOM     59  C   UNL A   1      40.393  34.509  32.124  1.00  0.00     0.031 C 
ATOM     60  C   UNL A   1      42.609  33.483  32.549  1.00  0.00     0.031 A 
BRANCH  47  61
ATOM     61  C   UNL A   1      45.994  28.426  31.447  1.00  0.00    -0.014 A 
ATOM     62  C   UNL A   1      47.073  28.534  30.551  1.00  0.00     0.010 A 
ATOM     63  C   UNL A   1      46.140  27.633  32.601  1.00  0.00     0.010 A 
ATOM     64  C   UNL A   1      48.259  27.831  30.784  1.00  0.00     0.020 A 
ATOM     65  C   UNL A   1      47.335  26.954  32.853  1.00  0.00     0.020 A 
ATOM     66  C   UNL A   1      48.381  27.044  31.933  1.00  0.00     0.054 A 
BRANCH  66  67
ATOM     67  S   UNL A   1      49.939  26.162  32.222  1.00  0.00     0.124 S 
ATOM     68  O   UNL A   1      49.764  24.966  31.402  1.00  0.00    -0.237 OA
ATOM     69  O   UNL A   1      50.939  27.113  31.739  1.00  0.00    -0.237 OA
ATOM     70  O   UNL A   1      49.947  25.933  33.664  1.00  0.00    -0.744 OA
ENDBRANCH  66  67
ENDBRANCH  47  61
BRANCH  48  71
ATOM     71  C   UNL A   1      37.218  32.927  29.830  1.00  0.00    -0.014 A 
ATOM     72  C   UNL A   1      36.218  32.859  30.815  1.00  0.00     0.010 A 
ATOM     73  C   UNL A   1      36.955  33.629  28.638  1.00  0.00     0.010 A 
ATOM     74  C   UNL A   1      34.975  33.465  30.607  1.00  0.00     0.020 A 
ATOM     75  C   UNL A   1      35.724  34.260  28.439  1.00  0.00     0.020 A 
ATOM     76  C   UNL A   1      34.736  34.164  29.420  1.00  0.00     0.054 A 
BRANCH  76  77
ATOM     77  S   UNL A   1      33.133  34.983  29.194  1.00  0.00     0.124 S 
ATOM     78  O   UNL A   1      32.546  34.874  30.525  1.00  0.00    -0.237 OA
ATOM     79  O   UNL A   1      33.522  36.329  28.781  1.00  0.00    -0.237 OA
ATOM     80  O   UNL A   1      32.485  34.184  28.157  1.00  0.00    -0.744 OA
ENDBRANCH  76  77
ENDBRANCH  48  71
BRANCH  60  81
ATOM     81  C   UNL A   1      42.995  34.712  33.331  1.00  0.00    -0.014 A 
ATOM     82  C   UNL A   1      42.855  34.767  34.729  1.00  0.00     0.010 A 
ATOM     83  C   UNL A   1      43.572  35.805  32.658  1.00  0.00     0.010 A 
ATOM     84  C   UNL A   1      43.260  35.904  35.435  1.00  0.00     0.020 A 
ATOM     85  C   UNL A   1      44.006  36.931  33.363  1.00  0.00     0.020 A 
ATOM     86  C   UNL A   1      43.835  36.978  34.748  1.00  0.00     0.054 A 
BRANCH  86  87
ATOM     87  S   UNL A   1      44.399  38.421  35.693  1.00  0.00     0.124 S 
ATOM     88  O   UNL A   1      45.851  38.289  35.612  1.00  0.00    -0.237 OA
ATOM     89  O   UNL A   1      43.828  39.537  34.945  1.00  0.00    -0.237 OA
ATOM     90  O   UNL A   1      43.829  38.212  37.022  1.00  0.00    -0.744 OA
ENDBRANCH  86  87
ENDBRANCH  60  81
ENDBRANCH  34  35
ENDBRANCH  27  29
ENDBRANCH  26  27
ENDBRANCH  25  26
ENDBRANCH  24  25
ENDBRANCH  23  24
ENDBRANCH   1  23
TORSDOF 21
ENDMDL
