MODEL 1
REMARK VINA RESULT:      -8.9      0.000      0.000
REMARK SMILES CC(C)[C@H](Sc1ccncc1)C(=O)OCCOCCOCCOC(=O)c1ccc(-c2c3nc(c(-c4ccc(S(=O)(=O)[O-])cc4)c4ccc([nH]4)c(-c4ccc(S(=O)(=O)[O-])cc4)c4nc(c(-c5ccc(S(=O)(=O)[O-])cc5)c5ccc2[nH]5)C=C4)C=C3)cc1
REMARK SMILES IDX 19 1 18 2 17 3 16 4 15 5 14 6 12 7 13 8 4 9 2 10 1 11 3 12
REMARK SMILES IDX 5 13 6 14 7 15 11 16 8 17 10 18 9 19 20 20 21 21 22 22 23 23
REMARK SMILES IDX 24 24 25 25 26 26 27 27 85 28 28 29 84 30 29 31 30 32 31 33
REMARK SMILES IDX 78 34 32 35 83 36 77 37 79 38 33 39 82 40 76 41 75 42 34 44
REMARK SMILES IDX 64 45 45 46 63 47 46 48 49 49 62 50 80 51 47 52 48 53 61 55
REMARK SMILES IDX 81 56 50 57 35 58 36 59 44 60 37 61 43 62 38 63 39 64 40 65
REMARK SMILES IDX 41 66 42 67 65 68 66 69 74 70 67 71 73 72 68 73 69 74 70 75
REMARK SMILES IDX 71 76 72 77 51 78 52 79 60 80 53 81 59 82 54 83 55 84 56 85
REMARK SMILES IDX 57 86 58 87
REMARK H PARENT 79 43 49 54
REMARK Flexibility Score: inf
ROOT
ATOM      1  C   UNL A   1      31.561  28.969  23.647  1.00  0.00     0.188 C 
ENDROOT
BRANCH   1   2
ATOM      2  C   UNL A   1      30.662  27.848  23.115  1.00  0.00     0.188 C 
BRANCH   2   3
ATOM      3  O   UNL A   1      31.149  26.962  22.112  1.00  0.00    -0.376 OA
BRANCH   3   4
ATOM      4  C   UNL A   1      31.479  25.621  22.434  1.00  0.00     0.202 C 
BRANCH   4   5
ATOM      5  C   UNL A   1      32.914  25.139  22.171  1.00  0.00     0.261 C 
BRANCH   5   6
ATOM      6  O   UNL A   1      33.399  24.032  22.964  1.00  0.00    -0.462 OA
BRANCH   6   7
ATOM      7  C   UNL A   1      34.046  24.371  24.112  1.00  0.00     0.319 C 
ATOM      8  O   UNL A   1      34.363  25.528  24.384  1.00  0.00    -0.251 OA
BRANCH   7   9
ATOM      9  C   UNL A   1      34.418  23.215  25.055  1.00  0.00     0.164 C 
BRANCH   9  10
ATOM     10  C   UNL A   1      35.376  22.210  24.364  1.00  0.00     0.007 C 
ATOM     11  C   UNL A   1      36.325  22.932  23.396  1.00  0.00     0.009 C 
ATOM     12  C   UNL A   1      36.238  21.418  25.362  1.00  0.00     0.009 C 
ENDBRANCH   9  10
BRANCH   9  13
ATOM     13  S   UNL A   1      32.965  22.335  25.795  1.00  0.00    -0.110 SA
BRANCH  13  14
ATOM     14  C   UNL A   1      32.750  20.832  24.830  1.00  0.00     0.011 A 
ATOM     15  C   UNL A   1      32.338  20.757  23.500  1.00  0.00     0.035 A 
ATOM     16  C   UNL A   1      33.005  19.628  25.500  1.00  0.00     0.035 A 
ATOM     17  C   UNL A   1      32.227  19.510  22.899  1.00  0.00     0.112 A 
ATOM     18  C   UNL A   1      32.864  18.428  24.818  1.00  0.00     0.112 A 
ATOM     19  N   UNL A   1      32.492  18.348  23.526  1.00  0.00    -0.265 NA
ENDBRANCH  13  14
ENDBRANCH   9  13
ENDBRANCH   7   9
ENDBRANCH   6   7
ENDBRANCH   5   6
ENDBRANCH   4   5
ENDBRANCH   3   4
ENDBRANCH   2   3
ENDBRANCH   1   2
BRANCH   1  20
ATOM     20  O   UNL A   1      32.304  28.623  24.798  1.00  0.00    -0.376 OA
BRANCH  20  21
ATOM     21  C   UNL A   1      33.134  29.630  25.344  1.00  0.00     0.202 C 
BRANCH  21  22
ATOM     22  C   UNL A   1      33.803  29.241  26.668  1.00  0.00     0.261 C 
BRANCH  22  23
ATOM     23  O   UNL A   1      33.632  30.182  27.745  1.00  0.00    -0.460 OA
BRANCH  23  24
ATOM     24  C   UNL A   1      34.628  31.067  27.946  1.00  0.00     0.338 C 
ATOM     25  O   UNL A   1      34.500  32.273  28.158  1.00  0.00    -0.246 OA
BRANCH  24  26
ATOM     26  C   UNL A   1      35.895  30.325  28.093  1.00  0.00     0.060 A 
ATOM     27  C   UNL A   1      36.128  29.621  29.280  1.00  0.00     0.016 A 
ATOM     28  C   UNL A   1      36.862  30.333  27.084  1.00  0.00     0.016 A 
ATOM     29  C   UNL A   1      37.341  28.963  29.484  1.00  0.00     0.010 A 
ATOM     30  C   UNL A   1      38.088  29.687  27.299  1.00  0.00     0.010 A 
ATOM     31  C   UNL A   1      38.348  29.030  28.516  1.00  0.00    -0.014 A 
BRANCH  31  32
ATOM     32  C   UNL A   1      39.729  28.623  28.883  1.00  0.00     0.031 A 
ATOM     33  C   UNL A   1      40.576  29.601  29.655  1.00  0.00     0.074 A 
ATOM     34  C   UNL A   1      40.209  27.394  28.613  1.00  0.00     0.049 A 
ATOM     35  N   UNL A   1      41.821  29.501  30.044  1.00  0.00    -0.248 NA
ATOM     36  C   UNL A   1      39.925  30.865  30.042  1.00  0.00     0.031 C 
ATOM     37  C   UNL A   1      39.471  26.320  27.950  1.00  0.00     0.029 A 
ATOM     38  N   UNL A   1      41.441  26.842  28.875  1.00  0.00    -0.354 N 
ATOM     39  C   UNL A   1      42.109  30.693  30.698  1.00  0.00     0.074 A 
ATOM     40  C   UNL A   1      40.917  31.510  30.636  1.00  0.00     0.031 C 
ATOM     41  C   UNL A   1      40.266  25.238  27.858  1.00  0.00     0.029 A 
ATOM     42  C   UNL A   1      41.581  25.555  28.415  1.00  0.00     0.049 A 
ATOM     43  H   UNL A   1      42.156  27.326  29.349  1.00  0.00     0.167 HD
ATOM     44  C   UNL A   1      43.259  31.077  31.301  1.00  0.00     0.031 A 
ATOM     45  C   UNL A   1      42.653  24.735  28.420  1.00  0.00     0.031 A 
ATOM     46  C   UNL A   1      44.445  30.266  31.370  1.00  0.00     0.049 A 
ATOM     47  C   UNL A   1      43.951  25.214  29.025  1.00  0.00     0.074 A 
ATOM     48  C   UNL A   1      45.662  30.570  31.953  1.00  0.00     0.029 A 
ATOM     49  N   UNL A   1      44.561  28.989  30.845  1.00  0.00    -0.354 N 
ATOM     50  N   UNL A   1      44.216  26.355  29.616  1.00  0.00    -0.248 NA
ATOM     51  C   UNL A   1      45.092  24.288  28.968  1.00  0.00     0.031 C 
ATOM     52  C   UNL A   1      46.532  29.498  31.731  1.00  0.00     0.029 A 
ATOM     53  C   UNL A   1      45.836  28.500  31.070  1.00  0.00     0.049 A 
ATOM     54  H   UNL A   1      43.843  28.502  30.379  1.00  0.00     0.167 HD
ATOM     55  C   UNL A   1      45.545  26.272  30.024  1.00  0.00     0.074 A 
ATOM     56  C   UNL A   1      46.022  24.964  29.628  1.00  0.00     0.031 C 
ATOM     57  C   UNL A   1      46.301  27.195  30.671  1.00  0.00     0.031 A 
BRANCH  44  58
ATOM     58  C   UNL A   1      43.302  32.462  31.890  1.00  0.00    -0.014 A 
ATOM     59  C   UNL A   1      42.792  32.732  33.173  1.00  0.00     0.010 A 
ATOM     60  C   UNL A   1      43.881  33.509  31.149  1.00  0.00     0.010 A 
ATOM     61  C   UNL A   1      42.825  34.032  33.686  1.00  0.00     0.020 A 
ATOM     62  C   UNL A   1      43.942  34.803  31.671  1.00  0.00     0.020 A 
ATOM     63  C   UNL A   1      43.397  35.060  32.931  1.00  0.00     0.054 A 
BRANCH  63  64
ATOM     64  S   UNL A   1      43.441  36.734  33.626  1.00  0.00     0.124 S 
ATOM     65  O   UNL A   1      43.428  37.561  32.422  1.00  0.00    -0.237 OA
ATOM     66  O   UNL A   1      42.223  36.779  34.431  1.00  0.00    -0.237 OA
ATOM     67  O   UNL A   1      44.688  36.763  34.387  1.00  0.00    -0.744 OA
ENDBRANCH  63  64
ENDBRANCH  44  58
BRANCH  45  68
ATOM     68  C   UNL A   1      42.565  23.382  27.800  1.00  0.00    -0.014 A 
ATOM     69  C   UNL A   1      42.949  23.174  26.464  1.00  0.00     0.010 A 
ATOM     70  C   UNL A   1      42.074  22.294  28.545  1.00  0.00     0.010 A 
ATOM     71  C   UNL A   1      42.829  21.908  25.880  1.00  0.00     0.020 A 
ATOM     72  C   UNL A   1      41.980  21.021  27.975  1.00  0.00     0.020 A 
ATOM     73  C   UNL A   1      42.349  20.838  26.641  1.00  0.00     0.054 A 
BRANCH  73  74
ATOM     74  S   UNL A   1      42.251  19.194  25.880  1.00  0.00     0.124 S 
ATOM     75  O   UNL A   1      40.819  19.054  25.641  1.00  0.00    -0.237 OA
ATOM     76  O   UNL A   1      43.080  19.350  24.686  1.00  0.00    -0.237 OA
ATOM     77  O   UNL A   1      42.806  18.310  26.903  1.00  0.00    -0.744 OA
ENDBRANCH  73  74
ENDBRANCH  45  68
BRANCH  57  78
ATOM     78  C   UNL A   1      47.712  26.809  31.035  1.00  0.00    -0.014 A 
ATOM     79  C   UNL A   1      48.007  26.158  32.246  1.00  0.00     0.010 A 
ATOM     80  C   UNL A   1      48.756  27.067  30.127  1.00  0.00     0.010 A 
ATOM     81  C   UNL A   1      49.324  25.810  32.561  1.00  0.00     0.020 A 
ATOM     82  C   UNL A   1      50.069  26.695  30.424  1.00  0.00     0.020 A 
ATOM     83  C   UNL A   1      50.349  26.085  31.648  1.00  0.00     0.054 A 
BRANCH  83  84
ATOM     84  S   UNL A   1      52.047  25.606  32.068  1.00  0.00     0.124 S 
ATOM     85  O   UNL A   1      52.775  25.977  30.858  1.00  0.00    -0.237 OA
ATOM     86  O   UNL A   1      52.330  26.421  33.246  1.00  0.00    -0.237 OA
ATOM     87  O   UNL A   1      51.950  24.169  32.320  1.00  0.00    -0.744 OA
ENDBRANCH  83  84
ENDBRANCH  57  78
ENDBRANCH  31  32
ENDBRANCH  24  26
ENDBRANCH  23  24
ENDBRANCH  22  23
ENDBRANCH  21  22
ENDBRANCH  20  21
ENDBRANCH   1  20
TORSDOF 23
ENDMDL
MODEL 2
REMARK VINA RESULT:      -8.8      4.711     10.596
REMARK SMILES CC(C)[C@H](Sc1ccncc1)C(=O)OCCOCCOCCOC(=O)c1ccc(-c2c3nc(c(-c4ccc(S(=O)(=O)[O-])cc4)c4ccc([nH]4)c(-c4ccc(S(=O)(=O)[O-])cc4)c4nc(c(-c5ccc(S(=O)(=O)[O-])cc5)c5ccc2[nH]5)C=C4)C=C3)cc1
REMARK SMILES IDX 19 1 18 2 17 3 16 4 15 5 14 6 12 7 13 8 4 9 2 10 1 11 3 12
REMARK SMILES IDX 5 13 6 14 7 15 11 16 8 17 10 18 9 19 20 20 21 21 22 22 23 23
REMARK SMILES IDX 24 24 25 25 26 26 27 27 85 28 28 29 84 30 29 31 30 32 31 33
REMARK SMILES IDX 78 34 32 35 83 36 77 37 79 38 33 39 82 40 76 41 75 42 34 44
REMARK SMILES IDX 64 45 45 46 63 47 46 48 49 49 62 50 80 51 47 52 48 53 61 55
REMARK SMILES IDX 81 56 50 57 35 58 36 59 44 60 37 61 43 62 38 63 39 64 40 65
REMARK SMILES IDX 41 66 42 67 65 68 66 69 74 70 67 71 73 72 68 73 69 74 70 75
REMARK SMILES IDX 71 76 72 77 51 78 52 79 60 80 53 81 59 82 54 83 55 84 56 85
REMARK SMILES IDX 57 86 58 87
REMARK H PARENT 79 43 49 54
REMARK Flexibility Score: inf
ROOT
ATOM      1  C   UNL A   1      37.324  22.170  25.563  1.00  0.00     0.188 C 
ENDROOT
BRANCH   1   2
ATOM      2  C   UNL A   1      36.353  21.450  24.621  1.00  0.00     0.188 C 
BRANCH   2   3
ATOM      3  O   UNL A   1      35.227  20.759  25.153  1.00  0.00    -0.376 OA
BRANCH   3   4
ATOM      4  C   UNL A   1      33.914  21.252  24.941  1.00  0.00     0.202 C 
BRANCH   4   5
ATOM      5  C   UNL A   1      33.313  21.146  23.532  1.00  0.00     0.261 C 
BRANCH   5   6
ATOM      6  O   UNL A   1      32.602  22.298  23.024  1.00  0.00    -0.462 OA
BRANCH   6   7
ATOM      7  C   UNL A   1      33.379  23.346  22.641  1.00  0.00     0.319 C 
ATOM      8  O   UNL A   1      34.468  23.204  22.086  1.00  0.00    -0.251 OA
BRANCH   7   9
ATOM      9  C   UNL A   1      32.853  24.750  22.983  1.00  0.00     0.164 C 
BRANCH   9  10
ATOM     10  C   UNL A   1      33.378  25.809  21.977  1.00  0.00     0.007 C 
ATOM     11  C   UNL A   1      32.517  25.833  20.705  1.00  0.00     0.009 C 
ATOM     12  C   UNL A   1      33.395  27.232  22.559  1.00  0.00     0.009 C 
ENDBRANCH   9  10
BRANCH   9  13
ATOM     13  S   UNL A   1      33.176  25.284  24.727  1.00  0.00    -0.110 SA
BRANCH  13  14
ATOM     14  C   UNL A   1      31.777  24.698  25.694  1.00  0.00     0.011 A 
ATOM     15  C   UNL A   1      31.708  23.498  26.401  1.00  0.00     0.035 A 
ATOM     16  C   UNL A   1      30.649  25.528  25.712  1.00  0.00     0.035 A 
ATOM     17  C   UNL A   1      30.548  23.196  27.104  1.00  0.00     0.112 A 
ATOM     18  C   UNL A   1      29.533  25.142  26.441  1.00  0.00     0.112 A 
ATOM     19  N   UNL A   1      29.466  23.997  27.147  1.00  0.00    -0.265 NA
ENDBRANCH  13  14
ENDBRANCH   9  13
ENDBRANCH   7   9
ENDBRANCH   6   7
ENDBRANCH   5   6
ENDBRANCH   4   5
ENDBRANCH   3   4
ENDBRANCH   2   3
ENDBRANCH   1   2
BRANCH   1  20
ATOM     20  O   UNL A   1      38.558  21.507  25.746  1.00  0.00    -0.376 OA
BRANCH  20  21
ATOM     21  C   UNL A   1      39.572  22.229  26.416  1.00  0.00     0.202 C 
BRANCH  21  22
ATOM     22  C   UNL A   1      39.238  23.707  26.655  1.00  0.00     0.261 C 
BRANCH  22  23
ATOM     23  O   UNL A   1      40.271  24.477  27.299  1.00  0.00    -0.460 OA
BRANCH  23  24
ATOM     24  C   UNL A   1      40.473  25.727  26.839  1.00  0.00     0.338 C 
ATOM     25  O   UNL A   1      40.683  26.049  25.669  1.00  0.00    -0.246 OA
BRANCH  24  26
ATOM     26  C   UNL A   1      40.184  26.682  27.926  1.00  0.00     0.060 A 
ATOM     27  C   UNL A   1      40.768  27.953  27.879  1.00  0.00     0.016 A 
ATOM     28  C   UNL A   1      39.361  26.331  29.000  1.00  0.00     0.016 A 
ATOM     29  C   UNL A   1      40.572  28.860  28.921  1.00  0.00     0.010 A 
ATOM     30  C   UNL A   1      39.181  27.236  30.055  1.00  0.00     0.010 A 
ATOM     31  C   UNL A   1      39.817  28.492  30.038  1.00  0.00    -0.014 A 
BRANCH  31  32
ATOM     32  C   UNL A   1      39.897  29.323  31.268  1.00  0.00     0.031 A 
ATOM     33  C   UNL A   1      41.069  29.110  32.192  1.00  0.00     0.074 A 
ATOM     34  C   UNL A   1      39.006  30.296  31.535  1.00  0.00     0.049 A 
ATOM     35  N   UNL A   1      41.335  29.670  33.344  1.00  0.00    -0.248 NA
ATOM     36  C   UNL A   1      42.080  28.133  31.751  1.00  0.00     0.031 C 
ATOM     37  C   UNL A   1      37.874  30.668  30.688  1.00  0.00     0.029 A 
ATOM     38  N   UNL A   1      38.922  31.156  32.604  1.00  0.00    -0.354 N 
ATOM     39  C   UNL A   1      42.526  29.097  33.775  1.00  0.00     0.074 A 
ATOM     40  C   UNL A   1      42.921  28.133  32.774  1.00  0.00     0.031 C 
ATOM     41  C   UNL A   1      37.210  31.682  31.271  1.00  0.00     0.029 A 
ATOM     42  C   UNL A   1      37.840  32.003  32.550  1.00  0.00     0.049 A 
ATOM     43  H   UNL A   1      39.577  31.165  33.340  1.00  0.00     0.167 HD
ATOM     44  C   UNL A   1      43.234  29.352  34.902  1.00  0.00     0.031 A 
ATOM     45  C   UNL A   1      37.397  32.914  33.442  1.00  0.00     0.031 A 
ATOM     46  C   UNL A   1      42.847  30.314  35.898  1.00  0.00     0.049 A 
ATOM     47  C   UNL A   1      38.156  33.124  34.729  1.00  0.00     0.074 A 
ATOM     48  C   UNL A   1      43.494  30.638  37.078  1.00  0.00     0.029 A 
ATOM     49  N   UNL A   1      41.717  31.113  35.830  1.00  0.00    -0.354 N 
ATOM     50  N   UNL A   1      39.267  32.555  35.137  1.00  0.00    -0.248 NA
ATOM     51  C   UNL A   1      37.602  34.104  35.675  1.00  0.00     0.031 C 
ATOM     52  C   UNL A   1      42.725  31.593  37.750  1.00  0.00     0.029 A 
ATOM     53  C   UNL A   1      41.635  31.912  36.958  1.00  0.00     0.049 A 
ATOM     54  H   UNL A   1      41.067  31.111  35.091  1.00  0.00     0.167 HD
ATOM     55  C   UNL A   1      39.557  33.128  36.372  1.00  0.00     0.074 A 
ATOM     56  C   UNL A   1      38.516  34.099  36.636  1.00  0.00     0.031 C 
ATOM     57  C   UNL A   1      40.594  32.876  37.210  1.00  0.00     0.031 A 
BRANCH  44  58
ATOM     58  C   UNL A   1      44.475  28.533  35.138  1.00  0.00    -0.014 A 
ATOM     59  C   UNL A   1      45.728  28.938  34.645  1.00  0.00     0.010 A 
ATOM     60  C   UNL A   1      44.384  27.343  35.884  1.00  0.00     0.010 A 
ATOM     61  C   UNL A   1      46.861  28.147  34.860  1.00  0.00     0.020 A 
ATOM     62  C   UNL A   1      45.519  26.566  36.126  1.00  0.00     0.020 A 
ATOM     63  C   UNL A   1      46.748  26.964  35.597  1.00  0.00     0.054 A 
BRANCH  63  64
ATOM     64  S   UNL A   1      48.235  25.964  35.875  1.00  0.00     0.124 S 
ATOM     65  O   UNL A   1      48.111  24.942  34.839  1.00  0.00    -0.237 OA
ATOM     66  O   UNL A   1      49.313  26.931  35.678  1.00  0.00    -0.237 OA
ATOM     67  O   UNL A   1      48.079  25.482  37.246  1.00  0.00    -0.744 OA
ENDBRANCH  63  64
ENDBRANCH  44  58
BRANCH  45  68
ATOM     68  C   UNL A   1      36.147  33.680  33.171  1.00  0.00    -0.014 A 
ATOM     69  C   UNL A   1      34.887  33.138  33.478  1.00  0.00     0.010 A 
ATOM     70  C   UNL A   1      36.214  34.957  32.582  1.00  0.00     0.010 A 
ATOM     71  C   UNL A   1      33.718  33.849  33.187  1.00  0.00     0.020 A 
ATOM     72  C   UNL A   1      35.050  35.684  32.317  1.00  0.00     0.020 A 
ATOM     73  C   UNL A   1      33.807  35.120  32.612  1.00  0.00     0.054 A 
BRANCH  73  74
ATOM     74  S   UNL A   1      32.281  36.048  32.292  1.00  0.00     0.124 S 
ATOM     75  O   UNL A   1      31.253  35.075  32.645  1.00  0.00    -0.237 OA
ATOM     76  O   UNL A   1      32.411  37.189  33.197  1.00  0.00    -0.237 OA
ATOM     77  O   UNL A   1      32.371  36.377  30.871  1.00  0.00    -0.744 OA
ENDBRANCH  73  74
ENDBRANCH  45  68
BRANCH  57  78
ATOM     78  C   UNL A   1      40.684  33.694  38.474  1.00  0.00    -0.014 A 
ATOM     79  C   UNL A   1      39.947  33.355  39.622  1.00  0.00     0.010 A 
ATOM     80  C   UNL A   1      41.556  34.797  38.523  1.00  0.00     0.010 A 
ATOM     81  C   UNL A   1      40.049  34.130  40.782  1.00  0.00     0.020 A 
ATOM     82  C   UNL A   1      41.684  35.556  39.689  1.00  0.00     0.020 A 
ATOM     83  C   UNL A   1      40.914  35.229  40.807  1.00  0.00     0.054 A 
BRANCH  83  84
ATOM     84  S   UNL A   1      41.046  36.206  42.329  1.00  0.00     0.124 S 
ATOM     85  O   UNL A   1      41.385  37.530  41.812  1.00  0.00    -0.237 OA
ATOM     86  O   UNL A   1      39.711  36.082  42.908  1.00  0.00    -0.237 OA
ATOM     87  O   UNL A   1      42.109  35.540  43.078  1.00  0.00    -0.744 OA
ENDBRANCH  83  84
ENDBRANCH  57  78
ENDBRANCH  31  32
ENDBRANCH  24  26
ENDBRANCH  23  24
ENDBRANCH  22  23
ENDBRANCH  21  22
ENDBRANCH  20  21
ENDBRANCH   1  20
TORSDOF 23
ENDMDL
MODEL 3
REMARK VINA RESULT:      -8.8      4.898      9.884
REMARK SMILES CC(C)[C@H](Sc1ccncc1)C(=O)OCCOCCOCCOC(=O)c1ccc(-c2c3nc(c(-c4ccc(S(=O)(=O)[O-])cc4)c4ccc([nH]4)c(-c4ccc(S(=O)(=O)[O-])cc4)c4nc(c(-c5ccc(S(=O)(=O)[O-])cc5)c5ccc2[nH]5)C=C4)C=C3)cc1
REMARK SMILES IDX 19 1 18 2 17 3 16 4 15 5 14 6 12 7 13 8 4 9 2 10 1 11 3 12
REMARK SMILES IDX 5 13 6 14 7 15 11 16 8 17 10 18 9 19 20 20 21 21 22 22 23 23
REMARK SMILES IDX 24 24 25 25 26 26 27 27 85 28 28 29 84 30 29 31 30 32 31 33
REMARK SMILES IDX 78 34 32 35 83 36 77 37 79 38 33 39 82 40 76 41 75 42 34 44
REMARK SMILES IDX 64 45 45 46 63 47 46 48 49 49 62 50 80 51 47 52 48 53 61 55
REMARK SMILES IDX 81 56 50 57 35 58 36 59 44 60 37 61 43 62 38 63 39 64 40 65
REMARK SMILES IDX 41 66 42 67 65 68 66 69 74 70 67 71 73 72 68 73 69 74 70 75
REMARK SMILES IDX 71 76 72 77 51 78 52 79 60 80 53 81 59 82 54 83 55 84 56 85
REMARK SMILES IDX 57 86 58 87
REMARK H PARENT 79 43 49 54
REMARK Flexibility Score: inf
ROOT
ATOM      1  C   UNL A   1      37.367  22.252  25.071  1.00  0.00     0.188 C 
ENDROOT
BRANCH   1   2
ATOM      2  C   UNL A   1      36.075  21.428  25.088  1.00  0.00     0.188 C 
BRANCH   2   3
ATOM      3  O   UNL A   1      35.140  21.593  26.149  1.00  0.00    -0.376 OA
BRANCH   3   4
ATOM      4  C   UNL A   1      34.915  22.873  26.718  1.00  0.00     0.202 C 
BRANCH   4   5
ATOM      5  C   UNL A   1      33.610  23.606  26.372  1.00  0.00     0.261 C 
BRANCH   5   6
ATOM      6  O   UNL A   1      32.942  23.233  25.146  1.00  0.00    -0.462 OA
BRANCH   6   7
ATOM      7  C   UNL A   1      33.164  24.054  24.084  1.00  0.00     0.319 C 
ATOM      8  O   UNL A   1      33.907  23.754  23.150  1.00  0.00    -0.251 OA
BRANCH   7   9
ATOM      9  C   UNL A   1      32.471  25.426  24.122  1.00  0.00     0.164 C 
BRANCH   9  10
ATOM     10  C   UNL A   1      31.271  25.478  23.140  1.00  0.00     0.007 C 
ATOM     11  C   UNL A   1      29.980  25.875  23.872  1.00  0.00     0.009 C 
ATOM     12  C   UNL A   1      31.481  26.473  21.987  1.00  0.00     0.009 C 
ENDBRANCH   9  10
BRANCH   9  13
ATOM     13  S   UNL A   1      33.607  26.864  23.848  1.00  0.00    -0.110 SA
BRANCH  13  14
ATOM     14  C   UNL A   1      33.206  28.065  25.126  1.00  0.00     0.011 A 
ATOM     15  C   UNL A   1      33.829  28.189  26.367  1.00  0.00     0.035 A 
ATOM     16  C   UNL A   1      32.149  28.940  24.839  1.00  0.00     0.035 A 
ATOM     17  C   UNL A   1      33.397  29.178  27.241  1.00  0.00     0.112 A 
ATOM     18  C   UNL A   1      31.786  29.896  25.777  1.00  0.00     0.112 A 
ATOM     19  N   UNL A   1      32.399  30.039  26.967  1.00  0.00    -0.265 NA
ENDBRANCH  13  14
ENDBRANCH   9  13
ENDBRANCH   7   9
ENDBRANCH   6   7
ENDBRANCH   5   6
ENDBRANCH   4   5
ENDBRANCH   3   4
ENDBRANCH   2   3
ENDBRANCH   1   2
BRANCH   1  20
ATOM     20  O   UNL A   1      38.479  21.602  25.651  1.00  0.00    -0.376 OA
BRANCH  20  21
ATOM     21  C   UNL A   1      39.360  22.408  26.409  1.00  0.00     0.202 C 
BRANCH  21  22
ATOM     22  C   UNL A   1      38.892  23.858  26.580  1.00  0.00     0.261 C 
BRANCH  22  23
ATOM     23  O   UNL A   1      39.584  24.614  27.593  1.00  0.00    -0.460 OA
BRANCH  23  24
ATOM     24  C   UNL A   1      40.104  25.799  27.220  1.00  0.00     0.338 C 
ATOM     25  O   UNL A   1      40.452  26.117  26.081  1.00  0.00    -0.246 OA
BRANCH  24  26
ATOM     26  C   UNL A   1      39.987  26.742  28.349  1.00  0.00     0.060 A 
ATOM     27  C   UNL A   1      40.801  27.880  28.361  1.00  0.00     0.016 A 
ATOM     28  C   UNL A   1      39.101  26.506  29.403  1.00  0.00     0.016 A 
ATOM     29  C   UNL A   1      40.768  28.761  29.443  1.00  0.00     0.010 A 
ATOM     30  C   UNL A   1      39.082  27.381  30.498  1.00  0.00     0.010 A 
ATOM     31  C   UNL A   1      39.944  28.493  30.540  1.00  0.00    -0.014 A 
BRANCH  31  32
ATOM     32  C   UNL A   1      40.165  29.238  31.807  1.00  0.00     0.031 A 
ATOM     33  C   UNL A   1      39.176  30.311  32.182  1.00  0.00     0.074 A 
ATOM     34  C   UNL A   1      41.168  28.932  32.652  1.00  0.00     0.049 A 
ATOM     35  N   UNL A   1      39.180  31.130  33.203  1.00  0.00    -0.248 NA
ATOM     36  C   UNL A   1      38.024  30.481  31.280  1.00  0.00     0.031 C 
ATOM     37  C   UNL A   1      42.146  27.862  32.459  1.00  0.00     0.029 A 
ATOM     38  N   UNL A   1      41.523  29.497  33.853  1.00  0.00    -0.354 N 
ATOM     39  C   UNL A   1      38.049  31.924  33.053  1.00  0.00     0.074 A 
ATOM     40  C   UNL A   1      37.394  31.506  31.834  1.00  0.00     0.031 C 
ATOM     41  C   UNL A   1      42.990  27.850  33.506  1.00  0.00     0.029 A 
ATOM     42  C   UNL A   1      42.641  28.935  34.422  1.00  0.00     0.049 A 
ATOM     43  H   UNL A   1      41.023  30.237  34.268  1.00  0.00     0.167 HD
ATOM     44  C   UNL A   1      37.591  32.913  33.858  1.00  0.00     0.031 A 
ATOM     45  C   UNL A   1      43.319  29.273  35.540  1.00  0.00     0.031 A 
ATOM     46  C   UNL A   1      38.237  33.329  35.074  1.00  0.00     0.049 A 
ATOM     47  C   UNL A   1      42.837  30.431  36.379  1.00  0.00     0.074 A 
ATOM     48  C   UNL A   1      37.854  34.326  35.953  1.00  0.00     0.029 A 
ATOM     49  N   UNL A   1      39.396  32.768  35.586  1.00  0.00    -0.354 N 
ATOM     50  N   UNL A   1      41.781  31.191  36.210  1.00  0.00    -0.248 NA
ATOM     51  C   UNL A   1      43.639  30.771  37.564  1.00  0.00     0.031 C 
ATOM     52  C   UNL A   1      38.812  34.405  36.968  1.00  0.00     0.029 A 
ATOM     53  C   UNL A   1      39.755  33.413  36.757  1.00  0.00     0.049 A 
ATOM     54  H   UNL A   1      39.892  32.022  35.176  1.00  0.00     0.167 HD
ATOM     55  C   UNL A   1      41.778  32.081  37.281  1.00  0.00     0.074 A 
ATOM     56  C   UNL A   1      42.926  31.753  38.100  1.00  0.00     0.031 C 
ATOM     57  C   UNL A   1      40.901  33.077  37.564  1.00  0.00     0.031 A 
BRANCH  44  58
ATOM     58  C   UNL A   1      36.354  33.647  33.414  1.00  0.00    -0.014 A 
ATOM     59  C   UNL A   1      36.432  34.853  32.695  1.00  0.00     0.010 A 
ATOM     60  C   UNL A   1      35.089  33.106  33.709  1.00  0.00     0.010 A 
ATOM     61  C   UNL A   1      35.267  35.526  32.315  1.00  0.00     0.020 A 
ATOM     62  C   UNL A   1      33.923  33.760  33.305  1.00  0.00     0.020 A 
ATOM     63  C   UNL A   1      34.019  34.976  32.625  1.00  0.00     0.054 A 
BRANCH  63  64
ATOM     64  S   UNL A   1      32.523  35.860  32.107  1.00  0.00     0.124 S 
ATOM     65  O   UNL A   1      32.664  37.132  32.810  1.00  0.00    -0.237 OA
ATOM     66  O   UNL A   1      32.676  35.925  30.655  1.00  0.00    -0.237 OA
ATOM     67  O   UNL A   1      31.434  35.007  32.577  1.00  0.00    -0.744 OA
ENDBRANCH  63  64
ENDBRANCH  44  58
BRANCH  45  68
ATOM     68  C   UNL A   1      44.553  28.528  35.920  1.00  0.00    -0.014 A 
ATOM     69  C   UNL A   1      44.492  27.427  36.791  1.00  0.00     0.010 A 
ATOM     70  C   UNL A   1      45.806  28.934  35.422  1.00  0.00     0.010 A 
ATOM     71  C   UNL A   1      45.660  26.756  37.171  1.00  0.00     0.020 A 
ATOM     72  C   UNL A   1      46.972  28.249  35.776  1.00  0.00     0.020 A 
ATOM     73  C   UNL A   1      46.893  27.169  36.658  1.00  0.00     0.054 A 
BRANCH  73  74
ATOM     74  S   UNL A   1      48.389  26.253  37.120  1.00  0.00     0.124 S 
ATOM     75  O   UNL A   1      48.575  26.657  38.510  1.00  0.00    -0.237 OA
ATOM     76  O   UNL A   1      47.984  24.864  36.914  1.00  0.00    -0.237 OA
ATOM     77  O   UNL A   1      49.396  26.746  36.185  1.00  0.00    -0.744 OA
ENDBRANCH  73  74
ENDBRANCH  45  68
BRANCH  57  78
ATOM     78  C   UNL A   1      41.119  33.859  38.835  1.00  0.00    -0.014 A 
ATOM     79  C   UNL A   1      41.869  35.048  38.846  1.00  0.00     0.010 A 
ATOM     80  C   UNL A   1      40.525  33.414  40.031  1.00  0.00     0.010 A 
ATOM     81  C   UNL A   1      42.056  35.755  40.039  1.00  0.00     0.020 A 
ATOM     82  C   UNL A   1      40.685  34.133  41.218  1.00  0.00     0.020 A 
ATOM     83  C   UNL A   1      41.466  35.290  41.219  1.00  0.00     0.054 A 
BRANCH  83  84
ATOM     84  S   UNL A   1      41.705  36.235  42.748  1.00  0.00     0.124 S 
ATOM     85  O   UNL A   1      42.443  35.287  43.578  1.00  0.00    -0.237 OA
ATOM     86  O   UNL A   1      42.464  37.397  42.294  1.00  0.00    -0.237 OA
ATOM     87  O   UNL A   1      40.343  36.524  43.194  1.00  0.00    -0.744 OA
ENDBRANCH  83  84
ENDBRANCH  57  78
ENDBRANCH  31  32
ENDBRANCH  24  26
ENDBRANCH  23  24
ENDBRANCH  22  23
ENDBRANCH  21  22
ENDBRANCH  20  21
ENDBRANCH   1  20
TORSDOF 23
ENDMDL
