MODEL 1
REMARK VINA RESULT:     -12.1      0.000      0.000
REMARK SMILES COc1cc2ccccc2cc1C(=O)Nc1cc(C(=O)OCCOCCOCCOC(=O)c2ccc(-c3c4nc(c(-c5ccc(S(=O)(=O)[O-])cc5)c5ccc([nH]5)c(-c5ccc(S(=O)(=O)[O-])cc5)c5nc(c(-c6ccc(S(=O)(=O)[O-])cc6)c6ccc3[nH]6)C=C5)C=C4)cc2)ccc1C
REMARK SMILES IDX 25 1 24 2 23 3 22 4 21 5 19 6 20 7 18 8 16 9 17 10 95 11
REMARK SMILES IDX 94 12 96 13 93 14 15 15 13 16 14 17 12 19 3 20 4 21 5 22
REMARK SMILES IDX 11 23 6 24 10 25 7 26 9 27 8 28 2 29 1 30 26 31 27 32 28 33
REMARK SMILES IDX 29 34 30 35 31 36 32 37 33 38 34 39 92 40 35 41 91 42 36 43
REMARK SMILES IDX 37 44 38 45 85 46 39 47 90 48 84 49 86 50 40 51 89 52 83 53
REMARK SMILES IDX 82 54 41 56 71 57 52 58 70 59 53 60 56 61 69 62 87 63 54 64
REMARK SMILES IDX 55 65 68 67 88 68 57 69 42 70 43 71 51 72 44 73 50 74 45 75
REMARK SMILES IDX 46 76 47 77 48 78 49 79 72 80 73 81 81 82 74 83 80 84 75 85
REMARK SMILES IDX 76 86 77 87 78 88 79 89 58 90 59 91 67 92 60 93 66 94 61 95
REMARK SMILES IDX 62 96 63 97 64 98 65 99
REMARK H PARENT 15 18 86 55 56 66
REMARK Flexibility Score: inf
ROOT
ATOM      1  C   UNL A   1      41.376  19.755  26.469  1.00  0.00     0.188 C 
ENDROOT
BRANCH   1   2
ATOM      2  O   UNL A   1      40.361  19.321  25.534  1.00  0.00    -0.376 OA
BRANCH   2   3
ATOM      3  C   UNL A   1      38.959  19.658  25.478  1.00  0.00     0.202 C 
BRANCH   3   4
ATOM      4  C   UNL A   1      38.195  21.244  25.395  1.00  0.00     0.261 C 
BRANCH   4   5
ATOM      5  O   UNL A   1      36.721  21.807  25.706  1.00  0.00    -0.460 OA
BRANCH   5   6
ATOM      6  C   UNL A   1      35.893  22.783  25.178  1.00  0.00     0.338 C 
ATOM      7  O   UNL A   1      36.029  23.997  25.140  1.00  0.00    -0.246 OA
BRANCH   6   8
ATOM      8  C   UNL A   1      34.646  22.517  24.456  1.00  0.00     0.062 A 
ATOM      9  C   UNL A   1      32.277  22.649  24.759  1.00  0.00     0.045 A 
ATOM     10  C   UNL A   1      33.541  22.276  25.236  1.00  0.00     0.042 A 
ATOM     11  C   UNL A   1      32.069  23.108  23.437  1.00  0.00    -0.027 A 
ATOM     12  C   UNL A   1      33.195  23.386  22.664  1.00  0.00     0.006 A 
ATOM     13  C   UNL A   1      30.733  23.543  22.901  1.00  0.00     0.046 C 
ATOM     14  C   UNL A   1      34.463  23.126  23.182  1.00  0.00     0.016 A 
BRANCH   9  15
ATOM     15  N   UNL A   1      31.221  22.669  25.672  1.00  0.00    -0.322 N 
ATOM     16  C   UNL A   1      30.728  23.759  26.359  1.00  0.00     0.259 C 
ATOM     17  O   UNL A   1      30.190  23.555  27.450  1.00  0.00    -0.269 OA
ATOM     18  H   UNL A   1      30.780  21.807  25.846  1.00  0.00     0.170 HD
BRANCH  16  19
ATOM     19  C   UNL A   1      30.703  25.156  25.790  1.00  0.00     0.082 A 
ATOM     20  C   UNL A   1      31.811  26.009  25.655  1.00  0.00     0.132 A 
ATOM     21  C   UNL A   1      31.715  27.204  24.922  1.00  0.00     0.056 A 
ATOM     22  C   UNL A   1      30.534  27.553  24.257  1.00  0.00    -0.015 A 
ATOM     23  C   UNL A   1      29.499  25.545  25.173  1.00  0.00     0.026 A 
ATOM     24  C   UNL A   1      30.453  28.710  23.463  1.00  0.00     0.009 A 
ATOM     25  C   UNL A   1      29.403  26.722  24.402  1.00  0.00    -0.017 A 
ATOM     26  C   UNL A   1      29.263  29.044  22.819  1.00  0.00     0.001 A 
ATOM     27  C   UNL A   1      28.210  27.081  23.756  1.00  0.00     0.009 A 
ATOM     28  C   UNL A   1      28.144  28.230  22.965  1.00  0.00     0.001 A 
BRANCH  20  29
ATOM     29  O   UNL A   1      33.001  25.763  26.282  1.00  0.00    -0.496 OA
ATOM     30  C   UNL A   1      34.099  26.386  25.624  1.00  0.00     0.278 C 
ENDBRANCH  20  29
ENDBRANCH  16  19
ENDBRANCH   9  15
ENDBRANCH   6   8
ENDBRANCH   5   6
ENDBRANCH   4   5
ENDBRANCH   3   4
ENDBRANCH   2   3
ENDBRANCH   1   2
BRANCH   1  31
ATOM     31  C   UNL A   1      42.546  20.713  26.184  1.00  0.00     0.188 C 
BRANCH  31  32
ATOM     32  O   UNL A   1      42.167  21.847  25.429  1.00  0.00    -0.376 OA
BRANCH  32  33
ATOM     33  C   UNL A   1      43.138  22.878  25.326  1.00  0.00     0.202 C 
BRANCH  33  34
ATOM     34  C   UNL A   1      42.930  24.125  26.219  1.00  0.00     0.261 C 
BRANCH  34  35
ATOM     35  O   UNL A   1      41.544  24.535  26.351  1.00  0.00    -0.460 OA
BRANCH  35  36
ATOM     36  C   UNL A   1      41.257  25.897  26.347  1.00  0.00     0.338 C 
ATOM     37  O   UNL A   1      41.167  26.531  25.342  1.00  0.00    -0.246 OA
BRANCH  36  38
ATOM     38  C   UNL A   1      40.876  26.361  27.730  1.00  0.00     0.060 A 
ATOM     39  C   UNL A   1      39.679  26.187  28.428  1.00  0.00     0.016 A 
ATOM     40  C   UNL A   1      41.781  27.143  28.346  1.00  0.00     0.016 A 
ATOM     41  C   UNL A   1      39.351  26.957  29.637  1.00  0.00     0.010 A 
ATOM     42  C   UNL A   1      41.321  27.976  29.366  1.00  0.00     0.010 A 
ATOM     43  C   UNL A   1      40.169  27.960  30.158  1.00  0.00    -0.014 A 
BRANCH  43  44
ATOM     44  C   UNL A   1      39.888  29.037  31.371  1.00  0.00     0.031 A 
ATOM     45  C   UNL A   1      38.970  30.379  31.459  1.00  0.00     0.074 A 
ATOM     46  C   UNL A   1      40.377  28.741  32.591  1.00  0.00     0.049 A 
ATOM     47  N   UNL A   1      37.982  30.613  32.313  1.00  0.00    -0.248 NA
ATOM     48  C   UNL A   1      39.137  31.598  30.620  1.00  0.00     0.031 C 
ATOM     49  C   UNL A   1      40.113  29.407  33.868  1.00  0.00     0.029 A 
ATOM     50  N   UNL A   1      41.408  27.861  32.877  1.00  0.00    -0.354 N 
ATOM     51  C   UNL A   1      37.392  31.858  32.026  1.00  0.00     0.074 A 
ATOM     52  C   UNL A   1      38.005  32.279  30.781  1.00  0.00     0.031 C 
ATOM     53  C   UNL A   1      41.123  29.141  34.709  1.00  0.00     0.029 A 
ATOM     54  C   UNL A   1      42.119  28.400  33.954  1.00  0.00     0.049 A 
ATOM     55  H   UNL A   1      41.603  27.016  32.411  1.00  0.00     0.167 HD
ATOM     56  C   UNL A   1      37.225  32.914  32.884  1.00  0.00     0.031 A 
ATOM     57  C   UNL A   1      43.385  28.843  33.709  1.00  0.00     0.031 A 
ATOM     58  C   UNL A   1      38.376  33.140  33.744  1.00  0.00     0.049 A 
ATOM     59  C   UNL A   1      43.460  30.353  33.755  1.00  0.00     0.074 A 
ATOM     60  C   UNL A   1      38.609  32.971  35.091  1.00  0.00     0.029 A 
ATOM     61  N   UNL A   1      39.614  33.465  33.171  1.00  0.00    -0.354 N 
ATOM     62  N   UNL A   1      42.448  31.169  33.592  1.00  0.00    -0.248 NA
ATOM     63  C   UNL A   1      44.699  31.045  34.081  1.00  0.00     0.031 C 
ATOM     64  C   UNL A   1      40.015  33.047  35.296  1.00  0.00     0.029 A 
ATOM     65  C   UNL A   1      40.638  33.325  34.088  1.00  0.00     0.049 A 
ATOM     66  H   UNL A   1      39.738  33.755  32.238  1.00  0.00     0.167 HD
ATOM     67  C   UNL A   1      42.868  32.456  33.799  1.00  0.00     0.074 A 
ATOM     68  C   UNL A   1      44.284  32.321  34.110  1.00  0.00     0.031 C 
ATOM     69  C   UNL A   1      42.048  33.551  33.753  1.00  0.00     0.031 A 
BRANCH  56  70
ATOM     70  C   UNL A   1      36.079  33.901  32.616  1.00  0.00    -0.014 A 
ATOM     71  C   UNL A   1      35.631  34.811  33.596  1.00  0.00     0.010 A 
ATOM     72  C   UNL A   1      35.361  33.915  31.389  1.00  0.00     0.010 A 
ATOM     73  C   UNL A   1      34.547  35.692  33.358  1.00  0.00     0.020 A 
ATOM     74  C   UNL A   1      34.297  34.802  31.135  1.00  0.00     0.020 A 
ATOM     75  C   UNL A   1      33.887  35.683  32.127  1.00  0.00     0.054 A 
BRANCH  75  76
ATOM     76  S   UNL A   1      32.527  36.853  31.808  1.00  0.00     0.124 S 
ATOM     77  O   UNL A   1      32.273  36.658  30.383  1.00  0.00    -0.237 OA
ATOM     78  O   UNL A   1      31.478  36.380  32.707  1.00  0.00    -0.237 OA
ATOM     79  O   UNL A   1      33.097  38.153  32.162  1.00  0.00    -0.744 OA
ENDBRANCH  75  76
ENDBRANCH  56  70
BRANCH  57  80
ATOM     80  C   UNL A   1      44.165  27.897  32.841  1.00  0.00    -0.014 A 
ATOM     81  C   UNL A   1      44.283  26.572  33.336  1.00  0.00     0.010 A 
ATOM     82  C   UNL A   1      44.426  28.117  31.479  1.00  0.00     0.010 A 
ATOM     83  C   UNL A   1      44.446  25.484  32.479  1.00  0.00     0.020 A 
ATOM     84  C   UNL A   1      44.647  27.018  30.613  1.00  0.00     0.020 A 
ATOM     85  C   UNL A   1      44.579  25.711  31.113  1.00  0.00     0.054 A 
BRANCH  85  86
ATOM     86  S   UNL A   1      44.455  24.258  30.021  1.00  0.00     0.124 S 
ATOM     87  O   UNL A   1      45.499  24.512  29.033  1.00  0.00    -0.237 OA
ATOM     88  O   UNL A   1      44.731  23.160  30.947  1.00  0.00    -0.237 OA
ATOM     89  O   UNL A   1      43.086  24.326  29.521  1.00  0.00    -0.744 OA
ENDBRANCH  85  86
ENDBRANCH  57  80
BRANCH  69  90
ATOM     90  C   UNL A   1      42.597  34.957  33.616  1.00  0.00    -0.014 A 
ATOM     91  C   UNL A   1      42.624  35.875  34.686  1.00  0.00     0.010 A 
ATOM     92  C   UNL A   1      43.187  35.386  32.408  1.00  0.00     0.010 A 
ATOM     93  C   UNL A   1      43.036  37.200  34.517  1.00  0.00     0.020 A 
ATOM     94  C   UNL A   1      43.664  36.696  32.244  1.00  0.00     0.020 A 
ATOM     95  C   UNL A   1      43.531  37.610  33.286  1.00  0.00     0.054 A 
BRANCH  95  96
ATOM     96  S   UNL A   1      44.036  39.337  33.075  1.00  0.00     0.124 S 
ATOM     97  O   UNL A   1      44.433  39.700  34.433  1.00  0.00    -0.237 OA
ATOM     98  O   UNL A   1      45.133  39.242  32.111  1.00  0.00    -0.237 OA
ATOM     99  O   UNL A   1      42.830  39.986  32.573  1.00  0.00    -0.744 OA
ENDBRANCH  95  96
ENDBRANCH  69  90
ENDBRANCH  43  44
ENDBRANCH  36  38
ENDBRANCH  35  36
ENDBRANCH  34  35
ENDBRANCH  33  34
ENDBRANCH  32  33
ENDBRANCH  31  32
ENDBRANCH   1  31
TORSDOF 23
ENDMDL
MODEL 2
REMARK VINA RESULT:     -11.8      3.786     11.155
REMARK SMILES COc1cc2ccccc2cc1C(=O)Nc1cc(C(=O)OCCOCCOCCOC(=O)c2ccc(-c3c4nc(c(-c5ccc(S(=O)(=O)[O-])cc5)c5ccc([nH]5)c(-c5ccc(S(=O)(=O)[O-])cc5)c5nc(c(-c6ccc(S(=O)(=O)[O-])cc6)c6ccc3[nH]6)C=C5)C=C4)cc2)ccc1C
REMARK SMILES IDX 25 1 24 2 23 3 22 4 21 5 19 6 20 7 18 8 16 9 17 10 95 11
REMARK SMILES IDX 94 12 96 13 93 14 15 15 13 16 14 17 12 19 3 20 4 21 5 22
REMARK SMILES IDX 11 23 6 24 10 25 7 26 9 27 8 28 2 29 1 30 26 31 27 32 28 33
REMARK SMILES IDX 29 34 30 35 31 36 32 37 33 38 34 39 92 40 35 41 91 42 36 43
REMARK SMILES IDX 37 44 38 45 85 46 39 47 90 48 84 49 86 50 40 51 89 52 83 53
REMARK SMILES IDX 82 54 41 56 71 57 52 58 70 59 53 60 56 61 69 62 87 63 54 64
REMARK SMILES IDX 55 65 68 67 88 68 57 69 42 70 43 71 51 72 44 73 50 74 45 75
REMARK SMILES IDX 46 76 47 77 48 78 49 79 72 80 73 81 81 82 74 83 80 84 75 85
REMARK SMILES IDX 76 86 77 87 78 88 79 89 58 90 59 91 67 92 60 93 66 94 61 95
REMARK SMILES IDX 62 96 63 97 64 98 65 99
REMARK H PARENT 15 18 86 55 56 66
REMARK Flexibility Score: inf
ROOT
ATOM      1  C   UNL A   1      34.126  23.984  24.552  1.00  0.00     0.188 C 
ENDROOT
BRANCH   1   2
ATOM      2  O   UNL A   1      35.506  23.551  24.618  1.00  0.00    -0.376 OA
BRANCH   2   3
ATOM      3  C   UNL A   1      36.478  23.737  25.668  1.00  0.00     0.202 C 
BRANCH   3   4
ATOM      4  C   UNL A   1      38.051  22.972  25.881  1.00  0.00     0.261 C 
BRANCH   4   5
ATOM      5  O   UNL A   1      39.268  23.157  26.917  1.00  0.00    -0.460 OA
BRANCH   5   6
ATOM      6  C   UNL A   1      40.370  22.415  27.306  1.00  0.00     0.338 C 
ATOM      7  O   UNL A   1      40.959  22.380  28.376  1.00  0.00    -0.246 OA
BRANCH   6   8
ATOM      8  C   UNL A   1      41.038  21.414  26.470  1.00  0.00     0.062 A 
ATOM      9  C   UNL A   1      43.121  21.035  25.359  1.00  0.00     0.045 A 
ATOM     10  C   UNL A   1      42.048  21.882  25.665  1.00  0.00     0.042 A 
ATOM     11  C   UNL A   1      43.129  19.663  25.702  1.00  0.00    -0.027 A 
ATOM     12  C   UNL A   1      42.122  19.202  26.549  1.00  0.00     0.006 A 
ATOM     13  C   UNL A   1      44.274  18.733  25.414  1.00  0.00     0.046 C 
ATOM     14  C   UNL A   1      41.113  20.077  26.953  1.00  0.00     0.016 A 
BRANCH   9  15
ATOM     15  N   UNL A   1      44.261  21.613  24.796  1.00  0.00    -0.322 N 
ATOM     16  C   UNL A   1      44.656  22.933  24.874  1.00  0.00     0.259 C 
ATOM     17  O   UNL A   1      45.343  23.383  23.954  1.00  0.00    -0.269 OA
ATOM     18  H   UNL A   1      44.848  21.011  24.286  1.00  0.00     0.170 HD
BRANCH  16  19
ATOM     19  C   UNL A   1      44.396  23.808  26.076  1.00  0.00     0.082 A 
ATOM     20  C   UNL A   1      43.544  24.924  26.112  1.00  0.00     0.132 A 
ATOM     21  C   UNL A   1      43.213  25.539  27.331  1.00  0.00     0.056 A 
ATOM     22  C   UNL A   1      43.672  25.025  28.549  1.00  0.00    -0.015 A 
ATOM     23  C   UNL A   1      44.907  23.336  27.300  1.00  0.00     0.026 A 
ATOM     24  C   UNL A   1      43.287  25.591  29.778  1.00  0.00     0.009 A 
ATOM     25  C   UNL A   1      44.550  23.920  28.532  1.00  0.00    -0.017 A 
ATOM     26  C   UNL A   1      43.767  25.070  30.978  1.00  0.00     0.001 A 
ATOM     27  C   UNL A   1      45.032  23.417  29.751  1.00  0.00     0.009 A 
ATOM     28  C   UNL A   1      44.637  23.984  30.964  1.00  0.00     0.001 A 
BRANCH  20  29
ATOM     29  O   UNL A   1      43.059  25.509  24.975  1.00  0.00    -0.496 OA
ATOM     30  C   UNL A   1      43.321  26.906  24.930  1.00  0.00     0.278 C 
ENDBRANCH  20  29
ENDBRANCH  16  19
ENDBRANCH   9  15
ENDBRANCH   6   8
ENDBRANCH   5   6
ENDBRANCH   4   5
ENDBRANCH   3   4
ENDBRANCH   2   3
ENDBRANCH   1   2
BRANCH   1  31
ATOM     31  C   UNL A   1      33.616  25.398  24.223  1.00  0.00     0.188 C 
BRANCH  31  32
ATOM     32  O   UNL A   1      33.377  26.186  25.373  1.00  0.00    -0.376 OA
BRANCH  32  33
ATOM     33  C   UNL A   1      33.422  27.593  25.183  1.00  0.00     0.202 C 
BRANCH  33  34
ATOM     34  C   UNL A   1      33.299  28.473  26.450  1.00  0.00     0.261 C 
BRANCH  34  35
ATOM     35  O   UNL A   1      34.495  29.233  26.761  1.00  0.00    -0.460 OA
BRANCH  35  36
ATOM     36  C   UNL A   1      34.343  30.502  27.315  1.00  0.00     0.338 C 
ATOM     37  O   UNL A   1      33.314  31.102  27.273  1.00  0.00    -0.246 OA
BRANCH  36  38
ATOM     38  C   UNL A   1      35.557  30.873  28.128  1.00  0.00     0.060 A 
ATOM     39  C   UNL A   1      36.212  32.102  28.239  1.00  0.00     0.016 A 
ATOM     40  C   UNL A   1      36.161  29.852  28.762  1.00  0.00     0.016 A 
ATOM     41  C   UNL A   1      37.555  32.231  28.825  1.00  0.00     0.010 A 
ATOM     42  C   UNL A   1      37.501  30.015  29.112  1.00  0.00     0.010 A 
ATOM     43  C   UNL A   1      38.311  31.145  29.265  1.00  0.00    -0.014 A 
BRANCH  43  44
ATOM     44  C   UNL A   1      39.877  31.075  29.767  1.00  0.00     0.031 A 
ATOM     45  C   UNL A   1      41.174  30.261  29.215  1.00  0.00     0.074 A 
ATOM     46  C   UNL A   1      40.258  31.931  30.735  1.00  0.00     0.049 A 
ATOM     47  N   UNL A   1      42.326  30.777  28.809  1.00  0.00    -0.248 NA
ATOM     48  C   UNL A   1      41.293  28.778  29.133  1.00  0.00     0.031 C 
ATOM     49  C   UNL A   1      41.609  32.218  31.222  1.00  0.00     0.029 A 
ATOM     50  N   UNL A   1      39.431  32.585  31.634  1.00  0.00    -0.354 N 
ATOM     51  C   UNL A   1      43.170  29.751  28.344  1.00  0.00     0.074 A 
ATOM     52  C   UNL A   1      42.336  28.565  28.334  1.00  0.00     0.031 C 
ATOM     53  C   UNL A   1      41.521  32.724  32.461  1.00  0.00     0.029 A 
ATOM     54  C   UNL A   1      40.122  32.659  32.847  1.00  0.00     0.049 A 
ATOM     55  H   UNL A   1      38.526  32.931  31.453  1.00  0.00     0.167 HD
ATOM     56  C   UNL A   1      44.441  29.466  28.770  1.00  0.00     0.031 A 
ATOM     57  C   UNL A   1      39.644  31.918  33.886  1.00  0.00     0.031 A 
ATOM     58  C   UNL A   1      44.598  29.570  30.212  1.00  0.00     0.049 A 
ATOM     59  C   UNL A   1      40.553  30.749  34.196  1.00  0.00     0.074 A 
ATOM     60  C   UNL A   1      45.257  30.453  31.039  1.00  0.00     0.029 A 
ATOM     61  N   UNL A   1      43.850  28.732  31.052  1.00  0.00    -0.354 N 
ATOM     62  N   UNL A   1      41.413  30.215  33.363  1.00  0.00    -0.248 NA
ATOM     63  C   UNL A   1      40.608  30.156  35.525  1.00  0.00     0.031 C 
ATOM     64  C   UNL A   1      44.782  30.237  32.363  1.00  0.00     0.029 A 
ATOM     65  C   UNL A   1      43.881  29.182  32.358  1.00  0.00     0.049 A 
ATOM     66  H   UNL A   1      43.366  27.930  30.750  1.00  0.00     0.167 HD
ATOM     67  C   UNL A   1      42.132  29.249  34.016  1.00  0.00     0.074 A 
ATOM     68  C   UNL A   1      41.593  29.258  35.367  1.00  0.00     0.031 C 
ATOM     69  C   UNL A   1      43.147  28.528  33.447  1.00  0.00     0.031 A 
BRANCH  56  70
ATOM     70  C   UNL A   1      45.399  28.763  27.797  1.00  0.00    -0.014 A 
ATOM     71  C   UNL A   1      46.038  27.548  28.122  1.00  0.00     0.010 A 
ATOM     72  C   UNL A   1      45.747  29.322  26.538  1.00  0.00     0.010 A 
ATOM     73  C   UNL A   1      46.952  26.924  27.238  1.00  0.00     0.020 A 
ATOM     74  C   UNL A   1      46.637  28.699  25.642  1.00  0.00     0.020 A 
ATOM     75  C   UNL A   1      47.245  27.502  26.001  1.00  0.00     0.054 A 
BRANCH  75  76
ATOM     76  S   UNL A   1      48.381  26.669  24.846  1.00  0.00     0.124 S 
ATOM     77  O   UNL A   1      49.021  27.795  24.169  1.00  0.00    -0.237 OA
ATOM     78  O   UNL A   1      49.240  25.898  25.739  1.00  0.00    -0.237 OA
ATOM     79  O   UNL A   1      47.494  25.867  24.005  1.00  0.00    -0.744 OA
ENDBRANCH  75  76
ENDBRANCH  56  70
BRANCH  57  80
ATOM     80  C   UNL A   1      38.148  31.989  34.001  1.00  0.00    -0.014 A 
ATOM     81  C   UNL A   1      37.642  33.140  34.661  1.00  0.00     0.010 A 
ATOM     82  C   UNL A   1      37.263  31.245  33.205  1.00  0.00     0.010 A 
ATOM     83  C   UNL A   1      36.373  33.646  34.376  1.00  0.00     0.020 A 
ATOM     84  C   UNL A   1      35.956  31.727  32.956  1.00  0.00     0.020 A 
ATOM     85  C   UNL A   1      35.554  32.961  33.485  1.00  0.00     0.054 A 
BRANCH  85  86
ATOM     86  S   UNL A   1      34.064  33.830  32.901  1.00  0.00     0.124 S 
ATOM     87  O   UNL A   1      34.196  35.143  33.525  1.00  0.00    -0.237 OA
ATOM     88  O   UNL A   1      34.251  33.811  31.450  1.00  0.00    -0.237 OA
ATOM     89  O   UNL A   1      32.971  33.002  33.403  1.00  0.00    -0.744 OA
ENDBRANCH  85  86
ENDBRANCH  57  80
BRANCH  69  90
ATOM     90  C   UNL A   1      43.655  27.239  34.061  1.00  0.00    -0.014 A 
ATOM     91  C   UNL A   1      45.003  27.047  34.427  1.00  0.00     0.010 A 
ATOM     92  C   UNL A   1      42.765  26.188  34.369  1.00  0.00     0.010 A 
ATOM     93  C   UNL A   1      45.476  25.817  34.896  1.00  0.00     0.020 A 
ATOM     94  C   UNL A   1      43.219  24.970  34.900  1.00  0.00     0.020 A 
ATOM     95  C   UNL A   1      44.582  24.775  35.105  1.00  0.00     0.054 A 
BRANCH  95  96
ATOM     96  S   UNL A   1      45.215  23.180  35.686  1.00  0.00     0.124 S 
ATOM     97  O   UNL A   1      44.269  22.245  35.083  1.00  0.00    -0.237 OA
ATOM     98  O   UNL A   1      46.567  23.142  35.131  1.00  0.00    -0.237 OA
ATOM     99  O   UNL A   1      45.149  23.297  37.139  1.00  0.00    -0.744 OA
ENDBRANCH  95  96
ENDBRANCH  69  90
ENDBRANCH  43  44
ENDBRANCH  36  38
ENDBRANCH  35  36
ENDBRANCH  34  35
ENDBRANCH  33  34
ENDBRANCH  32  33
ENDBRANCH  31  32
ENDBRANCH   1  31
TORSDOF 23
ENDMDL
MODEL 3
REMARK VINA RESULT:     -11.4      3.911     10.903
REMARK SMILES COc1cc2ccccc2cc1C(=O)Nc1cc(C(=O)OCCOCCOCCOC(=O)c2ccc(-c3c4nc(c(-c5ccc(S(=O)(=O)[O-])cc5)c5ccc([nH]5)c(-c5ccc(S(=O)(=O)[O-])cc5)c5nc(c(-c6ccc(S(=O)(=O)[O-])cc6)c6ccc3[nH]6)C=C5)C=C4)cc2)ccc1C
REMARK SMILES IDX 25 1 24 2 23 3 22 4 21 5 19 6 20 7 18 8 16 9 17 10 95 11
REMARK SMILES IDX 94 12 96 13 93 14 15 15 13 16 14 17 12 19 3 20 4 21 5 22
REMARK SMILES IDX 11 23 6 24 10 25 7 26 9 27 8 28 2 29 1 30 26 31 27 32 28 33
REMARK SMILES IDX 29 34 30 35 31 36 32 37 33 38 34 39 92 40 35 41 91 42 36 43
REMARK SMILES IDX 37 44 38 45 85 46 39 47 90 48 84 49 86 50 40 51 89 52 83 53
REMARK SMILES IDX 82 54 41 56 71 57 52 58 70 59 53 60 56 61 69 62 87 63 54 64
REMARK SMILES IDX 55 65 68 67 88 68 57 69 42 70 43 71 51 72 44 73 50 74 45 75
REMARK SMILES IDX 46 76 47 77 48 78 49 79 72 80 73 81 81 82 74 83 80 84 75 85
REMARK SMILES IDX 76 86 77 87 78 88 79 89 58 90 59 91 67 92 60 93 66 94 61 95
REMARK SMILES IDX 62 96 63 97 64 98 65 99
REMARK H PARENT 15 18 86 55 56 66
REMARK Flexibility Score: inf
ROOT
ATOM      1  C   UNL A   1      34.488  23.962  25.913  1.00  0.00     0.188 C 
ENDROOT
BRANCH   1   2
ATOM      2  O   UNL A   1      35.797  23.469  26.285  1.00  0.00    -0.376 OA
BRANCH   2   3
ATOM      3  C   UNL A   1      37.056  24.171  26.360  1.00  0.00     0.202 C 
BRANCH   3   4
ATOM      4  C   UNL A   1      38.688  23.524  26.507  1.00  0.00     0.261 C 
BRANCH   4   5
ATOM      5  O   UNL A   1      39.462  22.256  25.890  1.00  0.00    -0.460 OA
BRANCH   5   6
ATOM      6  C   UNL A   1      40.251  21.230  26.383  1.00  0.00     0.338 C 
ATOM      7  O   UNL A   1      40.107  20.018  26.306  1.00  0.00    -0.246 OA
BRANCH   6   8
ATOM      8  C   UNL A   1      41.527  21.419  27.076  1.00  0.00     0.062 A 
ATOM      9  C   UNL A   1      43.725  22.280  26.688  1.00  0.00     0.045 A 
ATOM     10  C   UNL A   1      42.640  21.495  26.274  1.00  0.00     0.042 A 
ATOM     11  C   UNL A   1      43.794  22.862  27.975  1.00  0.00    -0.027 A 
ATOM     12  C   UNL A   1      42.650  22.814  28.770  1.00  0.00     0.006 A 
ATOM     13  C   UNL A   1      44.929  23.731  28.442  1.00  0.00     0.046 C 
ATOM     14  C   UNL A   1      41.524  22.132  28.308  1.00  0.00     0.016 A 
BRANCH   9  15
ATOM     15  N   UNL A   1      44.706  22.578  25.740  1.00  0.00    -0.322 N 
ATOM     16  C   UNL A   1      44.780  23.696  24.935  1.00  0.00     0.259 C 
ATOM     17  O   UNL A   1      45.357  23.585  23.850  1.00  0.00    -0.269 OA
ATOM     18  H   UNL A   1      45.425  21.915  25.634  1.00  0.00     0.170 HD
BRANCH  16  19
ATOM     19  C   UNL A   1      44.306  25.062  25.366  1.00  0.00     0.082 A 
ATOM     20  C   UNL A   1      44.980  26.274  25.144  1.00  0.00     0.132 A 
ATOM     21  C   UNL A   1      44.352  27.505  25.399  1.00  0.00     0.056 A 
ATOM     22  C   UNL A   1      43.020  27.563  25.824  1.00  0.00    -0.015 A 
ATOM     23  C   UNL A   1      42.988  25.127  25.856  1.00  0.00     0.026 A 
ATOM     24  C   UNL A   1      42.361  28.792  26.012  1.00  0.00     0.009 A 
ATOM     25  C   UNL A   1      42.334  26.356  26.077  1.00  0.00    -0.017 A 
ATOM     26  C   UNL A   1      41.038  28.826  26.447  1.00  0.00     0.001 A 
ATOM     27  C   UNL A   1      41.006  26.411  26.527  1.00  0.00     0.009 A 
ATOM     28  C   UNL A   1      40.362  27.638  26.704  1.00  0.00     0.001 A 
BRANCH  20  29
ATOM     29  O   UNL A   1      46.288  26.320  24.747  1.00  0.00    -0.496 OA
ATOM     30  C   UNL A   1      46.650  27.591  24.221  1.00  0.00     0.278 C 
ENDBRANCH  20  29
ENDBRANCH  16  19
ENDBRANCH   9  15
ENDBRANCH   6   8
ENDBRANCH   5   6
ENDBRANCH   4   5
ENDBRANCH   3   4
ENDBRANCH   2   3
ENDBRANCH   1   2
BRANCH   1  31
ATOM     31  C   UNL A   1      34.147  25.363  25.376  1.00  0.00     0.188 C 
BRANCH  31  32
ATOM     32  O   UNL A   1      33.265  26.082  26.217  1.00  0.00    -0.376 OA
BRANCH  32  33
ATOM     33  C   UNL A   1      33.057  27.446  25.878  1.00  0.00     0.202 C 
BRANCH  33  34
ATOM     34  C   UNL A   1      33.353  28.492  26.979  1.00  0.00     0.261 C 
BRANCH  34  35
ATOM     35  O   UNL A   1      34.615  29.187  26.811  1.00  0.00    -0.460 OA
BRANCH  35  36
ATOM     36  C   UNL A   1      34.960  30.160  27.746  1.00  0.00     0.338 C 
ATOM     37  O   UNL A   1      34.213  31.027  28.077  1.00  0.00    -0.246 OA
BRANCH  36  38
ATOM     38  C   UNL A   1      36.275  29.819  28.402  1.00  0.00     0.060 A 
ATOM     39  C   UNL A   1      36.531  29.367  29.699  1.00  0.00     0.016 A 
ATOM     40  C   UNL A   1      37.371  30.084  27.669  1.00  0.00     0.016 A 
ATOM     41  C   UNL A   1      37.880  29.375  30.285  1.00  0.00     0.010 A 
ATOM     42  C   UNL A   1      38.575  30.255  28.352  1.00  0.00     0.010 A 
ATOM     43  C   UNL A   1      39.003  29.880  29.630  1.00  0.00    -0.014 A 
BRANCH  43  44
ATOM     44  C   UNL A   1      40.530  30.141  30.187  1.00  0.00     0.031 A 
ATOM     45  C   UNL A   1      41.938  29.361  29.943  1.00  0.00     0.074 A 
ATOM     46  C   UNL A   1      40.754  31.276  30.878  1.00  0.00     0.049 A 
ATOM     47  N   UNL A   1      43.057  29.873  29.447  1.00  0.00    -0.248 NA
ATOM     48  C   UNL A   1      42.213  27.941  30.299  1.00  0.00     0.031 C 
ATOM     49  C   UNL A   1      42.032  31.846  31.309  1.00  0.00     0.029 A 
ATOM     50  N   UNL A   1      39.804  32.056  31.517  1.00  0.00    -0.354 N 
ATOM     51  C   UNL A   1      44.030  28.863  29.331  1.00  0.00     0.074 A 
ATOM     52  C   UNL A   1      43.324  27.634  29.635  1.00  0.00     0.031 C 
ATOM     53  C   UNL A   1      41.808  32.669  32.344  1.00  0.00     0.029 A 
ATOM     54  C   UNL A   1      40.400  32.553  32.681  1.00  0.00     0.049 A 
ATOM     55  H   UNL A   1      38.884  32.227  31.211  1.00  0.00     0.167 HD
ATOM     56  C   UNL A   1      45.291  28.862  29.867  1.00  0.00     0.031 A 
ATOM     57  C   UNL A   1      39.930  32.087  33.873  1.00  0.00     0.031 A 
ATOM     58  C   UNL A   1      45.338  29.390  31.221  1.00  0.00     0.049 A 
ATOM     59  C   UNL A   1      40.930  31.170  34.541  1.00  0.00     0.074 A 
ATOM     60  C   UNL A   1      45.845  30.543  31.779  1.00  0.00     0.029 A 
ATOM     61  N   UNL A   1      44.623  28.744  32.240  1.00  0.00    -0.354 N 
ATOM     62  N   UNL A   1      41.895  30.526  33.931  1.00  0.00    -0.248 NA
ATOM     63  C   UNL A   1      40.953  30.990  35.986  1.00  0.00     0.031 C 
ATOM     64  C   UNL A   1      45.305  30.658  33.091  1.00  0.00     0.029 A 
ATOM     65  C   UNL A   1      44.518  29.547  33.360  1.00  0.00     0.049 A 
ATOM     66  H   UNL A   1      44.245  27.837  32.167  1.00  0.00     0.167 HD
ATOM     67  C   UNL A   1      42.662  29.877  34.862  1.00  0.00     0.074 A 
ATOM     68  C   UNL A   1      42.033  30.206  36.132  1.00  0.00     0.031 C 
ATOM     69  C   UNL A   1      43.782  29.148  34.564  1.00  0.00     0.031 A 
BRANCH  56  70
ATOM     70  C   UNL A   1      46.381  28.029  29.175  1.00  0.00    -0.014 A 
ATOM     71  C   UNL A   1      46.755  26.751  29.642  1.00  0.00     0.010 A 
ATOM     72  C   UNL A   1      47.118  28.518  28.063  1.00  0.00     0.010 A 
ATOM     73  C   UNL A   1      47.788  26.003  29.025  1.00  0.00     0.020 A 
ATOM     74  C   UNL A   1      48.132  27.773  27.429  1.00  0.00     0.020 A 
ATOM     75  C   UNL A   1      48.470  26.518  27.921  1.00  0.00     0.054 A 
BRANCH  75  76
ATOM     76  S   UNL A   1      49.762  25.531  27.099  1.00  0.00     0.124 S 
ATOM     77  O   UNL A   1      50.977  26.275  27.419  1.00  0.00    -0.237 OA
ATOM     78  O   UNL A   1      49.631  24.228  27.745  1.00  0.00    -0.237 OA
ATOM     79  O   UNL A   1      49.374  25.556  25.689  1.00  0.00    -0.744 OA
ENDBRANCH  75  76
ENDBRANCH  56  70
BRANCH  57  80
ATOM     80  C   UNL A   1      38.430  32.012  33.907  1.00  0.00    -0.014 A 
ATOM     81  C   UNL A   1      37.779  33.108  34.533  1.00  0.00     0.010 A 
ATOM     82  C   UNL A   1      37.666  31.184  33.069  1.00  0.00     0.010 A 
ATOM     83  C   UNL A   1      36.485  33.488  34.178  1.00  0.00     0.020 A 
ATOM     84  C   UNL A   1      36.332  31.537  32.749  1.00  0.00     0.020 A 
ATOM     85  C   UNL A   1      35.785  32.725  33.249  1.00  0.00     0.054 A 
BRANCH  85  86
ATOM     86  S   UNL A   1      34.250  33.445  32.582  1.00  0.00     0.124 S 
ATOM     87  O   UNL A   1      33.228  32.887  33.462  1.00  0.00    -0.237 OA
ATOM     88  O   UNL A   1      34.493  34.879  32.743  1.00  0.00    -0.237 OA
ATOM     89  O   UNL A   1      34.222  32.965  31.203  1.00  0.00    -0.744 OA
ENDBRANCH  85  86
ENDBRANCH  57  80
BRANCH  69  90
ATOM     90  C   UNL A   1      44.376  28.156  35.544  1.00  0.00    -0.014 A 
ATOM     91  C   UNL A   1      43.758  26.929  35.859  1.00  0.00     0.010 A 
ATOM     92  C   UNL A   1      45.636  28.394  36.135  1.00  0.00     0.010 A 
ATOM     93  C   UNL A   1      44.264  26.074  36.842  1.00  0.00     0.020 A 
ATOM     94  C   UNL A   1      46.187  27.511  37.077  1.00  0.00     0.020 A 
ATOM     95  C   UNL A   1      45.466  26.385  37.466  1.00  0.00     0.054 A 
BRANCH  95  96
ATOM     96  S   UNL A   1      46.095  25.281  38.756  1.00  0.00     0.124 S 
ATOM     97  O   UNL A   1      46.303  26.206  39.867  1.00  0.00    -0.237 OA
ATOM     98  O   UNL A   1      45.000  24.328  38.936  1.00  0.00    -0.237 OA
ATOM     99  O   UNL A   1      47.307  24.722  38.165  1.00  0.00    -0.744 OA
ENDBRANCH  95  96
ENDBRANCH  69  90
ENDBRANCH  43  44
ENDBRANCH  36  38
ENDBRANCH  35  36
ENDBRANCH  34  35
ENDBRANCH  33  34
ENDBRANCH  32  33
ENDBRANCH  31  32
ENDBRANCH   1  31
TORSDOF 23
ENDMDL
