MODEL 1
REMARK VINA RESULT:      -9.2      0.000      0.000
REMARK SMILES O=C(CCN1C(=O)S/C(=C\c2ccccc2F)C1=O)Nc1ccc(C(=O)OCCOCCOCCOC(=O)c2ccc(-c3c4nc(c(-c5ccc(S(=O)(=O)[O-])cc5)c5ccc([nH]5)c(-c5ccc(S(=O)(=O)[O-])cc5)c5nc(c(-c6ccc(S(=O)(=O)[O-])cc6)c6ccc3[nH]6)C=C5)C=C4)cc2)c(O)c1
REMARK SMILES IDX 31 1 30 2 29 3 28 4 27 5 25 6 26 7 24 8 21 9 22 10 101 11
REMARK SMILES IDX 23 12 99 13 20 14 1 15 2 16 3 18 4 19 5 20 6 21 18 22 7 23
REMARK SMILES IDX 8 24 9 25 19 26 10 27 11 28 12 29 16 30 13 31 15 32 17 33
REMARK SMILES IDX 14 34 100 35 32 37 33 38 34 39 35 40 36 41 37 42 38 43 39 44
REMARK SMILES IDX 40 45 98 46 41 47 97 48 42 49 43 50 44 51 91 52 45 53 96 54
REMARK SMILES IDX 90 55 92 56 46 57 95 58 89 59 88 60 47 62 77 63 58 64 76 65
REMARK SMILES IDX 59 66 62 67 75 68 93 69 60 70 61 71 74 73 94 74 63 75 48 76
REMARK SMILES IDX 49 77 57 78 50 79 56 80 51 81 52 82 53 83 54 84 55 85 78 86
REMARK SMILES IDX 79 87 87 88 80 89 86 90 81 91 82 92 83 93 84 94 85 95 64 96
REMARK SMILES IDX 65 97 73 98 66 99 72 100 67 101 68 102 69 103 70 104 71 105
REMARK H PARENT 20 17 100 36 92 61 62 72
REMARK Flexibility Score: inf
ROOT
ATOM      1  C   UNL A   1      41.439  32.411  31.752  1.00  0.00     0.188 C 
ENDROOT
BRANCH   1   2
ATOM      2  O   UNL A   1      40.723  31.256  31.323  1.00  0.00    -0.376 OA
BRANCH   2   3
ATOM      3  C   UNL A   1      39.340  31.128  31.626  1.00  0.00     0.202 C 
BRANCH   3   4
ATOM      4  C   UNL A   1      38.389  32.183  31.058  1.00  0.00     0.261 C 
BRANCH   4   5
ATOM      5  O   UNL A   1      37.236  31.610  30.413  1.00  0.00    -0.460 OA
BRANCH   5   6
ATOM      6  C   UNL A   1      36.852  32.240  29.272  1.00  0.00     0.341 C 
ATOM      7  O   UNL A   1      37.306  33.279  28.821  1.00  0.00    -0.246 OA
BRANCH   6   8
ATOM      8  C   UNL A   1      35.894  31.396  28.530  1.00  0.00     0.101 A 
ATOM      9  C   UNL A   1      33.912  29.923  27.238  1.00  0.00     0.044 A 
ATOM     10  C   UNL A   1      33.722  31.285  27.456  1.00  0.00     0.027 A 
ATOM     11  C   UNL A   1      35.096  29.294  27.633  1.00  0.00     0.073 A 
ATOM     12  C   UNL A   1      34.709  32.019  28.107  1.00  0.00     0.022 A 
ATOM     13  C   UNL A   1      36.100  30.041  28.254  1.00  0.00     0.132 A 
BRANCH   9  14
ATOM     14  N   UNL A   1      32.802  29.152  26.893  1.00  0.00    -0.326 N 
ATOM     15  O   UNL A   1      33.336  28.655  24.700  1.00  0.00    -0.275 OA
ATOM     16  C   UNL A   1      32.572  28.594  25.656  1.00  0.00     0.226 C 
ATOM     17  H   UNL A   1      32.127  28.994  27.593  1.00  0.00     0.169 HD
BRANCH  16  18
ATOM     18  C   UNL A   1      31.255  27.837  25.597  1.00  0.00     0.122 C 
BRANCH  18  19
ATOM     19  C   UNL A   1      31.244  26.753  24.515  1.00  0.00     0.140 C 
BRANCH  19  20
ATOM     20  N   UNL A   1      31.454  25.360  24.913  1.00  0.00    -0.268 N 
ATOM     21  C   UNL A   1      30.562  24.750  25.762  1.00  0.00     0.293 C 
ATOM     22  C   UNL A   1      32.570  24.619  24.618  1.00  0.00     0.268 C 
ATOM     23  O   UNL A   1      29.608  25.267  26.321  1.00  0.00    -0.261 OA
ATOM     24  S   UNL A   1      31.006  23.065  26.011  1.00  0.00    -0.022 SA
ATOM     25  C   UNL A   1      32.324  23.187  24.928  1.00  0.00     0.083 C 
ATOM     26  O   UNL A   1      33.605  25.027  24.109  1.00  0.00    -0.268 OA
ATOM     27  C   UNL A   1      33.029  22.240  24.294  1.00  0.00     0.032 C 
BRANCH  27  28
ATOM     28  C   UNL A   1      32.881  20.778  24.334  1.00  0.00     0.012 A 
ATOM     29  C   UNL A   1      32.376  20.140  23.190  1.00  0.00     0.011 A 
ATOM     30  C   UNL A   1      33.096  20.003  25.480  1.00  0.00     0.130 A 
ATOM     31  C   UNL A   1      32.141  18.762  23.183  1.00  0.00     0.001 A 
ATOM     32  C   UNL A   1      32.877  18.626  25.474  1.00  0.00     0.040 A 
ATOM     33  F   UNL A   1      33.478  20.572  26.632  1.00  0.00    -0.206 F 
ATOM     34  C   UNL A   1      32.403  18.003  24.323  1.00  0.00     0.003 A 
ENDBRANCH  27  28
ENDBRANCH  19  20
ENDBRANCH  18  19
ENDBRANCH  16  18
ENDBRANCH   9  14
BRANCH  13  35
ATOM     35  O   UNL A   1      37.249  29.375  28.582  1.00  0.00    -0.507 OA
ATOM     36  H   UNL A   1      37.332  28.971  29.424  1.00  0.00     0.293 HD
ENDBRANCH  13  35
ENDBRANCH   6   8
ENDBRANCH   5   6
ENDBRANCH   4   5
ENDBRANCH   3   4
ENDBRANCH   2   3
ENDBRANCH   1   2
BRANCH   1  37
ATOM     37  C   UNL A   1      41.910  33.445  30.711  1.00  0.00     0.188 C 
BRANCH  37  38
ATOM     38  O   UNL A   1      41.084  34.595  30.633  1.00  0.00    -0.376 OA
BRANCH  38  39
ATOM     39  C   UNL A   1      40.422  34.801  29.395  1.00  0.00     0.202 C 
BRANCH  39  40
ATOM     40  C   UNL A   1      40.967  35.959  28.550  1.00  0.00     0.261 C 
BRANCH  40  41
ATOM     41  O   UNL A   1      41.320  35.628  27.197  1.00  0.00    -0.460 OA
BRANCH  41  42
ATOM     42  C   UNL A   1      42.493  36.107  26.725  1.00  0.00     0.338 C 
ATOM     43  O   UNL A   1      42.754  37.267  26.461  1.00  0.00    -0.246 OA
BRANCH  42  44
ATOM     44  C   UNL A   1      43.468  34.995  26.737  1.00  0.00     0.060 A 
ATOM     45  C   UNL A   1      43.951  34.513  27.960  1.00  0.00     0.016 A 
ATOM     46  C   UNL A   1      43.894  34.419  25.535  1.00  0.00     0.016 A 
ATOM     47  C   UNL A   1      44.881  33.468  27.980  1.00  0.00     0.010 A 
ATOM     48  C   UNL A   1      44.835  33.386  25.558  1.00  0.00     0.010 A 
ATOM     49  C   UNL A   1      45.353  32.919  26.778  1.00  0.00    -0.014 A 
BRANCH  49  50
ATOM     50  C   UNL A   1      46.501  31.978  26.775  1.00  0.00     0.031 A 
ATOM     51  C   UNL A   1      47.895  32.543  26.831  1.00  0.00     0.074 A 
ATOM     52  C   UNL A   1      46.320  30.646  26.709  1.00  0.00     0.049 A 
ATOM     53  N   UNL A   1      49.045  31.921  26.792  1.00  0.00    -0.248 NA
ATOM     54  C   UNL A   1      48.004  34.007  26.946  1.00  0.00     0.031 C 
ATOM     55  C   UNL A   1      45.027  29.965  26.685  1.00  0.00     0.029 A 
ATOM     56  N   UNL A   1      47.239  29.626  26.642  1.00  0.00    -0.354 N 
ATOM     57  C   UNL A   1      50.014  32.914  26.880  1.00  0.00     0.074 A 
ATOM     58  C   UNL A   1      49.316  34.181  26.942  1.00  0.00     0.031 C 
ATOM     59  C   UNL A   1      45.235  28.638  26.606  1.00  0.00     0.029 A 
ATOM     60  C   UNL A   1      46.674  28.378  26.540  1.00  0.00     0.049 A 
ATOM     61  H   UNL A   1      48.212  29.777  26.665  1.00  0.00     0.167 HD
ATOM     62  C   UNL A   1      51.362  32.789  26.912  1.00  0.00     0.031 A 
ATOM     63  C   UNL A   1      47.248  27.167  26.394  1.00  0.00     0.031 A 
ATOM     64  C   UNL A   1      52.062  31.536  26.815  1.00  0.00     0.049 A 
ATOM     65  C   UNL A   1      48.752  27.058  26.333  1.00  0.00     0.074 A 
ATOM     66  C   UNL A   1      53.427  31.308  26.837  1.00  0.00     0.029 A 
ATOM     67  N   UNL A   1      51.453  30.301  26.667  1.00  0.00    -0.354 N 
ATOM     68  N   UNL A   1      49.654  28.005  26.442  1.00  0.00    -0.248 NA
ATOM     69  C   UNL A   1      49.314  25.713  26.134  1.00  0.00     0.031 C 
ATOM     70  C   UNL A   1      53.644  29.938  26.652  1.00  0.00     0.029 A 
ATOM     71  C   UNL A   1      52.412  29.308  26.571  1.00  0.00     0.049 A 
ATOM     72  H   UNL A   1      50.480  30.151  26.635  1.00  0.00     0.167 HD
ATOM     73  C   UNL A   1      50.887  27.367  26.353  1.00  0.00     0.074 A 
ATOM     74  C   UNL A   1      50.617  25.953  26.188  1.00  0.00     0.031 C 
ATOM     75  C   UNL A   1      52.132  27.903  26.407  1.00  0.00     0.031 A 
BRANCH  62  76
ATOM     76  C   UNL A   1      52.165  34.057  27.021  1.00  0.00    -0.014 A 
ATOM     77  C   UNL A   1      53.065  34.254  28.084  1.00  0.00     0.010 A 
ATOM     78  C   UNL A   1      52.021  35.062  26.047  1.00  0.00     0.010 A 
ATOM     79  C   UNL A   1      53.772  35.454  28.197  1.00  0.00     0.020 A 
ATOM     80  C   UNL A   1      52.745  36.253  26.144  1.00  0.00     0.020 A 
ATOM     81  C   UNL A   1      53.600  36.451  27.231  1.00  0.00     0.054 A 
BRANCH  81  82
ATOM     82  S   UNL A   1      54.524  38.002  27.402  1.00  0.00     0.124 S 
ATOM     83  O   UNL A   1      54.095  38.462  28.721  1.00  0.00    -0.237 OA
ATOM     84  O   UNL A   1      55.913  37.561  27.313  1.00  0.00    -0.237 OA
ATOM     85  O   UNL A   1      54.057  38.809  26.278  1.00  0.00    -0.744 OA
ENDBRANCH  81  82
ENDBRANCH  62  76
BRANCH  63  86
ATOM     86  C   UNL A   1      46.402  25.946  26.286  1.00  0.00    -0.014 A 
ATOM     87  C   UNL A   1      46.121  25.170  27.424  1.00  0.00     0.010 A 
ATOM     88  C   UNL A   1      45.881  25.548  25.041  1.00  0.00     0.010 A 
ATOM     89  C   UNL A   1      45.344  24.013  27.318  1.00  0.00     0.020 A 
ATOM     90  C   UNL A   1      45.085  24.404  24.935  1.00  0.00     0.020 A 
ATOM     91  C   UNL A   1      44.829  23.637  26.074  1.00  0.00     0.054 A 
BRANCH  91  92
ATOM     92  S   UNL A   1      43.780  22.160  25.970  1.00  0.00     0.124 S 
ATOM     93  O   UNL A   1      42.901  22.490  24.852  1.00  0.00    -0.237 OA
ATOM     94  O   UNL A   1      44.752  21.099  25.719  1.00  0.00    -0.237 OA
ATOM     95  O   UNL A   1      43.135  22.107  27.280  1.00  0.00    -0.744 OA
ENDBRANCH  91  92
ENDBRANCH  63  86
BRANCH  75  96
ATOM     96  C   UNL A   1      53.304  26.961  26.328  1.00  0.00    -0.014 A 
ATOM     97  C   UNL A   1      53.808  26.325  27.477  1.00  0.00     0.010 A 
ATOM     98  C   UNL A   1      53.868  26.660  25.075  1.00  0.00     0.010 A 
ATOM     99  C   UNL A   1      54.873  25.424  27.375  1.00  0.00     0.020 A 
ATOM    100  C   UNL A   1      54.916  25.741  24.966  1.00  0.00     0.020 A 
ATOM    101  C   UNL A   1      55.420  25.137  26.120  1.00  0.00     0.054 A 
BRANCH 101 102
ATOM    102  S   UNL A   1      56.766  23.926  26.006  1.00  0.00     0.124 S 
ATOM    103  O   UNL A   1      57.080  23.955  24.580  1.00  0.00    -0.237 OA
ATOM    104  O   UNL A   1      57.785  24.493  26.885  1.00  0.00    -0.237 OA
ATOM    105  O   UNL A   1      56.159  22.687  26.486  1.00  0.00    -0.744 OA
ENDBRANCH 101 102
ENDBRANCH  75  96
ENDBRANCH  49  50
ENDBRANCH  42  44
ENDBRANCH  41  42
ENDBRANCH  40  41
ENDBRANCH  39  40
ENDBRANCH  38  39
ENDBRANCH  37  38
ENDBRANCH   1  37
TORSDOF 26
ENDMDL
MODEL 2
REMARK VINA RESULT:      -9.2      7.177     16.043
REMARK SMILES O=C(CCN1C(=O)S/C(=C\c2ccccc2F)C1=O)Nc1ccc(C(=O)OCCOCCOCCOC(=O)c2ccc(-c3c4nc(c(-c5ccc(S(=O)(=O)[O-])cc5)c5ccc([nH]5)c(-c5ccc(S(=O)(=O)[O-])cc5)c5nc(c(-c6ccc(S(=O)(=O)[O-])cc6)c6ccc3[nH]6)C=C5)C=C4)cc2)c(O)c1
REMARK SMILES IDX 31 1 30 2 29 3 28 4 27 5 25 6 26 7 24 8 21 9 22 10 101 11
REMARK SMILES IDX 23 12 99 13 20 14 1 15 2 16 3 18 4 19 5 20 6 21 18 22 7 23
REMARK SMILES IDX 8 24 9 25 19 26 10 27 11 28 12 29 16 30 13 31 15 32 17 33
REMARK SMILES IDX 14 34 100 35 32 37 33 38 34 39 35 40 36 41 37 42 38 43 39 44
REMARK SMILES IDX 40 45 98 46 41 47 97 48 42 49 43 50 44 51 91 52 45 53 96 54
REMARK SMILES IDX 90 55 92 56 46 57 95 58 89 59 88 60 47 62 77 63 58 64 76 65
REMARK SMILES IDX 59 66 62 67 75 68 93 69 60 70 61 71 74 73 94 74 63 75 48 76
REMARK SMILES IDX 49 77 57 78 50 79 56 80 51 81 52 82 53 83 54 84 55 85 78 86
REMARK SMILES IDX 79 87 87 88 80 89 86 90 81 91 82 92 83 93 84 94 85 95 64 96
REMARK SMILES IDX 65 97 73 98 66 99 72 100 67 101 68 102 69 103 70 104 71 105
REMARK H PARENT 20 17 100 36 92 61 62 72
REMARK Flexibility Score: inf
ROOT
ATOM      1  C   UNL A   1      48.206  27.039  26.138  1.00  0.00     0.188 C 
ENDROOT
BRANCH   1   2
ATOM      2  O   UNL A   1      48.009  27.765  27.349  1.00  0.00    -0.376 OA
BRANCH   2   3
ATOM      3  C   UNL A   1      46.694  28.113  27.760  1.00  0.00     0.202 C 
BRANCH   3   4
ATOM      4  C   UNL A   1      46.453  29.553  28.220  1.00  0.00     0.261 C 
BRANCH   4   5
ATOM      5  O   UNL A   1      45.360  30.187  27.530  1.00  0.00    -0.460 OA
BRANCH   5   6
ATOM      6  C   UNL A   1      45.730  31.000  26.506  1.00  0.00     0.341 C 
ATOM      7  O   UNL A   1      46.418  30.698  25.544  1.00  0.00    -0.246 OA
BRANCH   6   8
ATOM      8  C   UNL A   1      45.039  32.300  26.621  1.00  0.00     0.101 A 
ATOM      9  C   UNL A   1      43.773  34.782  26.605  1.00  0.00     0.044 A 
ATOM     10  C   UNL A   1      43.600  33.917  25.528  1.00  0.00     0.027 A 
ATOM     11  C   UNL A   1      44.549  34.407  27.706  1.00  0.00     0.073 A 
ATOM     12  C   UNL A   1      44.238  32.680  25.532  1.00  0.00     0.022 A 
ATOM     13  C   UNL A   1      45.159  33.151  27.724  1.00  0.00     0.132 A 
BRANCH   9  14
ATOM     14  N   UNL A   1      43.408  36.118  26.440  1.00  0.00    -0.326 N 
ATOM     15  O   UNL A   1      41.377  36.110  27.545  1.00  0.00    -0.275 OA
ATOM     16  C   UNL A   1      42.238  36.687  26.891  1.00  0.00     0.226 C 
ATOM     17  H   UNL A   1      44.040  36.702  25.961  1.00  0.00     0.169 HD
BRANCH  16  18
ATOM     18  C   UNL A   1      42.129  38.158  26.522  1.00  0.00     0.122 C 
BRANCH  18  19
ATOM     19  C   UNL A   1      43.304  38.988  27.051  1.00  0.00     0.140 C 
BRANCH  19  20
ATOM     20  N   UNL A   1      43.272  39.445  28.442  1.00  0.00    -0.268 N 
ATOM     21  C   UNL A   1      44.179  38.946  29.346  1.00  0.00     0.293 C 
ATOM     22  C   UNL A   1      42.302  40.250  28.981  1.00  0.00     0.268 C 
ATOM     23  O   UNL A   1      45.003  38.067  29.152  1.00  0.00    -0.261 OA
ATOM     24  S   UNL A   1      43.970  39.719  30.913  1.00  0.00    -0.022 SA
ATOM     25  C   UNL A   1      42.732  40.737  30.317  1.00  0.00     0.083 C 
ATOM     26  O   UNL A   1      41.258  40.598  28.445  1.00  0.00    -0.268 OA
ATOM     27  C   UNL A   1      42.222  41.876  30.805  1.00  0.00     0.032 C 
BRANCH  27  28
ATOM     28  C   UNL A   1      42.581  42.616  32.024  1.00  0.00     0.012 A 
ATOM     29  C   UNL A   1      42.168  42.084  33.256  1.00  0.00     0.011 A 
ATOM     30  C   UNL A   1      43.198  43.872  32.021  1.00  0.00     0.130 A 
ATOM     31  C   UNL A   1      42.411  42.771  34.449  1.00  0.00     0.001 A 
ATOM     32  C   UNL A   1      43.456  44.555  33.210  1.00  0.00     0.040 A 
ATOM     33  F   UNL A   1      43.521  44.476  30.869  1.00  0.00    -0.206 F 
ATOM     34  C   UNL A   1      43.066  44.002  34.427  1.00  0.00     0.003 A 
ENDBRANCH  27  28
ENDBRANCH  19  20
ENDBRANCH  18  19
ENDBRANCH  16  18
ENDBRANCH   9  14
BRANCH  13  35
ATOM     35  O   UNL A   1      45.874  32.830  28.845  1.00  0.00    -0.507 OA
ATOM     36  H   UNL A   1      45.426  32.605  29.637  1.00  0.00     0.293 HD
ENDBRANCH  13  35
ENDBRANCH   6   8
ENDBRANCH   5   6
ENDBRANCH   4   5
ENDBRANCH   3   4
ENDBRANCH   2   3
ENDBRANCH   1   2
BRANCH   1  37
ATOM     37  C   UNL A   1      47.175  27.166  25.000  1.00  0.00     0.188 C 
BRANCH  37  38
ATOM     38  O   UNL A   1      46.335  26.031  24.861  1.00  0.00    -0.376 OA
BRANCH  38  39
ATOM     39  C   UNL A   1      44.972  26.223  25.209  1.00  0.00     0.202 C 
BRANCH  39  40
ATOM     40  C   UNL A   1      44.094  24.968  25.119  1.00  0.00     0.261 C 
BRANCH  40  41
ATOM     41  O   UNL A   1      42.700  25.164  25.405  1.00  0.00    -0.460 OA
BRANCH  41  42
ATOM     42  C   UNL A   1      42.203  24.570  26.514  1.00  0.00     0.338 C 
ATOM     43  O   UNL A   1      42.176  23.376  26.751  1.00  0.00    -0.246 OA
BRANCH  42  44
ATOM     44  C   UNL A   1      41.840  25.639  27.470  1.00  0.00     0.060 A 
ATOM     45  C   UNL A   1      42.619  26.800  27.535  1.00  0.00     0.016 A 
ATOM     46  C   UNL A   1      40.718  25.495  28.294  1.00  0.00     0.016 A 
ATOM     47  C   UNL A   1      42.288  27.812  28.444  1.00  0.00     0.010 A 
ATOM     48  C   UNL A   1      40.400  26.500  29.211  1.00  0.00     0.010 A 
ATOM     49  C   UNL A   1      41.196  27.654  29.310  1.00  0.00    -0.014 A 
BRANCH  49  50
ATOM     50  C   UNL A   1      40.974  28.605  30.428  1.00  0.00     0.031 A 
ATOM     51  C   UNL A   1      41.828  28.480  31.661  1.00  0.00     0.074 A 
ATOM     52  C   UNL A   1      40.023  29.556  30.365  1.00  0.00     0.049 A 
ATOM     53  N   UNL A   1      41.783  29.163  32.775  1.00  0.00    -0.248 NA
ATOM     54  C   UNL A   1      42.872  27.443  31.630  1.00  0.00     0.031 C 
ATOM     55  C   UNL A   1      39.150  29.810  29.221  1.00  0.00     0.029 A 
ATOM     56  N   UNL A   1      39.629  30.483  31.300  1.00  0.00    -0.354 N 
ATOM     57  C   UNL A   1      42.791  28.643  33.577  1.00  0.00     0.074 A 
ATOM     58  C   UNL A   1      43.411  27.567  32.833  1.00  0.00     0.031 C 
ATOM     59  C   UNL A   1      38.321  30.826  29.522  1.00  0.00     0.029 A 
ATOM     60  C   UNL A   1      38.581  31.271  30.891  1.00  0.00     0.049 A 
ATOM     61  H   UNL A   1      40.060  30.574  32.181  1.00  0.00     0.167 HD
ATOM     62  C   UNL A   1      43.176  29.026  34.818  1.00  0.00     0.031 A 
ATOM     63  C   UNL A   1      37.898  32.230  31.550  1.00  0.00     0.031 A 
ATOM     64  C   UNL A   1      42.543  30.072  35.576  1.00  0.00     0.049 A 
ATOM     65  C   UNL A   1      38.280  32.575  32.968  1.00  0.00     0.074 A 
ATOM     66  C   UNL A   1      42.861  30.532  36.842  1.00  0.00     0.029 A 
ATOM     67  N   UNL A   1      41.456  30.813  35.143  1.00  0.00    -0.354 N 
ATOM     68  N   UNL A   1      39.252  32.090  33.704  1.00  0.00    -0.248 NA
ATOM     69  C   UNL A   1      37.471  33.602  33.643  1.00  0.00     0.031 C 
ATOM     70  C   UNL A   1      41.933  31.518  37.194  1.00  0.00     0.029 A 
ATOM     71  C   UNL A   1      41.072  31.711  36.125  1.00  0.00     0.049 A 
ATOM     72  H   UNL A   1      41.020  30.717  34.265  1.00  0.00     0.167 HD
ATOM     73  C   UNL A   1      39.189  32.772  34.915  1.00  0.00     0.074 A 
ATOM     74  C   UNL A   1      38.088  33.708  34.812  1.00  0.00     0.031 C 
ATOM     75  C   UNL A   1      39.976  32.638  36.012  1.00  0.00     0.031 A 
BRANCH  62  76
ATOM     76  C   UNL A   1      44.320  28.274  35.443  1.00  0.00    -0.014 A 
ATOM     77  C   UNL A   1      44.107  27.408  36.531  1.00  0.00     0.010 A 
ATOM     78  C   UNL A   1      45.621  28.430  34.934  1.00  0.00     0.010 A 
ATOM     79  C   UNL A   1      45.184  26.750  37.130  1.00  0.00     0.020 A 
ATOM     80  C   UNL A   1      46.697  27.753  35.514  1.00  0.00     0.020 A 
ATOM     81  C   UNL A   1      46.475  26.934  36.623  1.00  0.00     0.054 A 
BRANCH  81  82
ATOM     82  S   UNL A   1      47.857  26.072  37.421  1.00  0.00     0.124 S 
ATOM     83  O   UNL A   1      47.647  26.405  38.827  1.00  0.00    -0.237 OA
ATOM     84  O   UNL A   1      47.616  24.677  37.064  1.00  0.00    -0.237 OA
ATOM     85  O   UNL A   1      49.039  26.672  36.808  1.00  0.00    -0.744 OA
ENDBRANCH  81  82
ENDBRANCH  62  76
BRANCH  63  86
ATOM     86  C   UNL A   1      36.771  32.938  30.882  1.00  0.00    -0.014 A 
ATOM     87  C   UNL A   1      37.021  33.992  29.986  1.00  0.00     0.010 A 
ATOM     88  C   UNL A   1      35.440  32.566  31.147  1.00  0.00     0.010 A 
ATOM     89  C   UNL A   1      35.962  34.670  29.376  1.00  0.00     0.020 A 
ATOM     90  C   UNL A   1      34.379  33.227  30.520  1.00  0.00     0.020 A 
ATOM     91  C   UNL A   1      34.646  34.281  29.645  1.00  0.00     0.054 A 
BRANCH  91  92
ATOM     92  S   UNL A   1      33.289  35.141  28.801  1.00  0.00     0.124 S 
ATOM     93  O   UNL A   1      34.006  36.116  27.986  1.00  0.00    -0.237 OA
ATOM     94  O   UNL A   1      32.638  34.058  28.067  1.00  0.00    -0.237 OA
ATOM     95  O   UNL A   1      32.503  35.698  29.899  1.00  0.00    -0.744 OA
ENDBRANCH  91  92
ENDBRANCH  63  86
BRANCH  75  96
ATOM     96  C   UNL A   1      39.706  33.549  37.181  1.00  0.00    -0.014 A 
ATOM     97  C   UNL A   1      38.978  33.106  38.299  1.00  0.00     0.010 A 
ATOM     98  C   UNL A   1      40.246  34.849  37.185  1.00  0.00     0.010 A 
ATOM     99  C   UNL A   1      38.773  33.957  39.390  1.00  0.00     0.020 A 
ATOM    100  C   UNL A   1      40.064  35.693  38.284  1.00  0.00     0.020 A 
ATOM    101  C   UNL A   1      39.317  35.245  39.376  1.00  0.00     0.054 A 
BRANCH 101 102
ATOM    102  S   UNL A   1      39.082  36.313  40.823  1.00  0.00     0.124 S 
ATOM    103  O   UNL A   1      40.288  36.040  41.601  1.00  0.00    -0.237 OA
ATOM    104  O   UNL A   1      39.004  37.646  40.231  1.00  0.00    -0.237 OA
ATOM    105  O   UNL A   1      37.837  35.828  41.413  1.00  0.00    -0.744 OA
ENDBRANCH 101 102
ENDBRANCH  75  96
ENDBRANCH  49  50
ENDBRANCH  42  44
ENDBRANCH  41  42
ENDBRANCH  40  41
ENDBRANCH  39  40
ENDBRANCH  38  39
ENDBRANCH  37  38
ENDBRANCH   1  37
TORSDOF 26
ENDMDL
MODEL 3
REMARK VINA RESULT:      -9.0      8.533     15.217
REMARK SMILES O=C(CCN1C(=O)S/C(=C\c2ccccc2F)C1=O)Nc1ccc(C(=O)OCCOCCOCCOC(=O)c2ccc(-c3c4nc(c(-c5ccc(S(=O)(=O)[O-])cc5)c5ccc([nH]5)c(-c5ccc(S(=O)(=O)[O-])cc5)c5nc(c(-c6ccc(S(=O)(=O)[O-])cc6)c6ccc3[nH]6)C=C5)C=C4)cc2)c(O)c1
REMARK SMILES IDX 31 1 30 2 29 3 28 4 27 5 25 6 26 7 24 8 21 9 22 10 101 11
REMARK SMILES IDX 23 12 99 13 20 14 1 15 2 16 3 18 4 19 5 20 6 21 18 22 7 23
REMARK SMILES IDX 8 24 9 25 19 26 10 27 11 28 12 29 16 30 13 31 15 32 17 33
REMARK SMILES IDX 14 34 100 35 32 37 33 38 34 39 35 40 36 41 37 42 38 43 39 44
REMARK SMILES IDX 40 45 98 46 41 47 97 48 42 49 43 50 44 51 91 52 45 53 96 54
REMARK SMILES IDX 90 55 92 56 46 57 95 58 89 59 88 60 47 62 77 63 58 64 76 65
REMARK SMILES IDX 59 66 62 67 75 68 93 69 60 70 61 71 74 73 94 74 63 75 48 76
REMARK SMILES IDX 49 77 57 78 50 79 56 80 51 81 52 82 53 83 54 84 55 85 78 86
REMARK SMILES IDX 79 87 87 88 80 89 86 90 81 91 82 92 83 93 84 94 85 95 64 96
REMARK SMILES IDX 65 97 73 98 66 99 72 100 67 101 68 102 69 103 70 104 71 105
REMARK H PARENT 20 17 100 36 92 61 62 72
REMARK Flexibility Score: inf
ROOT
ATOM      1  C   UNL A   1      42.923  21.813  26.857  1.00  0.00     0.188 C 
ENDROOT
BRANCH   1   2
ATOM      2  O   UNL A   1      41.538  21.510  26.998  1.00  0.00    -0.376 OA
BRANCH   2   3
ATOM      3  C   UNL A   1      40.597  22.057  26.085  1.00  0.00     0.202 C 
BRANCH   3   4
ATOM      4  C   UNL A   1      39.145  21.585  26.196  1.00  0.00     0.261 C 
BRANCH   4   5
ATOM      5  O   UNL A   1      38.452  21.604  24.934  1.00  0.00    -0.460 OA
BRANCH   5   6
ATOM      6  C   UNL A   1      37.369  20.786  24.870  1.00  0.00     0.341 C 
ATOM      7  O   UNL A   1      37.363  19.569  24.971  1.00  0.00    -0.246 OA
BRANCH   6   8
ATOM      8  C   UNL A   1      36.132  21.591  24.823  1.00  0.00     0.101 A 
ATOM      9  C   UNL A   1      33.677  22.907  24.743  1.00  0.00     0.044 A 
ATOM     10  C   UNL A   1      33.824  21.780  25.546  1.00  0.00     0.027 A 
ATOM     11  C   UNL A   1      34.754  23.403  24.001  1.00  0.00     0.073 A 
ATOM     12  C   UNL A   1      35.049  21.118  25.580  1.00  0.00     0.022 A 
ATOM     13  C   UNL A   1      35.991  22.758  24.066  1.00  0.00     0.132 A 
BRANCH   9  14
ATOM     14  N   UNL A   1      32.385  23.353  24.466  1.00  0.00    -0.326 N 
ATOM     15  O   UNL A   1      32.694  24.141  22.314  1.00  0.00    -0.275 OA
ATOM     16  C   UNL A   1      31.983  23.957  23.295  1.00  0.00     0.226 C 
ATOM     17  H   UNL A   1      31.704  23.225  25.165  1.00  0.00     0.169 HD
BRANCH  16  18
ATOM     18  C   UNL A   1      30.515  24.352  23.321  1.00  0.00     0.122 C 
BRANCH  18  19
ATOM     19  C   UNL A   1      30.257  25.607  24.161  1.00  0.00     0.140 C 
BRANCH  19  20
ATOM     20  N   UNL A   1      31.376  26.510  24.440  1.00  0.00    -0.268 N 
ATOM     21  C   UNL A   1      31.831  27.357  23.458  1.00  0.00     0.293 C 
ATOM     22  C   UNL A   1      32.130  26.494  25.585  1.00  0.00     0.268 C 
ATOM     23  O   UNL A   1      31.456  27.406  22.297  1.00  0.00    -0.261 OA
ATOM     24  S   UNL A   1      33.120  28.380  24.081  1.00  0.00    -0.022 SA
ATOM     25  C   UNL A   1      32.980  27.711  25.648  1.00  0.00     0.083 C 
ATOM     26  O   UNL A   1      32.086  25.660  26.479  1.00  0.00    -0.268 OA
ATOM     27  C   UNL A   1      33.407  28.161  26.836  1.00  0.00     0.032 C 
BRANCH  27  28
ATOM     28  C   UNL A   1      34.138  29.395  27.161  1.00  0.00     0.012 A 
ATOM     29  C   UNL A   1      35.520  29.295  27.388  1.00  0.00     0.011 A 
ATOM     30  C   UNL A   1      33.522  30.633  27.377  1.00  0.00     0.130 A 
ATOM     31  C   UNL A   1      36.265  30.413  27.773  1.00  0.00     0.001 A 
ATOM     32  C   UNL A   1      34.263  31.756  27.747  1.00  0.00     0.040 A 
ATOM     33  F   UNL A   1      32.192  30.766  27.277  1.00  0.00    -0.206 F 
ATOM     34  C   UNL A   1      35.638  31.647  27.941  1.00  0.00     0.003 A 
ENDBRANCH  27  28
ENDBRANCH  19  20
ENDBRANCH  18  19
ENDBRANCH  16  18
ENDBRANCH   9  14
BRANCH  13  35
ATOM     35  O   UNL A   1      37.013  23.314  23.346  1.00  0.00    -0.507 OA
ATOM     36  H   UNL A   1      37.427  24.098  23.650  1.00  0.00     0.293 HD
ENDBRANCH  13  35
ENDBRANCH   6   8
ENDBRANCH   5   6
ENDBRANCH   4   5
ENDBRANCH   3   4
ENDBRANCH   2   3
ENDBRANCH   1   2
BRANCH   1  37
ATOM     37  C   UNL A   1      43.524  23.004  27.631  1.00  0.00     0.188 C 
BRANCH  37  38
ATOM     38  O   UNL A   1      44.086  22.646  28.883  1.00  0.00    -0.376 OA
BRANCH  38  39
ATOM     39  C   UNL A   1      43.637  23.397  30.002  1.00  0.00     0.202 C 
BRANCH  39  40
ATOM     40  C   UNL A   1      44.628  24.444  30.524  1.00  0.00     0.261 C 
BRANCH  40  41
ATOM     41  O   UNL A   1      44.094  25.388  31.465  1.00  0.00    -0.460 OA
BRANCH  41  42
ATOM     42  C   UNL A   1      44.353  25.174  32.776  1.00  0.00     0.338 C 
ATOM     43  O   UNL A   1      44.951  24.229  33.256  1.00  0.00    -0.246 OA
BRANCH  42  44
ATOM     44  C   UNL A   1      43.922  26.379  33.520  1.00  0.00     0.060 A 
ATOM     45  C   UNL A   1      44.470  27.625  33.192  1.00  0.00     0.016 A 
ATOM     46  C   UNL A   1      42.964  26.274  34.534  1.00  0.00     0.016 A 
ATOM     47  C   UNL A   1      44.075  28.767  33.897  1.00  0.00     0.010 A 
ATOM     48  C   UNL A   1      42.584  27.415  35.247  1.00  0.00     0.010 A 
ATOM     49  C   UNL A   1      43.153  28.664  34.950  1.00  0.00    -0.014 A 
BRANCH  49  50
ATOM     50  C   UNL A   1      42.903  29.817  35.851  1.00  0.00     0.031 A 
ATOM     51  C   UNL A   1      41.752  30.737  35.541  1.00  0.00     0.074 A 
ATOM     52  C   UNL A   1      43.686  30.060  36.918  1.00  0.00     0.049 A 
ATOM     53  N   UNL A   1      41.374  31.828  36.155  1.00  0.00    -0.248 NA
ATOM     54  C   UNL A   1      40.920  30.376  34.382  1.00  0.00     0.031 C 
ATOM     55  C   UNL A   1      44.810  29.232  37.353  1.00  0.00     0.029 A 
ATOM     56  N   UNL A   1      43.654  31.088  37.829  1.00  0.00    -0.354 N 
ATOM     57  C   UNL A   1      40.259  32.283  35.461  1.00  0.00     0.074 A 
ATOM     58  C   UNL A   1      40.042  31.367  34.361  1.00  0.00     0.031 C 
ATOM     59  C   UNL A   1      45.363  29.787  38.447  1.00  0.00     0.029 A 
ATOM     60  C   UNL A   1      44.654  31.026  38.770  1.00  0.00     0.049 A 
ATOM     61  H   UNL A   1      42.978  31.803  37.809  1.00  0.00     0.167 HD
ATOM     62  C   UNL A   1      39.478  33.361  35.714  1.00  0.00     0.031 A 
ATOM     63  C   UNL A   1      44.972  31.878  39.766  1.00  0.00     0.031 A 
ATOM     64  C   UNL A   1      39.709  34.294  36.784  1.00  0.00     0.049 A 
ATOM     65  C   UNL A   1      44.149  33.125  39.971  1.00  0.00     0.074 A 
ATOM     66  C   UNL A   1      38.973  35.418  37.120  1.00  0.00     0.029 A 
ATOM     67  N   UNL A   1      40.759  34.220  37.684  1.00  0.00    -0.354 N 
ATOM     68  N   UNL A   1      43.083  33.528  39.320  1.00  0.00    -0.248 NA
ATOM     69  C   UNL A   1      44.572  34.031  41.050  1.00  0.00     0.031 C 
ATOM     70  C   UNL A   1      39.609  36.051  38.195  1.00  0.00     0.029 A 
ATOM     71  C   UNL A   1      40.708  35.289  38.562  1.00  0.00     0.049 A 
ATOM     72  H   UNL A   1      41.441  33.510  37.699  1.00  0.00     0.167 HD
ATOM     73  C   UNL A   1      42.693  34.717  39.929  1.00  0.00     0.074 A 
ATOM     74  C   UNL A   1      43.632  34.966  41.004  1.00  0.00     0.031 C 
ATOM     75  C   UNL A   1      41.648  35.527  39.628  1.00  0.00     0.031 A 
BRANCH  62  76
ATOM     76  C   UNL A   1      38.321  33.602  34.784  1.00  0.00    -0.014 A 
ATOM     77  C   UNL A   1      38.512  34.229  33.539  1.00  0.00     0.010 A 
ATOM     78  C   UNL A   1      37.028  33.192  35.155  1.00  0.00     0.010 A 
ATOM     79  C   UNL A   1      37.422  34.487  32.703  1.00  0.00     0.020 A 
ATOM     80  C   UNL A   1      35.939  33.425  34.311  1.00  0.00     0.020 A 
ATOM     81  C   UNL A   1      36.140  34.091  33.099  1.00  0.00     0.054 A 
BRANCH  81  82
ATOM     82  S   UNL A   1      34.741  34.440  32.000  1.00  0.00     0.124 S 
ATOM     83  O   UNL A   1      34.403  35.812  32.370  1.00  0.00    -0.237 OA
ATOM     84  O   UNL A   1      35.325  34.275  30.672  1.00  0.00    -0.237 OA
ATOM     85  O   UNL A   1      33.749  33.433  32.370  1.00  0.00    -0.744 OA
ENDBRANCH  81  82
ENDBRANCH  62  76
BRANCH  63  86
ATOM     86  C   UNL A   1      46.134  31.590  40.653  1.00  0.00    -0.014 A 
ATOM     87  C   UNL A   1      45.961  30.856  41.839  1.00  0.00     0.010 A 
ATOM     88  C   UNL A   1      47.418  32.058  40.319  1.00  0.00     0.010 A 
ATOM     89  C   UNL A   1      47.047  30.604  42.682  1.00  0.00     0.020 A 
ATOM     90  C   UNL A   1      48.511  31.788  41.148  1.00  0.00     0.020 A 
ATOM     91  C   UNL A   1      48.317  31.071  42.330  1.00  0.00     0.054 A 
BRANCH  91  92
ATOM     92  S   UNL A   1      49.723  30.687  43.412  1.00  0.00     0.124 S 
ATOM     93  O   UNL A   1      49.367  29.365  43.916  1.00  0.00    -0.237 OA
ATOM     94  O   UNL A   1      50.853  30.729  42.488  1.00  0.00    -0.237 OA
ATOM     95  O   UNL A   1      49.696  31.763  44.400  1.00  0.00    -0.744 OA
ENDBRANCH  91  92
ENDBRANCH  63  86
BRANCH  75  96
ATOM     96  C   UNL A   1      41.433  36.742  40.493  1.00  0.00    -0.014 A 
ATOM     97  C   UNL A   1      41.908  38.007  40.105  1.00  0.00     0.010 A 
ATOM     98  C   UNL A   1      40.688  36.623  41.681  1.00  0.00     0.010 A 
ATOM     99  C   UNL A   1      41.663  39.128  40.905  1.00  0.00     0.020 A 
ATOM    100  C   UNL A   1      40.420  37.746  42.470  1.00  0.00     0.020 A 
ATOM    101  C   UNL A   1      40.921  38.990  42.082  1.00  0.00     0.054 A 
BRANCH 101 102
ATOM    102  S   UNL A   1      40.572  40.467  43.077  1.00  0.00     0.124 S 
ATOM    103  O   UNL A   1      41.260  41.512  42.322  1.00  0.00    -0.237 OA
ATOM    104  O   UNL A   1      39.113  40.533  43.056  1.00  0.00    -0.237 OA
ATOM    105  O   UNL A   1      41.156  40.153  44.379  1.00  0.00    -0.744 OA
ENDBRANCH 101 102
ENDBRANCH  75  96
ENDBRANCH  49  50
ENDBRANCH  42  44
ENDBRANCH  41  42
ENDBRANCH  40  41
ENDBRANCH  39  40
ENDBRANCH  38  39
ENDBRANCH  37  38
ENDBRANCH   1  37
TORSDOF 26
ENDMDL
