MODEL 1
REMARK VINA RESULT:      -9.0      0.000      0.000
REMARK SMILES O=C(CSc1nnnn1-c1ccc(C(=O)OCCOCCOCCOC(=O)c2ccc(-c3c4nc(c(-c5ccc(S(=O)(=O)[O-])cc5)c5ccc([nH]5)c(-c5ccc(S(=O)(=O)[O-])cc5)c5nc(c(-c6ccc(S(=O)(=O)[O-])cc6)c6ccc3[nH]6)C=C5)C=C4)cc2)cc1)Nc1nc(-c2ccccc2)cs1
REMARK SMILES IDX 19 1 18 2 17 3 16 4 14 5 15 6 13 7 10 8 11 9 89 10 12 11
REMARK SMILES IDX 88 12 9 13 5 14 6 15 7 16 8 17 4 18 3 19 2 20 1 21 90 22
REMARK SMILES IDX 91 24 92 25 101 26 93 27 100 28 94 29 95 30 99 31 96 32
REMARK SMILES IDX 98 33 97 34 20 35 21 36 22 37 23 38 24 39 25 40 26 41 27 42
REMARK SMILES IDX 28 43 29 44 87 45 30 46 86 47 31 48 32 49 33 50 80 51 34 52
REMARK SMILES IDX 85 53 79 54 81 55 35 56 84 57 78 58 77 59 36 61 66 62 47 63
REMARK SMILES IDX 65 64 48 65 51 66 64 67 82 68 49 69 50 70 63 72 83 73 52 74
REMARK SMILES IDX 37 75 38 76 46 77 39 78 45 79 40 80 41 81 42 82 43 83 44 84
REMARK SMILES IDX 67 85 68 86 76 87 69 88 75 89 70 90 71 91 72 92 73 93 74 94
REMARK SMILES IDX 53 95 54 96 62 97 55 98 61 99 56 100 57 101 58 102 59 103
REMARK SMILES IDX 60 104
REMARK H PARENT 90 23 81 60 51 71
REMARK Flexibility Score: inf
ROOT
ATOM      1  O   UNL A   1      34.666  36.032  33.513  1.00  0.00    -0.376 OA
ENDROOT
BRANCH   1   2
ATOM      2  C   UNL A   1      34.914  34.927  34.371  1.00  0.00     0.202 C 
BRANCH   2   3
ATOM      3  C   UNL A   1      36.246  34.170  34.242  1.00  0.00     0.261 C 
BRANCH   3   4
ATOM      4  O   UNL A   1      36.361  33.030  35.107  1.00  0.00    -0.460 OA
BRANCH   4   5
ATOM      5  C   UNL A   1      37.343  32.150  34.802  1.00  0.00     0.338 C 
ATOM      6  O   UNL A   1      37.432  31.464  33.797  1.00  0.00    -0.246 OA
BRANCH   5   7
ATOM      7  C   UNL A   1      38.422  32.218  35.815  1.00  0.00     0.060 A 
ATOM      8  C   UNL A   1      40.415  32.520  37.732  1.00  0.00     0.069 A 
ATOM      9  C   UNL A   1      39.143  33.032  37.990  1.00  0.00     0.029 A 
ATOM     10  C   UNL A   1      40.664  31.758  36.584  1.00  0.00     0.029 A 
ATOM     11  C   UNL A   1      38.155  32.902  37.012  1.00  0.00     0.018 A 
ATOM     12  C   UNL A   1      39.665  31.607  35.621  1.00  0.00     0.018 A 
BRANCH   8  13
ATOM     13  N   UNL A   1      41.473  32.828  38.602  1.00  0.00    -0.187 N 
ATOM     14  C   UNL A   1      42.385  33.870  38.540  1.00  0.00     0.214 A 
ATOM     15  N   UNL A   1      43.235  33.740  39.536  1.00  0.00    -0.101 NA
ATOM     16  N   UNL A   1      42.785  32.673  40.276  1.00  0.00    -0.022 NA
ATOM     17  N   UNL A   1      41.665  32.175  39.767  1.00  0.00    -0.039 NA
BRANCH  14  18
ATOM     18  S   UNL A   1      42.122  35.391  37.732  1.00  0.00    -0.074 SA
BRANCH  18  19
ATOM     19  C   UNL A   1      42.146  35.016  35.971  1.00  0.00     0.178 C 
BRANCH  19  20
ATOM     20  C   UNL A   1      42.059  36.232  35.078  1.00  0.00     0.236 C 
ATOM     21  O   UNL A   1      41.007  36.862  35.018  1.00  0.00    -0.274 OA
ATOM     22  N   UNL A   1      43.241  36.528  34.440  1.00  0.00    -0.301 N 
ATOM     23  H   UNL A   1      43.987  35.888  34.496  1.00  0.00     0.172 HD
BRANCH  22  24
ATOM     24  C   UNL A   1      43.410  37.681  33.732  1.00  0.00     0.189 A 
ATOM     25  N   UNL A   1      43.020  38.891  34.029  1.00  0.00    -0.220 NA
ATOM     26  S   UNL A   1      44.287  37.491  32.281  1.00  0.00    -0.105 S 
ATOM     27  C   UNL A   1      43.369  39.743  33.002  1.00  0.00     0.084 A 
ATOM     28  C   UNL A   1      44.061  39.163  31.957  1.00  0.00     0.097 A 
BRANCH  27  29
ATOM     29  C   UNL A   1      43.030  41.149  33.046  1.00  0.00     0.001 A 
ATOM     30  C   UNL A   1      43.029  41.826  34.271  1.00  0.00     0.010 A 
ATOM     31  C   UNL A   1      42.676  41.831  31.876  1.00  0.00     0.010 A 
ATOM     32  C   UNL A   1      42.696  43.180  34.323  1.00  0.00     0.001 A 
ATOM     33  C   UNL A   1      42.334  43.182  31.932  1.00  0.00     0.001 A 
ATOM     34  C   UNL A   1      42.349  43.857  33.154  1.00  0.00     0.000 A 
ENDBRANCH  27  29
ENDBRANCH  22  24
ENDBRANCH  19  20
ENDBRANCH  18  19
ENDBRANCH  14  18
ENDBRANCH   8  13
ENDBRANCH   5   7
ENDBRANCH   4   5
ENDBRANCH   3   4
ENDBRANCH   2   3
ENDBRANCH   1   2
BRANCH   1  35
ATOM     35  C   UNL A   1      34.349  35.805  32.145  1.00  0.00     0.188 C 
BRANCH  35  36
ATOM     36  C   UNL A   1      32.915  35.441  31.696  1.00  0.00     0.188 C 
BRANCH  36  37
ATOM     37  O   UNL A   1      32.782  34.963  30.363  1.00  0.00    -0.376 OA
BRANCH  37  38
ATOM     38  C   UNL A   1      33.988  34.954  29.601  1.00  0.00     0.202 C 
BRANCH  38  39
ATOM     39  C   UNL A   1      33.928  34.056  28.365  1.00  0.00     0.261 C 
BRANCH  39  40
ATOM     40  O   UNL A   1      35.025  33.154  28.249  1.00  0.00    -0.460 OA
BRANCH  40  41
ATOM     41  C   UNL A   1      34.704  31.861  28.031  1.00  0.00     0.338 C 
ATOM     42  O   UNL A   1      33.809  31.444  27.320  1.00  0.00    -0.246 OA
BRANCH  41  43
ATOM     43  C   UNL A   1      35.596  31.008  28.831  1.00  0.00     0.060 A 
ATOM     44  C   UNL A   1      36.278  31.619  29.886  1.00  0.00     0.016 A 
ATOM     45  C   UNL A   1      35.925  29.717  28.390  1.00  0.00     0.016 A 
ATOM     46  C   UNL A   1      37.441  31.034  30.340  1.00  0.00     0.010 A 
ATOM     47  C   UNL A   1      37.092  29.137  28.839  1.00  0.00     0.010 A 
ATOM     48  C   UNL A   1      37.886  29.860  29.726  1.00  0.00    -0.014 A 
BRANCH  48  49
ATOM     49  C   UNL A   1      39.290  29.534  29.890  1.00  0.00     0.031 A 
ATOM     50  C   UNL A   1      39.777  29.325  31.263  1.00  0.00     0.074 A 
ATOM     51  C   UNL A   1      40.088  29.381  28.815  1.00  0.00     0.049 A 
ATOM     52  N   UNL A   1      40.669  30.005  31.904  1.00  0.00    -0.248 NA
ATOM     53  C   UNL A   1      39.144  28.253  32.040  1.00  0.00     0.031 C 
ATOM     54  C   UNL A   1      39.671  29.241  27.414  1.00  0.00     0.029 A 
ATOM     55  N   UNL A   1      41.436  29.191  28.764  1.00  0.00    -0.354 N 
ATOM     56  C   UNL A   1      40.852  29.334  33.106  1.00  0.00     0.074 A 
ATOM     57  C   UNL A   1      39.800  28.352  33.196  1.00  0.00     0.031 C 
ATOM     58  C   UNL A   1      40.708  28.761  26.694  1.00  0.00     0.029 A 
ATOM     59  C   UNL A   1      41.878  28.685  27.553  1.00  0.00     0.049 A 
ATOM     60  H   UNL A   1      42.038  29.395  29.516  1.00  0.00     0.167 HD
ATOM     61  C   UNL A   1      41.983  29.467  33.848  1.00  0.00     0.031 A 
ATOM     62  C   UNL A   1      43.092  28.140  27.302  1.00  0.00     0.031 A 
ATOM     63  C   UNL A   1      42.759  30.621  33.483  1.00  0.00     0.049 A 
ATOM     64  C   UNL A   1      44.030  28.602  28.352  1.00  0.00     0.074 A 
ATOM     65  C   UNL A   1      42.540  31.983  33.475  1.00  0.00     0.029 A 
ATOM     66  N   UNL A   1      43.892  30.408  32.735  1.00  0.00    -0.354 N 
ATOM     67  N   UNL A   1      44.431  29.837  28.489  1.00  0.00    -0.248 NA
ATOM     68  C   UNL A   1      44.275  27.742  29.500  1.00  0.00     0.031 C 
ATOM     69  C   UNL A   1      43.319  32.488  32.397  1.00  0.00     0.029 A 
ATOM     70  C   UNL A   1      43.975  31.409  31.800  1.00  0.00     0.049 A 
ATOM     71  H   UNL A   1      44.531  29.669  32.850  1.00  0.00     0.167 HD
ATOM     72  C   UNL A   1      44.617  30.008  29.853  1.00  0.00     0.074 A 
ATOM     73  C   UNL A   1      44.635  28.658  30.402  1.00  0.00     0.031 C 
ATOM     74  C   UNL A   1      44.463  31.227  30.445  1.00  0.00     0.031 A 
BRANCH  61  75
ATOM     75  C   UNL A   1      42.560  28.336  34.656  1.00  0.00    -0.014 A 
ATOM     76  C   UNL A   1      42.337  28.293  36.045  1.00  0.00     0.010 A 
ATOM     77  C   UNL A   1      43.542  27.467  34.132  1.00  0.00     0.010 A 
ATOM     78  C   UNL A   1      43.100  27.460  36.873  1.00  0.00     0.020 A 
ATOM     79  C   UNL A   1      44.272  26.599  34.941  1.00  0.00     0.020 A 
ATOM     80  C   UNL A   1      44.075  26.631  36.313  1.00  0.00     0.054 A 
BRANCH  80  81
ATOM     81  S   UNL A   1      45.148  25.655  37.396  1.00  0.00     0.124 S 
ATOM     82  O   UNL A   1      45.299  24.423  36.628  1.00  0.00    -0.237 OA
ATOM     83  O   UNL A   1      46.340  26.492  37.496  1.00  0.00    -0.237 OA
ATOM     84  O   UNL A   1      44.371  25.538  38.628  1.00  0.00    -0.744 OA
ENDBRANCH  80  81
ENDBRANCH  61  75
BRANCH  62  85
ATOM     85  C   UNL A   1      43.366  26.984  26.411  1.00  0.00    -0.014 A 
ATOM     86  C   UNL A   1      44.531  26.929  25.629  1.00  0.00     0.010 A 
ATOM     87  C   UNL A   1      42.591  25.808  26.516  1.00  0.00     0.010 A 
ATOM     88  C   UNL A   1      44.928  25.730  25.012  1.00  0.00     0.020 A 
ATOM     89  C   UNL A   1      42.970  24.617  25.893  1.00  0.00     0.020 A 
ATOM     90  C   UNL A   1      44.150  24.577  25.160  1.00  0.00     0.054 A 
BRANCH  90  91
ATOM     91  S   UNL A   1      44.747  22.998  24.493  1.00  0.00     0.124 S 
ATOM     92  O   UNL A   1      43.643  22.589  23.630  1.00  0.00    -0.237 OA
ATOM     93  O   UNL A   1      45.977  23.386  23.808  1.00  0.00    -0.237 OA
ATOM     94  O   UNL A   1      44.941  22.173  25.685  1.00  0.00    -0.744 OA
ENDBRANCH  90  91
ENDBRANCH  62  85
BRANCH  74  95
ATOM     95  C   UNL A   1      44.488  32.464  29.578  1.00  0.00    -0.014 A 
ATOM     96  C   UNL A   1      43.343  32.979  28.943  1.00  0.00     0.010 A 
ATOM     97  C   UNL A   1      45.672  33.226  29.554  1.00  0.00     0.010 A 
ATOM     98  C   UNL A   1      43.382  34.224  28.297  1.00  0.00     0.020 A 
ATOM     99  C   UNL A   1      45.712  34.474  28.925  1.00  0.00     0.020 A 
ATOM    100  C   UNL A   1      44.566  34.967  28.298  1.00  0.00     0.054 A 
BRANCH 100 101
ATOM    101  S   UNL A   1      44.578  36.623  27.553  1.00  0.00     0.124 S 
ATOM    102  O   UNL A   1      45.991  36.824  27.250  1.00  0.00    -0.237 OA
ATOM    103  O   UNL A   1      43.702  36.467  26.393  1.00  0.00    -0.237 OA
ATOM    104  O   UNL A   1      44.041  37.482  28.608  1.00  0.00    -0.744 OA
ENDBRANCH 100 101
ENDBRANCH  74  95
ENDBRANCH  48  49
ENDBRANCH  41  43
ENDBRANCH  40  41
ENDBRANCH  39  40
ENDBRANCH  38  39
ENDBRANCH  37  38
ENDBRANCH  36  37
ENDBRANCH  35  36
ENDBRANCH   1  35
TORSDOF 26
ENDMDL
MODEL 2
REMARK VINA RESULT:      -8.1      3.519      6.580
REMARK SMILES O=C(CSc1nnnn1-c1ccc(C(=O)OCCOCCOCCOC(=O)c2ccc(-c3c4nc(c(-c5ccc(S(=O)(=O)[O-])cc5)c5ccc([nH]5)c(-c5ccc(S(=O)(=O)[O-])cc5)c5nc(c(-c6ccc(S(=O)(=O)[O-])cc6)c6ccc3[nH]6)C=C5)C=C4)cc2)cc1)Nc1nc(-c2ccccc2)cs1
REMARK SMILES IDX 19 1 18 2 17 3 16 4 14 5 15 6 13 7 10 8 11 9 89 10 12 11
REMARK SMILES IDX 88 12 9 13 5 14 6 15 7 16 8 17 4 18 3 19 2 20 1 21 90 22
REMARK SMILES IDX 91 24 92 25 101 26 93 27 100 28 94 29 95 30 99 31 96 32
REMARK SMILES IDX 98 33 97 34 20 35 21 36 22 37 23 38 24 39 25 40 26 41 27 42
REMARK SMILES IDX 28 43 29 44 87 45 30 46 86 47 31 48 32 49 33 50 80 51 34 52
REMARK SMILES IDX 85 53 79 54 81 55 35 56 84 57 78 58 77 59 36 61 66 62 47 63
REMARK SMILES IDX 65 64 48 65 51 66 64 67 82 68 49 69 50 70 63 72 83 73 52 74
REMARK SMILES IDX 37 75 38 76 46 77 39 78 45 79 40 80 41 81 42 82 43 83 44 84
REMARK SMILES IDX 67 85 68 86 76 87 69 88 75 89 70 90 71 91 72 92 73 93 74 94
REMARK SMILES IDX 53 95 54 96 62 97 55 98 61 99 56 100 57 101 58 102 59 103
REMARK SMILES IDX 60 104
REMARK H PARENT 90 23 81 60 51 71
REMARK Flexibility Score: inf
ROOT
ATOM      1  O   UNL A   1      34.794  35.985  33.054  1.00  0.00    -0.376 OA
ENDROOT
BRANCH   1   2
ATOM      2  C   UNL A   1      34.910  35.024  34.094  1.00  0.00     0.202 C 
BRANCH   2   3
ATOM      3  C   UNL A   1      36.297  34.454  34.428  1.00  0.00     0.261 C 
BRANCH   3   4
ATOM      4  O   UNL A   1      36.266  33.191  35.111  1.00  0.00    -0.460 OA
BRANCH   4   5
ATOM      5  C   UNL A   1      37.369  32.418  34.979  1.00  0.00     0.338 C 
ATOM      6  O   UNL A   1      37.731  31.813  33.985  1.00  0.00    -0.246 OA
BRANCH   5   7
ATOM      7  C   UNL A   1      38.201  32.504  36.203  1.00  0.00     0.060 A 
ATOM      8  C   UNL A   1      39.652  32.793  38.558  1.00  0.00     0.069 A 
ATOM      9  C   UNL A   1      38.268  32.631  38.631  1.00  0.00     0.029 A 
ATOM     10  C   UNL A   1      40.325  32.691  37.335  1.00  0.00     0.029 A 
ATOM     11  C   UNL A   1      37.542  32.514  37.443  1.00  0.00     0.018 A 
ATOM     12  C   UNL A   1      39.598  32.548  36.152  1.00  0.00     0.018 A 
BRANCH   8  13
ATOM     13  N   UNL A   1      40.369  33.127  39.718  1.00  0.00    -0.187 N 
ATOM     14  C   UNL A   1      40.252  34.243  40.531  1.00  0.00     0.214 A 
ATOM     15  N   UNL A   1      41.162  34.166  41.479  1.00  0.00    -0.101 NA
ATOM     16  N   UNL A   1      41.776  32.949  41.311  1.00  0.00    -0.022 NA
ATOM     17  N   UNL A   1      41.237  32.274  40.303  1.00  0.00    -0.039 NA
BRANCH  14  18
ATOM     18  S   UNL A   1      38.823  35.226  40.691  1.00  0.00    -0.074 SA
BRANCH  18  19
ATOM     19  C   UNL A   1      38.258  34.990  42.384  1.00  0.00     0.178 C 
BRANCH  19  20
ATOM     20  C   UNL A   1      37.105  34.023  42.523  1.00  0.00     0.236 C 
ATOM     21  O   UNL A   1      36.841  33.262  41.596  1.00  0.00    -0.274 OA
ATOM     22  N   UNL A   1      36.483  34.084  43.748  1.00  0.00    -0.301 N 
ATOM     23  H   UNL A   1      36.728  34.805  44.371  1.00  0.00     0.172 HD
BRANCH  22  24
ATOM     24  C   UNL A   1      35.539  33.175  44.124  1.00  0.00     0.189 A 
ATOM     25  N   UNL A   1      35.687  32.068  44.799  1.00  0.00    -0.220 NA
ATOM     26  S   UNL A   1      33.947  33.588  43.667  1.00  0.00    -0.105 S 
ATOM     27  C   UNL A   1      34.465  31.440  44.912  1.00  0.00     0.084 A 
ATOM     28  C   UNL A   1      33.396  32.113  44.353  1.00  0.00     0.097 A 
BRANCH  27  29
ATOM     29  C   UNL A   1      34.336  30.167  45.589  1.00  0.00     0.001 A 
ATOM     30  C   UNL A   1      33.272  29.315  45.272  1.00  0.00     0.010 A 
ATOM     31  C   UNL A   1      35.252  29.794  46.579  1.00  0.00     0.010 A 
ATOM     32  C   UNL A   1      33.137  28.090  45.925  1.00  0.00     0.001 A 
ATOM     33  C   UNL A   1      35.109  28.572  47.238  1.00  0.00     0.001 A 
ATOM     34  C   UNL A   1      34.055  27.719  46.908  1.00  0.00     0.000 A 
ENDBRANCH  27  29
ENDBRANCH  22  24
ENDBRANCH  19  20
ENDBRANCH  18  19
ENDBRANCH  14  18
ENDBRANCH   8  13
ENDBRANCH   5   7
ENDBRANCH   4   5
ENDBRANCH   3   4
ENDBRANCH   2   3
ENDBRANCH   1   2
BRANCH   1  35
ATOM     35  C   UNL A   1      34.446  35.564  31.741  1.00  0.00     0.188 C 
BRANCH  35  36
ATOM     36  C   UNL A   1      32.972  35.479  31.282  1.00  0.00     0.188 C 
BRANCH  36  37
ATOM     37  O   UNL A   1      32.763  35.126  29.919  1.00  0.00    -0.376 OA
BRANCH  37  38
ATOM     38  C   UNL A   1      33.951  34.978  29.144  1.00  0.00     0.202 C 
BRANCH  38  39
ATOM     39  C   UNL A   1      33.803  34.011  27.969  1.00  0.00     0.261 C 
BRANCH  39  40
ATOM     40  O   UNL A   1      34.822  33.019  27.902  1.00  0.00    -0.460 OA
BRANCH  40  41
ATOM     41  C   UNL A   1      34.405  31.761  27.646  1.00  0.00     0.338 C 
ATOM     42  O   UNL A   1      33.441  31.437  26.978  1.00  0.00    -0.246 OA
BRANCH  41  43
ATOM     43  C   UNL A   1      35.288  30.815  28.345  1.00  0.00     0.060 A 
ATOM     44  C   UNL A   1      35.712  31.173  29.627  1.00  0.00     0.016 A 
ATOM     45  C   UNL A   1      35.864  29.739  27.652  1.00  0.00     0.016 A 
ATOM     46  C   UNL A   1      36.871  30.607  30.115  1.00  0.00     0.010 A 
ATOM     47  C   UNL A   1      37.027  29.180  28.137  1.00  0.00     0.010 A 
ATOM     48  C   UNL A   1      37.569  29.704  29.309  1.00  0.00    -0.014 A 
BRANCH  48  49
ATOM     49  C   UNL A   1      38.967  29.491  29.631  1.00  0.00     0.031 A 
ATOM     50  C   UNL A   1      39.318  29.370  31.055  1.00  0.00     0.074 A 
ATOM     51  C   UNL A   1      39.884  29.360  28.653  1.00  0.00     0.049 A 
ATOM     52  N   UNL A   1      40.085  30.139  31.755  1.00  0.00    -0.248 NA
ATOM     53  C   UNL A   1      38.684  28.282  31.810  1.00  0.00     0.031 C 
ATOM     54  C   UNL A   1      39.630  29.138  27.223  1.00  0.00     0.029 A 
ATOM     55  N   UNL A   1      41.239  29.271  28.750  1.00  0.00    -0.354 N 
ATOM     56  C   UNL A   1      40.186  29.528  32.998  1.00  0.00     0.074 A 
ATOM     57  C   UNL A   1      39.203  28.473  33.022  1.00  0.00     0.031 C 
ATOM     58  C   UNL A   1      40.769  28.712  26.638  1.00  0.00     0.029 A 
ATOM     59  C   UNL A   1      41.844  28.756  27.615  1.00  0.00     0.049 A 
ATOM     60  H   UNL A   1      41.742  29.548  29.551  1.00  0.00     0.167 HD
ATOM     61  C   UNL A   1      41.219  29.774  33.847  1.00  0.00     0.031 A 
ATOM     62  C   UNL A   1      43.113  28.295  27.516  1.00  0.00     0.031 A 
ATOM     63  C   UNL A   1      41.945  30.969  33.513  1.00  0.00     0.049 A 
ATOM     64  C   UNL A   1      43.898  28.866  28.636  1.00  0.00     0.074 A 
ATOM     65  C   UNL A   1      41.632  32.309  33.422  1.00  0.00     0.029 A 
ATOM     66  N   UNL A   1      43.164  30.815  32.897  1.00  0.00    -0.354 N 
ATOM     67  N   UNL A   1      44.192  30.131  28.759  1.00  0.00    -0.248 NA
ATOM     68  C   UNL A   1      44.080  28.069  29.841  1.00  0.00     0.031 C 
ATOM     69  C   UNL A   1      42.483  32.832  32.409  1.00  0.00     0.029 A 
ATOM     70  C   UNL A   1      43.275  31.784  31.932  1.00  0.00     0.049 A 
ATOM     71  H   UNL A   1      43.839  30.131  33.111  1.00  0.00     0.167 HD
ATOM     72  C   UNL A   1      44.220  30.365  30.126  1.00  0.00     0.074 A 
ATOM     73  C   UNL A   1      44.275  29.042  30.734  1.00  0.00     0.031 C 
ATOM     74  C   UNL A   1      43.916  31.590  30.645  1.00  0.00     0.031 A 
BRANCH  61  75
ATOM     75  C   UNL A   1      41.786  28.719  34.759  1.00  0.00    -0.014 A 
ATOM     76  C   UNL A   1      42.380  29.104  35.976  1.00  0.00     0.010 A 
ATOM     77  C   UNL A   1      41.997  27.392  34.328  1.00  0.00     0.010 A 
ATOM     78  C   UNL A   1      43.191  28.216  36.696  1.00  0.00     0.020 A 
ATOM     79  C   UNL A   1      42.760  26.486  35.062  1.00  0.00     0.020 A 
ATOM     80  C   UNL A   1      43.387  26.917  36.221  1.00  0.00     0.054 A 
BRANCH  80  81
ATOM     81  S   UNL A   1      44.538  25.816  37.081  1.00  0.00     0.124 S 
ATOM     82  O   UNL A   1      44.319  26.192  38.475  1.00  0.00    -0.237 OA
ATOM     83  O   UNL A   1      44.056  24.493  36.697  1.00  0.00    -0.237 OA
ATOM     84  O   UNL A   1      45.838  26.185  36.527  1.00  0.00    -0.744 OA
ENDBRANCH  80  81
ENDBRANCH  61  75
BRANCH  62  85
ATOM     85  C   UNL A   1      43.562  27.132  26.711  1.00  0.00    -0.014 A 
ATOM     86  C   UNL A   1      44.712  27.203  25.908  1.00  0.00     0.010 A 
ATOM     87  C   UNL A   1      42.991  25.858  26.925  1.00  0.00     0.010 A 
ATOM     88  C   UNL A   1      45.293  26.040  25.376  1.00  0.00     0.020 A 
ATOM     89  C   UNL A   1      43.552  24.698  26.386  1.00  0.00     0.020 A 
ATOM     90  C   UNL A   1      44.715  24.791  25.631  1.00  0.00     0.054 A 
BRANCH  90  91
ATOM     91  S   UNL A   1      45.555  23.281  25.074  1.00  0.00     0.124 S 
ATOM     92  O   UNL A   1      46.398  22.956  26.220  1.00  0.00    -0.237 OA
ATOM     93  O   UNL A   1      44.441  22.370  24.827  1.00  0.00    -0.237 OA
ATOM     94  O   UNL A   1      46.276  23.711  23.876  1.00  0.00    -0.744 OA
ENDBRANCH  90  91
ENDBRANCH  62  85
BRANCH  74  95
ATOM     95  C   UNL A   1      43.945  32.793  29.730  1.00  0.00    -0.014 A 
ATOM     96  C   UNL A   1      42.783  33.380  29.198  1.00  0.00     0.010 A 
ATOM     97  C   UNL A   1      45.176  33.454  29.553  1.00  0.00     0.010 A 
ATOM     98  C   UNL A   1      42.851  34.596  28.502  1.00  0.00     0.020 A 
ATOM     99  C   UNL A   1      45.246  34.674  28.874  1.00  0.00     0.020 A 
ATOM    100  C   UNL A   1      44.082  35.240  28.350  1.00  0.00     0.054 A 
BRANCH 100 101
ATOM    101  S   UNL A   1      44.144  36.864  27.542  1.00  0.00     0.124 S 
ATOM    102  O   UNL A   1      44.293  37.775  28.673  1.00  0.00    -0.237 OA
ATOM    103  O   UNL A   1      45.311  36.752  26.669  1.00  0.00    -0.237 OA
ATOM    104  O   UNL A   1      42.865  36.952  26.839  1.00  0.00    -0.744 OA
ENDBRANCH 100 101
ENDBRANCH  74  95
ENDBRANCH  48  49
ENDBRANCH  41  43
ENDBRANCH  40  41
ENDBRANCH  39  40
ENDBRANCH  38  39
ENDBRANCH  37  38
ENDBRANCH  36  37
ENDBRANCH  35  36
ENDBRANCH   1  35
TORSDOF 26
ENDMDL
MODEL 3
REMARK VINA RESULT:      -7.7      4.790     11.510
REMARK SMILES O=C(CSc1nnnn1-c1ccc(C(=O)OCCOCCOCCOC(=O)c2ccc(-c3c4nc(c(-c5ccc(S(=O)(=O)[O-])cc5)c5ccc([nH]5)c(-c5ccc(S(=O)(=O)[O-])cc5)c5nc(c(-c6ccc(S(=O)(=O)[O-])cc6)c6ccc3[nH]6)C=C5)C=C4)cc2)cc1)Nc1nc(-c2ccccc2)cs1
REMARK SMILES IDX 19 1 18 2 17 3 16 4 14 5 15 6 13 7 10 8 11 9 89 10 12 11
REMARK SMILES IDX 88 12 9 13 5 14 6 15 7 16 8 17 4 18 3 19 2 20 1 21 90 22
REMARK SMILES IDX 91 24 92 25 101 26 93 27 100 28 94 29 95 30 99 31 96 32
REMARK SMILES IDX 98 33 97 34 20 35 21 36 22 37 23 38 24 39 25 40 26 41 27 42
REMARK SMILES IDX 28 43 29 44 87 45 30 46 86 47 31 48 32 49 33 50 80 51 34 52
REMARK SMILES IDX 85 53 79 54 81 55 35 56 84 57 78 58 77 59 36 61 66 62 47 63
REMARK SMILES IDX 65 64 48 65 51 66 64 67 82 68 49 69 50 70 63 72 83 73 52 74
REMARK SMILES IDX 37 75 38 76 46 77 39 78 45 79 40 80 41 81 42 82 43 83 44 84
REMARK SMILES IDX 67 85 68 86 76 87 69 88 75 89 70 90 71 91 72 92 73 93 74 94
REMARK SMILES IDX 53 95 54 96 62 97 55 98 61 99 56 100 57 101 58 102 59 103
REMARK SMILES IDX 60 104
REMARK H PARENT 90 23 81 60 51 71
REMARK Flexibility Score: inf
ROOT
ATOM      1  O   UNL A   1      48.230  41.211  27.735  1.00  0.00    -0.376 OA
ENDROOT
BRANCH   1   2
ATOM      2  C   UNL A   1      48.519  42.595  27.595  1.00  0.00     0.202 C 
BRANCH   2   3
ATOM      3  C   UNL A   1      47.534  43.622  28.176  1.00  0.00     0.261 C 
BRANCH   3   4
ATOM      4  O   UNL A   1      46.466  43.983  27.285  1.00  0.00    -0.460 OA
BRANCH   4   5
ATOM      5  C   UNL A   1      46.807  44.769  26.238  1.00  0.00     0.338 C 
ATOM      6  O   UNL A   1      47.723  45.571  26.186  1.00  0.00    -0.246 OA
BRANCH   5   7
ATOM      7  C   UNL A   1      45.982  44.428  25.055  1.00  0.00     0.060 A 
ATOM      8  C   UNL A   1      44.316  43.912  22.888  1.00  0.00     0.069 A 
ATOM      9  C   UNL A   1      44.676  45.230  23.167  1.00  0.00     0.029 A 
ATOM     10  C   UNL A   1      44.876  42.846  23.604  1.00  0.00     0.029 A 
ATOM     11  C   UNL A   1      45.489  45.486  24.273  1.00  0.00     0.018 A 
ATOM     12  C   UNL A   1      45.710  43.105  24.693  1.00  0.00     0.018 A 
BRANCH   8  13
ATOM     13  N   UNL A   1      43.332  43.655  21.920  1.00  0.00    -0.187 N 
ATOM     14  C   UNL A   1      42.130  42.978  22.049  1.00  0.00     0.214 A 
ATOM     15  N   UNL A   1      41.548  42.932  20.870  1.00  0.00    -0.101 NA
ATOM     16  N   UNL A   1      42.345  43.671  20.030  1.00  0.00    -0.022 NA
ATOM     17  N   UNL A   1      43.378  44.190  20.681  1.00  0.00    -0.039 NA
BRANCH  14  18
ATOM     18  S   UNL A   1      41.241  42.781  23.534  1.00  0.00    -0.074 SA
BRANCH  18  19
ATOM     19  C   UNL A   1      41.747  41.183  24.194  1.00  0.00     0.178 C 
BRANCH  19  20
ATOM     20  C   UNL A   1      41.624  41.068  25.696  1.00  0.00     0.236 C 
ATOM     21  O   UNL A   1      40.510  41.061  26.211  1.00  0.00    -0.274 OA
ATOM     22  N   UNL A   1      42.834  40.933  26.335  1.00  0.00    -0.301 N 
ATOM     23  H   UNL A   1      43.663  41.050  25.817  1.00  0.00     0.172 HD
BRANCH  22  24
ATOM     24  C   UNL A   1      42.919  40.643  27.665  1.00  0.00     0.189 A 
ATOM     25  N   UNL A   1      42.727  41.428  28.690  1.00  0.00    -0.220 NA
ATOM     26  S   UNL A   1      43.294  39.013  28.005  1.00  0.00    -0.105 S 
ATOM     27  C   UNL A   1      42.964  40.721  29.851  1.00  0.00     0.084 A 
ATOM     28  C   UNL A   1      43.291  39.390  29.681  1.00  0.00     0.097 A 
BRANCH  27  29
ATOM     29  C   UNL A   1      42.857  41.354  31.148  1.00  0.00     0.001 A 
ATOM     30  C   UNL A   1      43.042  40.595  32.310  1.00  0.00     0.010 A 
ATOM     31  C   UNL A   1      42.541  42.714  31.251  1.00  0.00     0.010 A 
ATOM     32  C   UNL A   1      42.933  41.197  33.564  1.00  0.00     0.001 A 
ATOM     33  C   UNL A   1      42.423  43.310  32.507  1.00  0.00     0.001 A 
ATOM     34  C   UNL A   1      42.624  42.553  33.662  1.00  0.00     0.000 A 
ENDBRANCH  27  29
ENDBRANCH  22  24
ENDBRANCH  19  20
ENDBRANCH  18  19
ENDBRANCH  14  18
ENDBRANCH   8  13
ENDBRANCH   5   7
ENDBRANCH   4   5
ENDBRANCH   3   4
ENDBRANCH   2   3
ENDBRANCH   1   2
BRANCH   1  35
ATOM     35  C   UNL A   1      48.535  40.547  28.954  1.00  0.00     0.188 C 
BRANCH  35  36
ATOM     36  C   UNL A   1      48.697  39.010  29.020  1.00  0.00     0.188 C 
BRANCH  36  37
ATOM     37  O   UNL A   1      48.536  38.313  27.791  1.00  0.00    -0.376 OA
BRANCH  37  38
ATOM     38  C   UNL A   1      47.268  37.684  27.614  1.00  0.00     0.202 C 
BRANCH  38  39
ATOM     39  C   UNL A   1      47.285  36.543  26.597  1.00  0.00     0.261 C 
BRANCH  39  40
ATOM     40  O   UNL A   1      46.030  35.887  26.439  1.00  0.00    -0.460 OA
BRANCH  40  41
ATOM     41  C   UNL A   1      46.058  34.540  26.492  1.00  0.00     0.338 C 
ATOM     42  O   UNL A   1      46.512  33.787  25.650  1.00  0.00    -0.246 OA
BRANCH  41  43
ATOM     43  C   UNL A   1      45.407  34.099  27.735  1.00  0.00     0.060 A 
ATOM     44  C   UNL A   1      46.056  33.107  28.473  1.00  0.00     0.016 A 
ATOM     45  C   UNL A   1      44.086  34.482  28.018  1.00  0.00     0.016 A 
ATOM     46  C   UNL A   1      45.307  32.335  29.335  1.00  0.00     0.010 A 
ATOM     47  C   UNL A   1      43.336  33.704  28.874  1.00  0.00     0.010 A 
ATOM     48  C   UNL A   1      43.933  32.576  29.432  1.00  0.00    -0.014 A 
BRANCH  48  49
ATOM     49  C   UNL A   1      43.119  31.498  29.959  1.00  0.00     0.031 A 
ATOM     50  C   UNL A   1      42.624  30.497  29.000  1.00  0.00     0.074 A 
ATOM     51  C   UNL A   1      42.881  31.403  31.282  1.00  0.00     0.049 A 
ATOM     52  N   UNL A   1      41.399  30.222  28.697  1.00  0.00    -0.248 NA
ATOM     53  C   UNL A   1      43.630  29.748  28.238  1.00  0.00     0.031 C 
ATOM     54  C   UNL A   1      43.565  32.127  32.361  1.00  0.00     0.029 A 
ATOM     55  N   UNL A   1      42.060  30.545  31.948  1.00  0.00    -0.354 N 
ATOM     56  C   UNL A   1      41.467  29.130  27.842  1.00  0.00     0.074 A 
ATOM     57  C   UNL A   1      42.855  28.967  27.487  1.00  0.00     0.031 C 
ATOM     58  C   UNL A   1      43.301  31.514  33.535  1.00  0.00     0.029 A 
ATOM     59  C   UNL A   1      42.339  30.450  33.302  1.00  0.00     0.049 A 
ATOM     60  H   UNL A   1      41.336  30.040  31.510  1.00  0.00     0.167 HD
ATOM     61  C   UNL A   1      40.416  28.287  27.656  1.00  0.00     0.031 A 
ATOM     62  C   UNL A   1      41.895  29.495  34.152  1.00  0.00     0.031 A 
ATOM     63  C   UNL A   1      39.168  28.842  28.101  1.00  0.00     0.049 A 
ATOM     64  C   UNL A   1      40.696  28.864  33.550  1.00  0.00     0.074 A 
ATOM     65  C   UNL A   1      38.412  29.944  27.761  1.00  0.00     0.029 A 
ATOM     66  N   UNL A   1      38.662  28.380  29.292  1.00  0.00    -0.354 N 
ATOM     67  N   UNL A   1      39.555  29.471  33.374  1.00  0.00    -0.248 NA
ATOM     68  C   UNL A   1      40.858  27.624  32.804  1.00  0.00     0.031 C 
ATOM     69  C   UNL A   1      37.745  30.334  28.956  1.00  0.00     0.029 A 
ATOM     70  C   UNL A   1      38.128  29.449  29.967  1.00  0.00     0.049 A 
ATOM     71  H   UNL A   1      38.679  27.447  29.606  1.00  0.00     0.167 HD
ATOM     72  C   UNL A   1      39.021  28.913  32.222  1.00  0.00     0.074 A 
ATOM     73  C   UNL A   1      39.798  27.701  31.996  1.00  0.00     0.031 C 
ATOM     74  C   UNL A   1      38.188  29.623  31.407  1.00  0.00     0.031 A 
BRANCH  61  75
ATOM     75  C   UNL A   1      40.596  26.813  27.405  1.00  0.00    -0.014 A 
ATOM     76  C   UNL A   1      40.813  25.948  28.493  1.00  0.00     0.010 A 
ATOM     77  C   UNL A   1      40.830  26.298  26.112  1.00  0.00     0.010 A 
ATOM     78  C   UNL A   1      41.296  24.647  28.295  1.00  0.00     0.020 A 
ATOM     79  C   UNL A   1      41.262  24.990  25.902  1.00  0.00     0.020 A 
ATOM     80  C   UNL A   1      41.532  24.185  26.998  1.00  0.00     0.054 A 
BRANCH  80  81
ATOM     81  S   UNL A   1      42.278  22.555  26.753  1.00  0.00     0.124 S 
ATOM     82  O   UNL A   1      41.295  21.909  25.888  1.00  0.00    -0.237 OA
ATOM     83  O   UNL A   1      43.556  22.883  26.127  1.00  0.00    -0.237 OA
ATOM     84  O   UNL A   1      42.375  22.018  28.108  1.00  0.00    -0.744 OA
ENDBRANCH  80  81
ENDBRANCH  61  75
BRANCH  62  85
ATOM     85  C   UNL A   1      42.662  28.891  35.270  1.00  0.00    -0.014 A 
ATOM     86  C   UNL A   1      42.036  28.072  36.224  1.00  0.00     0.010 A 
ATOM     87  C   UNL A   1      44.074  28.921  35.259  1.00  0.00     0.010 A 
ATOM     88  C   UNL A   1      42.794  27.281  37.103  1.00  0.00     0.020 A 
ATOM     89  C   UNL A   1      44.836  28.151  36.141  1.00  0.00     0.020 A 
ATOM     90  C   UNL A   1      44.191  27.316  37.047  1.00  0.00     0.054 A 
BRANCH  90  91
ATOM     91  S   UNL A   1      45.162  26.178  38.076  1.00  0.00     0.124 S 
ATOM     92  O   UNL A   1      44.461  26.244  39.355  1.00  0.00    -0.237 OA
ATOM     93  O   UNL A   1      45.044  24.916  37.352  1.00  0.00    -0.237 OA
ATOM     94  O   UNL A   1      46.501  26.767  38.072  1.00  0.00    -0.744 OA
ENDBRANCH  90  91
ENDBRANCH  62  85
BRANCH  74  95
ATOM     95  C   UNL A   1      37.523  30.865  31.953  1.00  0.00    -0.014 A 
ATOM     96  C   UNL A   1      38.086  32.149  31.842  1.00  0.00     0.010 A 
ATOM     97  C   UNL A   1      36.204  30.747  32.433  1.00  0.00     0.010 A 
ATOM     98  C   UNL A   1      37.350  33.287  32.204  1.00  0.00     0.020 A 
ATOM     99  C   UNL A   1      35.461  31.879  32.782  1.00  0.00     0.020 A 
ATOM    100  C   UNL A   1      36.039  33.145  32.667  1.00  0.00     0.054 A 
BRANCH 100 101
ATOM    101  S   UNL A   1      35.058  34.629  33.032  1.00  0.00     0.124 S 
ATOM    102  O   UNL A   1      34.892  34.550  34.480  1.00  0.00    -0.237 OA
ATOM    103  O   UNL A   1      35.915  35.714  32.555  1.00  0.00    -0.237 OA
ATOM    104  O   UNL A   1      33.834  34.436  32.255  1.00  0.00    -0.744 OA
ENDBRANCH 100 101
ENDBRANCH  74  95
ENDBRANCH  48  49
ENDBRANCH  41  43
ENDBRANCH  40  41
ENDBRANCH  39  40
ENDBRANCH  38  39
ENDBRANCH  37  38
ENDBRANCH  36  37
ENDBRANCH  35  36
ENDBRANCH   1  35
TORSDOF 26
ENDMDL
