MODEL 1
REMARK VINA RESULT:      -7.2      0.000      0.000
REMARK SMILES CC(C)Cc1s/c(=N/C(=O)CCC(=O)Nc2nccs2)[nH]c1C(=O)OCCOCCOCCOC(=O)c1ccc(-c2c3nc(c(-c4ccc(S(=O)(=O)[O-])cc4)c4ccc([nH]4)c(-c4ccc(S(=O)(=O)[O-])cc4)c4nc(c(-c5ccc(S(=O)(=O)[O-])cc5)c5ccc2[nH]5)C=C4)C=C3)cc1
REMARK SMILES IDX 29 1 28 2 27 3 26 4 25 5 23 6 24 7 22 8 5 9 6 10 7 11 21 12
REMARK SMILES IDX 8 13 4 15 2 16 1 17 3 18 9 19 10 20 11 21 12 22 13 23 14 24
REMARK SMILES IDX 15 25 16 27 17 28 20 29 18 30 19 31 30 32 31 33 32 34 33 35
REMARK SMILES IDX 34 36 35 37 36 38 37 39 38 40 96 41 39 42 95 43 40 44 41 45
REMARK SMILES IDX 42 46 89 47 43 48 94 49 88 50 90 51 44 52 93 53 87 54 86 55
REMARK SMILES IDX 45 57 75 58 56 59 74 60 57 61 60 62 73 63 91 64 58 65 59 66
REMARK SMILES IDX 72 68 92 69 61 70 46 71 47 72 55 73 48 74 54 75 49 76 50 77
REMARK SMILES IDX 51 78 52 79 53 80 76 81 77 82 85 83 78 84 84 85 79 86 80 87
REMARK SMILES IDX 81 88 82 89 83 90 62 91 63 92 71 93 64 94 70 95 65 96 66 97
REMARK SMILES IDX 67 98 68 99 69 100
REMARK H PARENT 21 14 15 26 90 56 60 67
REMARK Flexibility Score: inf
ROOT
ATOM      1  C   UNL A   1      37.786  29.007  29.227  1.00  0.00     0.188 C 
ENDROOT
BRANCH   1   2
ATOM      2  O   UNL A   1      38.597  29.127  28.061  1.00  0.00    -0.376 OA
BRANCH   2   3
ATOM      3  C   UNL A   1      39.879  28.506  28.165  1.00  0.00     0.202 C 
BRANCH   3   4
ATOM      4  C   UNL A   1      39.811  26.974  28.110  1.00  0.00     0.261 C 
BRANCH   4   5
ATOM      5  O   UNL A   1      40.985  26.412  27.486  1.00  0.00    -0.459 OA
BRANCH   5   6
ATOM      6  C   UNL A   1      40.830  25.206  26.893  1.00  0.00     0.356 C 
ATOM      7  O   UNL A   1      39.795  24.782  26.396  1.00  0.00    -0.244 OA
BRANCH   6   8
ATOM      8  C   UNL A   1      42.109  24.447  26.783  1.00  0.00     0.140 A 
ATOM      9  C   UNL A   1      42.362  23.133  26.985  1.00  0.00     0.039 A 
ATOM     10  S   UNL A   1      44.073  22.781  26.601  1.00  0.00    -0.101 S 
ATOM     11  C   UNL A   1      44.427  24.517  26.338  1.00  0.00     0.190 A 
ATOM     12  N   UNL A   1      43.237  25.176  26.440  1.00  0.00    -0.325 N 
ATOM     13  N   UNL A   1      45.638  24.905  26.155  1.00  0.00    -0.185 NA
ATOM     14  H   UNL A   1      43.182  26.145  26.276  1.00  0.00     0.169 HD
BRANCH   9  15
ATOM     15  C   UNL A   1      41.451  21.993  27.365  1.00  0.00     0.052 C 
BRANCH  15  16
ATOM     16  C   UNL A   1      40.921  21.134  26.188  1.00  0.00    -0.012 C 
ATOM     17  C   UNL A   1      41.198  19.644  26.358  1.00  0.00     0.008 C 
ATOM     18  C   UNL A   1      39.408  21.324  26.038  1.00  0.00     0.008 C 
ENDBRANCH  15  16
ENDBRANCH   9  15
BRANCH  13  19
ATOM     19  C   UNL A   1      45.863  26.267  26.151  1.00  0.00     0.248 C 
ATOM     20  O   UNL A   1      45.869  26.972  27.161  1.00  0.00    -0.273 OA
BRANCH  19  21
ATOM     21  C   UNL A   1      46.075  26.875  24.774  1.00  0.00     0.112 C 
BRANCH  21  22
ATOM     22  C   UNL A   1      47.378  27.637  24.570  1.00  0.00     0.110 C 
BRANCH  22  23
ATOM     23  C   UNL A   1      48.529  26.758  24.120  1.00  0.00     0.226 C 
ATOM     24  O   UNL A   1      48.355  25.913  23.234  1.00  0.00    -0.275 OA
ATOM     25  N   UNL A   1      49.772  26.860  24.665  1.00  0.00    -0.302 N 
ATOM     26  H   UNL A   1      50.497  26.368  24.216  1.00  0.00     0.172 HD
BRANCH  25  27
ATOM     27  C   UNL A   1      50.107  27.579  25.770  1.00  0.00     0.189 A 
ATOM     28  N   UNL A   1      50.150  28.877  25.921  1.00  0.00    -0.229 NA
ATOM     29  S   UNL A   1      50.370  26.649  27.176  1.00  0.00    -0.105 S 
ATOM     30  C   UNL A   1      50.230  29.181  27.259  1.00  0.00     0.125 A 
ATOM     31  C   UNL A   1      50.342  28.096  28.099  1.00  0.00     0.088 A 
ENDBRANCH  25  27
ENDBRANCH  22  23
ENDBRANCH  21  22
ENDBRANCH  19  21
ENDBRANCH  13  19
ENDBRANCH   6   8
ENDBRANCH   5   6
ENDBRANCH   4   5
ENDBRANCH   3   4
ENDBRANCH   2   3
ENDBRANCH   1   2
BRANCH   1  32
ATOM     32  C   UNL A   1      36.638  30.007  29.250  1.00  0.00     0.188 C 
BRANCH  32  33
ATOM     33  O   UNL A   1      35.515  29.564  28.481  1.00  0.00    -0.376 OA
BRANCH  33  34
ATOM     34  C   UNL A   1      35.153  30.477  27.440  1.00  0.00     0.202 C 
BRANCH  34  35
ATOM     35  C   UNL A   1      34.045  31.458  27.847  1.00  0.00     0.261 C 
BRANCH  35  36
ATOM     36  O   UNL A   1      34.563  32.792  27.984  1.00  0.00    -0.460 OA
BRANCH  36  37
ATOM     37  C   UNL A   1      34.097  33.472  29.065  1.00  0.00     0.338 C 
ATOM     38  O   UNL A   1      33.003  33.987  29.180  1.00  0.00    -0.246 OA
BRANCH  37  39
ATOM     39  C   UNL A   1      35.037  33.310  30.204  1.00  0.00     0.060 A 
ATOM     40  C   UNL A   1      36.088  34.232  30.281  1.00  0.00     0.016 A 
ATOM     41  C   UNL A   1      34.897  32.331  31.192  1.00  0.00     0.016 A 
ATOM     42  C   UNL A   1      37.000  34.183  31.331  1.00  0.00     0.010 A 
ATOM     43  C   UNL A   1      35.835  32.259  32.233  1.00  0.00     0.010 A 
ATOM     44  C   UNL A   1      36.903  33.173  32.292  1.00  0.00    -0.014 A 
BRANCH  44  45
ATOM     45  C   UNL A   1      38.081  32.931  33.157  1.00  0.00     0.031 A 
ATOM     46  C   UNL A   1      39.379  32.598  32.471  1.00  0.00     0.074 A 
ATOM     47  C   UNL A   1      38.041  33.105  34.490  1.00  0.00     0.049 A 
ATOM     48  N   UNL A   1      40.559  32.375  32.985  1.00  0.00    -0.248 NA
ATOM     49  C   UNL A   1      39.337  32.525  31.000  1.00  0.00     0.031 C 
ATOM     50  C   UNL A   1      36.871  33.523  35.262  1.00  0.00     0.029 A 
ATOM     51  N   UNL A   1      39.031  32.963  35.432  1.00  0.00    -0.354 N 
ATOM     52  C   UNL A   1      41.397  32.134  31.903  1.00  0.00     0.074 A 
ATOM     53  C   UNL A   1      40.589  32.215  30.707  1.00  0.00     0.031 C 
ATOM     54  C   UNL A   1      37.211  33.597  36.562  1.00  0.00     0.029 A 
ATOM     55  C   UNL A   1      38.611  33.206  36.718  1.00  0.00     0.049 A 
ATOM     56  H   UNL A   1      39.956  32.709  35.206  1.00  0.00     0.167 HD
ATOM     57  C   UNL A   1      42.724  31.869  31.900  1.00  0.00     0.031 A 
ATOM     58  C   UNL A   1      39.281  33.107  37.885  1.00  0.00     0.031 A 
ATOM     59  C   UNL A   1      43.521  31.757  33.089  1.00  0.00     0.049 A 
ATOM     60  C   UNL A   1      40.737  32.707  37.865  1.00  0.00     0.074 A 
ATOM     61  C   UNL A   1      44.866  31.455  33.199  1.00  0.00     0.029 A 
ATOM     62  N   UNL A   1      43.043  31.937  34.377  1.00  0.00    -0.354 N 
ATOM     63  N   UNL A   1      41.513  32.460  36.835  1.00  0.00    -0.248 NA
ATOM     64  C   UNL A   1      41.408  32.581  39.167  1.00  0.00     0.031 C 
ATOM     65  C   UNL A   1      45.189  31.398  34.559  1.00  0.00     0.029 A 
ATOM     66  C   UNL A   1      44.059  31.729  35.292  1.00  0.00     0.049 A 
ATOM     67  H   UNL A   1      42.115  32.177  34.608  1.00  0.00     0.167 HD
ATOM     68  C   UNL A   1      42.770  32.179  37.365  1.00  0.00     0.074 A 
ATOM     69  C   UNL A   1      42.652  32.301  38.803  1.00  0.00     0.031 C 
ATOM     70  C   UNL A   1      43.920  31.849  36.722  1.00  0.00     0.031 A 
BRANCH  57  71
ATOM     71  C   UNL A   1      43.365  31.619  30.562  1.00  0.00    -0.014 A 
ATOM     72  C   UNL A   1      43.442  30.324  30.018  1.00  0.00     0.010 A 
ATOM     73  C   UNL A   1      43.916  32.697  29.850  1.00  0.00     0.010 A 
ATOM     74  C   UNL A   1      44.101  30.108  28.804  1.00  0.00     0.020 A 
ATOM     75  C   UNL A   1      44.551  32.490  28.624  1.00  0.00     0.020 A 
ATOM     76  C   UNL A   1      44.657  31.192  28.118  1.00  0.00     0.054 A 
BRANCH  76  77
ATOM     77  S   UNL A   1      45.508  30.886  26.547  1.00  0.00     0.124 S 
ATOM     78  O   UNL A   1      44.802  29.708  26.048  1.00  0.00    -0.237 OA
ATOM     79  O   UNL A   1      45.268  32.121  25.805  1.00  0.00    -0.237 OA
ATOM     80  O   UNL A   1      46.896  30.659  26.942  1.00  0.00    -0.744 OA
ENDBRANCH  76  77
ENDBRANCH  57  71
BRANCH  58  81
ATOM     81  C   UNL A   1      38.582  33.355  39.179  1.00  0.00    -0.014 A 
ATOM     82  C   UNL A   1      38.694  34.590  39.842  1.00  0.00     0.010 A 
ATOM     83  C   UNL A   1      37.819  32.332  39.773  1.00  0.00     0.010 A 
ATOM     84  C   UNL A   1      38.076  34.791  41.081  1.00  0.00     0.020 A 
ATOM     85  C   UNL A   1      37.176  32.538  40.998  1.00  0.00     0.020 A 
ATOM     86  C   UNL A   1      37.319  33.763  41.651  1.00  0.00     0.054 A 
BRANCH  86  87
ATOM     87  S   UNL A   1      36.493  34.055  43.240  1.00  0.00     0.124 S 
ATOM     88  O   UNL A   1      35.094  34.173  42.840  1.00  0.00    -0.237 OA
ATOM     89  O   UNL A   1      36.834  32.855  43.999  1.00  0.00    -0.237 OA
ATOM     90  O   UNL A   1      37.111  35.287  43.726  1.00  0.00    -0.744 OA
ENDBRANCH  86  87
ENDBRANCH  58  81
BRANCH  70  91
ATOM     91  C   UNL A   1      45.150  31.638  37.567  1.00  0.00    -0.014 A 
ATOM     92  C   UNL A   1      45.482  30.370  38.075  1.00  0.00     0.010 A 
ATOM     93  C   UNL A   1      46.005  32.725  37.826  1.00  0.00     0.010 A 
ATOM     94  C   UNL A   1      46.619  30.204  38.872  1.00  0.00     0.020 A 
ATOM     95  C   UNL A   1      47.159  32.557  38.594  1.00  0.00     0.020 A 
ATOM     96  C   UNL A   1      47.447  31.301  39.132  1.00  0.00     0.054 A 
BRANCH  96  97
ATOM     97  S   UNL A   1      48.922  31.061  40.159  1.00  0.00     0.124 S 
ATOM     98  O   UNL A   1      49.414  29.769  39.686  1.00  0.00    -0.237 OA
ATOM     99  O   UNL A   1      49.748  32.214  39.812  1.00  0.00    -0.237 OA
ATOM    100  O   UNL A   1      48.398  31.066  41.523  1.00  0.00    -0.744 OA
ENDBRANCH  96  97
ENDBRANCH  70  91
ENDBRANCH  44  45
ENDBRANCH  37  39
ENDBRANCH  36  37
ENDBRANCH  35  36
ENDBRANCH  34  35
ENDBRANCH  33  34
ENDBRANCH  32  33
ENDBRANCH   1  32
TORSDOF 27
ENDMDL
MODEL 2
REMARK VINA RESULT:      -7.1      7.158     15.760
REMARK SMILES CC(C)Cc1s/c(=N/C(=O)CCC(=O)Nc2nccs2)[nH]c1C(=O)OCCOCCOCCOC(=O)c1ccc(-c2c3nc(c(-c4ccc(S(=O)(=O)[O-])cc4)c4ccc([nH]4)c(-c4ccc(S(=O)(=O)[O-])cc4)c4nc(c(-c5ccc(S(=O)(=O)[O-])cc5)c5ccc2[nH]5)C=C4)C=C3)cc1
REMARK SMILES IDX 29 1 28 2 27 3 26 4 25 5 23 6 24 7 22 8 5 9 6 10 7 11 21 12
REMARK SMILES IDX 8 13 4 15 2 16 1 17 3 18 9 19 10 20 11 21 12 22 13 23 14 24
REMARK SMILES IDX 15 25 16 27 17 28 20 29 18 30 19 31 30 32 31 33 32 34 33 35
REMARK SMILES IDX 34 36 35 37 36 38 37 39 38 40 96 41 39 42 95 43 40 44 41 45
REMARK SMILES IDX 42 46 89 47 43 48 94 49 88 50 90 51 44 52 93 53 87 54 86 55
REMARK SMILES IDX 45 57 75 58 56 59 74 60 57 61 60 62 73 63 91 64 58 65 59 66
REMARK SMILES IDX 72 68 92 69 61 70 46 71 47 72 55 73 48 74 54 75 49 76 50 77
REMARK SMILES IDX 51 78 52 79 53 80 76 81 77 82 85 83 78 84 84 85 79 86 80 87
REMARK SMILES IDX 81 88 82 89 83 90 62 91 63 92 71 93 64 94 70 95 65 96 66 97
REMARK SMILES IDX 67 98 68 99 69 100
REMARK H PARENT 21 14 15 26 90 56 60 67
REMARK Flexibility Score: inf
ROOT
ATOM      1  C   UNL A   1      48.369  41.909  32.473  1.00  0.00     0.188 C 
ENDROOT
BRANCH   1   2
ATOM      2  O   UNL A   1      48.441  42.820  31.379  1.00  0.00    -0.376 OA
BRANCH   2   3
ATOM      3  C   UNL A   1      48.241  42.222  30.097  1.00  0.00     0.202 C 
BRANCH   3   4
ATOM      4  C   UNL A   1      46.960  42.703  29.403  1.00  0.00     0.261 C 
BRANCH   4   5
ATOM      5  O   UNL A   1      46.103  43.428  30.311  1.00  0.00    -0.459 OA
BRANCH   5   6
ATOM      6  C   UNL A   1      44.791  43.479  29.986  1.00  0.00     0.356 C 
ATOM      7  O   UNL A   1      44.123  44.497  29.869  1.00  0.00    -0.244 OA
BRANCH   6   8
ATOM      8  C   UNL A   1      44.227  42.140  29.650  1.00  0.00     0.140 A 
ATOM      9  C   UNL A   1      44.014  41.062  30.441  1.00  0.00     0.039 A 
ATOM     10  S   UNL A   1      43.214  39.770  29.498  1.00  0.00    -0.101 S 
ATOM     11  C   UNL A   1      43.360  40.712  27.982  1.00  0.00     0.190 A 
ATOM     12  N   UNL A   1      43.872  41.928  28.327  1.00  0.00    -0.325 N 
ATOM     13  N   UNL A   1      43.047  40.172  26.858  1.00  0.00    -0.185 NA
ATOM     14  H   UNL A   1      43.987  42.636  27.653  1.00  0.00     0.169 HD
BRANCH   9  15
ATOM     15  C   UNL A   1      44.249  40.849  31.915  1.00  0.00     0.052 C 
BRANCH  15  16
ATOM     16  C   UNL A   1      43.890  39.442  32.457  1.00  0.00    -0.012 C 
ATOM     17  C   UNL A   1      45.061  38.466  32.422  1.00  0.00     0.008 C 
ATOM     18  C   UNL A   1      43.399  39.546  33.906  1.00  0.00     0.008 C 
ENDBRANCH  15  16
ENDBRANCH   9  15
BRANCH  13  19
ATOM     19  C   UNL A   1      43.364  40.881  25.716  1.00  0.00     0.248 C 
ATOM     20  O   UNL A   1      44.484  40.911  25.206  1.00  0.00    -0.273 OA
BRANCH  19  21
ATOM     21  C   UNL A   1      42.215  41.682  25.124  1.00  0.00     0.112 C 
BRANCH  21  22
ATOM     22  C   UNL A   1      42.379  42.121  23.675  1.00  0.00     0.110 C 
BRANCH  22  23
ATOM     23  C   UNL A   1      43.192  43.391  23.515  1.00  0.00     0.226 C 
ATOM     24  O   UNL A   1      43.683  43.942  24.507  1.00  0.00    -0.275 OA
ATOM     25  N   UNL A   1      43.405  43.964  22.300  1.00  0.00    -0.302 N 
ATOM     26  H   UNL A   1      44.067  44.692  22.260  1.00  0.00     0.172 HD
BRANCH  25  27
ATOM     27  C   UNL A   1      42.792  43.624  21.133  1.00  0.00     0.189 A 
ATOM     28  N   UNL A   1      41.527  43.377  20.915  1.00  0.00    -0.229 NA
ATOM     29  S   UNL A   1      43.800  43.663  19.757  1.00  0.00    -0.105 S 
ATOM     30  C   UNL A   1      41.286  43.380  19.561  1.00  0.00     0.125 A 
ATOM     31  C   UNL A   1      42.402  43.537  18.769  1.00  0.00     0.088 A 
ENDBRANCH  25  27
ENDBRANCH  22  23
ENDBRANCH  21  22
ENDBRANCH  19  21
ENDBRANCH  13  19
ENDBRANCH   6   8
ENDBRANCH   5   6
ENDBRANCH   4   5
ENDBRANCH   3   4
ENDBRANCH   2   3
ENDBRANCH   1   2
BRANCH   1  32
ATOM     32  C   UNL A   1      49.698  41.220  32.752  1.00  0.00     0.188 C 
BRANCH  32  33
ATOM     33  O   UNL A   1      49.807  39.959  32.085  1.00  0.00    -0.376 OA
BRANCH  33  34
ATOM     34  C   UNL A   1      48.714  39.079  32.364  1.00  0.00     0.202 C 
BRANCH  34  35
ATOM     35  C   UNL A   1      49.053  37.597  32.150  1.00  0.00     0.261 C 
BRANCH  35  36
ATOM     36  O   UNL A   1      48.263  37.035  31.088  1.00  0.00    -0.460 OA
BRANCH  36  37
ATOM     37  C   UNL A   1      48.969  36.316  30.176  1.00  0.00     0.338 C 
ATOM     38  O   UNL A   1      50.113  36.521  29.821  1.00  0.00    -0.246 OA
BRANCH  37  39
ATOM     39  C   UNL A   1      48.224  35.080  29.824  1.00  0.00     0.060 A 
ATOM     40  C   UNL A   1      48.138  34.099  30.819  1.00  0.00     0.016 A 
ATOM     41  C   UNL A   1      47.591  34.878  28.594  1.00  0.00     0.016 A 
ATOM     42  C   UNL A   1      47.432  32.921  30.596  1.00  0.00     0.010 A 
ATOM     43  C   UNL A   1      46.907  33.677  28.355  1.00  0.00     0.010 A 
ATOM     44  C   UNL A   1      46.845  32.685  29.350  1.00  0.00    -0.014 A 
BRANCH  44  45
ATOM     45  C   UNL A   1      46.437  31.297  29.034  1.00  0.00     0.031 A 
ATOM     46  C   UNL A   1      44.984  30.949  29.221  1.00  0.00     0.074 A 
ATOM     47  C   UNL A   1      47.286  30.403  28.496  1.00  0.00     0.049 A 
ATOM     48  N   UNL A   1      44.361  29.825  28.989  1.00  0.00    -0.248 NA
ATOM     49  C   UNL A   1      44.117  32.028  29.726  1.00  0.00     0.031 C 
ATOM     50  C   UNL A   1      48.691  30.649  28.173  1.00  0.00     0.029 A 
ATOM     51  N   UNL A   1      47.076  29.101  28.111  1.00  0.00    -0.354 N 
ATOM     52  C   UNL A   1      43.032  30.061  29.319  1.00  0.00     0.074 A 
ATOM     53  C   UNL A   1      42.942  31.426  29.790  1.00  0.00     0.031 C 
ATOM     54  C   UNL A   1      49.219  29.529  27.644  1.00  0.00     0.029 A 
ATOM     55  C   UNL A   1      48.198  28.482  27.616  1.00  0.00     0.049 A 
ATOM     56  H   UNL A   1      46.201  28.654  28.184  1.00  0.00     0.167 HD
ATOM     57  C   UNL A   1      41.974  29.220  29.239  1.00  0.00     0.031 A 
ATOM     58  C   UNL A   1      48.380  27.209  27.205  1.00  0.00     0.031 A 
ATOM     59  C   UNL A   1      42.069  27.856  28.802  1.00  0.00     0.049 A 
ATOM     60  C   UNL A   1      47.207  26.257  27.223  1.00  0.00     0.074 A 
ATOM     61  C   UNL A   1      41.066  26.907  28.720  1.00  0.00     0.029 A 
ATOM     62  N   UNL A   1      43.237  27.243  28.380  1.00  0.00    -0.354 N 
ATOM     63  N   UNL A   1      45.960  26.487  27.559  1.00  0.00    -0.248 NA
ATOM     64  C   UNL A   1      47.470  24.875  26.797  1.00  0.00     0.031 C 
ATOM     65  C   UNL A   1      41.641  25.703  28.298  1.00  0.00     0.029 A 
ATOM     66  C   UNL A   1      42.989  25.921  28.057  1.00  0.00     0.049 A 
ATOM     67  H   UNL A   1      44.117  27.683  28.319  1.00  0.00     0.167 HD
ATOM     68  C   UNL A   1      45.283  25.287  27.357  1.00  0.00     0.074 A 
ATOM     69  C   UNL A   1      46.258  24.340  26.855  1.00  0.00     0.031 C 
ATOM     70  C   UNL A   1      43.975  24.992  27.566  1.00  0.00     0.031 A 
BRANCH  57  71
ATOM     71  C   UNL A   1      40.646  29.752  29.702  1.00  0.00    -0.014 A 
ATOM     72  C   UNL A   1      40.327  29.840  31.069  1.00  0.00     0.010 A 
ATOM     73  C   UNL A   1      39.693  30.149  28.747  1.00  0.00     0.010 A 
ATOM     74  C   UNL A   1      39.061  30.274  31.471  1.00  0.00     0.020 A 
ATOM     75  C   UNL A   1      38.437  30.611  29.146  1.00  0.00     0.020 A 
ATOM     76  C   UNL A   1      38.122  30.651  30.506  1.00  0.00     0.054 A 
BRANCH  76  77
ATOM     77  S   UNL A   1      36.486  31.210  31.053  1.00  0.00     0.124 S 
ATOM     78  O   UNL A   1      36.793  32.517  31.631  1.00  0.00    -0.237 OA
ATOM     79  O   UNL A   1      35.723  31.239  29.808  1.00  0.00    -0.237 OA
ATOM     80  O   UNL A   1      36.072  30.188  32.010  1.00  0.00    -0.744 OA
ENDBRANCH  76  77
ENDBRANCH  57  71
BRANCH  58  81
ATOM     81  C   UNL A   1      49.728  26.742  26.772  1.00  0.00    -0.014 A 
ATOM     82  C   UNL A   1      50.047  26.601  25.409  1.00  0.00     0.010 A 
ATOM     83  C   UNL A   1      50.698  26.403  27.735  1.00  0.00     0.010 A 
ATOM     84  C   UNL A   1      51.298  26.112  25.019  1.00  0.00     0.020 A 
ATOM     85  C   UNL A   1      51.959  25.940  27.349  1.00  0.00     0.020 A 
ATOM     86  C   UNL A   1      52.248  25.785  25.992  1.00  0.00     0.054 A 
BRANCH  86  87
ATOM     87  S   UNL A   1      53.879  25.187  25.465  1.00  0.00     0.124 S 
ATOM     88  O   UNL A   1      54.535  26.422  25.045  1.00  0.00    -0.237 OA
ATOM     89  O   UNL A   1      54.401  24.578  26.685  1.00  0.00    -0.237 OA
ATOM     90  O   UNL A   1      53.568  24.247  24.391  1.00  0.00    -0.744 OA
ENDBRANCH  86  87
ENDBRANCH  58  81
BRANCH  70  91
ATOM     91  C   UNL A   1      43.514  23.601  27.214  1.00  0.00    -0.014 A 
ATOM     92  C   UNL A   1      43.621  23.102  25.904  1.00  0.00     0.010 A 
ATOM     93  C   UNL A   1      42.996  22.768  28.223  1.00  0.00     0.010 A 
ATOM     94  C   UNL A   1      43.169  21.814  25.599  1.00  0.00     0.020 A 
ATOM     95  C   UNL A   1      42.574  21.469  27.930  1.00  0.00     0.020 A 
ATOM     96  C   UNL A   1      42.641  21.008  26.613  1.00  0.00     0.054 A 
BRANCH  96  97
ATOM     97  S   UNL A   1      42.071  19.338  26.198  1.00  0.00     0.124 S 
ATOM     98  O   UNL A   1      42.550  18.562  27.339  1.00  0.00    -0.237 OA
ATOM     99  O   UNL A   1      40.622  19.503  26.114  1.00  0.00    -0.237 OA
ATOM    100  O   UNL A   1      42.734  19.052  24.927  1.00  0.00    -0.744 OA
ENDBRANCH  96  97
ENDBRANCH  70  91
ENDBRANCH  44  45
ENDBRANCH  37  39
ENDBRANCH  36  37
ENDBRANCH  35  36
ENDBRANCH  34  35
ENDBRANCH  33  34
ENDBRANCH  32  33
ENDBRANCH   1  32
TORSDOF 27
ENDMDL
MODEL 3
REMARK VINA RESULT:      -6.4      2.980      9.027
REMARK SMILES CC(C)Cc1s/c(=N/C(=O)CCC(=O)Nc2nccs2)[nH]c1C(=O)OCCOCCOCCOC(=O)c1ccc(-c2c3nc(c(-c4ccc(S(=O)(=O)[O-])cc4)c4ccc([nH]4)c(-c4ccc(S(=O)(=O)[O-])cc4)c4nc(c(-c5ccc(S(=O)(=O)[O-])cc5)c5ccc2[nH]5)C=C4)C=C3)cc1
REMARK SMILES IDX 29 1 28 2 27 3 26 4 25 5 23 6 24 7 22 8 5 9 6 10 7 11 21 12
REMARK SMILES IDX 8 13 4 15 2 16 1 17 3 18 9 19 10 20 11 21 12 22 13 23 14 24
REMARK SMILES IDX 15 25 16 27 17 28 20 29 18 30 19 31 30 32 31 33 32 34 33 35
REMARK SMILES IDX 34 36 35 37 36 38 37 39 38 40 96 41 39 42 95 43 40 44 41 45
REMARK SMILES IDX 42 46 89 47 43 48 94 49 88 50 90 51 44 52 93 53 87 54 86 55
REMARK SMILES IDX 45 57 75 58 56 59 74 60 57 61 60 62 73 63 91 64 58 65 59 66
REMARK SMILES IDX 72 68 92 69 61 70 46 71 47 72 55 73 48 74 54 75 49 76 50 77
REMARK SMILES IDX 51 78 52 79 53 80 76 81 77 82 85 83 78 84 84 85 79 86 80 87
REMARK SMILES IDX 81 88 82 89 83 90 62 91 63 92 71 93 64 94 70 95 65 96 66 97
REMARK SMILES IDX 67 98 68 99 69 100
REMARK H PARENT 21 14 15 26 90 56 60 67
REMARK Flexibility Score: inf
ROOT
ATOM      1  C   UNL A   1      46.293  26.554  25.409  1.00  0.00     0.188 C 
ENDROOT
BRANCH   1   2
ATOM      2  O   UNL A   1      46.192  25.154  25.163  1.00  0.00    -0.376 OA
BRANCH   2   3
ATOM      3  C   UNL A   1      46.060  24.355  26.340  1.00  0.00     0.202 C 
BRANCH   3   4
ATOM      4  C   UNL A   1      44.613  24.252  26.838  1.00  0.00     0.261 C 
BRANCH   4   5
ATOM      5  O   UNL A   1      44.473  24.776  28.176  1.00  0.00    -0.459 OA
BRANCH   5   6
ATOM      6  C   UNL A   1      43.436  24.298  28.902  1.00  0.00     0.356 C 
ATOM      7  O   UNL A   1      43.526  23.604  29.905  1.00  0.00    -0.244 OA
BRANCH   6   8
ATOM      8  C   UNL A   1      42.117  24.806  28.427  1.00  0.00     0.140 A 
ATOM      9  C   UNL A   1      41.495  25.981  28.677  1.00  0.00     0.039 A 
ATOM     10  S   UNL A   1      39.971  26.070  27.744  1.00  0.00    -0.101 S 
ATOM     11  C   UNL A   1      40.164  24.385  27.168  1.00  0.00     0.190 A 
ATOM     12  N   UNL A   1      41.379  23.957  27.615  1.00  0.00    -0.325 N 
ATOM     13  N   UNL A   1      39.214  23.818  26.514  1.00  0.00    -0.185 NA
ATOM     14  H   UNL A   1      41.723  23.069  27.368  1.00  0.00     0.169 HD
BRANCH   9  15
ATOM     15  C   UNL A   1      41.920  27.176  29.493  1.00  0.00     0.052 C 
BRANCH  15  16
ATOM     16  C   UNL A   1      40.790  28.165  29.878  1.00  0.00    -0.012 C 
ATOM     17  C   UNL A   1      40.652  28.363  31.384  1.00  0.00     0.008 C 
ATOM     18  C   UNL A   1      41.047  29.534  29.239  1.00  0.00     0.008 C 
ENDBRANCH  15  16
ENDBRANCH   9  15
BRANCH  13  19
ATOM     19  C   UNL A   1      39.347  22.466  26.268  1.00  0.00     0.248 C 
ATOM     20  O   UNL A   1      38.402  21.688  26.143  1.00  0.00    -0.273 OA
BRANCH  19  21
ATOM     21  C   UNL A   1      40.782  21.969  26.195  1.00  0.00     0.112 C 
BRANCH  21  22
ATOM     22  C   UNL A   1      40.965  20.484  25.908  1.00  0.00     0.110 C 
BRANCH  22  23
ATOM     23  C   UNL A   1      41.598  19.720  27.055  1.00  0.00     0.226 C 
ATOM     24  O   UNL A   1      41.023  19.654  28.148  1.00  0.00    -0.275 OA
ATOM     25  N   UNL A   1      42.800  19.095  26.930  1.00  0.00    -0.302 N 
ATOM     26  H   UNL A   1      43.068  18.495  27.663  1.00  0.00     0.172 HD
BRANCH  25  27
ATOM     27  C   UNL A   1      43.665  19.219  25.887  1.00  0.00     0.189 A 
ATOM     28  N   UNL A   1      43.912  18.372  24.923  1.00  0.00    -0.229 NA
ATOM     29  S   UNL A   1      44.418  20.745  25.760  1.00  0.00    -0.105 S 
ATOM     30  C   UNL A   1      44.607  19.007  23.921  1.00  0.00     0.125 A 
ATOM     31  C   UNL A   1      44.959  20.311  24.190  1.00  0.00     0.088 A 
ENDBRANCH  25  27
ENDBRANCH  22  23
ENDBRANCH  21  22
ENDBRANCH  19  21
ENDBRANCH  13  19
ENDBRANCH   6   8
ENDBRANCH   5   6
ENDBRANCH   4   5
ENDBRANCH   3   4
ENDBRANCH   2   3
ENDBRANCH   1   2
BRANCH   1  32
ATOM     32  C   UNL A   1      44.966  27.279  25.227  1.00  0.00     0.188 C 
BRANCH  32  33
ATOM     33  O   UNL A   1      44.329  27.569  26.476  1.00  0.00    -0.376 OA
BRANCH  33  34
ATOM     34  C   UNL A   1      44.221  28.971  26.739  1.00  0.00     0.202 C 
BRANCH  34  35
ATOM     35  C   UNL A   1      44.585  29.351  28.181  1.00  0.00     0.261 C 
BRANCH  35  36
ATOM     36  O   UNL A   1      45.950  29.797  28.268  1.00  0.00    -0.460 OA
BRANCH  36  37
ATOM     37  C   UNL A   1      46.570  29.499  29.440  1.00  0.00     0.338 C 
ATOM     38  O   UNL A   1      47.734  29.183  29.584  1.00  0.00    -0.246 OA
BRANCH  37  39
ATOM     39  C   UNL A   1      45.677  29.834  30.580  1.00  0.00     0.060 A 
ATOM     40  C   UNL A   1      45.644  31.178  30.971  1.00  0.00     0.016 A 
ATOM     41  C   UNL A   1      44.867  28.901  31.233  1.00  0.00     0.016 A 
ATOM     42  C   UNL A   1      44.813  31.596  32.006  1.00  0.00     0.010 A 
ATOM     43  C   UNL A   1      44.054  29.314  32.299  1.00  0.00     0.010 A 
ATOM     44  C   UNL A   1      44.043  30.661  32.702  1.00  0.00    -0.014 A 
BRANCH  44  45
ATOM     45  C   UNL A   1      43.475  31.073  34.007  1.00  0.00     0.031 A 
ATOM     46  C   UNL A   1      42.066  31.602  34.006  1.00  0.00     0.074 A 
ATOM     47  C   UNL A   1      44.130  30.886  35.167  1.00  0.00     0.049 A 
ATOM     48  N   UNL A   1      41.324  31.998  35.006  1.00  0.00    -0.248 NA
ATOM     49  C   UNL A   1      41.401  31.678  32.694  1.00  0.00     0.031 C 
ATOM     50  C   UNL A   1      45.458  30.291  35.310  1.00  0.00     0.029 A 
ATOM     51  N   UNL A   1      43.749  31.170  36.456  1.00  0.00    -0.354 N 
ATOM     52  C   UNL A   1      40.109  32.370  34.444  1.00  0.00     0.074 A 
ATOM     53  C   UNL A   1      40.218  32.176  33.016  1.00  0.00     0.031 C 
ATOM     54  C   UNL A   1      45.784  30.261  36.616  1.00  0.00     0.029 A 
ATOM     55  C   UNL A   1      44.701  30.858  37.397  1.00  0.00     0.049 A 
ATOM     56  H   UNL A   1      42.874  31.562  36.684  1.00  0.00     0.167 HD
ATOM     57  C   UNL A   1      38.995  32.833  35.059  1.00  0.00     0.031 A 
ATOM     58  C   UNL A   1      44.700  31.050  38.732  1.00  0.00     0.031 A 
ATOM     59  C   UNL A   1      38.897  33.056  36.474  1.00  0.00     0.049 A 
ATOM     60  C   UNL A   1      43.485  31.665  39.385  1.00  0.00     0.074 A 
ATOM     61  C   UNL A   1      37.828  33.557  37.194  1.00  0.00     0.029 A 
ATOM     62  N   UNL A   1      39.909  32.797  37.384  1.00  0.00    -0.354 N 
ATOM     63  N   UNL A   1      42.349  32.033  38.839  1.00  0.00    -0.248 NA
ATOM     64  C   UNL A   1      43.551  31.882  40.837  1.00  0.00     0.031 C 
ATOM     65  C   UNL A   1      38.214  33.653  38.536  1.00  0.00     0.029 A 
ATOM     66  C   UNL A   1      39.501  33.150  38.659  1.00  0.00     0.049 A 
ATOM     67  H   UNL A   1      40.790  32.419  37.159  1.00  0.00     0.167 HD
ATOM     68  C   UNL A   1      41.556  32.498  39.885  1.00  0.00     0.074 A 
ATOM     69  C   UNL A   1      42.338  32.349  41.096  1.00  0.00     0.031 C 
ATOM     70  C   UNL A   1      40.296  33.002  39.851  1.00  0.00     0.031 A 
BRANCH  57  71
ATOM     71  C   UNL A   1      37.829  33.186  34.178  1.00  0.00    -0.014 A 
ATOM     72  C   UNL A   1      37.685  34.475  33.634  1.00  0.00     0.010 A 
ATOM     73  C   UNL A   1      36.850  32.214  33.909  1.00  0.00     0.010 A 
ATOM     74  C   UNL A   1      36.557  34.798  32.874  1.00  0.00     0.020 A 
ATOM     75  C   UNL A   1      35.736  32.523  33.126  1.00  0.00     0.020 A 
ATOM     76  C   UNL A   1      35.587  33.820  32.630  1.00  0.00     0.054 A 
BRANCH  76  77
ATOM     77  S   UNL A   1      34.133  34.263  31.641  1.00  0.00     0.124 S 
ATOM     78  O   UNL A   1      34.140  33.223  30.615  1.00  0.00    -0.237 OA
ATOM     79  O   UNL A   1      33.046  34.180  32.612  1.00  0.00    -0.237 OA
ATOM     80  O   UNL A   1      34.436  35.610  31.163  1.00  0.00    -0.744 OA
ENDBRANCH  76  77
ENDBRANCH  57  71
BRANCH  58  81
ATOM     81  C   UNL A   1      45.896  30.690  39.546  1.00  0.00    -0.014 A 
ATOM     82  C   UNL A   1      46.020  29.419  40.137  1.00  0.00     0.010 A 
ATOM     83  C   UNL A   1      46.913  31.641  39.761  1.00  0.00     0.010 A 
ATOM     84  C   UNL A   1      47.123  29.114  40.942  1.00  0.00     0.020 A 
ATOM     85  C   UNL A   1      48.030  31.330  40.542  1.00  0.00     0.020 A 
ATOM     86  C   UNL A   1      48.123  30.072  41.139  1.00  0.00     0.054 A 
BRANCH  86  87
ATOM     87  S   UNL A   1      49.564  29.644  42.155  1.00  0.00     0.124 S 
ATOM     88  O   UNL A   1      49.791  30.880  42.898  1.00  0.00    -0.237 OA
ATOM     89  O   UNL A   1      49.073  28.515  42.940  1.00  0.00    -0.237 OA
ATOM     90  O   UNL A   1      50.590  29.309  41.170  1.00  0.00    -0.744 OA
ENDBRANCH  86  87
ENDBRANCH  58  81
BRANCH  70  91
ATOM     91  C   UNL A   1      39.670  33.391  41.165  1.00  0.00    -0.014 A 
ATOM     92  C   UNL A   1      39.017  32.445  41.975  1.00  0.00     0.010 A 
ATOM     93  C   UNL A   1      39.769  34.722  41.611  1.00  0.00     0.010 A 
ATOM     94  C   UNL A   1      38.427  32.835  43.182  1.00  0.00     0.020 A 
ATOM     95  C   UNL A   1      39.210  35.109  42.831  1.00  0.00     0.020 A 
ATOM     96  C   UNL A   1      38.522  34.167  43.599  1.00  0.00     0.054 A 
BRANCH  96  97
ATOM     97  S   UNL A   1      37.760  34.649  45.172  1.00  0.00     0.124 S 
ATOM     98  O   UNL A   1      38.784  34.256  46.137  1.00  0.00    -0.237 OA
ATOM     99  O   UNL A   1      37.568  36.087  45.011  1.00  0.00    -0.237 OA
ATOM    100  O   UNL A   1      36.529  33.863  45.215  1.00  0.00    -0.744 OA
ENDBRANCH  96  97
ENDBRANCH  70  91
ENDBRANCH  44  45
ENDBRANCH  37  39
ENDBRANCH  36  37
ENDBRANCH  35  36
ENDBRANCH  34  35
ENDBRANCH  33  34
ENDBRANCH  32  33
ENDBRANCH   1  32
TORSDOF 27
ENDMDL
