MODEL 1
REMARK VINA RESULT:      -8.7      0.000      0.000
REMARK SMILES NC(=O)c1ccsc1NS(=O)(=O)c1ccc(C(=O)OCCOCCOCCOC(=O)c2ccc(-c3c4nc(c(-c5ccc(S(=O)(=O)[O-])cc5)c5ccc([nH]5)c(-c5ccc(S(=O)(=O)[O-])cc5)c5nc(c(-c6ccc(S(=O)(=O)[O-])cc6)c6ccc3[nH]6)C=C5)C=C4)cc2)cc1
REMARK SMILES IDX 23 1 22 2 21 3 20 4 19 5 17 6 18 7 16 8 13 9 14 10 92 11
REMARK SMILES IDX 15 12 91 13 10 14 11 15 12 16 9 17 8 19 4 20 5 21 6 22 7 23
REMARK SMILES IDX 2 24 1 25 3 28 24 29 25 30 26 31 27 32 28 33 29 34 30 35
REMARK SMILES IDX 31 36 32 37 90 38 33 39 89 40 34 41 35 42 36 43 83 44 37 45
REMARK SMILES IDX 88 46 82 47 84 48 38 49 87 50 81 51 80 52 39 54 69 55 50 56
REMARK SMILES IDX 68 57 51 58 54 59 67 60 85 61 52 62 53 63 66 65 86 66 55 67
REMARK SMILES IDX 40 68 41 69 49 70 42 71 48 72 43 73 44 74 45 75 46 76 47 77
REMARK SMILES IDX 70 78 71 79 79 80 72 81 78 82 73 83 74 84 75 85 76 86 77 87
REMARK SMILES IDX 56 88 57 89 65 90 58 91 64 92 59 93 60 94 61 95 62 96 63 97
REMARK H PARENT 9 18 1 26 1 27 84 53 54 64
REMARK Flexibility Score: inf
ROOT
ATOM      1  C   UNL A   1      35.782  32.650  29.219  1.00  0.00     0.188 C 
ENDROOT
BRANCH   1   2
ATOM      2  O   UNL A   1      36.444  31.441  28.913  1.00  0.00    -0.376 OA
BRANCH   2   3
ATOM      3  C   UNL A   1      36.254  30.794  27.665  1.00  0.00     0.202 C 
BRANCH   3   4
ATOM      4  C   UNL A   1      35.220  29.690  27.416  1.00  0.00     0.261 C 
BRANCH   4   5
ATOM      5  O   UNL A   1      33.954  29.880  28.056  1.00  0.00    -0.460 OA
BRANCH   5   6
ATOM      6  C   UNL A   1      33.014  30.465  27.273  1.00  0.00     0.338 C 
ATOM      7  O   UNL A   1      32.690  31.641  27.292  1.00  0.00    -0.246 OA
BRANCH   6   8
ATOM      8  C   UNL A   1      32.464  29.510  26.279  1.00  0.00     0.060 A 
ATOM      9  C   UNL A   1      31.665  27.491  24.539  1.00  0.00     0.087 A 
ATOM     10  C   UNL A   1      31.453  27.349  25.915  1.00  0.00     0.023 A 
ATOM     11  C   UNL A   1      32.110  28.705  24.012  1.00  0.00     0.023 A 
ATOM     12  C   UNL A   1      31.837  28.366  26.782  1.00  0.00     0.017 A 
ATOM     13  C   UNL A   1      32.566  29.696  24.891  1.00  0.00     0.017 A 
BRANCH   9  14
ATOM     14  S   UNL A   1      31.619  25.998  23.571  1.00  0.00     0.262 S 
ATOM     15  O   UNL A   1      31.009  26.361  22.311  1.00  0.00    -0.201 OA
ATOM     16  O   UNL A   1      31.044  24.962  24.408  1.00  0.00    -0.201 OA
BRANCH  14  17
ATOM     17  N   UNL A   1      33.170  25.514  23.207  1.00  0.00    -0.270 N 
ATOM     18  H   UNL A   1      33.613  26.002  22.476  1.00  0.00     0.181 HD
BRANCH  17  19
ATOM     19  C   UNL A   1      33.932  24.483  23.819  1.00  0.00     0.115 A 
ATOM     20  C   UNL A   1      33.919  23.185  23.328  1.00  0.00     0.074 A 
ATOM     21  C   UNL A   1      35.104  22.484  23.746  1.00  0.00     0.028 A 
ATOM     22  C   UNL A   1      35.811  23.184  24.697  1.00  0.00     0.068 A 
ATOM     23  S   UNL A   1      34.929  24.560  25.202  1.00  0.00    -0.125 S 
BRANCH  20  24
ATOM     24  C   UNL A   1      32.874  22.661  22.464  1.00  0.00     0.251 C 
ATOM     25  N   UNL A   1      32.998  23.037  21.155  1.00  0.00    -0.366 N 
ATOM     26  H   UNL A   1      32.338  22.732  20.491  1.00  0.00     0.159 HD
ATOM     27  H   UNL A   1      33.747  23.612  20.877  1.00  0.00     0.159 HD
ATOM     28  O   UNL A   1      32.004  21.885  22.834  1.00  0.00    -0.269 OA
ENDBRANCH  20  24
ENDBRANCH  17  19
ENDBRANCH  14  17
ENDBRANCH   9  14
ENDBRANCH   6   8
ENDBRANCH   5   6
ENDBRANCH   4   5
ENDBRANCH   3   4
ENDBRANCH   2   3
ENDBRANCH   1   2
BRANCH   1  29
ATOM     29  C   UNL A   1      35.317  33.573  28.076  1.00  0.00     0.188 C 
BRANCH  29  30
ATOM     30  O   UNL A   1      34.785  34.856  28.336  1.00  0.00    -0.376 OA
BRANCH  30  31
ATOM     31  C   UNL A   1      33.404  34.970  28.643  1.00  0.00     0.202 C 
BRANCH  31  32
ATOM     32  C   UNL A   1      32.878  36.011  29.641  1.00  0.00     0.261 C 
BRANCH  32  33
ATOM     33  O   UNL A   1      33.629  36.135  30.856  1.00  0.00    -0.460 OA
BRANCH  33  34
ATOM     34  C   UNL A   1      33.140  35.421  31.904  1.00  0.00     0.338 C 
ATOM     35  O   UNL A   1      31.972  35.160  32.136  1.00  0.00    -0.246 OA
BRANCH  34  36
ATOM     36  C   UNL A   1      34.260  34.813  32.646  1.00  0.00     0.060 A 
ATOM     37  C   UNL A   1      35.540  35.370  32.508  1.00  0.00     0.016 A 
ATOM     38  C   UNL A   1      34.060  33.672  33.421  1.00  0.00     0.016 A 
ATOM     39  C   UNL A   1      36.635  34.768  33.124  1.00  0.00     0.010 A 
ATOM     40  C   UNL A   1      35.162  33.053  34.014  1.00  0.00     0.010 A 
ATOM     41  C   UNL A   1      36.456  33.579  33.841  1.00  0.00    -0.014 A 
BRANCH  41  42
ATOM     42  C   UNL A   1      37.628  32.760  34.226  1.00  0.00     0.031 A 
ATOM     43  C   UNL A   1      38.333  33.097  35.512  1.00  0.00     0.074 A 
ATOM     44  C   UNL A   1      38.073  31.758  33.449  1.00  0.00     0.049 A 
ATOM     45  N   UNL A   1      39.442  32.612  36.002  1.00  0.00    -0.248 NA
ATOM     46  C   UNL A   1      37.700  34.129  36.353  1.00  0.00     0.031 C 
ATOM     47  C   UNL A   1      37.443  31.299  32.213  1.00  0.00     0.029 A 
ATOM     48  N   UNL A   1      39.178  30.956  33.585  1.00  0.00    -0.354 N 
ATOM     49  C   UNL A   1      39.651  33.287  37.198  1.00  0.00     0.074 A 
ATOM     50  C   UNL A   1      38.565  34.230  37.351  1.00  0.00     0.031 C 
ATOM     51  C   UNL A   1      38.185  30.305  31.691  1.00  0.00     0.029 A 
ATOM     52  C   UNL A   1      39.360  30.088  32.535  1.00  0.00     0.049 A 
ATOM     53  H   UNL A   1      39.784  30.999  34.360  1.00  0.00     0.167 HD
ATOM     54  C   UNL A   1      40.658  33.138  38.091  1.00  0.00     0.031 A 
ATOM     55  C   UNL A   1      40.374  29.240  32.272  1.00  0.00     0.031 A 
ATOM     56  C   UNL A   1      41.749  32.215  37.924  1.00  0.00     0.049 A 
ATOM     57  C   UNL A   1      41.531  29.149  33.237  1.00  0.00     0.074 A 
ATOM     58  C   UNL A   1      42.820  31.988  38.768  1.00  0.00     0.029 A 
ATOM     59  N   UNL A   1      41.909  31.372  36.835  1.00  0.00    -0.354 N 
ATOM     60  N   UNL A   1      41.716  29.791  34.367  1.00  0.00    -0.248 NA
ATOM     61  C   UNL A   1      42.614  28.217  32.891  1.00  0.00     0.031 C 
ATOM     62  C   UNL A   1      43.658  31.045  38.164  1.00  0.00     0.029 A 
ATOM     63  C   UNL A   1      43.073  30.637  36.975  1.00  0.00     0.049 A 
ATOM     64  H   UNL A   1      41.285  31.304  36.076  1.00  0.00     0.167 HD
ATOM     65  C   UNL A   1      42.917  29.313  34.884  1.00  0.00     0.074 A 
ATOM     66  C   UNL A   1      43.413  28.327  33.945  1.00  0.00     0.031 C 
ATOM     67  C   UNL A   1      43.548  29.652  36.035  1.00  0.00     0.031 A 
BRANCH  54  68
ATOM     68  C   UNL A   1      40.645  34.033  39.301  1.00  0.00    -0.014 A 
ATOM     69  C   UNL A   1      40.086  33.605  40.519  1.00  0.00     0.010 A 
ATOM     70  C   UNL A   1      41.213  35.317  39.221  1.00  0.00     0.010 A 
ATOM     71  C   UNL A   1      40.053  34.464  41.620  1.00  0.00     0.020 A 
ATOM     72  C   UNL A   1      41.207  36.168  40.329  1.00  0.00     0.020 A 
ATOM     73  C   UNL A   1      40.609  35.743  41.517  1.00  0.00     0.054 A 
BRANCH  73  74
ATOM     74  S   UNL A   1      40.560  36.835  42.963  1.00  0.00     0.124 S 
ATOM     75  O   UNL A   1      41.977  37.117  43.177  1.00  0.00    -0.237 OA
ATOM     76  O   UNL A   1      39.761  37.961  42.489  1.00  0.00    -0.237 OA
ATOM     77  O   UNL A   1      39.927  36.016  43.995  1.00  0.00    -0.744 OA
ENDBRANCH  73  74
ENDBRANCH  54  68
BRANCH  55  78
ATOM     78  C   UNL A   1      40.357  28.420  31.029  1.00  0.00    -0.014 A 
ATOM     79  C   UNL A   1      41.338  28.601  30.039  1.00  0.00     0.010 A 
ATOM     80  C   UNL A   1      39.355  27.452  30.831  1.00  0.00     0.010 A 
ATOM     81  C   UNL A   1      41.310  27.838  28.867  1.00  0.00     0.020 A 
ATOM     82  C   UNL A   1      39.339  26.670  29.672  1.00  0.00     0.020 A 
ATOM     83  C   UNL A   1      40.312  26.875  28.692  1.00  0.00     0.054 A 
BRANCH  83  84
ATOM     84  S   UNL A   1      40.326  25.862  27.187  1.00  0.00     0.124 S 
ATOM     85  O   UNL A   1      40.660  26.844  26.161  1.00  0.00    -0.237 OA
ATOM     86  O   UNL A   1      41.364  24.876  27.481  1.00  0.00    -0.237 OA
ATOM     87  O   UNL A   1      38.969  25.324  27.122  1.00  0.00    -0.744 OA
ENDBRANCH  83  84
ENDBRANCH  55  78
BRANCH  67  88
ATOM     88  C   UNL A   1      44.819  28.921  36.382  1.00  0.00    -0.014 A 
ATOM     89  C   UNL A   1      46.079  29.423  36.017  1.00  0.00     0.010 A 
ATOM     90  C   UNL A   1      44.746  27.748  37.157  1.00  0.00     0.010 A 
ATOM     91  C   UNL A   1      47.244  28.753  36.403  1.00  0.00     0.020 A 
ATOM     92  C   UNL A   1      45.909  27.090  37.567  1.00  0.00     0.020 A 
ATOM     93  C   UNL A   1      47.151  27.592  37.177  1.00  0.00     0.054 A 
BRANCH  93  94
ATOM     94  S   UNL A   1      48.679  26.774  37.715  1.00  0.00     0.124 S 
ATOM     95  O   UNL A   1      49.141  27.660  38.779  1.00  0.00    -0.237 OA
ATOM     96  O   UNL A   1      48.205  25.462  38.151  1.00  0.00    -0.237 OA
ATOM     97  O   UNL A   1      49.507  26.760  36.510  1.00  0.00    -0.744 OA
ENDBRANCH  93  94
ENDBRANCH  67  88
ENDBRANCH  41  42
ENDBRANCH  34  36
ENDBRANCH  33  34
ENDBRANCH  32  33
ENDBRANCH  31  32
ENDBRANCH  30  31
ENDBRANCH  29  30
ENDBRANCH   1  29
TORSDOF 24
ENDMDL
MODEL 2
REMARK VINA RESULT:      -8.6      1.650      2.297
REMARK SMILES NC(=O)c1ccsc1NS(=O)(=O)c1ccc(C(=O)OCCOCCOCCOC(=O)c2ccc(-c3c4nc(c(-c5ccc(S(=O)(=O)[O-])cc5)c5ccc([nH]5)c(-c5ccc(S(=O)(=O)[O-])cc5)c5nc(c(-c6ccc(S(=O)(=O)[O-])cc6)c6ccc3[nH]6)C=C5)C=C4)cc2)cc1
REMARK SMILES IDX 23 1 22 2 21 3 20 4 19 5 17 6 18 7 16 8 13 9 14 10 92 11
REMARK SMILES IDX 15 12 91 13 10 14 11 15 12 16 9 17 8 19 4 20 5 21 6 22 7 23
REMARK SMILES IDX 2 24 1 25 3 28 24 29 25 30 26 31 27 32 28 33 29 34 30 35
REMARK SMILES IDX 31 36 32 37 90 38 33 39 89 40 34 41 35 42 36 43 83 44 37 45
REMARK SMILES IDX 88 46 82 47 84 48 38 49 87 50 81 51 80 52 39 54 69 55 50 56
REMARK SMILES IDX 68 57 51 58 54 59 67 60 85 61 52 62 53 63 66 65 86 66 55 67
REMARK SMILES IDX 40 68 41 69 49 70 42 71 48 72 43 73 44 74 45 75 46 76 47 77
REMARK SMILES IDX 70 78 71 79 79 80 72 81 78 82 73 83 74 84 75 85 76 86 77 87
REMARK SMILES IDX 56 88 57 89 65 90 58 91 64 92 59 93 60 94 61 95 62 96 63 97
REMARK H PARENT 9 18 1 26 1 27 84 53 54 64
REMARK Flexibility Score: inf
ROOT
ATOM      1  C   UNL A   1      36.523  32.808  29.028  1.00  0.00     0.188 C 
ENDROOT
BRANCH   1   2
ATOM      2  O   UNL A   1      37.382  31.782  28.579  1.00  0.00    -0.376 OA
BRANCH   2   3
ATOM      3  C   UNL A   1      36.937  30.802  27.655  1.00  0.00     0.202 C 
BRANCH   3   4
ATOM      4  C   UNL A   1      36.316  29.459  28.056  1.00  0.00     0.261 C 
BRANCH   4   5
ATOM      5  O   UNL A   1      34.970  29.526  28.538  1.00  0.00    -0.460 OA
BRANCH   5   6
ATOM      6  C   UNL A   1      34.059  29.897  27.603  1.00  0.00     0.338 C 
ATOM      7  O   UNL A   1      33.834  31.036  27.229  1.00  0.00    -0.246 OA
BRANCH   6   8
ATOM      8  C   UNL A   1      33.405  28.718  26.983  1.00  0.00     0.060 A 
ATOM      9  C   UNL A   1      32.135  26.388  26.146  1.00  0.00     0.087 A 
ATOM     10  C   UNL A   1      31.421  27.349  26.870  1.00  0.00     0.023 A 
ATOM     11  C   UNL A   1      33.425  26.660  25.687  1.00  0.00     0.023 A 
ATOM     12  C   UNL A   1      32.052  28.521  27.273  1.00  0.00     0.017 A 
ATOM     13  C   UNL A   1      34.082  27.805  26.158  1.00  0.00     0.017 A 
BRANCH   9  14
ATOM     14  S   UNL A   1      31.439  24.750  26.104  1.00  0.00     0.262 S 
ATOM     15  O   UNL A   1      30.203  24.826  26.852  1.00  0.00    -0.201 OA
ATOM     16  O   UNL A   1      32.490  23.827  26.488  1.00  0.00    -0.201 OA
BRANCH  14  17
ATOM     17  N   UNL A   1      31.007  24.361  24.544  1.00  0.00    -0.270 N 
ATOM     18  H   UNL A   1      30.350  23.633  24.448  1.00  0.00     0.181 HD
BRANCH  17  19
ATOM     19  C   UNL A   1      31.468  24.948  23.335  1.00  0.00     0.115 A 
ATOM     20  C   UNL A   1      31.018  26.193  22.918  1.00  0.00     0.074 A 
ATOM     21  C   UNL A   1      31.965  26.782  22.008  1.00  0.00     0.028 A 
ATOM     22  C   UNL A   1      32.928  25.885  21.609  1.00  0.00     0.068 A 
ATOM     23  S   UNL A   1      32.552  24.316  22.179  1.00  0.00    -0.125 S 
BRANCH  20  24
ATOM     24  C   UNL A   1      29.795  26.811  23.402  1.00  0.00     0.251 C 
ATOM     25  N   UNL A   1      29.766  28.170  23.254  1.00  0.00    -0.366 N 
ATOM     26  H   UNL A   1      28.979  28.680  23.551  1.00  0.00     0.159 HD
ATOM     27  H   UNL A   1      30.532  28.638  22.849  1.00  0.00     0.159 HD
ATOM     28  O   UNL A   1      28.833  26.186  23.826  1.00  0.00    -0.269 OA
ENDBRANCH  20  24
ENDBRANCH  17  19
ENDBRANCH  14  17
ENDBRANCH   9  14
ENDBRANCH   6   8
ENDBRANCH   5   6
ENDBRANCH   4   5
ENDBRANCH   3   4
ENDBRANCH   2   3
ENDBRANCH   1   2
BRANCH   1  29
ATOM     29  C   UNL A   1      35.672  33.588  28.006  1.00  0.00     0.188 C 
BRANCH  29  30
ATOM     30  O   UNL A   1      34.986  34.770  28.369  1.00  0.00    -0.376 OA
BRANCH  30  31
ATOM     31  C   UNL A   1      33.598  34.690  28.657  1.00  0.00     0.202 C 
BRANCH  31  32
ATOM     32  C   UNL A   1      32.908  35.683  29.604  1.00  0.00     0.261 C 
BRANCH  32  33
ATOM     33  O   UNL A   1      33.608  35.958  30.825  1.00  0.00    -0.460 OA
BRANCH  33  34
ATOM     34  C   UNL A   1      33.151  35.278  31.909  1.00  0.00     0.338 C 
ATOM     35  O   UNL A   1      31.996  34.981  32.159  1.00  0.00    -0.246 OA
BRANCH  34  36
ATOM     36  C   UNL A   1      34.297  34.754  32.674  1.00  0.00     0.060 A 
ATOM     37  C   UNL A   1      35.513  35.454  32.630  1.00  0.00     0.016 A 
ATOM     38  C   UNL A   1      34.191  33.556  33.380  1.00  0.00     0.016 A 
ATOM     39  C   UNL A   1      36.639  34.940  33.270  1.00  0.00     0.010 A 
ATOM     40  C   UNL A   1      35.327  33.028  33.995  1.00  0.00     0.010 A 
ATOM     41  C   UNL A   1      36.561  33.700  33.914  1.00  0.00    -0.014 A 
BRANCH  41  42
ATOM     42  C   UNL A   1      37.798  32.993  34.316  1.00  0.00     0.031 A 
ATOM     43  C   UNL A   1      38.315  33.211  35.712  1.00  0.00     0.074 A 
ATOM     44  C   UNL A   1      38.462  32.195  33.462  1.00  0.00     0.049 A 
ATOM     45  N   UNL A   1      39.430  32.804  36.258  1.00  0.00    -0.248 NA
ATOM     46  C   UNL A   1      37.456  34.002  36.611  1.00  0.00     0.031 C 
ATOM     47  C   UNL A   1      38.033  31.859  32.107  1.00  0.00     0.029 A 
ATOM     48  N   UNL A   1      39.656  31.534  33.614  1.00  0.00    -0.354 N 
ATOM     49  C   UNL A   1      39.417  33.302  37.555  1.00  0.00     0.074 A 
ATOM     50  C   UNL A   1      38.193  34.057  37.710  1.00  0.00     0.031 C 
ATOM     51  C   UNL A   1      38.963  31.068  31.540  1.00  0.00     0.029 A 
ATOM     52  C   UNL A   1      40.068  30.877  32.479  1.00  0.00     0.049 A 
ATOM     53  H   UNL A   1      40.169  31.533  34.454  1.00  0.00     0.167 HD
ATOM     54  C   UNL A   1      40.342  33.148  38.531  1.00  0.00     0.031 A 
ATOM     55  C   UNL A   1      41.218  30.224  32.221  1.00  0.00     0.031 A 
ATOM     56  C   UNL A   1      41.570  32.415  38.366  1.00  0.00     0.049 A 
ATOM     57  C   UNL A   1      42.275  30.134  33.295  1.00  0.00     0.074 A 
ATOM     58  C   UNL A   1      42.574  32.201  39.291  1.00  0.00     0.029 A 
ATOM     59  N   UNL A   1      41.960  31.785  37.194  1.00  0.00    -0.354 N 
ATOM     60  N   UNL A   1      42.250  30.606  34.519  1.00  0.00    -0.248 NA
ATOM     61  C   UNL A   1      43.513  29.421  32.952  1.00  0.00     0.031 C 
ATOM     62  C   UNL A   1      43.598  31.485  38.663  1.00  0.00     0.029 A 
ATOM     63  C   UNL A   1      43.202  31.198  37.366  1.00  0.00     0.049 A 
ATOM     64  H   UNL A   1      41.432  31.757  36.364  1.00  0.00     0.167 HD
ATOM     65  C   UNL A   1      43.452  30.215  35.103  1.00  0.00     0.074 A 
ATOM     66  C   UNL A   1      44.179  29.465  34.098  1.00  0.00     0.031 C 
ATOM     67  C   UNL A   1      43.909  30.447  36.358  1.00  0.00     0.031 A 
BRANCH  54  68
ATOM     68  C   UNL A   1      40.077  33.828  39.847  1.00  0.00    -0.014 A 
ATOM     69  C   UNL A   1      40.543  35.130  40.103  1.00  0.00     0.010 A 
ATOM     70  C   UNL A   1      39.337  33.157  40.838  1.00  0.00     0.010 A 
ATOM     71  C   UNL A   1      40.315  35.729  41.345  1.00  0.00     0.020 A 
ATOM     72  C   UNL A   1      39.083  33.765  42.070  1.00  0.00     0.020 A 
ATOM     73  C   UNL A   1      39.591  35.041  42.323  1.00  0.00     0.054 A 
BRANCH  73  74
ATOM     74  S   UNL A   1      39.303  35.844  43.922  1.00  0.00     0.124 S 
ATOM     75  O   UNL A   1      37.884  35.575  44.143  1.00  0.00    -0.237 OA
ATOM     76  O   UNL A   1      40.221  35.135  44.808  1.00  0.00    -0.237 OA
ATOM     77  O   UNL A   1      39.638  37.244  43.673  1.00  0.00    -0.744 OA
ENDBRANCH  73  74
ENDBRANCH  54  68
BRANCH  55  78
ATOM     78  C   UNL A   1      41.446  29.617  30.880  1.00  0.00    -0.014 A 
ATOM     79  C   UNL A   1      42.028  30.368  29.845  1.00  0.00     0.010 A 
ATOM     80  C   UNL A   1      41.080  28.280  30.634  1.00  0.00     0.010 A 
ATOM     81  C   UNL A   1      42.227  29.799  28.582  1.00  0.00     0.020 A 
ATOM     82  C   UNL A   1      41.301  27.701  29.381  1.00  0.00     0.020 A 
ATOM     83  C   UNL A   1      41.865  28.468  28.359  1.00  0.00     0.054 A 
BRANCH  83  84
ATOM     84  S   UNL A   1      42.181  27.735  26.729  1.00  0.00     0.124 S 
ATOM     85  O   UNL A   1      40.851  27.744  26.128  1.00  0.00    -0.237 OA
ATOM     86  O   UNL A   1      43.145  28.666  26.148  1.00  0.00    -0.237 OA
ATOM     87  O   UNL A   1      42.716  26.413  27.046  1.00  0.00    -0.744 OA
ENDBRANCH  83  84
ENDBRANCH  55  78
BRANCH  67  88
ATOM     88  C   UNL A   1      45.233  29.844  36.746  1.00  0.00    -0.014 A 
ATOM     89  C   UNL A   1      45.324  28.547  37.279  1.00  0.00     0.010 A 
ATOM     90  C   UNL A   1      46.416  30.567  36.497  1.00  0.00     0.010 A 
ATOM     91  C   UNL A   1      46.572  27.992  37.576  1.00  0.00     0.020 A 
ATOM     92  C   UNL A   1      47.666  30.005  36.767  1.00  0.00     0.020 A 
ATOM     93  C   UNL A   1      47.736  28.724  37.315  1.00  0.00     0.054 A 
BRANCH  93  94
ATOM     94  S   UNL A   1      49.345  27.958  37.655  1.00  0.00     0.124 S 
ATOM     95  O   UNL A   1      48.958  26.631  38.125  1.00  0.00    -0.237 OA
ATOM     96  O   UNL A   1      50.000  27.995  36.349  1.00  0.00    -0.237 OA
ATOM     97  O   UNL A   1      49.938  28.831  38.667  1.00  0.00    -0.744 OA
ENDBRANCH  93  94
ENDBRANCH  67  88
ENDBRANCH  41  42
ENDBRANCH  34  36
ENDBRANCH  33  34
ENDBRANCH  32  33
ENDBRANCH  31  32
ENDBRANCH  30  31
ENDBRANCH  29  30
ENDBRANCH   1  29
TORSDOF 24
ENDMDL
MODEL 3
REMARK VINA RESULT:      -8.4      4.890      8.517
REMARK SMILES NC(=O)c1ccsc1NS(=O)(=O)c1ccc(C(=O)OCCOCCOCCOC(=O)c2ccc(-c3c4nc(c(-c5ccc(S(=O)(=O)[O-])cc5)c5ccc([nH]5)c(-c5ccc(S(=O)(=O)[O-])cc5)c5nc(c(-c6ccc(S(=O)(=O)[O-])cc6)c6ccc3[nH]6)C=C5)C=C4)cc2)cc1
REMARK SMILES IDX 23 1 22 2 21 3 20 4 19 5 17 6 18 7 16 8 13 9 14 10 92 11
REMARK SMILES IDX 15 12 91 13 10 14 11 15 12 16 9 17 8 19 4 20 5 21 6 22 7 23
REMARK SMILES IDX 2 24 1 25 3 28 24 29 25 30 26 31 27 32 28 33 29 34 30 35
REMARK SMILES IDX 31 36 32 37 90 38 33 39 89 40 34 41 35 42 36 43 83 44 37 45
REMARK SMILES IDX 88 46 82 47 84 48 38 49 87 50 81 51 80 52 39 54 69 55 50 56
REMARK SMILES IDX 68 57 51 58 54 59 67 60 85 61 52 62 53 63 66 65 86 66 55 67
REMARK SMILES IDX 40 68 41 69 49 70 42 71 48 72 43 73 44 74 45 75 46 76 47 77
REMARK SMILES IDX 70 78 71 79 79 80 72 81 78 82 73 83 74 84 75 85 76 86 77 87
REMARK SMILES IDX 56 88 57 89 65 90 58 91 64 92 59 93 60 94 61 95 62 96 63 97
REMARK H PARENT 9 18 1 26 1 27 84 53 54 64
REMARK Flexibility Score: inf
ROOT
ATOM      1  C   UNL A   1      34.137  30.702  27.911  1.00  0.00     0.188 C 
ENDROOT
BRANCH   1   2
ATOM      2  O   UNL A   1      33.449  30.004  26.895  1.00  0.00    -0.376 OA
BRANCH   2   3
ATOM      3  C   UNL A   1      34.037  28.891  26.241  1.00  0.00     0.202 C 
BRANCH   3   4
ATOM      4  C   UNL A   1      33.629  28.397  24.849  1.00  0.00     0.261 C 
BRANCH   4   5
ATOM      5  O   UNL A   1      32.333  28.812  24.406  1.00  0.00    -0.460 OA
BRANCH   5   6
ATOM      6  C   UNL A   1      31.780  28.007  23.464  1.00  0.00     0.338 C 
ATOM      7  O   UNL A   1      31.675  28.258  22.274  1.00  0.00    -0.246 OA
BRANCH   6   8
ATOM      8  C   UNL A   1      31.388  26.695  24.033  1.00  0.00     0.060 A 
ATOM      9  C   UNL A   1      30.812  24.335  25.392  1.00  0.00     0.087 A 
ATOM     10  C   UNL A   1      30.234  25.540  25.811  1.00  0.00     0.023 A 
ATOM     11  C   UNL A   1      31.533  24.273  24.198  1.00  0.00     0.023 A 
ATOM     12  C   UNL A   1      30.508  26.715  25.120  1.00  0.00     0.017 A 
ATOM     13  C   UNL A   1      31.870  25.468  23.549  1.00  0.00     0.017 A 
BRANCH   9  14
ATOM     14  S   UNL A   1      30.824  23.009  26.578  1.00  0.00     0.262 S 
ATOM     15  O   UNL A   1      29.444  22.606  26.736  1.00  0.00    -0.201 OA
ATOM     16  O   UNL A   1      31.606  23.456  27.715  1.00  0.00    -0.201 OA
BRANCH  14  17
ATOM     17  N   UNL A   1      31.616  21.690  25.942  1.00  0.00    -0.270 N 
ATOM     18  H   UNL A   1      31.042  20.970  25.592  1.00  0.00     0.181 HD
BRANCH  17  19
ATOM     19  C   UNL A   1      33.017  21.473  25.842  1.00  0.00     0.115 A 
ATOM     20  C   UNL A   1      33.531  20.273  25.374  1.00  0.00     0.074 A 
ATOM     21  C   UNL A   1      34.870  20.465  24.881  1.00  0.00     0.028 A 
ATOM     22  C   UNL A   1      35.370  21.703  25.211  1.00  0.00     0.068 A 
ATOM     23  S   UNL A   1      34.298  22.516  26.269  1.00  0.00    -0.125 S 
BRANCH  20  24
ATOM     24  C   UNL A   1      32.776  19.031  25.339  1.00  0.00     0.251 C 
ATOM     25  N   UNL A   1      32.781  18.347  26.523  1.00  0.00    -0.366 N 
ATOM     26  H   UNL A   1      32.297  17.494  26.600  1.00  0.00     0.159 HD
ATOM     27  H   UNL A   1      33.270  18.708  27.298  1.00  0.00     0.159 HD
ATOM     28  O   UNL A   1      32.117  18.656  24.379  1.00  0.00    -0.269 OA
ENDBRANCH  20  24
ENDBRANCH  17  19
ENDBRANCH  14  17
ENDBRANCH   9  14
ENDBRANCH   6   8
ENDBRANCH   5   6
ENDBRANCH   4   5
ENDBRANCH   3   4
ENDBRANCH   2   3
ENDBRANCH   1   2
BRANCH   1  29
ATOM     29  C   UNL A   1      35.636  30.428  28.142  1.00  0.00     0.188 C 
BRANCH  29  30
ATOM     30  O   UNL A   1      36.565  31.485  28.278  1.00  0.00    -0.376 OA
BRANCH  30  31
ATOM     31  C   UNL A   1      36.082  32.774  28.625  1.00  0.00     0.202 C 
BRANCH  31  32
ATOM     32  C   UNL A   1      36.542  33.496  29.900  1.00  0.00     0.261 C 
BRANCH  32  33
ATOM     33  O   UNL A   1      35.493  33.920  30.781  1.00  0.00    -0.460 OA
BRANCH  33  34
ATOM     34  C   UNL A   1      35.038  32.961  31.629  1.00  0.00     0.338 C 
ATOM     35  O   UNL A   1      34.296  32.032  31.359  1.00  0.00    -0.246 OA
BRANCH  34  36
ATOM     36  C   UNL A   1      35.740  33.078  32.920  1.00  0.00     0.060 A 
ATOM     37  C   UNL A   1      35.426  34.155  33.762  1.00  0.00     0.016 A 
ATOM     38  C   UNL A   1      36.737  32.168  33.270  1.00  0.00     0.016 A 
ATOM     39  C   UNL A   1      36.132  34.344  34.948  1.00  0.00     0.010 A 
ATOM     40  C   UNL A   1      37.464  32.376  34.444  1.00  0.00     0.010 A 
ATOM     41  C   UNL A   1      37.186  33.482  35.269  1.00  0.00    -0.014 A 
BRANCH  41  42
ATOM     42  C   UNL A   1      38.143  33.844  36.339  1.00  0.00     0.031 A 
ATOM     43  C   UNL A   1      39.411  34.552  35.944  1.00  0.00     0.074 A 
ATOM     44  C   UNL A   1      37.910  33.536  37.626  1.00  0.00     0.049 A 
ATOM     45  N   UNL A   1      40.449  34.865  36.673  1.00  0.00    -0.248 NA
ATOM     46  C   UNL A   1      39.520  34.955  34.531  1.00  0.00     0.031 C 
ATOM     47  C   UNL A   1      36.697  32.905  38.141  1.00  0.00     0.029 A 
ATOM     48  N   UNL A   1      38.702  33.702  38.735  1.00  0.00    -0.354 N 
ATOM     49  C   UNL A   1      41.342  35.485  35.808  1.00  0.00     0.074 A 
ATOM     50  C   UNL A   1      40.732  35.488  34.496  1.00  0.00     0.031 C 
ATOM     51  C   UNL A   1      36.834  32.718  39.467  1.00  0.00     0.029 A 
ATOM     52  C   UNL A   1      38.157  33.180  39.884  1.00  0.00     0.049 A 
ATOM     53  H   UNL A   1      39.578  34.152  38.709  1.00  0.00     0.167 HD
ATOM     54  C   UNL A   1      42.562  36.004  36.079  1.00  0.00     0.031 A 
ATOM     55  C   UNL A   1      38.681  33.062  41.120  1.00  0.00     0.031 A 
ATOM     56  C   UNL A   1      43.174  35.979  37.380  1.00  0.00     0.049 A 
ATOM     57  C   UNL A   1      40.077  33.571  41.383  1.00  0.00     0.074 A 
ATOM     58  C   UNL A   1      44.407  36.476  37.760  1.00  0.00     0.029 A 
ATOM     59  N   UNL A   1      42.600  35.420  38.512  1.00  0.00    -0.354 N 
ATOM     60  N   UNL A   1      40.911  34.158  40.557  1.00  0.00    -0.248 NA
ATOM     61  C   UNL A   1      40.600  33.403  42.746  1.00  0.00     0.031 C 
ATOM     62  C   UNL A   1      44.602  36.169  39.111  1.00  0.00     0.029 A 
ATOM     63  C   UNL A   1      43.462  35.540  39.587  1.00  0.00     0.049 A 
ATOM     64  H   UNL A   1      41.709  35.001  38.545  1.00  0.00     0.167 HD
ATOM     65  C   UNL A   1      42.042  34.462  41.311  1.00  0.00     0.074 A 
ATOM     66  C   UNL A   1      41.783  33.997  42.658  1.00  0.00     0.031 C 
ATOM     67  C   UNL A   1      43.186  35.079  40.925  1.00  0.00     0.031 A 
BRANCH  54  68
ATOM     68  C   UNL A   1      43.330  36.599  34.929  1.00  0.00    -0.014 A 
ATOM     69  C   UNL A   1      44.247  35.831  34.189  1.00  0.00     0.010 A 
ATOM     70  C   UNL A   1      43.120  37.944  34.576  1.00  0.00     0.010 A 
ATOM     71  C   UNL A   1      44.975  36.412  33.147  1.00  0.00     0.020 A 
ATOM     72  C   UNL A   1      43.825  38.520  33.516  1.00  0.00     0.020 A 
ATOM     73  C   UNL A   1      44.763  37.755  32.821  1.00  0.00     0.054 A 
BRANCH  73  74
ATOM     74  S   UNL A   1      45.715  38.482  31.460  1.00  0.00     0.124 S 
ATOM     75  O   UNL A   1      45.902  37.335  30.576  1.00  0.00    -0.237 OA
ATOM     76  O   UNL A   1      44.819  39.521  30.959  1.00  0.00    -0.237 OA
ATOM     77  O   UNL A   1      46.930  38.972  32.108  1.00  0.00    -0.744 OA
ENDBRANCH  73  74
ENDBRANCH  54  68
BRANCH  55  78
ATOM     78  C   UNL A   1      37.892  32.415  42.204  1.00  0.00    -0.014 A 
ATOM     79  C   UNL A   1      36.991  33.166  42.978  1.00  0.00     0.010 A 
ATOM     80  C   UNL A   1      38.039  31.040  42.468  1.00  0.00     0.010 A 
ATOM     81  C   UNL A   1      36.261  32.558  44.006  1.00  0.00     0.020 A 
ATOM     82  C   UNL A   1      37.293  30.424  43.477  1.00  0.00     0.020 A 
ATOM     83  C   UNL A   1      36.415  31.190  44.246  1.00  0.00     0.054 A 
BRANCH  83  84
ATOM     84  S   UNL A   1      35.420  30.413  45.550  1.00  0.00     0.124 S 
ATOM     85  O   UNL A   1      34.123  30.267  44.897  1.00  0.00    -0.237 OA
ATOM     86  O   UNL A   1      36.146  29.169  45.800  1.00  0.00    -0.237 OA
ATOM     87  O   UNL A   1      35.467  31.382  46.641  1.00  0.00    -0.744 OA
ENDBRANCH  83  84
ENDBRANCH  55  78
BRANCH  67  88
ATOM     88  C   UNL A   1      44.233  35.340  41.977  1.00  0.00    -0.014 A 
ATOM     89  C   UNL A   1      44.210  36.503  42.764  1.00  0.00     0.010 A 
ATOM     90  C   UNL A   1      45.210  34.358  42.231  1.00  0.00     0.010 A 
ATOM     91  C   UNL A   1      45.161  36.691  43.773  1.00  0.00     0.020 A 
ATOM     92  C   UNL A   1      46.145  34.530  43.255  1.00  0.00     0.020 A 
ATOM     93  C   UNL A   1      46.121  35.702  44.013  1.00  0.00     0.054 A 
BRANCH  93  94
ATOM     94  S   UNL A   1      47.306  35.943  45.365  1.00  0.00     0.124 S 
ATOM     95  O   UNL A   1      47.786  34.584  45.595  1.00  0.00    -0.237 OA
ATOM     96  O   UNL A   1      48.279  36.862  44.779  1.00  0.00    -0.237 OA
ATOM     97  O   UNL A   1      46.494  36.509  46.441  1.00  0.00    -0.744 OA
ENDBRANCH  93  94
ENDBRANCH  67  88
ENDBRANCH  41  42
ENDBRANCH  34  36
ENDBRANCH  33  34
ENDBRANCH  32  33
ENDBRANCH  31  32
ENDBRANCH  30  31
ENDBRANCH  29  30
ENDBRANCH   1  29
TORSDOF 24
ENDMDL
