MODEL 1
REMARK VINA RESULT:      -8.7      0.000      0.000
REMARK SMILES O=C(/C=C/Nc1cc(Cl)ccc1Cl)OCCOCCOCCOC(=O)c1ccc(-c2c3nc(c(-c4ccc(S(=O)(=O)[O-])cc4)c4ccc([nH]4)c(-c4ccc(S(=O)(=O)[O-])cc4)c4nc(c(-c5ccc(S(=O)(=O)[O-])cc5)c5ccc2[nH]5)C=C4)C=C3)cc1
REMARK SMILES IDX 19 1 18 2 17 3 16 4 15 5 14 6 2 7 1 8 3 9 4 10 5 11 6 13
REMARK SMILES IDX 7 14 12 15 8 16 11 17 13 18 9 19 10 20 20 21 21 22 22 23
REMARK SMILES IDX 23 24 24 25 25 26 26 27 27 28 85 29 28 30 84 31 29 32 30 33
REMARK SMILES IDX 31 34 78 35 32 36 83 37 77 38 79 39 33 40 82 41 76 42 75 43
REMARK SMILES IDX 34 45 64 46 45 47 63 48 46 49 49 50 62 51 80 52 47 53 48 54
REMARK SMILES IDX 61 56 81 57 50 58 35 59 36 60 44 61 37 62 43 63 38 64 39 65
REMARK SMILES IDX 40 66 41 67 42 68 65 69 66 70 74 71 67 72 73 73 68 74 69 75
REMARK SMILES IDX 70 76 71 77 72 78 51 79 52 80 60 81 53 82 59 83 54 84 55 85
REMARK SMILES IDX 56 86 57 87 58 88
REMARK H PARENT 5 12 79 44 49 55
REMARK Flexibility Score: inf
ROOT
ATOM      1  C   UNL A   1      47.923  22.216  39.601  1.00  0.00     0.188 C 
ENDROOT
BRANCH   1   2
ATOM      2  C   UNL A   1      47.417  20.769  39.548  1.00  0.00     0.188 C 
BRANCH   2   3
ATOM      3  O   UNL A   1      47.488  19.988  40.724  1.00  0.00    -0.376 OA
BRANCH   3   4
ATOM      4  C   UNL A   1      46.366  19.208  41.114  1.00  0.00     0.202 C 
BRANCH   4   5
ATOM      5  C   UNL A   1      45.840  18.055  40.262  1.00  0.00     0.261 C 
BRANCH   5   6
ATOM      6  O   UNL A   1      44.466  17.580  40.264  1.00  0.00    -0.460 OA
BRANCH   6   7
ATOM      7  C   UNL A   1      43.756  16.575  39.733  1.00  0.00     0.332 C 
ATOM      8  O   UNL A   1      43.996  16.199  38.588  1.00  0.00    -0.247 OA
BRANCH   7   9
ATOM      9  C   UNL A   1      42.682  15.910  40.463  1.00  0.00     0.111 C 
ATOM     10  C   UNL A   1      42.747  15.547  41.744  1.00  0.00     0.090 C 
BRANCH  10  11
ATOM     11  N   UNL A   1      41.792  14.860  42.447  1.00  0.00    -0.360 N 
ATOM     12  H   UNL A   1      40.906  15.276  42.553  1.00  0.00     0.166 HD
BRANCH  11  13
ATOM     13  C   UNL A   1      42.001  13.596  43.025  1.00  0.00     0.058 A 
ATOM     14  C   UNL A   1      42.651  13.500  44.267  1.00  0.00     0.048 A 
ATOM     15  C   UNL A   1      41.653  12.412  42.356  1.00  0.00     0.064 A 
ATOM     16  C   UNL A   1      42.958  12.256  44.813  1.00  0.00     0.043 A 
ATOM     17  C   UNL A   1      41.972  11.165  42.901  1.00  0.00     0.024 A 
ATOM     18  Cl  UNL A   1      40.871  12.462  40.817  1.00  0.00    -0.082 Cl
ATOM     19  Cl  UNL A   1      43.762  12.165  46.332  1.00  0.00    -0.084 Cl
ATOM     20  C   UNL A   1      42.630  11.088  44.130  1.00  0.00     0.022 A 
ENDBRANCH  11  13
ENDBRANCH  10  11
ENDBRANCH   7   9
ENDBRANCH   6   7
ENDBRANCH   5   6
ENDBRANCH   4   5
ENDBRANCH   3   4
ENDBRANCH   2   3
ENDBRANCH   1   2
BRANCH   1  21
ATOM     21  O   UNL A   1      48.451  22.799  38.424  1.00  0.00    -0.376 OA
BRANCH  21  22
ATOM     22  C   UNL A   1      48.201  24.185  38.193  1.00  0.00     0.202 C 
BRANCH  22  23
ATOM     23  C   UNL A   1      47.621  24.633  36.846  1.00  0.00     0.261 C 
BRANCH  23  24
ATOM     24  O   UNL A   1      48.246  25.814  36.311  1.00  0.00    -0.460 OA
BRANCH  24  25
ATOM     25  C   UNL A   1      48.163  26.912  37.102  1.00  0.00     0.338 C 
ATOM     26  O   UNL A   1      48.949  27.259  37.965  1.00  0.00    -0.246 OA
BRANCH  25  27
ATOM     27  C   UNL A   1      47.011  27.743  36.715  1.00  0.00     0.060 A 
ATOM     28  C   UNL A   1      45.785  27.525  37.357  1.00  0.00     0.016 A 
ATOM     29  C   UNL A   1      47.100  28.602  35.618  1.00  0.00     0.016 A 
ATOM     30  C   UNL A   1      44.629  28.137  36.872  1.00  0.00     0.010 A 
ATOM     31  C   UNL A   1      45.938  29.204  35.129  1.00  0.00     0.010 A 
ATOM     32  C   UNL A   1      44.692  28.947  35.731  1.00  0.00    -0.014 A 
BRANCH  32  33
ATOM     33  C   UNL A   1      43.450  29.413  35.068  1.00  0.00     0.031 A 
ATOM     34  C   UNL A   1      43.131  28.921  33.683  1.00  0.00     0.074 A 
ATOM     35  C   UNL A   1      42.633  30.291  35.675  1.00  0.00     0.049 A 
ATOM     36  N   UNL A   1      42.163  29.278  32.880  1.00  0.00    -0.248 NA
ATOM     37  C   UNL A   1      44.029  27.893  33.128  1.00  0.00     0.031 C 
ATOM     38  C   UNL A   1      42.813  30.816  37.026  1.00  0.00     0.029 A 
ATOM     39  N   UNL A   1      41.499  30.914  35.215  1.00  0.00    -0.354 N 
ATOM     40  C   UNL A   1      42.343  28.535  31.718  1.00  0.00     0.074 A 
ATOM     41  C   UNL A   1      43.520  27.717  31.918  1.00  0.00     0.031 C 
ATOM     42  C   UNL A   1      41.840  31.711  37.276  1.00  0.00     0.029 A 
ATOM     43  C   UNL A   1      40.993  31.842  36.091  1.00  0.00     0.049 A 
ATOM     44  H   UNL A   1      41.089  30.714  34.343  1.00  0.00     0.167 HD
ATOM     45  C   UNL A   1      41.601  28.540  30.586  1.00  0.00     0.031 A 
ATOM     46  C   UNL A   1      39.986  32.726  35.942  1.00  0.00     0.031 A 
ATOM     47  C   UNL A   1      40.441  29.367  30.381  1.00  0.00     0.049 A 
ATOM     48  C   UNL A   1      39.207  32.760  34.654  1.00  0.00     0.074 A 
ATOM     49  C   UNL A   1      39.609  29.422  29.277  1.00  0.00     0.029 A 
ATOM     50  N   UNL A   1      39.963  30.295  31.291  1.00  0.00    -0.354 N 
ATOM     51  N   UNL A   1      39.366  32.025  33.579  1.00  0.00    -0.248 NA
ATOM     52  C   UNL A   1      38.114  33.738  34.560  1.00  0.00     0.031 C 
ATOM     53  C   UNL A   1      38.654  30.421  29.501  1.00  0.00     0.029 A 
ATOM     54  C   UNL A   1      38.863  30.952  30.765  1.00  0.00     0.049 A 
ATOM     55  H   UNL A   1      40.347  30.464  32.182  1.00  0.00     0.167 HD
ATOM     56  C   UNL A   1      38.380  32.438  32.688  1.00  0.00     0.074 A 
ATOM     57  C   UNL A   1      37.626  33.483  33.352  1.00  0.00     0.031 C 
ATOM     58  C   UNL A   1      38.121  31.988  31.436  1.00  0.00     0.031 A 
BRANCH  45  59
ATOM     59  C   UNL A   1      42.059  27.653  29.460  1.00  0.00    -0.014 A 
ATOM     60  C   UNL A   1      41.668  26.304  29.388  1.00  0.00     0.010 A 
ATOM     61  C   UNL A   1      42.890  28.182  28.456  1.00  0.00     0.010 A 
ATOM     62  C   UNL A   1      42.146  25.485  28.360  1.00  0.00     0.020 A 
ATOM     63  C   UNL A   1      43.350  27.373  27.413  1.00  0.00     0.020 A 
ATOM     64  C   UNL A   1      42.993  26.023  27.386  1.00  0.00     0.054 A 
BRANCH  64  65
ATOM     65  S   UNL A   1      43.613  24.939  26.070  1.00  0.00     0.124 S 
ATOM     66  O   UNL A   1      42.406  24.210  25.690  1.00  0.00    -0.237 OA
ATOM     67  O   UNL A   1      44.113  25.887  25.078  1.00  0.00    -0.237 OA
ATOM     68  O   UNL A   1      44.639  24.139  26.736  1.00  0.00    -0.744 OA
ENDBRANCH  64  65
ENDBRANCH  45  59
BRANCH  46  69
ATOM     69  C   UNL A   1      39.689  33.682  37.042  1.00  0.00    -0.014 A 
ATOM     70  C   UNL A   1      38.881  33.302  38.127  1.00  0.00     0.010 A 
ATOM     71  C   UNL A   1      40.253  34.971  37.025  1.00  0.00     0.010 A 
ATOM     72  C   UNL A   1      38.643  34.194  39.176  1.00  0.00     0.020 A 
ATOM     73  C   UNL A   1      40.035  35.857  38.083  1.00  0.00     0.020 A 
ATOM     74  C   UNL A   1      39.226  35.465  39.150  1.00  0.00     0.054 A 
BRANCH  74  75
ATOM     75  S   UNL A   1      38.970  36.578  40.560  1.00  0.00     0.124 S 
ATOM     76  O   UNL A   1      40.289  36.585  41.185  1.00  0.00    -0.237 OA
ATOM     77  O   UNL A   1      38.571  37.824  39.911  1.00  0.00    -0.237 OA
ATOM     78  O   UNL A   1      37.915  35.918  41.327  1.00  0.00    -0.744 OA
ENDBRANCH  74  75
ENDBRANCH  46  69
BRANCH  58  79
ATOM     79  C   UNL A   1      36.958  32.595  30.697  1.00  0.00    -0.014 A 
ATOM     80  C   UNL A   1      35.652  32.105  30.869  1.00  0.00     0.010 A 
ATOM     81  C   UNL A   1      37.165  33.734  29.897  1.00  0.00     0.010 A 
ATOM     82  C   UNL A   1      34.573  32.740  30.247  1.00  0.00     0.020 A 
ATOM     83  C   UNL A   1      36.086  34.384  29.290  1.00  0.00     0.020 A 
ATOM     84  C   UNL A   1      34.797  33.878  29.465  1.00  0.00     0.054 A 
BRANCH  84  85
ATOM     85  S   UNL A   1      33.371  34.732  28.735  1.00  0.00     0.124 S 
ATOM     86  O   UNL A   1      34.011  35.829  28.012  1.00  0.00    -0.237 OA
ATOM     87  O   UNL A   1      32.768  33.697  27.899  1.00  0.00    -0.237 OA
ATOM     88  O   UNL A   1      32.575  35.130  29.894  1.00  0.00    -0.744 OA
ENDBRANCH  84  85
ENDBRANCH  58  79
ENDBRANCH  32  33
ENDBRANCH  25  27
ENDBRANCH  24  25
ENDBRANCH  23  24
ENDBRANCH  22  23
ENDBRANCH  21  22
ENDBRANCH   1  21
TORSDOF 22
ENDMDL
MODEL 2
REMARK VINA RESULT:      -8.2      7.554     14.230
REMARK SMILES O=C(/C=C/Nc1cc(Cl)ccc1Cl)OCCOCCOCCOC(=O)c1ccc(-c2c3nc(c(-c4ccc(S(=O)(=O)[O-])cc4)c4ccc([nH]4)c(-c4ccc(S(=O)(=O)[O-])cc4)c4nc(c(-c5ccc(S(=O)(=O)[O-])cc5)c5ccc2[nH]5)C=C4)C=C3)cc1
REMARK SMILES IDX 19 1 18 2 17 3 16 4 15 5 14 6 2 7 1 8 3 9 4 10 5 11 6 13
REMARK SMILES IDX 7 14 12 15 8 16 11 17 13 18 9 19 10 20 20 21 21 22 22 23
REMARK SMILES IDX 23 24 24 25 25 26 26 27 27 28 85 29 28 30 84 31 29 32 30 33
REMARK SMILES IDX 31 34 78 35 32 36 83 37 77 38 79 39 33 40 82 41 76 42 75 43
REMARK SMILES IDX 34 45 64 46 45 47 63 48 46 49 49 50 62 51 80 52 47 53 48 54
REMARK SMILES IDX 61 56 81 57 50 58 35 59 36 60 44 61 37 62 43 63 38 64 39 65
REMARK SMILES IDX 40 66 41 67 42 68 65 69 66 70 74 71 67 72 73 73 68 74 69 75
REMARK SMILES IDX 70 76 71 77 72 78 51 79 52 80 60 81 53 82 59 83 54 84 55 85
REMARK SMILES IDX 56 86 57 87 58 88
REMARK H PARENT 5 12 79 44 49 55
REMARK Flexibility Score: inf
ROOT
ATOM      1  C   UNL A   1      41.776  19.508  25.982  1.00  0.00     0.188 C 
ENDROOT
BRANCH   1   2
ATOM      2  C   UNL A   1      40.856  20.716  26.202  1.00  0.00     0.188 C 
BRANCH   2   3
ATOM      3  O   UNL A   1      39.458  20.512  26.161  1.00  0.00    -0.376 OA
BRANCH   3   4
ATOM      4  C   UNL A   1      38.615  21.545  25.671  1.00  0.00     0.202 C 
BRANCH   4   5
ATOM      5  C   UNL A   1      37.092  21.426  25.676  1.00  0.00     0.261 C 
BRANCH   5   6
ATOM      6  O   UNL A   1      36.175  22.473  25.258  1.00  0.00    -0.460 OA
BRANCH   6   7
ATOM      7  C   UNL A   1      35.360  23.373  25.827  1.00  0.00     0.332 C 
ATOM      8  O   UNL A   1      34.661  23.043  26.782  1.00  0.00    -0.247 OA
BRANCH   7   9
ATOM      9  C   UNL A   1      35.256  24.745  25.342  1.00  0.00     0.111 C 
ATOM     10  C   UNL A   1      34.128  25.318  24.923  1.00  0.00     0.090 C 
BRANCH  10  11
ATOM     11  N   UNL A   1      33.999  26.576  24.395  1.00  0.00    -0.360 N 
ATOM     12  H   UNL A   1      34.748  27.205  24.508  1.00  0.00     0.166 HD
BRANCH  11  13
ATOM     13  C   UNL A   1      32.861  27.024  23.702  1.00  0.00     0.058 A 
ATOM     14  C   UNL A   1      32.181  28.168  24.150  1.00  0.00     0.048 A 
ATOM     15  C   UNL A   1      32.330  26.308  22.617  1.00  0.00     0.064 A 
ATOM     16  C   UNL A   1      30.996  28.573  23.541  1.00  0.00     0.043 A 
ATOM     17  C   UNL A   1      31.135  26.711  22.014  1.00  0.00     0.024 A 
ATOM     18  Cl  UNL A   1      33.108  24.882  22.032  1.00  0.00    -0.082 Cl
ATOM     19  Cl  UNL A   1      30.177  29.975  24.113  1.00  0.00    -0.084 Cl
ATOM     20  C   UNL A   1      30.465  27.843  22.481  1.00  0.00     0.022 A 
ENDBRANCH  11  13
ENDBRANCH  10  11
ENDBRANCH   7   9
ENDBRANCH   6   7
ENDBRANCH   5   6
ENDBRANCH   4   5
ENDBRANCH   3   4
ENDBRANCH   2   3
ENDBRANCH   1   2
BRANCH   1  21
ATOM     21  O   UNL A   1      43.170  19.668  26.171  1.00  0.00    -0.376 OA
BRANCH  21  22
ATOM     22  C   UNL A   1      44.007  19.655  25.015  1.00  0.00     0.202 C 
BRANCH  22  23
ATOM     23  C   UNL A   1      45.063  20.754  24.837  1.00  0.00     0.261 C 
BRANCH  23  24
ATOM     24  O   UNL A   1      44.829  21.919  25.650  1.00  0.00    -0.460 OA
BRANCH  24  25
ATOM     25  C   UNL A   1      43.956  22.815  25.127  1.00  0.00     0.338 C 
ATOM     26  O   UNL A   1      43.480  22.811  24.007  1.00  0.00    -0.246 OA
BRANCH  25  27
ATOM     27  C   UNL A   1      43.541  23.790  26.150  1.00  0.00     0.060 A 
ATOM     28  C   UNL A   1      44.159  25.047  26.162  1.00  0.00     0.016 A 
ATOM     29  C   UNL A   1      42.682  23.406  27.181  1.00  0.00     0.016 A 
ATOM     30  C   UNL A   1      43.951  25.913  27.237  1.00  0.00     0.010 A 
ATOM     31  C   UNL A   1      42.485  24.271  28.260  1.00  0.00     0.010 A 
ATOM     32  C   UNL A   1      43.145  25.512  28.311  1.00  0.00    -0.014 A 
BRANCH  32  33
ATOM     33  C   UNL A   1      43.101  26.314  29.558  1.00  0.00     0.031 A 
ATOM     34  C   UNL A   1      41.984  27.302  29.753  1.00  0.00     0.074 A 
ATOM     35  C   UNL A   1      44.063  26.192  30.489  1.00  0.00     0.049 A 
ATOM     36  N   UNL A   1      41.810  28.176  30.710  1.00  0.00    -0.248 NA
ATOM     37  C   UNL A   1      40.925  27.306  28.730  1.00  0.00     0.031 C 
ATOM     38  C   UNL A   1      45.178  25.251  30.432  1.00  0.00     0.029 A 
ATOM     39  N   UNL A   1      44.264  26.890  31.654  1.00  0.00    -0.354 N 
ATOM     40  C   UNL A   1      40.635  28.849  30.397  1.00  0.00     0.074 A 
ATOM     41  C   UNL A   1      40.145  28.289  29.156  1.00  0.00     0.031 C 
ATOM     42  C   UNL A   1      45.969  25.451  31.502  1.00  0.00     0.029 A 
ATOM     43  C   UNL A   1      45.432  26.556  32.296  1.00  0.00     0.049 A 
ATOM     44  H   UNL A   1      43.633  27.564  31.997  1.00  0.00     0.167 HD
ATOM     45  C   UNL A   1      40.022  29.848  31.076  1.00  0.00     0.031 A 
ATOM     46  C   UNL A   1      46.022  27.103  33.377  1.00  0.00     0.031 A 
ATOM     47  C   UNL A   1      40.519  30.417  32.301  1.00  0.00     0.049 A 
ATOM     48  C   UNL A   1      45.358  28.252  34.088  1.00  0.00     0.074 A 
ATOM     49  C   UNL A   1      39.955  31.414  33.077  1.00  0.00     0.029 A 
ATOM     50  N   UNL A   1      41.706  30.052  32.916  1.00  0.00    -0.354 N 
ATOM     51  N   UNL A   1      44.228  28.853  33.802  1.00  0.00    -0.248 NA
ATOM     52  C   UNL A   1      46.048  28.795  35.267  1.00  0.00     0.031 C 
ATOM     53  C   UNL A   1      40.827  31.687  34.137  1.00  0.00     0.029 A 
ATOM     54  C   UNL A   1      41.909  30.824  34.048  1.00  0.00     0.049 A 
ATOM     55  H   UNL A   1      42.315  29.348  32.597  1.00  0.00     0.167 HD
ATOM     56  C   UNL A   1      44.060  29.831  34.777  1.00  0.00     0.074 A 
ATOM     57  C   UNL A   1      45.201  29.739  35.664  1.00  0.00     0.031 C 
ATOM     58  C   UNL A   1      43.048  30.722  34.924  1.00  0.00     0.031 A 
BRANCH  45  59
ATOM     59  C   UNL A   1      38.769  30.421  30.474  1.00  0.00    -0.014 A 
ATOM     60  C   UNL A   1      37.533  29.760  30.591  1.00  0.00     0.010 A 
ATOM     61  C   UNL A   1      38.829  31.646  29.784  1.00  0.00     0.010 A 
ATOM     62  C   UNL A   1      36.391  30.287  29.981  1.00  0.00     0.020 A 
ATOM     63  C   UNL A   1      37.685  32.188  29.194  1.00  0.00     0.020 A 
ATOM     64  C   UNL A   1      36.477  31.492  29.277  1.00  0.00     0.054 A 
BRANCH  64  65
ATOM     65  S   UNL A   1      34.985  32.148  28.481  1.00  0.00     0.124 S 
ATOM     66  O   UNL A   1      34.351  30.931  27.982  1.00  0.00    -0.237 OA
ATOM     67  O   UNL A   1      34.294  32.809  29.585  1.00  0.00    -0.237 OA
ATOM     68  O   UNL A   1      35.508  33.045  27.452  1.00  0.00    -0.744 OA
ENDBRANCH  64  65
ENDBRANCH  45  59
BRANCH  46  69
ATOM     69  C   UNL A   1      47.342  26.585  33.826  1.00  0.00    -0.014 A 
ATOM     70  C   UNL A   1      47.425  25.508  34.724  1.00  0.00     0.010 A 
ATOM     71  C   UNL A   1      48.528  27.147  33.317  1.00  0.00     0.010 A 
ATOM     72  C   UNL A   1      48.670  25.001  35.105  1.00  0.00     0.020 A 
ATOM     73  C   UNL A   1      49.773  26.629  33.678  1.00  0.00     0.020 A 
ATOM     74  C   UNL A   1      49.837  25.562  34.575  1.00  0.00     0.054 A 
BRANCH  74  75
ATOM     75  S   UNL A   1      51.440  24.837  35.021  1.00  0.00     0.124 S 
ATOM     76  O   UNL A   1      51.397  23.556  34.325  1.00  0.00    -0.237 OA
ATOM     77  O   UNL A   1      52.388  25.814  34.491  1.00  0.00    -0.237 OA
ATOM     78  O   UNL A   1      51.385  24.761  36.480  1.00  0.00    -0.744 OA
ENDBRANCH  74  75
ENDBRANCH  46  69
BRANCH  58  79
ATOM     79  C   UNL A   1      43.101  31.657  36.102  1.00  0.00    -0.014 A 
ATOM     80  C   UNL A   1      43.653  32.944  35.984  1.00  0.00     0.010 A 
ATOM     81  C   UNL A   1      42.498  31.277  37.316  1.00  0.00     0.010 A 
ATOM     82  C   UNL A   1      43.609  33.833  37.063  1.00  0.00     0.020 A 
ATOM     83  C   UNL A   1      42.434  32.169  38.390  1.00  0.00     0.020 A 
ATOM     84  C   UNL A   1      42.996  33.441  38.257  1.00  0.00     0.054 A 
BRANCH  84  85
ATOM     85  S   UNL A   1      42.879  34.639  39.616  1.00  0.00     0.124 S 
ATOM     86  O   UNL A   1      41.435  34.743  39.806  1.00  0.00    -0.237 OA
ATOM     87  O   UNL A   1      43.608  33.977  40.693  1.00  0.00    -0.237 OA
ATOM     88  O   UNL A   1      43.525  35.835  39.078  1.00  0.00    -0.744 OA
ENDBRANCH  84  85
ENDBRANCH  58  79
ENDBRANCH  32  33
ENDBRANCH  25  27
ENDBRANCH  24  25
ENDBRANCH  23  24
ENDBRANCH  22  23
ENDBRANCH  21  22
ENDBRANCH   1  21
TORSDOF 22
ENDMDL
MODEL 3
REMARK VINA RESULT:      -8.1      7.707     15.176
REMARK SMILES O=C(/C=C/Nc1cc(Cl)ccc1Cl)OCCOCCOCCOC(=O)c1ccc(-c2c3nc(c(-c4ccc(S(=O)(=O)[O-])cc4)c4ccc([nH]4)c(-c4ccc(S(=O)(=O)[O-])cc4)c4nc(c(-c5ccc(S(=O)(=O)[O-])cc5)c5ccc2[nH]5)C=C4)C=C3)cc1
REMARK SMILES IDX 19 1 18 2 17 3 16 4 15 5 14 6 2 7 1 8 3 9 4 10 5 11 6 13
REMARK SMILES IDX 7 14 12 15 8 16 11 17 13 18 9 19 10 20 20 21 21 22 22 23
REMARK SMILES IDX 23 24 24 25 25 26 26 27 27 28 85 29 28 30 84 31 29 32 30 33
REMARK SMILES IDX 31 34 78 35 32 36 83 37 77 38 79 39 33 40 82 41 76 42 75 43
REMARK SMILES IDX 34 45 64 46 45 47 63 48 46 49 49 50 62 51 80 52 47 53 48 54
REMARK SMILES IDX 61 56 81 57 50 58 35 59 36 60 44 61 37 62 43 63 38 64 39 65
REMARK SMILES IDX 40 66 41 67 42 68 65 69 66 70 74 71 67 72 73 73 68 74 69 75
REMARK SMILES IDX 70 76 71 77 72 78 51 79 52 80 60 81 53 82 59 83 54 84 55 85
REMARK SMILES IDX 56 86 57 87 58 88
REMARK H PARENT 5 12 79 44 49 55
REMARK Flexibility Score: inf
ROOT
ATOM      1  C   UNL A   1      39.003  34.618  30.781  1.00  0.00     0.188 C 
ENDROOT
BRANCH   1   2
ATOM      2  C   UNL A   1      40.464  34.153  30.746  1.00  0.00     0.188 C 
BRANCH   2   3
ATOM      3  O   UNL A   1      41.028  33.618  31.927  1.00  0.00    -0.376 OA
BRANCH   3   4
ATOM      4  C   UNL A   1      40.397  32.517  32.566  1.00  0.00     0.202 C 
BRANCH   4   5
ATOM      5  C   UNL A   1      40.761  31.069  32.242  1.00  0.00     0.261 C 
BRANCH   5   6
ATOM      6  O   UNL A   1      40.336  29.913  33.013  1.00  0.00    -0.460 OA
BRANCH   6   7
ATOM      7  C   UNL A   1      40.876  29.015  33.848  1.00  0.00     0.332 C 
ATOM      8  O   UNL A   1      40.798  29.189  35.063  1.00  0.00    -0.247 OA
BRANCH   7   9
ATOM      9  C   UNL A   1      41.578  27.830  33.369  1.00  0.00     0.111 C 
ATOM     10  C   UNL A   1      42.795  27.837  32.825  1.00  0.00     0.090 C 
BRANCH  10  11
ATOM     11  N   UNL A   1      43.460  26.760  32.299  1.00  0.00    -0.360 N 
ATOM     12  H   UNL A   1      43.183  26.432  31.412  1.00  0.00     0.166 HD
BRANCH  11  13
ATOM     13  C   UNL A   1      44.515  26.095  32.947  1.00  0.00     0.058 A 
ATOM     14  C   UNL A   1      44.374  25.719  34.293  1.00  0.00     0.048 A 
ATOM     15  C   UNL A   1      45.746  25.871  32.312  1.00  0.00     0.064 A 
ATOM     16  C   UNL A   1      45.440  25.149  34.986  1.00  0.00     0.043 A 
ATOM     17  C   UNL A   1      46.817  25.309  33.013  1.00  0.00     0.024 A 
ATOM     18  Cl  UNL A   1      45.990  26.330  30.666  1.00  0.00    -0.082 Cl
ATOM     19  Cl  UNL A   1      45.245  24.702  36.637  1.00  0.00    -0.084 Cl
ATOM     20  C   UNL A   1      46.665  24.952  34.354  1.00  0.00     0.022 A 
ENDBRANCH  11  13
ENDBRANCH  10  11
ENDBRANCH   7   9
ENDBRANCH   6   7
ENDBRANCH   5   6
ENDBRANCH   4   5
ENDBRANCH   3   4
ENDBRANCH   2   3
ENDBRANCH   1   2
BRANCH   1  21
ATOM     21  O   UNL A   1      38.137  34.227  29.732  1.00  0.00    -0.376 OA
BRANCH  21  22
ATOM     22  C   UNL A   1      38.114  32.848  29.362  1.00  0.00     0.202 C 
BRANCH  22  23
ATOM     23  C   UNL A   1      36.901  31.986  29.737  1.00  0.00     0.261 C 
BRANCH  23  24
ATOM     24  O   UNL A   1      36.798  30.770  28.974  1.00  0.00    -0.460 OA
BRANCH  24  25
ATOM     25  C   UNL A   1      37.089  29.638  29.662  1.00  0.00     0.338 C 
ATOM     26  O   UNL A   1      36.385  29.071  30.478  1.00  0.00    -0.246 OA
BRANCH  25  27
ATOM     27  C   UNL A   1      38.376  29.078  29.217  1.00  0.00     0.060 A 
ATOM     28  C   UNL A   1      39.185  28.433  30.162  1.00  0.00     0.016 A 
ATOM     29  C   UNL A   1      38.849  29.338  27.931  1.00  0.00     0.016 A 
ATOM     30  C   UNL A   1      40.494  28.082  29.831  1.00  0.00     0.010 A 
ATOM     31  C   UNL A   1      40.164  28.995  27.607  1.00  0.00     0.010 A 
ATOM     32  C   UNL A   1      41.004  28.399  28.565  1.00  0.00    -0.014 A 
BRANCH  32  33
ATOM     33  C   UNL A   1      42.451  28.248  28.277  1.00  0.00     0.031 A 
ATOM     34  C   UNL A   1      43.363  29.428  28.474  1.00  0.00     0.074 A 
ATOM     35  C   UNL A   1      42.943  27.088  27.810  1.00  0.00     0.049 A 
ATOM     36  N   UNL A   1      44.632  29.551  28.184  1.00  0.00    -0.248 NA
ATOM     37  C   UNL A   1      42.761  30.631  29.074  1.00  0.00     0.031 C 
ATOM     38  C   UNL A   1      42.171  25.864  27.608  1.00  0.00     0.029 A 
ATOM     39  N   UNL A   1      44.212  26.763  27.398  1.00  0.00    -0.354 N 
ATOM     40  C   UNL A   1      44.978  30.848  28.546  1.00  0.00     0.074 A 
ATOM     41  C   UNL A   1      43.782  31.475  29.066  1.00  0.00     0.031 C 
ATOM     42  C   UNL A   1      42.976  24.927  27.077  1.00  0.00     0.029 A 
ATOM     43  C   UNL A   1      44.308  25.498  26.873  1.00  0.00     0.049 A 
ATOM     44  H   UNL A   1      44.978  27.377  27.472  1.00  0.00     0.167 HD
ATOM     45  C   UNL A   1      46.180  31.464  28.448  1.00  0.00     0.031 A 
ATOM     46  C   UNL A   1      45.339  24.881  26.261  1.00  0.00     0.031 A 
ATOM     47  C   UNL A   1      47.365  30.846  27.914  1.00  0.00     0.049 A 
ATOM     48  C   UNL A   1      46.652  25.600  26.106  1.00  0.00     0.074 A 
ATOM     49  C   UNL A   1      48.636  31.381  27.798  1.00  0.00     0.029 A 
ATOM     50  N   UNL A   1      47.419  29.564  27.390  1.00  0.00    -0.354 N 
ATOM     51  N   UNL A   1      46.975  26.813  26.488  1.00  0.00    -0.248 NA
ATOM     52  C   UNL A   1      47.740  24.868  25.442  1.00  0.00     0.031 C 
ATOM     53  C   UNL A   1      49.448  30.438  27.158  1.00  0.00     0.029 A 
ATOM     54  C   UNL A   1      48.695  29.298  26.922  1.00  0.00     0.049 A 
ATOM     55  H   UNL A   1      46.663  28.935  27.357  1.00  0.00     0.167 HD
ATOM     56  C   UNL A   1      48.308  26.982  26.128  1.00  0.00     0.074 A 
ATOM     57  C   UNL A   1      48.734  25.746  25.504  1.00  0.00     0.031 C 
ATOM     58  C   UNL A   1      49.107  28.064  26.304  1.00  0.00     0.031 A 
BRANCH  45  59
ATOM     59  C   UNL A   1      46.253  32.902  28.884  1.00  0.00    -0.014 A 
ATOM     60  C   UNL A   1      45.952  33.951  27.998  1.00  0.00     0.010 A 
ATOM     61  C   UNL A   1      46.625  33.205  30.207  1.00  0.00     0.010 A 
ATOM     62  C   UNL A   1      46.074  35.281  28.412  1.00  0.00     0.020 A 
ATOM     63  C   UNL A   1      46.724  34.533  30.631  1.00  0.00     0.020 A 
ATOM     64  C   UNL A   1      46.471  35.563  29.723  1.00  0.00     0.054 A 
BRANCH  64  65
ATOM     65  S   UNL A   1      46.637  37.296  30.233  1.00  0.00     0.124 S 
ATOM     66  O   UNL A   1      45.404  37.880  29.713  1.00  0.00    -0.237 OA
ATOM     67  O   UNL A   1      46.723  37.198  31.688  1.00  0.00    -0.237 OA
ATOM     68  O   UNL A   1      47.863  37.735  29.569  1.00  0.00    -0.744 OA
ENDBRANCH  64  65
ENDBRANCH  45  59
BRANCH  46  69
ATOM     69  C   UNL A   1      45.146  23.511  25.714  1.00  0.00    -0.014 A 
ATOM     70  C   UNL A   1      44.899  23.312  24.345  1.00  0.00     0.010 A 
ATOM     71  C   UNL A   1      45.252  22.394  26.563  1.00  0.00     0.010 A 
ATOM     72  C   UNL A   1      44.762  22.018  23.835  1.00  0.00     0.020 A 
ATOM     73  C   UNL A   1      45.138  21.099  26.052  1.00  0.00     0.020 A 
ATOM     74  C   UNL A   1      44.887  20.919  24.691  1.00  0.00     0.054 A 
BRANCH  74  75
ATOM     75  S   UNL A   1      44.786  19.246  23.994  1.00  0.00     0.124 S 
ATOM     76  O   UNL A   1      44.429  19.519  22.605  1.00  0.00    -0.237 OA
ATOM     77  O   UNL A   1      46.135  18.731  24.211  1.00  0.00    -0.237 OA
ATOM     78  O   UNL A   1      43.745  18.606  24.795  1.00  0.00    -0.744 OA
ENDBRANCH  74  75
ENDBRANCH  46  69
BRANCH  58  79
ATOM     79  C   UNL A   1      50.537  27.964  25.845  1.00  0.00    -0.014 A 
ATOM     80  C   UNL A   1      51.531  27.419  26.677  1.00  0.00     0.010 A 
ATOM     81  C   UNL A   1      50.868  28.328  24.527  1.00  0.00     0.010 A 
ATOM     82  C   UNL A   1      52.834  27.248  26.200  1.00  0.00     0.020 A 
ATOM     83  C   UNL A   1      52.165  28.140  24.040  1.00  0.00     0.020 A 
ATOM     84  C   UNL A   1      53.141  27.606  24.883  1.00  0.00     0.054 A 
BRANCH  84  85
ATOM     85  S   UNL A   1      54.819  27.299  24.261  1.00  0.00     0.124 S 
ATOM     86  O   UNL A   1      55.402  28.638  24.286  1.00  0.00    -0.237 OA
ATOM     87  O   UNL A   1      55.359  26.361  25.240  1.00  0.00    -0.237 OA
ATOM     88  O   UNL A   1      54.597  26.741  22.929  1.00  0.00    -0.744 OA
ENDBRANCH  84  85
ENDBRANCH  58  79
ENDBRANCH  32  33
ENDBRANCH  25  27
ENDBRANCH  24  25
ENDBRANCH  23  24
ENDBRANCH  22  23
ENDBRANCH  21  22
ENDBRANCH   1  21
TORSDOF 22
ENDMDL
