MODEL 1
REMARK VINA RESULT:     -10.0      0.000      0.000
REMARK SMILES Cc1noc(C[N@H+]2CCC[C@@H](c3ccc(C(=O)OCCOCCOCCOC(=O)c4ccc(-c5c6nc(c(-c7ccc(S(=O)(=O)[O-])cc7)c7ccc([nH]7)c(-c7ccc(S(=O)(=O)[O-])cc7)c7nc(c(-c8ccc(S(=O)(=O)[O-])cc8)c8ccc5[nH]8)C=C7)C=C6)cc4)cc3)C2)n1
REMARK SMILES IDX 22 1 21 2 20 3 19 4 18 5 16 6 17 7 15 8 12 9 13 10 91 11
REMARK SMILES IDX 14 12 90 13 11 14 7 15 8 16 92 17 9 19 10 20 6 21 5 22 1 23
REMARK SMILES IDX 2 24 3 25 93 26 4 27 23 28 24 29 25 30 26 31 27 32 28 33
REMARK SMILES IDX 29 34 30 35 31 36 89 37 32 38 88 39 33 40 34 41 35 42 82 43
REMARK SMILES IDX 36 44 87 45 81 46 83 47 37 48 86 49 80 50 79 51 38 53 68 54
REMARK SMILES IDX 49 55 67 56 50 57 53 58 66 59 84 60 51 61 52 62 65 64 85 65
REMARK SMILES IDX 54 66 39 67 40 68 48 69 41 70 47 71 42 72 43 73 44 74 45 75
REMARK SMILES IDX 46 76 69 77 70 78 78 79 71 80 77 81 72 82 73 83 74 84 75 85
REMARK SMILES IDX 76 86 55 87 56 88 64 89 57 90 63 91 58 92 59 93 60 94 61 95
REMARK SMILES IDX 62 96
REMARK H PARENT 7 18 83 52 53 63
REMARK Flexibility Score: inf
ROOT
ATOM      1  C   UNL A   1      34.348  24.650  25.761  1.00  0.00     0.188 C 
ENDROOT
BRANCH   1   2
ATOM      2  O   UNL A   1      34.366  23.548  26.645  1.00  0.00    -0.376 OA
BRANCH   2   3
ATOM      3  C   UNL A   1      35.200  22.428  26.398  1.00  0.00     0.202 C 
BRANCH   3   4
ATOM      4  C   UNL A   1      34.698  21.103  25.813  1.00  0.00     0.261 C 
BRANCH   4   5
ATOM      5  O   UNL A   1      33.361  20.741  26.165  1.00  0.00    -0.460 OA
BRANCH   5   6
ATOM      6  C   UNL A   1      32.565  20.443  25.104  1.00  0.00     0.338 C 
ATOM      7  O   UNL A   1      32.029  19.382  24.867  1.00  0.00    -0.246 OA
BRANCH   6   8
ATOM      8  C   UNL A   1      32.281  21.671  24.333  1.00  0.00     0.060 A 
ATOM      9  C   UNL A   1      31.989  24.059  22.899  1.00  0.00    -0.039 A 
ATOM     10  C   UNL A   1      32.833  23.037  22.425  1.00  0.00     0.005 A 
ATOM     11  C   UNL A   1      31.219  23.820  24.048  1.00  0.00     0.005 A 
ATOM     12  C   UNL A   1      33.000  21.863  23.152  1.00  0.00     0.016 A 
ATOM     13  C   UNL A   1      31.354  22.624  24.762  1.00  0.00     0.016 A 
BRANCH   9  14
ATOM     14  C   UNL A   1      32.055  25.457  22.291  1.00  0.00     0.074 C 
ATOM     15  N   UNL A   1      30.938  27.733  22.553  1.00  0.00    -0.327 N 
ATOM     16  C   UNL A   1      32.259  28.351  22.740  1.00  0.00     0.262 C 
ATOM     17  C   UNL A   1      30.949  26.316  22.951  1.00  0.00     0.270 C 
ATOM     18  H   UNL A   1      30.720  27.786  21.558  1.00  0.00     0.348 HD
ATOM     19  C   UNL A   1      33.348  27.587  21.984  1.00  0.00     0.062 C 
ATOM     20  C   UNL A   1      33.425  26.130  22.442  1.00  0.00     0.020 C 
BRANCH  15  21
ATOM     21  C   UNL A   1      29.881  28.470  23.309  1.00  0.00     0.364 C 
BRANCH  21  22
ATOM     22  C   UNL A   1      29.459  29.789  22.730  1.00  0.00     0.281 A 
ATOM     23  C   UNL A   1      28.040  32.069  20.469  1.00  0.00     0.093 C 
ATOM     24  C   UNL A   1      28.653  31.361  21.611  1.00  0.00     0.169 A 
ATOM     25  N   UNL A   1      28.634  31.836  22.863  1.00  0.00    -0.063 NA
ATOM     26  N   UNL A   1      29.203  30.112  21.480  1.00  0.00    -0.191 NA
ATOM     27  O   UNL A   1      29.174  30.788  23.614  1.00  0.00    -0.333 OA
ENDBRANCH  21  22
ENDBRANCH  15  21
ENDBRANCH   9  14
ENDBRANCH   6   8
ENDBRANCH   5   6
ENDBRANCH   4   5
ENDBRANCH   3   4
ENDBRANCH   2   3
ENDBRANCH   1   2
BRANCH   1  28
ATOM     28  C   UNL A   1      33.432  25.858  26.043  1.00  0.00     0.188 C 
BRANCH  28  29
ATOM     29  O   UNL A   1      33.908  27.177  25.881  1.00  0.00    -0.376 OA
BRANCH  29  30
ATOM     30  C   UNL A   1      33.129  28.286  26.295  1.00  0.00     0.202 C 
BRANCH  30  31
ATOM     31  C   UNL A   1      33.638  29.734  26.365  1.00  0.00     0.261 C 
BRANCH  31  32
ATOM     32  O   UNL A   1      33.719  30.335  27.657  1.00  0.00    -0.460 OA
BRANCH  32  33
ATOM     33  C   UNL A   1      34.625  31.338  27.756  1.00  0.00     0.338 C 
ATOM     34  O   UNL A   1      34.428  32.531  27.601  1.00  0.00    -0.246 OA
BRANCH  33  35
ATOM     35  C   UNL A   1      35.899  30.791  28.255  1.00  0.00     0.060 A 
ATOM     36  C   UNL A   1      35.855  29.710  29.143  1.00  0.00     0.016 A 
ATOM     37  C   UNL A   1      37.113  31.381  27.903  1.00  0.00     0.016 A 
ATOM     38  C   UNL A   1      37.034  29.232  29.712  1.00  0.00     0.010 A 
ATOM     39  C   UNL A   1      38.291  30.913  28.488  1.00  0.00     0.010 A 
ATOM     40  C   UNL A   1      38.252  29.860  29.420  1.00  0.00    -0.014 A 
BRANCH  40  41
ATOM     41  C   UNL A   1      39.454  29.535  30.225  1.00  0.00     0.031 A 
ATOM     42  C   UNL A   1      40.353  28.422  29.760  1.00  0.00     0.074 A 
ATOM     43  C   UNL A   1      39.756  30.232  31.334  1.00  0.00     0.049 A 
ATOM     44  N   UNL A   1      41.444  27.954  30.309  1.00  0.00    -0.248 NA
ATOM     45  C   UNL A   1      39.971  27.751  28.506  1.00  0.00     0.031 C 
ATOM     46  C   UNL A   1      38.991  31.361  31.861  1.00  0.00     0.029 A 
ATOM     47  N   UNL A   1      40.794  30.084  32.220  1.00  0.00    -0.354 N 
ATOM     48  C   UNL A   1      41.877  26.932  29.471  1.00  0.00     0.074 A 
ATOM     49  C   UNL A   1      40.913  26.828  28.396  1.00  0.00     0.031 C 
ATOM     50  C   UNL A   1      39.588  31.805  32.982  1.00  0.00     0.029 A 
ATOM     51  C   UNL A   1      40.754  30.971  33.268  1.00  0.00     0.049 A 
ATOM     52  H   UNL A   1      41.500  29.406  32.114  1.00  0.00     0.167 HD
ATOM     53  C   UNL A   1      42.980  26.155  29.581  1.00  0.00     0.031 A 
ATOM     54  C   UNL A   1      41.559  31.084  34.343  1.00  0.00     0.031 A 
ATOM     55  C   UNL A   1      43.922  26.241  30.663  1.00  0.00     0.049 A 
ATOM     56  C   UNL A   1      42.728  30.146  34.496  1.00  0.00     0.074 A 
ATOM     57  C   UNL A   1      45.071  25.497  30.867  1.00  0.00     0.029 A 
ATOM     58  N   UNL A   1      43.818  27.117  31.734  1.00  0.00    -0.354 N 
ATOM     59  N   UNL A   1      43.136  29.197  33.687  1.00  0.00    -0.248 NA
ATOM     60  C   UNL A   1      43.551  30.301  35.705  1.00  0.00     0.031 C 
ATOM     61  C   UNL A   1      45.633  25.888  32.088  1.00  0.00     0.029 A 
ATOM     62  C   UNL A   1      44.868  26.917  32.614  1.00  0.00     0.049 A 
ATOM     63  H   UNL A   1      43.103  27.784  31.850  1.00  0.00     0.167 HD
ATOM     64  C   UNL A   1      44.281  28.664  34.274  1.00  0.00     0.074 A 
ATOM     65  C   UNL A   1      44.504  29.402  35.499  1.00  0.00     0.031 C 
ATOM     66  C   UNL A   1      45.078  27.658  33.832  1.00  0.00     0.031 A 
BRANCH  53  67
ATOM     67  C   UNL A   1      43.200  25.118  28.512  1.00  0.00    -0.014 A 
ATOM     68  C   UNL A   1      44.002  25.389  27.387  1.00  0.00     0.010 A 
ATOM     69  C   UNL A   1      42.605  23.850  28.637  1.00  0.00     0.010 A 
ATOM     70  C   UNL A   1      44.163  24.429  26.385  1.00  0.00     0.020 A 
ATOM     71  C   UNL A   1      42.787  22.876  27.651  1.00  0.00     0.020 A 
ATOM     72  C   UNL A   1      43.548  23.180  26.521  1.00  0.00     0.054 A 
BRANCH  72  73
ATOM     73  S   UNL A   1      43.775  21.952  25.206  1.00  0.00     0.124 S 
ATOM     74  O   UNL A   1      42.781  20.942  25.563  1.00  0.00    -0.237 OA
ATOM     75  O   UNL A   1      43.484  22.719  23.996  1.00  0.00    -0.237 OA
ATOM     76  O   UNL A   1      45.168  21.536  25.356  1.00  0.00    -0.744 OA
ENDBRANCH  72  73
ENDBRANCH  53  67
BRANCH  54  77
ATOM     77  C   UNL A   1      41.286  32.129  35.369  1.00  0.00    -0.014 A 
ATOM     78  C   UNL A   1      41.943  33.371  35.314  1.00  0.00     0.010 A 
ATOM     79  C   UNL A   1      40.365  31.887  36.405  1.00  0.00     0.010 A 
ATOM     80  C   UNL A   1      41.692  34.347  36.283  1.00  0.00     0.020 A 
ATOM     81  C   UNL A   1      40.091  32.871  37.359  1.00  0.00     0.020 A 
ATOM     82  C   UNL A   1      40.764  34.092  37.297  1.00  0.00     0.054 A 
BRANCH  82  83
ATOM     83  S   UNL A   1      40.411  35.398  38.505  1.00  0.00     0.124 S 
ATOM     84  O   UNL A   1      40.839  36.596  37.791  1.00  0.00    -0.237 OA
ATOM     85  O   UNL A   1      38.969  35.259  38.703  1.00  0.00    -0.237 OA
ATOM     86  O   UNL A   1      41.229  35.029  39.658  1.00  0.00    -0.744 OA
ENDBRANCH  82  83
ENDBRANCH  54  77
BRANCH  66  87
ATOM     87  C   UNL A   1      46.293  27.319  34.656  1.00  0.00    -0.014 A 
ATOM     88  C   UNL A   1      46.249  26.332  35.655  1.00  0.00     0.010 A 
ATOM     89  C   UNL A   1      47.516  27.960  34.380  1.00  0.00     0.010 A 
ATOM     90  C   UNL A   1      47.398  26.013  36.385  1.00  0.00     0.020 A 
ATOM     91  C   UNL A   1      48.674  27.624  35.088  1.00  0.00     0.020 A 
ATOM     92  C   UNL A   1      48.604  26.660  36.096  1.00  0.00     0.054 A 
BRANCH  92  93
ATOM     93  S   UNL A   1      50.092  26.196  37.024  1.00  0.00     0.124 S 
ATOM     94  O   UNL A   1      49.573  25.188  37.945  1.00  0.00    -0.237 OA
ATOM     95  O   UNL A   1      50.979  25.694  35.978  1.00  0.00    -0.237 OA
ATOM     96  O   UNL A   1      50.518  27.448  37.646  1.00  0.00    -0.744 OA
ENDBRANCH  92  93
ENDBRANCH  66  87
ENDBRANCH  40  41
ENDBRANCH  33  35
ENDBRANCH  32  33
ENDBRANCH  31  32
ENDBRANCH  30  31
ENDBRANCH  29  30
ENDBRANCH  28  29
ENDBRANCH   1  28
TORSDOF 23
ENDMDL
MODEL 2
REMARK VINA RESULT:      -9.9      5.129      7.943
REMARK SMILES Cc1noc(C[N@H+]2CCC[C@@H](c3ccc(C(=O)OCCOCCOCCOC(=O)c4ccc(-c5c6nc(c(-c7ccc(S(=O)(=O)[O-])cc7)c7ccc([nH]7)c(-c7ccc(S(=O)(=O)[O-])cc7)c7nc(c(-c8ccc(S(=O)(=O)[O-])cc8)c8ccc5[nH]8)C=C7)C=C6)cc4)cc3)C2)n1
REMARK SMILES IDX 22 1 21 2 20 3 19 4 18 5 16 6 17 7 15 8 12 9 13 10 91 11
REMARK SMILES IDX 14 12 90 13 11 14 7 15 8 16 92 17 9 19 10 20 6 21 5 22 1 23
REMARK SMILES IDX 2 24 3 25 93 26 4 27 23 28 24 29 25 30 26 31 27 32 28 33
REMARK SMILES IDX 29 34 30 35 31 36 89 37 32 38 88 39 33 40 34 41 35 42 82 43
REMARK SMILES IDX 36 44 87 45 81 46 83 47 37 48 86 49 80 50 79 51 38 53 68 54
REMARK SMILES IDX 49 55 67 56 50 57 53 58 66 59 84 60 51 61 52 62 65 64 85 65
REMARK SMILES IDX 54 66 39 67 40 68 48 69 41 70 47 71 42 72 43 73 44 74 45 75
REMARK SMILES IDX 46 76 69 77 70 78 78 79 71 80 77 81 72 82 73 83 74 84 75 85
REMARK SMILES IDX 76 86 55 87 56 88 64 89 57 90 63 91 58 92 59 93 60 94 61 95
REMARK SMILES IDX 62 96
REMARK H PARENT 7 18 83 52 53 63
REMARK Flexibility Score: inf
ROOT
ATOM      1  C   UNL A   1      33.592  36.045  31.577  1.00  0.00     0.188 C 
ENDROOT
BRANCH   1   2
ATOM      2  O   UNL A   1      32.981  35.284  30.555  1.00  0.00    -0.376 OA
BRANCH   2   3
ATOM      3  C   UNL A   1      33.262  35.538  29.189  1.00  0.00     0.202 C 
BRANCH   3   4
ATOM      4  C   UNL A   1      34.349  34.808  28.390  1.00  0.00     0.261 C 
BRANCH   4   5
ATOM      5  O   UNL A   1      33.942  33.583  27.775  1.00  0.00    -0.460 OA
BRANCH   5   6
ATOM      6  C   UNL A   1      34.681  32.503  28.141  1.00  0.00     0.338 C 
ATOM      7  O   UNL A   1      35.694  32.501  28.805  1.00  0.00    -0.246 OA
BRANCH   6   8
ATOM      8  C   UNL A   1      33.973  31.262  27.761  1.00  0.00     0.060 A 
ATOM      9  C   UNL A   1      32.794  28.893  26.842  1.00  0.00    -0.039 A 
ATOM     10  C   UNL A   1      34.139  28.911  27.254  1.00  0.00     0.005 A 
ATOM     11  C   UNL A   1      32.026  30.059  26.994  1.00  0.00     0.005 A 
ATOM     12  C   UNL A   1      34.733  30.093  27.683  1.00  0.00     0.016 A 
ATOM     13  C   UNL A   1      32.609  31.241  27.463  1.00  0.00     0.016 A 
BRANCH   9  14
ATOM     14  C   UNL A   1      32.239  27.700  26.070  1.00  0.00     0.074 C 
ATOM     15  N   UNL A   1      31.354  27.142  23.747  1.00  0.00    -0.327 N 
ATOM     16  C   UNL A   1      32.334  26.051  23.642  1.00  0.00     0.262 C 
ATOM     17  C   UNL A   1      31.818  28.194  24.666  1.00  0.00     0.270 C 
ATOM     18  H   UNL A   1      30.497  26.739  24.125  1.00  0.00     0.348 HD
ATOM     19  C   UNL A   1      32.665  25.461  25.015  1.00  0.00     0.062 C 
ATOM     20  C   UNL A   1      33.222  26.528  25.959  1.00  0.00     0.020 C 
BRANCH  15  21
ATOM     21  C   UNL A   1      31.048  27.729  22.407  1.00  0.00     0.364 C 
BRANCH  21  22
ATOM     22  C   UNL A   1      29.974  28.777  22.379  1.00  0.00     0.281 A 
ATOM     23  C   UNL A   1      27.560  31.026  23.580  1.00  0.00     0.093 C 
ATOM     24  C   UNL A   1      28.530  30.229  22.801  1.00  0.00     0.169 A 
ATOM     25  N   UNL A   1      29.044  30.640  21.634  1.00  0.00    -0.063 NA
ATOM     26  N   UNL A   1      29.047  29.051  23.272  1.00  0.00    -0.191 NA
ATOM     27  O   UNL A   1      30.009  29.670  21.348  1.00  0.00    -0.333 OA
ENDBRANCH  21  22
ENDBRANCH  15  21
ENDBRANCH   9  14
ENDBRANCH   6   8
ENDBRANCH   5   6
ENDBRANCH   4   5
ENDBRANCH   3   4
ENDBRANCH   2   3
ENDBRANCH   1   2
BRANCH   1  28
ATOM     28  C   UNL A   1      33.812  35.434  32.976  1.00  0.00     0.188 C 
BRANCH  28  29
ATOM     29  O   UNL A   1      34.409  34.164  33.122  1.00  0.00    -0.376 OA
BRANCH  29  30
ATOM     30  C   UNL A   1      35.735  33.929  32.682  1.00  0.00     0.202 C 
BRANCH  30  31
ATOM     31  C   UNL A   1      36.583  32.709  33.073  1.00  0.00     0.261 C 
BRANCH  31  32
ATOM     32  O   UNL A   1      37.436  32.159  32.069  1.00  0.00    -0.460 OA
BRANCH  32  33
ATOM     33  C   UNL A   1      37.112  30.901  31.682  1.00  0.00     0.338 C 
ATOM     34  O   UNL A   1      36.018  30.368  31.741  1.00  0.00    -0.246 OA
BRANCH  33  35
ATOM     35  C   UNL A   1      38.268  30.292  31.003  1.00  0.00     0.060 A 
ATOM     36  C   UNL A   1      39.291  29.748  31.790  1.00  0.00     0.016 A 
ATOM     37  C   UNL A   1      38.373  30.318  29.612  1.00  0.00     0.016 A 
ATOM     38  C   UNL A   1      40.444  29.254  31.185  1.00  0.00     0.010 A 
ATOM     39  C   UNL A   1      39.538  29.839  29.008  1.00  0.00     0.010 A 
ATOM     40  C   UNL A   1      40.591  29.337  29.794  1.00  0.00    -0.014 A 
BRANCH  40  41
ATOM     41  C   UNL A   1      41.913  29.070  29.180  1.00  0.00     0.031 A 
ATOM     42  C   UNL A   1      42.196  27.690  28.652  1.00  0.00     0.074 A 
ATOM     43  C   UNL A   1      42.837  30.040  29.070  1.00  0.00     0.049 A 
ATOM     44  N   UNL A   1      43.282  27.222  28.093  1.00  0.00    -0.248 NA
ATOM     45  C   UNL A   1      41.106  26.707  28.769  1.00  0.00     0.031 C 
ATOM     46  C   UNL A   1      42.665  31.427  29.499  1.00  0.00     0.029 A 
ATOM     47  N   UNL A   1      44.110  29.999  28.560  1.00  0.00    -0.354 N 
ATOM     48  C   UNL A   1      43.008  25.892  27.794  1.00  0.00     0.074 A 
ATOM     49  C   UNL A   1      41.667  25.620  28.264  1.00  0.00     0.031 C 
ATOM     50  C   UNL A   1      43.796  32.106  29.234  1.00  0.00     0.029 A 
ATOM     51  C   UNL A   1      44.778  31.196  28.649  1.00  0.00     0.049 A 
ATOM     52  H   UNL A   1      44.508  29.187  28.168  1.00  0.00     0.167 HD
ATOM     53  C   UNL A   1      43.798  24.981  27.177  1.00  0.00     0.031 A 
ATOM     54  C   UNL A   1      46.044  31.514  28.312  1.00  0.00     0.031 A 
ATOM     55  C   UNL A   1      45.140  25.246  26.736  1.00  0.00     0.049 A 
ATOM     56  C   UNL A   1      46.939  30.459  27.714  1.00  0.00     0.074 A 
ATOM     57  C   UNL A   1      46.023  24.389  26.102  1.00  0.00     0.029 A 
ATOM     58  N   UNL A   1      45.799  26.457  26.892  1.00  0.00    -0.354 N 
ATOM     59  N   UNL A   1      46.661  29.210  27.420  1.00  0.00    -0.248 NA
ATOM     60  C   UNL A   1      48.317  30.859  27.395  1.00  0.00     0.031 C 
ATOM     61  C   UNL A   1      47.235  25.066  25.923  1.00  0.00     0.029 A 
ATOM     62  C   UNL A   1      47.086  26.363  26.389  1.00  0.00     0.049 A 
ATOM     63  H   UNL A   1      45.410  27.263  27.300  1.00  0.00     0.167 HD
ATOM     64  C   UNL A   1      47.820  28.687  26.852  1.00  0.00     0.074 A 
ATOM     65  C   UNL A   1      48.797  29.755  26.837  1.00  0.00     0.031 C 
ATOM     66  C   UNL A   1      48.049  27.435  26.381  1.00  0.00     0.031 A 
BRANCH  53  67
ATOM     67  C   UNL A   1      43.231  23.601  26.982  1.00  0.00    -0.014 A 
ATOM     68  C   UNL A   1      42.648  23.219  25.759  1.00  0.00     0.010 A 
ATOM     69  C   UNL A   1      43.291  22.667  28.032  1.00  0.00     0.010 A 
ATOM     70  C   UNL A   1      42.091  21.946  25.608  1.00  0.00     0.020 A 
ATOM     71  C   UNL A   1      42.761  21.383  27.876  1.00  0.00     0.020 A 
ATOM     72  C   UNL A   1      42.146  21.038  26.671  1.00  0.00     0.054 A 
BRANCH  72  73
ATOM     73  S   UNL A   1      41.416  19.393  26.447  1.00  0.00     0.124 S 
ATOM     74  O   UNL A   1      41.250  18.948  27.829  1.00  0.00    -0.237 OA
ATOM     75  O   UNL A   1      40.178  19.685  25.728  1.00  0.00    -0.237 OA
ATOM     76  O   UNL A   1      42.424  18.668  25.677  1.00  0.00    -0.744 OA
ENDBRANCH  72  73
ENDBRANCH  53  67
BRANCH  54  77
ATOM     77  C   UNL A   1      46.547  32.898  28.534  1.00  0.00    -0.014 A 
ATOM     78  C   UNL A   1      47.105  33.264  29.771  1.00  0.00     0.010 A 
ATOM     79  C   UNL A   1      46.472  33.856  27.506  1.00  0.00     0.010 A 
ATOM     80  C   UNL A   1      47.569  34.566  29.979  1.00  0.00     0.020 A 
ATOM     81  C   UNL A   1      46.959  35.151  27.702  1.00  0.00     0.020 A 
ATOM     82  C   UNL A   1      47.497  35.500  28.942  1.00  0.00     0.054 A 
BRANCH  82  83
ATOM     83  S   UNL A   1      48.162  37.165  29.218  1.00  0.00     0.124 S 
ATOM     84  O   UNL A   1      49.344  37.166  28.363  1.00  0.00    -0.237 OA
ATOM     85  O   UNL A   1      47.060  38.019  28.781  1.00  0.00    -0.237 OA
ATOM     86  O   UNL A   1      48.428  37.192  30.655  1.00  0.00    -0.744 OA
ENDBRANCH  82  83
ENDBRANCH  54  77
BRANCH  66  87
ATOM     87  C   UNL A   1      49.398  27.159  25.768  1.00  0.00    -0.014 A 
ATOM     88  C   UNL A   1      49.640  27.373  24.400  1.00  0.00     0.010 A 
ATOM     89  C   UNL A   1      50.458  26.735  26.592  1.00  0.00     0.010 A 
ATOM     90  C   UNL A   1      50.908  27.139  23.861  1.00  0.00     0.020 A 
ATOM     91  C   UNL A   1      51.735  26.528  26.063  1.00  0.00     0.020 A 
ATOM     92  C   UNL A   1      51.949  26.719  24.696  1.00  0.00     0.054 A 
BRANCH  92  93
ATOM     93  S   UNL A   1      53.597  26.468  23.982  1.00  0.00     0.124 S 
ATOM     94  O   UNL A   1      54.361  27.555  24.590  1.00  0.00    -0.237 OA
ATOM     95  O   UNL A   1      53.944  25.124  24.439  1.00  0.00    -0.237 OA
ATOM     96  O   UNL A   1      53.374  26.593  22.543  1.00  0.00    -0.744 OA
ENDBRANCH  92  93
ENDBRANCH  66  87
ENDBRANCH  40  41
ENDBRANCH  33  35
ENDBRANCH  32  33
ENDBRANCH  31  32
ENDBRANCH  30  31
ENDBRANCH  29  30
ENDBRANCH  28  29
ENDBRANCH   1  28
TORSDOF 23
ENDMDL
MODEL 3
REMARK VINA RESULT:      -9.7      5.407     10.975
REMARK SMILES Cc1noc(C[N@H+]2CCC[C@@H](c3ccc(C(=O)OCCOCCOCCOC(=O)c4ccc(-c5c6nc(c(-c7ccc(S(=O)(=O)[O-])cc7)c7ccc([nH]7)c(-c7ccc(S(=O)(=O)[O-])cc7)c7nc(c(-c8ccc(S(=O)(=O)[O-])cc8)c8ccc5[nH]8)C=C7)C=C6)cc4)cc3)C2)n1
REMARK SMILES IDX 22 1 21 2 20 3 19 4 18 5 16 6 17 7 15 8 12 9 13 10 91 11
REMARK SMILES IDX 14 12 90 13 11 14 7 15 8 16 92 17 9 19 10 20 6 21 5 22 1 23
REMARK SMILES IDX 2 24 3 25 93 26 4 27 23 28 24 29 25 30 26 31 27 32 28 33
REMARK SMILES IDX 29 34 30 35 31 36 89 37 32 38 88 39 33 40 34 41 35 42 82 43
REMARK SMILES IDX 36 44 87 45 81 46 83 47 37 48 86 49 80 50 79 51 38 53 68 54
REMARK SMILES IDX 49 55 67 56 50 57 53 58 66 59 84 60 51 61 52 62 65 64 85 65
REMARK SMILES IDX 54 66 39 67 40 68 48 69 41 70 47 71 42 72 43 73 44 74 45 75
REMARK SMILES IDX 46 76 69 77 70 78 78 79 71 80 77 81 72 82 73 83 74 84 75 85
REMARK SMILES IDX 76 86 55 87 56 88 64 89 57 90 63 91 58 92 59 93 60 94 61 95
REMARK SMILES IDX 62 96
REMARK H PARENT 7 18 83 52 53 63
REMARK Flexibility Score: inf
ROOT
ATOM      1  C   UNL A   1      34.075  35.150  31.744  1.00  0.00     0.188 C 
ENDROOT
BRANCH   1   2
ATOM      2  O   UNL A   1      33.236  34.610  30.744  1.00  0.00    -0.376 OA
BRANCH   2   3
ATOM      3  C   UNL A   1      33.260  35.115  29.420  1.00  0.00     0.202 C 
BRANCH   3   4
ATOM      4  C   UNL A   1      34.029  34.456  28.268  1.00  0.00     0.261 C 
BRANCH   4   5
ATOM      5  O   UNL A   1      33.406  33.306  27.691  1.00  0.00    -0.460 OA
BRANCH   5   6
ATOM      6  C   UNL A   1      33.958  32.124  28.069  1.00  0.00     0.338 C 
ATOM      7  O   UNL A   1      34.684  31.926  29.020  1.00  0.00    -0.246 OA
BRANCH   6   8
ATOM      8  C   UNL A   1      33.404  31.028  27.247  1.00  0.00     0.060 A 
ATOM      9  C   UNL A   1      32.149  28.954  25.845  1.00  0.00    -0.039 A 
ATOM     10  C   UNL A   1      31.563  30.231  25.911  1.00  0.00     0.005 A 
ATOM     11  C   UNL A   1      33.422  28.764  26.407  1.00  0.00     0.005 A 
ATOM     12  C   UNL A   1      32.171  31.253  26.632  1.00  0.00     0.016 A 
ATOM     13  C   UNL A   1      34.056  29.801  27.100  1.00  0.00     0.016 A 
BRANCH   9  14
ATOM     14  C   UNL A   1      31.341  27.759  25.346  1.00  0.00     0.074 C 
ATOM     15  N   UNL A   1      31.549  25.847  23.674  1.00  0.00    -0.327 N 
ATOM     16  C   UNL A   1      31.270  24.885  24.750  1.00  0.00     0.262 C 
ATOM     17  C   UNL A   1      32.140  27.087  24.203  1.00  0.00     0.270 C 
ATOM     18  H   UNL A   1      30.656  26.077  23.238  1.00  0.00     0.348 HD
ATOM     19  C   UNL A   1      30.370  25.494  25.828  1.00  0.00     0.062 C 
ATOM     20  C   UNL A   1      31.006  26.741  26.443  1.00  0.00     0.020 C 
BRANCH  15  21
ATOM     21  C   UNL A   1      32.444  25.256  22.634  1.00  0.00     0.364 C 
BRANCH  21  22
ATOM     22  C   UNL A   1      33.757  24.720  23.126  1.00  0.00     0.281 A 
ATOM     23  C   UNL A   1      36.246  23.727  25.395  1.00  0.00     0.093 C 
ATOM     24  C   UNL A   1      35.382  24.000  24.228  1.00  0.00     0.169 A 
ATOM     25  N   UNL A   1      35.464  23.315  23.080  1.00  0.00    -0.063 NA
ATOM     26  N   UNL A   1      34.365  24.917  24.277  1.00  0.00    -0.191 NA
ATOM     27  O   UNL A   1      34.380  23.795  22.340  1.00  0.00    -0.333 OA
ENDBRANCH  21  22
ENDBRANCH  15  21
ENDBRANCH   9  14
ENDBRANCH   6   8
ENDBRANCH   5   6
ENDBRANCH   4   5
ENDBRANCH   3   4
ENDBRANCH   2   3
ENDBRANCH   1   2
BRANCH   1  28
ATOM     28  C   UNL A   1      34.600  34.256  32.885  1.00  0.00     0.188 C 
BRANCH  28  29
ATOM     29  O   UNL A   1      34.876  32.890  32.663  1.00  0.00    -0.376 OA
BRANCH  29  30
ATOM     30  C   UNL A   1      35.990  32.491  31.885  1.00  0.00     0.202 C 
BRANCH  30  31
ATOM     31  C   UNL A   1      36.603  31.081  31.892  1.00  0.00     0.261 C 
BRANCH  31  32
ATOM     32  O   UNL A   1      37.623  30.809  30.932  1.00  0.00    -0.460 OA
BRANCH  32  33
ATOM     33  C   UNL A   1      37.382  29.732  30.144  1.00  0.00     0.338 C 
ATOM     34  O   UNL A   1      36.298  29.279  29.822  1.00  0.00    -0.246 OA
BRANCH  33  35
ATOM     35  C   UNL A   1      38.654  29.257  29.573  1.00  0.00     0.060 A 
ATOM     36  C   UNL A   1      39.570  28.627  30.424  1.00  0.00     0.016 A 
ATOM     37  C   UNL A   1      38.964  29.491  28.233  1.00  0.00     0.016 A 
ATOM     38  C   UNL A   1      40.823  28.255  29.941  1.00  0.00     0.010 A 
ATOM     39  C   UNL A   1      40.227  29.135  27.755  1.00  0.00     0.010 A 
ATOM     40  C   UNL A   1      41.172  28.547  28.615  1.00  0.00    -0.014 A 
BRANCH  40  41
ATOM     41  C   UNL A   1      42.583  28.404  28.182  1.00  0.00     0.031 A 
ATOM     42  C   UNL A   1      43.517  29.568  28.378  1.00  0.00     0.074 A 
ATOM     43  C   UNL A   1      43.034  27.255  27.650  1.00  0.00     0.049 A 
ATOM     44  N   UNL A   1      44.781  29.678  28.062  1.00  0.00    -0.248 NA
ATOM     45  C   UNL A   1      42.947  30.765  29.017  1.00  0.00     0.031 C 
ATOM     46  C   UNL A   1      42.241  26.043  27.454  1.00  0.00     0.029 A 
ATOM     47  N   UNL A   1      44.278  26.926  27.174  1.00  0.00    -0.354 N 
ATOM     48  C   UNL A   1      45.158  30.956  28.461  1.00  0.00     0.074 A 
ATOM     49  C   UNL A   1      43.980  31.593  29.010  1.00  0.00     0.031 C 
ATOM     50  C   UNL A   1      43.021  25.099  26.896  1.00  0.00     0.029 A 
ATOM     51  C   UNL A   1      44.354  25.652  26.666  1.00  0.00     0.049 A 
ATOM     52  H   UNL A   1      45.044  27.545  27.195  1.00  0.00     0.167 HD
ATOM     53  C   UNL A   1      46.375  31.544  28.384  1.00  0.00     0.031 A 
ATOM     54  C   UNL A   1      45.380  25.013  26.070  1.00  0.00     0.031 A 
ATOM     55  C   UNL A   1      47.537  30.919  27.813  1.00  0.00     0.049 A 
ATOM     56  C   UNL A   1      46.701  25.720  25.908  1.00  0.00     0.074 A 
ATOM     57  C   UNL A   1      48.816  31.433  27.687  1.00  0.00     0.029 A 
ATOM     58  N   UNL A   1      47.560  29.647  27.262  1.00  0.00    -0.354 N 
ATOM     59  N   UNL A   1      47.048  26.922  26.306  1.00  0.00    -0.248 NA
ATOM     60  C   UNL A   1      47.772  24.981  25.223  1.00  0.00     0.031 C 
ATOM     61  C   UNL A   1      49.599  30.491  27.011  1.00  0.00     0.029 A 
ATOM     62  C   UNL A   1      48.825  29.366  26.772  1.00  0.00     0.049 A 
ATOM     63  H   UNL A   1      46.791  29.034  27.224  1.00  0.00     0.167 HD
ATOM     64  C   UNL A   1      48.386  27.068  25.948  1.00  0.00     0.074 A 
ATOM     65  C   UNL A   1      48.786  25.831  25.310  1.00  0.00     0.031 C 
ATOM     66  C   UNL A   1      49.209  28.130  26.138  1.00  0.00     0.031 A 
BRANCH  53  67
ATOM     67  C   UNL A   1      46.491  32.953  28.902  1.00  0.00    -0.014 A 
ATOM     68  C   UNL A   1      46.151  34.056  28.097  1.00  0.00     0.010 A 
ATOM     69  C   UNL A   1      46.937  33.178  30.217  1.00  0.00     0.010 A 
ATOM     70  C   UNL A   1      46.302  35.358  28.580  1.00  0.00     0.020 A 
ATOM     71  C   UNL A   1      47.062  34.478  30.714  1.00  0.00     0.020 A 
ATOM     72  C   UNL A   1      46.764  35.560  29.884  1.00  0.00     0.054 A 
BRANCH  72  73
ATOM     73  S   UNL A   1      46.950  37.261  30.486  1.00  0.00     0.124 S 
ATOM     74  O   UNL A   1      46.724  37.098  31.921  1.00  0.00    -0.237 OA
ATOM     75  O   UNL A   1      48.319  37.591  30.099  1.00  0.00    -0.237 OA
ATOM     76  O   UNL A   1      45.909  37.998  29.773  1.00  0.00    -0.744 OA
ENDBRANCH  72  73
ENDBRANCH  53  67
BRANCH  54  77
ATOM     77  C   UNL A   1      45.201  23.620  25.575  1.00  0.00    -0.014 A 
ATOM     78  C   UNL A   1      45.632  22.527  26.347  1.00  0.00     0.010 A 
ATOM     79  C   UNL A   1      44.595  23.380  24.328  1.00  0.00     0.010 A 
ATOM     80  C   UNL A   1      45.470  21.221  25.877  1.00  0.00     0.020 A 
ATOM     81  C   UNL A   1      44.407  22.074  23.867  1.00  0.00     0.020 A 
ATOM     82  C   UNL A   1      44.854  21.003  24.641  1.00  0.00     0.054 A 
BRANCH  82  83
ATOM     83  S   UNL A   1      44.600  19.296  24.083  1.00  0.00     0.124 S 
ATOM     84  O   UNL A   1      45.707  18.597  24.727  1.00  0.00    -0.237 OA
ATOM     85  O   UNL A   1      43.269  18.991  24.602  1.00  0.00    -0.237 OA
ATOM     86  O   UNL A   1      44.684  19.396  22.627  1.00  0.00    -0.744 OA
ENDBRANCH  82  83
ENDBRANCH  54  77
BRANCH  66  87
ATOM     87  C   UNL A   1      50.640  27.991  25.687  1.00  0.00    -0.014 A 
ATOM     88  C   UNL A   1      51.022  28.266  24.362  1.00  0.00     0.010 A 
ATOM     89  C   UNL A   1      51.629  27.638  26.625  1.00  0.00     0.010 A 
ATOM     90  C   UNL A   1      52.361  28.161  23.976  1.00  0.00     0.020 A 
ATOM     91  C   UNL A   1      52.973  27.559  26.250  1.00  0.00     0.020 A 
ATOM     92  C   UNL A   1      53.329  27.809  24.923  1.00  0.00     0.054 A 
BRANCH  92  93
ATOM     93  S   UNL A   1      55.067  27.725  24.408  1.00  0.00     0.124 S 
ATOM     94  O   UNL A   1      55.020  28.325  23.078  1.00  0.00    -0.237 OA
ATOM     95  O   UNL A   1      55.744  28.518  25.432  1.00  0.00    -0.237 OA
ATOM     96  O   UNL A   1      55.368  26.295  24.437  1.00  0.00    -0.744 OA
ENDBRANCH  92  93
ENDBRANCH  66  87
ENDBRANCH  40  41
ENDBRANCH  33  35
ENDBRANCH  32  33
ENDBRANCH  31  32
ENDBRANCH  30  31
ENDBRANCH  29  30
ENDBRANCH  28  29
ENDBRANCH   1  28
TORSDOF 23
ENDMDL
