MODEL 1
REMARK VINA RESULT:     -10.1      0.000      0.000
REMARK SMILES O=C(OCCOCCOCCOC(=O)c1ccc(N2C(=O)/C(=C/c3ccco3)SC2=S)cc1)c1ccc(-c2c3nc(c(-c4ccc(S(=O)(=O)[O-])cc4)c4ccc([nH]4)c(-c4ccc(S(=O)(=O)[O-])cc4)c4nc(c(-c5ccc(S(=O)(=O)[O-])cc5)c5ccc2[nH]5)C=C4)C=C3)cc1
REMARK SMILES IDX 7 1 6 2 5 3 4 4 3 5 2 6 1 7 34 8 35 9 93 10 36 11 92 12
REMARK SMILES IDX 37 13 38 14 39 15 86 16 40 17 91 18 85 19 87 20 41 21 90 22
REMARK SMILES IDX 84 23 83 24 42 26 72 27 53 28 71 29 54 30 57 31 70 32 88 33
REMARK SMILES IDX 55 34 56 35 69 37 89 38 58 39 43 40 44 41 52 42 45 43 51 44
REMARK SMILES IDX 46 45 47 46 48 47 49 48 50 49 73 50 74 51 82 52 75 53 81 54
REMARK SMILES IDX 76 55 77 56 78 57 79 58 80 59 59 60 60 61 68 62 61 63 67 64
REMARK SMILES IDX 62 65 63 66 64 67 65 68 66 69 8 70 9 71 10 72 11 73 12 74
REMARK SMILES IDX 13 75 14 76 15 77 16 78 33 79 17 80 32 81 18 82 19 83 20 84
REMARK SMILES IDX 30 85 21 86 22 87 29 88 31 89 23 90 24 91 25 92 28 93 26 94
REMARK SMILES IDX 27 95
REMARK H PARENT 87 25 57 36
REMARK Flexibility Score: inf
ROOT
ATOM      1  C   UNL A   1      35.524  23.027  26.439  1.00  0.00     0.188 C 
ENDROOT
BRANCH   1   2
ATOM      2  O   UNL A   1      36.652  23.472  25.675  1.00  0.00    -0.376 OA
BRANCH   2   3
ATOM      3  C   UNL A   1      37.805  22.632  25.800  1.00  0.00     0.202 C 
BRANCH   3   4
ATOM      4  C   UNL A   1      38.953  23.246  26.611  1.00  0.00     0.261 C 
BRANCH   4   5
ATOM      5  O   UNL A   1      39.064  24.660  26.394  1.00  0.00    -0.460 OA
BRANCH   5   6
ATOM      6  C   UNL A   1      40.083  25.481  26.755  1.00  0.00     0.338 C 
ATOM      7  O   UNL A   1      41.155  25.367  26.161  1.00  0.00    -0.246 OA
BRANCH   6   8
ATOM      8  C   UNL A   1      39.975  26.543  27.808  1.00  0.00     0.060 A 
ATOM      9  C   UNL A   1      40.474  27.844  27.709  1.00  0.00     0.016 A 
ATOM     10  C   UNL A   1      39.272  26.199  28.975  1.00  0.00     0.016 A 
ATOM     11  C   UNL A   1      40.413  28.728  28.783  1.00  0.00     0.010 A 
ATOM     12  C   UNL A   1      39.153  27.101  30.036  1.00  0.00     0.010 A 
ATOM     13  C   UNL A   1      39.777  28.351  29.962  1.00  0.00    -0.014 A 
BRANCH  13  14
ATOM     14  C   UNL A   1      39.914  29.202  31.161  1.00  0.00     0.031 A 
ATOM     15  C   UNL A   1      41.083  28.963  32.068  1.00  0.00     0.074 A 
ATOM     16  C   UNL A   1      39.064  30.219  31.381  1.00  0.00     0.049 A 
ATOM     17  N   UNL A   1      41.378  29.533  33.204  1.00  0.00    -0.248 NA
ATOM     18  C   UNL A   1      42.067  27.962  31.620  1.00  0.00     0.031 C 
ATOM     19  C   UNL A   1      37.984  30.623  30.483  1.00  0.00     0.029 A 
ATOM     20  N   UNL A   1      38.981  31.104  32.423  1.00  0.00    -0.354 N 
ATOM     21  C   UNL A   1      42.568  28.946  33.617  1.00  0.00     0.074 A 
ATOM     22  C   UNL A   1      42.936  27.969  32.618  1.00  0.00     0.031 C 
ATOM     23  C   UNL A   1      37.329  31.661  31.024  1.00  0.00     0.029 A 
ATOM     24  C   UNL A   1      37.911  31.960  32.327  1.00  0.00     0.049 A 
ATOM     25  H   UNL A   1      39.624  31.125  33.168  1.00  0.00     0.167 HD
ATOM     26  C   UNL A   1      43.285  29.201  34.737  1.00  0.00     0.031 A 
ATOM     27  C   UNL A   1      37.433  32.856  33.207  1.00  0.00     0.031 A 
ATOM     28  C   UNL A   1      42.880  30.155  35.731  1.00  0.00     0.049 A 
ATOM     29  C   UNL A   1      38.169  33.041  34.502  1.00  0.00     0.074 A 
ATOM     30  C   UNL A   1      43.482  30.458  36.937  1.00  0.00     0.029 A 
ATOM     31  N   UNL A   1      41.751  30.959  35.629  1.00  0.00    -0.354 N 
ATOM     32  N   UNL A   1      39.263  32.442  34.912  1.00  0.00    -0.248 NA
ATOM     33  C   UNL A   1      37.620  34.018  35.449  1.00  0.00     0.031 C 
ATOM     34  C   UNL A   1      42.692  31.416  37.584  1.00  0.00     0.029 A 
ATOM     35  C   UNL A   1      41.629  31.748  36.757  1.00  0.00     0.049 A 
ATOM     36  H   UNL A   1      41.130  30.964  34.865  1.00  0.00     0.167 HD
ATOM     37  C   UNL A   1      39.552  32.990  36.155  1.00  0.00     0.074 A 
ATOM     38  C   UNL A   1      38.516  33.968  36.428  1.00  0.00     0.031 C 
ATOM     39  C   UNL A   1      40.584  32.714  36.990  1.00  0.00     0.031 A 
BRANCH  26  40
ATOM     40  C   UNL A   1      44.518  28.368  34.953  1.00  0.00    -0.014 A 
ATOM     41  C   UNL A   1      44.480  27.181  35.709  1.00  0.00     0.010 A 
ATOM     42  C   UNL A   1      45.751  28.819  34.448  1.00  0.00     0.010 A 
ATOM     43  C   UNL A   1      45.662  26.498  36.011  1.00  0.00     0.020 A 
ATOM     44  C   UNL A   1      46.931  28.126  34.728  1.00  0.00     0.020 A 
ATOM     45  C   UNL A   1      46.882  26.986  35.532  1.00  0.00     0.054 A 
BRANCH  45  46
ATOM     46  S   UNL A   1      48.408  26.113  35.980  1.00  0.00     0.124 S 
ATOM     47  O   UNL A   1      49.123  27.132  36.744  1.00  0.00    -0.237 OA
ATOM     48  O   UNL A   1      47.916  24.978  36.757  1.00  0.00    -0.237 OA
ATOM     49  O   UNL A   1      49.002  25.770  34.691  1.00  0.00    -0.744 OA
ENDBRANCH  45  46
ENDBRANCH  26  40
BRANCH  27  50
ATOM     50  C   UNL A   1      36.184  33.599  32.895  1.00  0.00    -0.014 A 
ATOM     51  C   UNL A   1      34.929  32.974  32.976  1.00  0.00     0.010 A 
ATOM     52  C   UNL A   1      36.247  34.969  32.569  1.00  0.00     0.010 A 
ATOM     53  C   UNL A   1      33.760  33.705  32.742  1.00  0.00     0.020 A 
ATOM     54  C   UNL A   1      35.080  35.708  32.357  1.00  0.00     0.020 A 
ATOM     55  C   UNL A   1      33.842  35.068  32.441  1.00  0.00     0.054 A 
BRANCH  55  56
ATOM     56  S   UNL A   1      32.306  36.010  32.221  1.00  0.00     0.124 S 
ATOM     57  O   UNL A   1      32.573  37.214  33.000  1.00  0.00    -0.237 OA
ATOM     58  O   UNL A   1      32.256  36.188  30.772  1.00  0.00    -0.237 OA
ATOM     59  O   UNL A   1      31.285  35.119  32.768  1.00  0.00    -0.744 OA
ENDBRANCH  55  56
ENDBRANCH  27  50
BRANCH  39  60
ATOM     60  C   UNL A   1      40.669  33.515  38.257  1.00  0.00    -0.014 A 
ATOM     61  C   UNL A   1      39.938  33.146  39.398  1.00  0.00     0.010 A 
ATOM     62  C   UNL A   1      41.565  34.597  38.324  1.00  0.00     0.010 A 
ATOM     63  C   UNL A   1      40.095  33.859  40.589  1.00  0.00     0.020 A 
ATOM     64  C   UNL A   1      41.740  35.297  39.518  1.00  0.00     0.020 A 
ATOM     65  C   UNL A   1      40.998  34.926  40.641  1.00  0.00     0.054 A 
BRANCH  65  66
ATOM     66  S   UNL A   1      41.244  35.787  42.218  1.00  0.00     0.124 S 
ATOM     67  O   UNL A   1      42.537  36.432  42.012  1.00  0.00    -0.237 OA
ATOM     68  O   UNL A   1      40.094  36.687  42.277  1.00  0.00    -0.237 OA
ATOM     69  O   UNL A   1      41.234  34.709  43.204  1.00  0.00    -0.744 OA
ENDBRANCH  65  66
ENDBRANCH  39  60
ENDBRANCH  13  14
ENDBRANCH   6   8
ENDBRANCH   5   6
ENDBRANCH   4   5
ENDBRANCH   3   4
ENDBRANCH   2   3
ENDBRANCH   1   2
BRANCH   1  70
ATOM     70  C   UNL A   1      35.163  21.575  26.111  1.00  0.00     0.188 C 
BRANCH  70  71
ATOM     71  O   UNL A   1      33.852  21.168  26.502  1.00  0.00    -0.376 OA
BRANCH  71  72
ATOM     72  C   UNL A   1      33.297  20.048  25.818  1.00  0.00     0.202 C 
BRANCH  72  73
ATOM     73  C   UNL A   1      32.369  20.342  24.634  1.00  0.00     0.261 C 
BRANCH  73  74
ATOM     74  O   UNL A   1      33.023  20.852  23.457  1.00  0.00    -0.460 OA
BRANCH  74  75
ATOM     75  C   UNL A   1      32.197  21.523  22.618  1.00  0.00     0.338 C 
ATOM     76  O   UNL A   1      31.543  21.049  21.700  1.00  0.00    -0.246 OA
BRANCH  75  77
ATOM     77  C   UNL A   1      32.221  22.976  22.860  1.00  0.00     0.060 A 
ATOM     78  C   UNL A   1      33.249  23.800  22.394  1.00  0.00     0.018 A 
ATOM     79  C   UNL A   1      31.273  23.476  23.752  1.00  0.00     0.018 A 
ATOM     80  C   UNL A   1      33.366  25.111  22.887  1.00  0.00     0.028 A 
ATOM     81  C   UNL A   1      31.395  24.776  24.239  1.00  0.00     0.028 A 
ATOM     82  C   UNL A   1      32.475  25.592  23.862  1.00  0.00     0.051 A 
BRANCH  82  83
ATOM     83  N   UNL A   1      32.651  26.862  24.491  1.00  0.00    -0.261 N 
ATOM     84  C   UNL A   1      33.396  26.993  25.663  1.00  0.00     0.270 C 
ATOM     85  C   UNL A   1      32.035  28.024  24.029  1.00  0.00     0.152 C 
ATOM     86  O   UNL A   1      33.862  26.104  26.359  1.00  0.00    -0.268 OA
ATOM     87  C   UNL A   1      33.529  28.438  26.022  1.00  0.00     0.084 C 
ATOM     88  S   UNL A   1      32.610  29.407  24.942  1.00  0.00    -0.054 SA
ATOM     89  S   UNL A   1      30.787  28.211  22.927  1.00  0.00    -0.051 S 
ATOM     90  C   UNL A   1      34.304  28.861  27.031  1.00  0.00     0.068 C 
BRANCH  90  91
ATOM     91  C   UNL A   1      34.439  30.235  27.376  1.00  0.00     0.127 A 
ATOM     92  C   UNL A   1      35.580  30.979  27.664  1.00  0.00     0.050 A 
ATOM     93  O   UNL A   1      33.361  31.084  27.478  1.00  0.00    -0.465 OA
ATOM     94  C   UNL A   1      35.173  32.289  28.007  1.00  0.00     0.042 A 
ATOM     95  C   UNL A   1      33.807  32.296  27.884  1.00  0.00     0.195 A 
ENDBRANCH  90  91
ENDBRANCH  82  83
ENDBRANCH  75  77
ENDBRANCH  74  75
ENDBRANCH  73  74
ENDBRANCH  72  73
ENDBRANCH  71  72
ENDBRANCH  70  71
ENDBRANCH   1  70
TORSDOF 22
ENDMDL
MODEL 2
REMARK VINA RESULT:      -9.6      5.549     12.541
REMARK SMILES O=C(OCCOCCOCCOC(=O)c1ccc(N2C(=O)/C(=C/c3ccco3)SC2=S)cc1)c1ccc(-c2c3nc(c(-c4ccc(S(=O)(=O)[O-])cc4)c4ccc([nH]4)c(-c4ccc(S(=O)(=O)[O-])cc4)c4nc(c(-c5ccc(S(=O)(=O)[O-])cc5)c5ccc2[nH]5)C=C4)C=C3)cc1
REMARK SMILES IDX 7 1 6 2 5 3 4 4 3 5 2 6 1 7 34 8 35 9 93 10 36 11 92 12
REMARK SMILES IDX 37 13 38 14 39 15 86 16 40 17 91 18 85 19 87 20 41 21 90 22
REMARK SMILES IDX 84 23 83 24 42 26 72 27 53 28 71 29 54 30 57 31 70 32 88 33
REMARK SMILES IDX 55 34 56 35 69 37 89 38 58 39 43 40 44 41 52 42 45 43 51 44
REMARK SMILES IDX 46 45 47 46 48 47 49 48 50 49 73 50 74 51 82 52 75 53 81 54
REMARK SMILES IDX 76 55 77 56 78 57 79 58 80 59 59 60 60 61 68 62 61 63 67 64
REMARK SMILES IDX 62 65 63 66 64 67 65 68 66 69 8 70 9 71 10 72 11 73 12 74
REMARK SMILES IDX 13 75 14 76 15 77 16 78 33 79 17 80 32 81 18 82 19 83 20 84
REMARK SMILES IDX 30 85 21 86 22 87 29 88 31 89 23 90 24 91 25 92 28 93 26 94
REMARK SMILES IDX 27 95
REMARK H PARENT 87 25 57 36
REMARK Flexibility Score: inf
ROOT
ATOM      1  C   UNL A   1      32.205  36.078  31.776  1.00  0.00     0.188 C 
ENDROOT
BRANCH   1   2
ATOM      2  O   UNL A   1      32.958  35.228  32.650  1.00  0.00    -0.376 OA
BRANCH   2   3
ATOM      3  C   UNL A   1      34.122  35.852  33.205  1.00  0.00     0.202 C 
BRANCH   3   4
ATOM      4  C   UNL A   1      35.388  34.988  33.164  1.00  0.00     0.261 C 
BRANCH   4   5
ATOM      5  O   UNL A   1      35.345  33.929  34.132  1.00  0.00    -0.460 OA
BRANCH   5   6
ATOM      6  C   UNL A   1      36.345  33.504  34.946  1.00  0.00     0.338 C 
ATOM      7  O   UNL A   1      36.146  33.515  36.160  1.00  0.00    -0.246 OA
BRANCH   6   8
ATOM      8  C   UNL A   1      37.663  32.986  34.457  1.00  0.00     0.060 A 
ATOM      9  C   UNL A   1      38.908  33.242  35.037  1.00  0.00     0.016 A 
ATOM     10  C   UNL A   1      37.627  32.134  33.339  1.00  0.00     0.016 A 
ATOM     11  C   UNL A   1      40.089  32.797  34.449  1.00  0.00     0.010 A 
ATOM     12  C   UNL A   1      38.804  31.634  32.775  1.00  0.00     0.010 A 
ATOM     13  C   UNL A   1      40.045  32.015  33.299  1.00  0.00    -0.014 A 
BRANCH  13  14
ATOM     14  C   UNL A   1      41.294  31.741  32.563  1.00  0.00     0.031 A 
ATOM     15  C   UNL A   1      41.756  32.749  31.553  1.00  0.00     0.074 A 
ATOM     16  C   UNL A   1      42.042  30.664  32.855  1.00  0.00     0.049 A 
ATOM     17  N   UNL A   1      42.777  32.700  30.743  1.00  0.00    -0.248 NA
ATOM     18  C   UNL A   1      40.971  33.993  31.463  1.00  0.00     0.031 C 
ATOM     19  C   UNL A   1      41.753  29.704  33.918  1.00  0.00     0.029 A 
ATOM     20  N   UNL A   1      43.200  30.200  32.291  1.00  0.00    -0.354 N 
ATOM     21  C   UNL A   1      42.747  33.894  30.033  1.00  0.00     0.074 A 
ATOM     22  C   UNL A   1      41.602  34.643  30.498  1.00  0.00     0.031 C 
ATOM     23  C   UNL A   1      42.697  28.749  33.915  1.00  0.00     0.029 A 
ATOM     24  C   UNL A   1      43.622  29.004  32.819  1.00  0.00     0.049 A 
ATOM     25  H   UNL A   1      43.683  30.676  31.577  1.00  0.00     0.167 HD
ATOM     26  C   UNL A   1      43.601  34.322  29.074  1.00  0.00     0.031 A 
ATOM     27  C   UNL A   1      44.621  28.189  32.435  1.00  0.00     0.031 A 
ATOM     28  C   UNL A   1      44.714  33.543  28.606  1.00  0.00     0.049 A 
ATOM     29  C   UNL A   1      45.486  28.618  31.286  1.00  0.00     0.074 A 
ATOM     30  C   UNL A   1      45.612  33.835  27.598  1.00  0.00     0.029 A 
ATOM     31  N   UNL A   1      45.072  32.304  29.121  1.00  0.00    -0.354 N 
ATOM     32  N   UNL A   1      45.418  29.724  30.581  1.00  0.00    -0.248 NA
ATOM     33  C   UNL A   1      46.560  27.706  30.882  1.00  0.00     0.031 C 
ATOM     34  C   UNL A   1      46.488  32.750  27.475  1.00  0.00     0.029 A 
ATOM     35  C   UNL A   1      46.169  31.808  28.442  1.00  0.00     0.049 A 
ATOM     36  H   UNL A   1      44.611  31.846  29.861  1.00  0.00     0.167 HD
ATOM     37  C   UNL A   1      46.459  29.655  29.666  1.00  0.00     0.074 A 
ATOM     38  C   UNL A   1      47.142  28.397  29.908  1.00  0.00     0.031 C 
ATOM     39  C   UNL A   1      46.823  30.552  28.717  1.00  0.00     0.031 A 
BRANCH  26  40
ATOM     40  C   UNL A   1      43.290  35.647  28.435  1.00  0.00    -0.014 A 
ATOM     41  C   UNL A   1      43.922  36.832  28.857  1.00  0.00     0.010 A 
ATOM     42  C   UNL A   1      42.296  35.717  27.443  1.00  0.00     0.010 A 
ATOM     43  C   UNL A   1      43.517  38.069  28.346  1.00  0.00     0.020 A 
ATOM     44  C   UNL A   1      41.905  36.949  26.912  1.00  0.00     0.020 A 
ATOM     45  C   UNL A   1      42.499  38.120  27.388  1.00  0.00     0.054 A 
BRANCH  45  46
ATOM     46  S   UNL A   1      41.954  39.738  26.777  1.00  0.00     0.124 S 
ATOM     47  O   UNL A   1      41.675  40.451  28.021  1.00  0.00    -0.237 OA
ATOM     48  O   UNL A   1      43.117  40.211  26.031  1.00  0.00    -0.237 OA
ATOM     49  O   UNL A   1      40.782  39.425  25.963  1.00  0.00    -0.744 OA
ENDBRANCH  45  46
ENDBRANCH  26  40
BRANCH  27  50
ATOM     50  C   UNL A   1      44.811  26.886  33.124  1.00  0.00    -0.014 A 
ATOM     51  C   UNL A   1      45.645  26.776  34.249  1.00  0.00     0.010 A 
ATOM     52  C   UNL A   1      44.101  25.750  32.684  1.00  0.00     0.010 A 
ATOM     53  C   UNL A   1      45.763  25.558  34.924  1.00  0.00     0.020 A 
ATOM     54  C   UNL A   1      44.198  24.537  33.371  1.00  0.00     0.020 A 
ATOM     55  C   UNL A   1      45.033  24.448  34.486  1.00  0.00     0.054 A 
BRANCH  55  56
ATOM     56  S   UNL A   1      45.143  22.901  35.428  1.00  0.00     0.124 S 
ATOM     57  O   UNL A   1      44.157  22.063  34.752  1.00  0.00    -0.237 OA
ATOM     58  O   UNL A   1      46.540  22.519  35.238  1.00  0.00    -0.237 OA
ATOM     59  O   UNL A   1      44.796  23.310  36.787  1.00  0.00    -0.744 OA
ENDBRANCH  55  56
ENDBRANCH  27  50
BRANCH  39  60
ATOM     60  C   UNL A   1      48.040  30.227  27.901  1.00  0.00    -0.014 A 
ATOM     61  C   UNL A   1      49.288  30.797  28.202  1.00  0.00     0.010 A 
ATOM     62  C   UNL A   1      47.942  29.267  26.878  1.00  0.00     0.010 A 
ATOM     63  C   UNL A   1      50.422  30.418  27.480  1.00  0.00     0.020 A 
ATOM     64  C   UNL A   1      49.077  28.871  26.170  1.00  0.00     0.020 A 
ATOM     65  C   UNL A   1      50.309  29.455  26.472  1.00  0.00     0.054 A 
BRANCH  65  66
ATOM     66  S   UNL A   1      51.807  28.920  25.601  1.00  0.00     0.124 S 
ATOM     67  O   UNL A   1      51.258  28.374  24.363  1.00  0.00    -0.237 OA
ATOM     68  O   UNL A   1      52.558  30.165  25.460  1.00  0.00    -0.237 OA
ATOM     69  O   UNL A   1      52.401  27.940  26.507  1.00  0.00    -0.744 OA
ENDBRANCH  65  66
ENDBRANCH  39  60
ENDBRANCH  13  14
ENDBRANCH   6   8
ENDBRANCH   5   6
ENDBRANCH   4   5
ENDBRANCH   3   4
ENDBRANCH   2   3
ENDBRANCH   1   2
BRANCH   1  70
ATOM     70  C   UNL A   1      33.056  36.564  30.598  1.00  0.00     0.188 C 
BRANCH  70  71
ATOM     71  O   UNL A   1      32.561  36.218  29.304  1.00  0.00    -0.376 OA
BRANCH  71  72
ATOM     72  C   UNL A   1      33.025  34.990  28.748  1.00  0.00     0.202 C 
BRANCH  72  73
ATOM     73  C   UNL A   1      34.290  34.379  29.360  1.00  0.00     0.261 C 
BRANCH  73  74
ATOM     74  O   UNL A   1      35.186  33.759  28.419  1.00  0.00    -0.460 OA
BRANCH  74  75
ATOM     75  C   UNL A   1      34.954  32.436  28.231  1.00  0.00     0.338 C 
ATOM     76  O   UNL A   1      33.917  31.924  27.835  1.00  0.00    -0.246 OA
BRANCH  75  77
ATOM     77  C   UNL A   1      36.096  31.608  28.655  1.00  0.00     0.060 A 
ATOM     78  C   UNL A   1      37.313  32.158  29.068  1.00  0.00     0.018 A 
ATOM     79  C   UNL A   1      35.988  30.235  28.436  1.00  0.00     0.018 A 
ATOM     80  C   UNL A   1      38.443  31.332  29.190  1.00  0.00     0.028 A 
ATOM     81  C   UNL A   1      37.112  29.422  28.556  1.00  0.00     0.028 A 
ATOM     82  C   UNL A   1      38.368  29.965  28.875  1.00  0.00     0.051 A 
BRANCH  82  83
ATOM     83  N   UNL A   1      39.525  29.127  28.845  1.00  0.00    -0.261 N 
ATOM     84  C   UNL A   1      40.197  28.862  27.652  1.00  0.00     0.270 C 
ATOM     85  C   UNL A   1      40.006  28.466  29.973  1.00  0.00     0.152 C 
ATOM     86  O   UNL A   1      39.856  29.160  26.517  1.00  0.00    -0.268 OA
ATOM     87  C   UNL A   1      41.439  28.078  27.931  1.00  0.00     0.084 C 
ATOM     88  S   UNL A   1      41.525  27.672  29.597  1.00  0.00    -0.054 SA
ATOM     89  S   UNL A   1      39.277  28.212  31.461  1.00  0.00    -0.051 S 
ATOM     90  C   UNL A   1      42.341  27.797  26.981  1.00  0.00     0.068 C 
BRANCH  90  91
ATOM     91  C   UNL A   1      43.527  27.055  27.239  1.00  0.00     0.127 A 
ATOM     92  C   UNL A   1      44.861  27.396  27.033  1.00  0.00     0.050 A 
ATOM     93  O   UNL A   1      43.508  25.788  27.775  1.00  0.00    -0.465 OA
ATOM     94  C   UNL A   1      45.658  26.286  27.397  1.00  0.00     0.042 A 
ATOM     95  C   UNL A   1      44.780  25.328  27.836  1.00  0.00     0.195 A 
ENDBRANCH  90  91
ENDBRANCH  82  83
ENDBRANCH  75  77
ENDBRANCH  74  75
ENDBRANCH  73  74
ENDBRANCH  72  73
ENDBRANCH  71  72
ENDBRANCH  70  71
ENDBRANCH   1  70
TORSDOF 22
ENDMDL
MODEL 3
REMARK VINA RESULT:      -9.4      4.817      5.780
REMARK SMILES O=C(OCCOCCOCCOC(=O)c1ccc(N2C(=O)/C(=C/c3ccco3)SC2=S)cc1)c1ccc(-c2c3nc(c(-c4ccc(S(=O)(=O)[O-])cc4)c4ccc([nH]4)c(-c4ccc(S(=O)(=O)[O-])cc4)c4nc(c(-c5ccc(S(=O)(=O)[O-])cc5)c5ccc2[nH]5)C=C4)C=C3)cc1
REMARK SMILES IDX 7 1 6 2 5 3 4 4 3 5 2 6 1 7 34 8 35 9 93 10 36 11 92 12
REMARK SMILES IDX 37 13 38 14 39 15 86 16 40 17 91 18 85 19 87 20 41 21 90 22
REMARK SMILES IDX 84 23 83 24 42 26 72 27 53 28 71 29 54 30 57 31 70 32 88 33
REMARK SMILES IDX 55 34 56 35 69 37 89 38 58 39 43 40 44 41 52 42 45 43 51 44
REMARK SMILES IDX 46 45 47 46 48 47 49 48 50 49 73 50 74 51 82 52 75 53 81 54
REMARK SMILES IDX 76 55 77 56 78 57 79 58 80 59 59 60 60 61 68 62 61 63 67 64
REMARK SMILES IDX 62 65 63 66 64 67 65 68 66 69 8 70 9 71 10 72 11 73 12 74
REMARK SMILES IDX 13 75 14 76 15 77 16 78 33 79 17 80 32 81 18 82 19 83 20 84
REMARK SMILES IDX 30 85 21 86 22 87 29 88 31 89 23 90 24 91 25 92 28 93 26 94
REMARK SMILES IDX 27 95
REMARK H PARENT 87 25 57 36
REMARK Flexibility Score: inf
ROOT
ATOM      1  C   UNL A   1      35.054  22.188  26.531  1.00  0.00     0.188 C 
ENDROOT
BRANCH   1   2
ATOM      2  O   UNL A   1      36.318  22.729  26.126  1.00  0.00    -0.376 OA
BRANCH   2   3
ATOM      3  C   UNL A   1      36.868  22.106  24.959  1.00  0.00     0.202 C 
BRANCH   3   4
ATOM      4  C   UNL A   1      38.194  21.374  25.195  1.00  0.00     0.261 C 
BRANCH   4   5
ATOM      5  O   UNL A   1      38.885  21.876  26.348  1.00  0.00    -0.460 OA
BRANCH   5   6
ATOM      6  C   UNL A   1      40.114  22.449  26.399  1.00  0.00     0.338 C 
ATOM      7  O   UNL A   1      41.075  21.794  25.997  1.00  0.00    -0.246 OA
BRANCH   6   8
ATOM      8  C   UNL A   1      40.370  23.846  26.879  1.00  0.00     0.060 A 
ATOM      9  C   UNL A   1      40.070  25.018  26.181  1.00  0.00     0.016 A 
ATOM     10  C   UNL A   1      40.924  23.975  28.165  1.00  0.00     0.016 A 
ATOM     11  C   UNL A   1      40.440  26.269  26.668  1.00  0.00     0.010 A 
ATOM     12  C   UNL A   1      41.245  25.231  28.688  1.00  0.00     0.010 A 
ATOM     13  C   UNL A   1      41.055  26.379  27.911  1.00  0.00    -0.014 A 
BRANCH  13  14
ATOM     14  C   UNL A   1      41.642  27.672  28.315  1.00  0.00     0.031 A 
ATOM     15  C   UNL A   1      43.125  27.850  28.177  1.00  0.00     0.074 A 
ATOM     16  C   UNL A   1      40.858  28.690  28.708  1.00  0.00     0.049 A 
ATOM     17  N   UNL A   1      43.872  28.862  28.523  1.00  0.00    -0.248 NA
ATOM     18  C   UNL A   1      43.861  26.745  27.538  1.00  0.00     0.031 C 
ATOM     19  C   UNL A   1      39.397  28.663  28.737  1.00  0.00     0.029 A 
ATOM     20  N   UNL A   1      41.178  29.946  29.150  1.00  0.00    -0.354 N 
ATOM     21  C   UNL A   1      45.167  28.509  28.164  1.00  0.00     0.074 A 
ATOM     22  C   UNL A   1      45.108  27.186  27.585  1.00  0.00     0.031 C 
ATOM     23  C   UNL A   1      38.945  29.840  29.197  1.00  0.00     0.029 A 
ATOM     24  C   UNL A   1      40.085  30.680  29.543  1.00  0.00     0.049 A 
ATOM     25  H   UNL A   1      42.100  30.289  29.184  1.00  0.00     0.167 HD
ATOM     26  C   UNL A   1      46.304  29.227  28.313  1.00  0.00     0.031 A 
ATOM     27  C   UNL A   1      40.016  31.878  30.148  1.00  0.00     0.031 A 
ATOM     28  C   UNL A   1      46.341  30.527  28.923  1.00  0.00     0.049 A 
ATOM     29  C   UNL A   1      41.297  32.612  30.420  1.00  0.00     0.074 A 
ATOM     30  C   UNL A   1      47.434  31.328  29.190  1.00  0.00     0.029 A 
ATOM     31  N   UNL A   1      45.218  31.212  29.370  1.00  0.00    -0.354 N 
ATOM     32  N   UNL A   1      42.524  32.247  30.129  1.00  0.00    -0.248 NA
ATOM     33  C   UNL A   1      41.192  33.912  31.090  1.00  0.00     0.031 C 
ATOM     34  C   UNL A   1      46.975  32.480  29.838  1.00  0.00     0.029 A 
ATOM     35  C   UNL A   1      45.591  32.421  29.925  1.00  0.00     0.049 A 
ATOM     36  H   UNL A   1      44.292  30.884  29.300  1.00  0.00     0.167 HD
ATOM     37  C   UNL A   1      43.339  33.286  30.556  1.00  0.00     0.074 A 
ATOM     38  C   UNL A   1      42.463  34.294  31.125  1.00  0.00     0.031 C 
ATOM     39  C   UNL A   1      44.688  33.400  30.478  1.00  0.00     0.031 A 
BRANCH  26  40
ATOM     40  C   UNL A   1      47.582  28.565  27.878  1.00  0.00    -0.014 A 
ATOM     41  C   UNL A   1      48.071  28.702  26.565  1.00  0.00     0.010 A 
ATOM     42  C   UNL A   1      48.269  27.733  28.780  1.00  0.00     0.010 A 
ATOM     43  C   UNL A   1      49.184  27.967  26.145  1.00  0.00     0.020 A 
ATOM     44  C   UNL A   1      49.396  27.016  28.371  1.00  0.00     0.020 A 
ATOM     45  C   UNL A   1      49.829  27.116  27.047  1.00  0.00     0.054 A 
BRANCH  45  46
ATOM     46  S   UNL A   1      51.239  26.133  26.467  1.00  0.00     0.124 S 
ATOM     47  O   UNL A   1      51.068  26.190  25.018  1.00  0.00    -0.237 OA
ATOM     48  O   UNL A   1      52.385  26.871  26.992  1.00  0.00    -0.237 OA
ATOM     49  O   UNL A   1      51.018  24.821  27.070  1.00  0.00    -0.744 OA
ENDBRANCH  45  46
ENDBRANCH  26  40
BRANCH  27  50
ATOM     50  C   UNL A   1      38.693  32.417  30.561  1.00  0.00    -0.014 A 
ATOM     51  C   UNL A   1      38.004  33.340  29.757  1.00  0.00     0.010 A 
ATOM     52  C   UNL A   1      38.088  31.956  31.748  1.00  0.00     0.010 A 
ATOM     53  C   UNL A   1      36.732  33.787  30.128  1.00  0.00     0.020 A 
ATOM     54  C   UNL A   1      36.808  32.383  32.110  1.00  0.00     0.020 A 
ATOM     55  C   UNL A   1      36.139  33.300  31.298  1.00  0.00     0.054 A 
BRANCH  55  56
ATOM     56  S   UNL A   1      34.456  33.837  31.714  1.00  0.00     0.124 S 
ATOM     57  O   UNL A   1      33.927  32.668  32.408  1.00  0.00    -0.237 OA
ATOM     58  O   UNL A   1      34.700  35.013  32.544  1.00  0.00    -0.237 OA
ATOM     59  O   UNL A   1      33.861  34.118  30.409  1.00  0.00    -0.744 OA
ENDBRANCH  55  56
ENDBRANCH  27  50
BRANCH  39  60
ATOM     60  C   UNL A   1      45.295  34.679  30.977  1.00  0.00    -0.014 A 
ATOM     61  C   UNL A   1      45.438  35.792  30.134  1.00  0.00     0.010 A 
ATOM     62  C   UNL A   1      45.640  34.787  32.337  1.00  0.00     0.010 A 
ATOM     63  C   UNL A   1      45.931  36.996  30.642  1.00  0.00     0.020 A 
ATOM     64  C   UNL A   1      46.111  35.995  32.852  1.00  0.00     0.020 A 
ATOM     65  C   UNL A   1      46.260  37.090  31.999  1.00  0.00     0.054 A 
BRANCH  65  66
ATOM     66  S   UNL A   1      46.823  38.684  32.654  1.00  0.00     0.124 S 
ATOM     67  O   UNL A   1      47.940  38.998  31.767  1.00  0.00    -0.237 OA
ATOM     68  O   UNL A   1      45.642  39.530  32.501  1.00  0.00    -0.237 OA
ATOM     69  O   UNL A   1      47.189  38.380  34.035  1.00  0.00    -0.744 OA
ENDBRANCH  65  66
ENDBRANCH  39  60
ENDBRANCH  13  14
ENDBRANCH   6   8
ENDBRANCH   5   6
ENDBRANCH   4   5
ENDBRANCH   3   4
ENDBRANCH   2   3
ENDBRANCH   1   2
BRANCH   1  70
ATOM     70  C   UNL A   1      34.692  20.941  25.719  1.00  0.00     0.188 C 
BRANCH  70  71
ATOM     71  O   UNL A   1      33.447  20.330  26.060  1.00  0.00    -0.376 OA
BRANCH  71  72
ATOM     72  C   UNL A   1      33.038  19.220  25.265  1.00  0.00     0.202 C 
BRANCH  72  73
ATOM     73  C   UNL A   1      32.044  19.501  24.133  1.00  0.00     0.261 C 
BRANCH  73  74
ATOM     74  O   UNL A   1      32.639  19.854  22.871  1.00  0.00    -0.460 OA
BRANCH  74  75
ATOM     75  C   UNL A   1      32.115  20.972  22.311  1.00  0.00     0.338 C 
ATOM     76  O   UNL A   1      31.569  21.059  21.221  1.00  0.00    -0.246 OA
BRANCH  75  77
ATOM     77  C   UNL A   1      32.351  22.168  23.138  1.00  0.00     0.060 A 
ATOM     78  C   UNL A   1      31.314  22.870  23.760  1.00  0.00     0.018 A 
ATOM     79  C   UNL A   1      33.640  22.699  23.115  1.00  0.00     0.018 A 
ATOM     80  C   UNL A   1      31.563  24.146  24.295  1.00  0.00     0.028 A 
ATOM     81  C   UNL A   1      33.879  23.965  23.646  1.00  0.00     0.028 A 
ATOM     82  C   UNL A   1      32.835  24.732  24.188  1.00  0.00     0.051 A 
BRANCH  82  83
ATOM     83  N   UNL A   1      33.087  26.081  24.587  1.00  0.00    -0.261 N 
ATOM     84  C   UNL A   1      32.977  26.474  25.921  1.00  0.00     0.270 C 
ATOM     85  C   UNL A   1      33.378  27.094  23.677  1.00  0.00     0.152 C 
ATOM     86  O   UNL A   1      32.548  25.823  26.862  1.00  0.00    -0.268 OA
ATOM     87  C   UNL A   1      33.426  27.892  26.072  1.00  0.00     0.084 C 
ATOM     88  S   UNL A   1      33.789  28.568  24.536  1.00  0.00    -0.054 SA
ATOM     89  S   UNL A   1      33.216  27.117  22.009  1.00  0.00    -0.051 S 
ATOM     90  C   UNL A   1      33.546  28.486  27.267  1.00  0.00     0.068 C 
BRANCH  90  91
ATOM     91  C   UNL A   1      33.976  29.833  27.420  1.00  0.00     0.127 A 
ATOM     92  C   UNL A   1      35.251  30.348  27.641  1.00  0.00     0.050 A 
ATOM     93  O   UNL A   1      33.109  30.900  27.360  1.00  0.00    -0.465 OA
ATOM     94  C   UNL A   1      35.138  31.751  27.780  1.00  0.00     0.042 A 
ATOM     95  C   UNL A   1      33.807  32.034  27.607  1.00  0.00     0.195 A 
ENDBRANCH  90  91
ENDBRANCH  82  83
ENDBRANCH  75  77
ENDBRANCH  74  75
ENDBRANCH  73  74
ENDBRANCH  72  73
ENDBRANCH  71  72
ENDBRANCH  70  71
ENDBRANCH   1  70
TORSDOF 22
ENDMDL
