MODEL 1
REMARK VINA RESULT:     -10.4      0.000      0.000
REMARK SMILES Cc1nc(NC(=O)[C@H]2[C@@H]3CC[C@@H](C3)[C@@H]2C(=O)OCCOCCOCCOC(=O)c2ccc(-c3c4nc(c(-c5ccc(S(=O)(=O)[O-])cc5)c5ccc([nH]5)c(-c5ccc(S(=O)(=O)[O-])cc5)c5nc(c(-c6ccc(S(=O)(=O)[O-])cc6)c6ccc3[nH]6)C=C5)C=C4)cc2)sc1-c1ccccc1
REMARK SMILES IDX 21 1 20 2 19 3 18 4 17 5 15 6 16 7 14 8 8 9 9 10 10 11 13 12
REMARK SMILES IDX 12 13 11 14 6 15 5 16 7 18 4 19 1 20 2 21 3 22 90 23 89 24
REMARK SMILES IDX 91 25 92 26 96 27 93 28 95 29 94 30 22 31 23 32 24 33 25 34
REMARK SMILES IDX 26 35 27 36 28 37 29 38 30 39 88 40 31 41 87 42 32 43 33 44
REMARK SMILES IDX 34 45 81 46 35 47 86 48 80 49 82 50 36 51 85 52 79 53 78 54
REMARK SMILES IDX 37 56 67 57 48 58 66 59 49 60 52 61 65 62 83 63 50 64 51 65
REMARK SMILES IDX 64 67 84 68 53 69 38 70 39 71 47 72 40 73 46 74 41 75 42 76
REMARK SMILES IDX 43 77 44 78 45 79 68 80 69 81 77 82 70 83 76 84 71 85 72 86
REMARK SMILES IDX 73 87 74 88 75 89 54 90 55 91 63 92 56 93 62 94 57 95 58 96
REMARK SMILES IDX 59 97 60 98 61 99
REMARK H PARENT 5 17 82 55 52 66
REMARK Flexibility Score: inf
ROOT
ATOM      1  C   UNL A   1      38.009  23.355  25.889  1.00  0.00     0.188 C 
ENDROOT
BRANCH   1   2
ATOM      2  O   UNL A   1      37.165  22.282  25.503  1.00  0.00    -0.376 OA
BRANCH   2   3
ATOM      3  C   UNL A   1      35.774  22.559  25.384  1.00  0.00     0.202 C 
BRANCH   3   4
ATOM      4  C   UNL A   1      35.348  23.481  24.233  1.00  0.00     0.261 C 
BRANCH   4   5
ATOM      5  O   UNL A   1      35.224  24.862  24.605  1.00  0.00    -0.463 OA
BRANCH   5   6
ATOM      6  C   UNL A   1      34.033  25.460  24.284  1.00  0.00     0.310 C 
ATOM      7  O   UNL A   1      33.696  25.793  23.159  1.00  0.00    -0.252 OA
BRANCH   6   8
ATOM      8  C   UNL A   1      33.174  25.585  25.538  1.00  0.00     0.115 C 
ATOM      9  C   UNL A   1      31.659  25.458  25.309  1.00  0.00     0.096 C 
ATOM     10  C   UNL A   1      31.154  26.881  25.665  1.00  0.00     0.003 C 
ATOM     11  C   UNL A   1      31.738  27.913  24.668  1.00  0.00     0.005 C 
ATOM     12  C   UNL A   1      31.965  27.182  26.919  1.00  0.00     0.009 C 
ATOM     13  C   UNL A   1      33.311  26.978  26.209  1.00  0.00     0.004 C 
ATOM     14  C   UNL A   1      33.190  28.086  25.149  1.00  0.00     0.005 C 
BRANCH   9  15
ATOM     15  C   UNL A   1      30.789  24.388  26.024  1.00  0.00     0.230 C 
ATOM     16  N   UNL A   1      30.856  23.033  26.006  1.00  0.00    -0.302 N 
ATOM     17  H   UNL A   1      30.227  22.592  26.622  1.00  0.00     0.172 HD
ATOM     18  O   UNL A   1      29.895  24.821  26.776  1.00  0.00    -0.274 OA
BRANCH  16  19
ATOM     19  C   UNL A   1      31.629  22.169  25.293  1.00  0.00     0.190 A 
ATOM     20  C   UNL A   1      32.110  20.532  22.206  1.00  0.00     0.068 C 
ATOM     21  C   UNL A   1      32.257  20.857  23.650  1.00  0.00     0.058 A 
ATOM     22  N   UNL A   1      31.804  22.108  24.010  1.00  0.00    -0.225 NA
ATOM     23  C   UNL A   1      32.685  20.055  24.705  1.00  0.00     0.059 A 
ATOM     24  S   UNL A   1      32.426  20.942  26.177  1.00  0.00    -0.096 S 
BRANCH  23  25
ATOM     25  C   UNL A   1      33.139  18.646  24.679  1.00  0.00    -0.006 A 
ATOM     26  C   UNL A   1      34.446  18.290  24.329  1.00  0.00     0.009 A 
ATOM     27  C   UNL A   1      32.316  17.628  25.184  1.00  0.00     0.009 A 
ATOM     28  C   UNL A   1      34.969  17.030  24.648  1.00  0.00     0.001 A 
ATOM     29  C   UNL A   1      32.825  16.363  25.496  1.00  0.00     0.001 A 
ATOM     30  C   UNL A   1      34.165  16.078  25.264  1.00  0.00     0.000 A 
ENDBRANCH  23  25
ENDBRANCH  16  19
ENDBRANCH   9  15
ENDBRANCH   6   8
ENDBRANCH   5   6
ENDBRANCH   4   5
ENDBRANCH   3   4
ENDBRANCH   2   3
ENDBRANCH   1   2
BRANCH   1  31
ATOM     31  C   UNL A   1      39.324  22.995  26.565  1.00  0.00     0.188 C 
BRANCH  31  32
ATOM     32  O   UNL A   1      40.134  22.023  25.913  1.00  0.00    -0.376 OA
BRANCH  32  33
ATOM     33  C   UNL A   1      41.484  21.992  26.397  1.00  0.00     0.202 C 
BRANCH  33  34
ATOM     34  C   UNL A   1      42.444  23.012  25.743  1.00  0.00     0.261 C 
BRANCH  34  35
ATOM     35  O   UNL A   1      42.767  24.152  26.574  1.00  0.00    -0.460 OA
BRANCH  35  36
ATOM     36  C   UNL A   1      42.430  25.355  26.067  1.00  0.00     0.338 C 
ATOM     37  O   UNL A   1      42.381  25.645  24.879  1.00  0.00    -0.246 OA
BRANCH  36  38
ATOM     38  C   UNL A   1      41.904  26.255  27.105  1.00  0.00     0.060 A 
ATOM     39  C   UNL A   1      42.592  27.454  27.343  1.00  0.00     0.016 A 
ATOM     40  C   UNL A   1      40.829  25.886  27.906  1.00  0.00     0.016 A 
ATOM     41  C   UNL A   1      42.251  28.264  28.420  1.00  0.00     0.010 A 
ATOM     42  C   UNL A   1      40.493  26.692  28.998  1.00  0.00     0.010 A 
ATOM     43  C   UNL A   1      41.228  27.861  29.283  1.00  0.00    -0.014 A 
BRANCH  43  44
ATOM     44  C   UNL A   1      41.027  28.572  30.567  1.00  0.00     0.031 A 
ATOM     45  C   UNL A   1      39.909  29.573  30.671  1.00  0.00     0.074 A 
ATOM     46  C   UNL A   1      41.809  28.314  31.630  1.00  0.00     0.049 A 
ATOM     47  N   UNL A   1      39.647  30.430  31.622  1.00  0.00    -0.248 NA
ATOM     48  C   UNL A   1      38.961  29.613  29.545  1.00  0.00     0.031 C 
ATOM     49  C   UNL A   1      42.857  27.295  31.682  1.00  0.00     0.029 A 
ATOM     50  N   UNL A   1      41.846  28.901  32.869  1.00  0.00    -0.354 N 
ATOM     51  C   UNL A   1      38.537  31.147  31.188  1.00  0.00     0.074 A 
ATOM     52  C   UNL A   1      38.171  30.619  29.892  1.00  0.00     0.031 C 
ATOM     53  C   UNL A   1      43.448  27.340  32.887  1.00  0.00     0.029 A 
ATOM     54  C   UNL A   1      42.863  28.430  33.664  1.00  0.00     0.049 A 
ATOM     55  H   UNL A   1      41.208  29.592  33.159  1.00  0.00     0.167 HD
ATOM     56  C   UNL A   1      37.896  32.164  31.812  1.00  0.00     0.031 A 
ATOM     57  C   UNL A   1      43.305  28.862  34.861  1.00  0.00     0.031 A 
ATOM     58  C   UNL A   1      38.270  32.669  33.106  1.00  0.00     0.049 A 
ATOM     59  C   UNL A   1      42.617  30.030  35.512  1.00  0.00     0.074 A 
ATOM     60  C   UNL A   1      37.692  33.697  33.832  1.00  0.00     0.029 A 
ATOM     61  N   UNL A   1      39.322  32.182  33.869  1.00  0.00    -0.354 N 
ATOM     62  N   UNL A   1      41.597  30.734  35.076  1.00  0.00    -0.248 NA
ATOM     63  C   UNL A   1      43.137  30.464  36.815  1.00  0.00     0.031 C 
ATOM     64  C   UNL A   1      38.428  33.864  35.010  1.00  0.00     0.029 A 
ATOM     65  C   UNL A   1      39.426  32.901  35.048  1.00  0.00     0.049 A 
ATOM     66  H   UNL A   1      39.908  31.434  33.610  1.00  0.00     0.167 HD
ATOM     67  C   UNL A   1      41.344  31.684  36.058  1.00  0.00     0.074 A 
ATOM     68  C   UNL A   1      42.306  31.454  37.118  1.00  0.00     0.031 C 
ATOM     69  C   UNL A   1      40.400  32.659  36.083  1.00  0.00     0.031 A 
BRANCH  56  70
ATOM     70  C   UNL A   1      36.779  32.843  31.060  1.00  0.00    -0.014 A 
ATOM     71  C   UNL A   1      37.028  33.836  30.094  1.00  0.00     0.010 A 
ATOM     72  C   UNL A   1      35.449  32.477  31.335  1.00  0.00     0.010 A 
ATOM     73  C   UNL A   1      35.965  34.486  29.458  1.00  0.00     0.020 A 
ATOM     74  C   UNL A   1      34.385  33.102  30.680  1.00  0.00     0.020 A 
ATOM     75  C   UNL A   1      34.649  34.120  29.763  1.00  0.00     0.054 A 
BRANCH  75  76
ATOM     76  S   UNL A   1      33.286  34.986  28.936  1.00  0.00     0.124 S 
ATOM     77  O   UNL A   1      32.800  33.965  28.009  1.00  0.00    -0.237 OA
ATOM     78  O   UNL A   1      32.389  35.307  30.042  1.00  0.00    -0.237 OA
ATOM     79  O   UNL A   1      33.933  36.135  28.309  1.00  0.00    -0.744 OA
ENDBRANCH  75  76
ENDBRANCH  56  70
BRANCH  57  80
ATOM     80  C   UNL A   1      44.497  28.217  35.477  1.00  0.00    -0.014 A 
ATOM     81  C   UNL A   1      45.790  28.716  35.247  1.00  0.00     0.010 A 
ATOM     82  C   UNL A   1      44.333  27.119  36.344  1.00  0.00     0.010 A 
ATOM     83  C   UNL A   1      46.895  28.130  35.873  1.00  0.00     0.020 A 
ATOM     84  C   UNL A   1      45.431  26.550  36.992  1.00  0.00     0.020 A 
ATOM     85  C   UNL A   1      46.708  27.055  36.748  1.00  0.00     0.054 A 
BRANCH  85  86
ATOM     86  S   UNL A   1      48.147  26.364  37.612  1.00  0.00     0.124 S 
ATOM     87  O   UNL A   1      47.940  26.840  38.976  1.00  0.00    -0.237 OA
ATOM     88  O   UNL A   1      47.976  24.927  37.411  1.00  0.00    -0.237 OA
ATOM     89  O   UNL A   1      49.285  26.953  36.909  1.00  0.00    -0.744 OA
ENDBRANCH  85  86
ENDBRANCH  57  80
BRANCH  69  90
ATOM     90  C   UNL A   1      40.342  33.528  37.312  1.00  0.00    -0.014 A 
ATOM     91  C   UNL A   1      41.063  34.733  37.389  1.00  0.00     0.010 A 
ATOM     92  C   UNL A   1      39.518  33.150  38.387  1.00  0.00     0.010 A 
ATOM     93  C   UNL A   1      40.987  35.526  38.536  1.00  0.00     0.020 A 
ATOM     94  C   UNL A   1      39.419  33.954  39.524  1.00  0.00     0.020 A 
ATOM     95  C   UNL A   1      40.168  35.130  39.599  1.00  0.00     0.054 A 
BRANCH  95  96
ATOM     96  S   UNL A   1      40.062  36.192  41.065  1.00  0.00     0.124 S 
ATOM     97  O   UNL A   1      40.935  37.303  40.699  1.00  0.00    -0.237 OA
ATOM     98  O   UNL A   1      38.636  36.507  41.133  1.00  0.00    -0.237 OA
ATOM     99  O   UNL A   1      40.556  35.340  42.146  1.00  0.00    -0.744 OA
ENDBRANCH  95  96
ENDBRANCH  69  90
ENDBRANCH  43  44
ENDBRANCH  36  38
ENDBRANCH  35  36
ENDBRANCH  34  35
ENDBRANCH  33  34
ENDBRANCH  32  33
ENDBRANCH  31  32
ENDBRANCH   1  31
TORSDOF 23
ENDMDL
MODEL 2
REMARK VINA RESULT:     -10.4      1.852      4.496
REMARK SMILES Cc1nc(NC(=O)[C@H]2[C@@H]3CC[C@@H](C3)[C@@H]2C(=O)OCCOCCOCCOC(=O)c2ccc(-c3c4nc(c(-c5ccc(S(=O)(=O)[O-])cc5)c5ccc([nH]5)c(-c5ccc(S(=O)(=O)[O-])cc5)c5nc(c(-c6ccc(S(=O)(=O)[O-])cc6)c6ccc3[nH]6)C=C5)C=C4)cc2)sc1-c1ccccc1
REMARK SMILES IDX 21 1 20 2 19 3 18 4 17 5 15 6 16 7 14 8 8 9 9 10 10 11 13 12
REMARK SMILES IDX 12 13 11 14 6 15 5 16 7 18 4 19 1 20 2 21 3 22 90 23 89 24
REMARK SMILES IDX 91 25 92 26 96 27 93 28 95 29 94 30 22 31 23 32 24 33 25 34
REMARK SMILES IDX 26 35 27 36 28 37 29 38 30 39 88 40 31 41 87 42 32 43 33 44
REMARK SMILES IDX 34 45 81 46 35 47 86 48 80 49 82 50 36 51 85 52 79 53 78 54
REMARK SMILES IDX 37 56 67 57 48 58 66 59 49 60 52 61 65 62 83 63 50 64 51 65
REMARK SMILES IDX 64 67 84 68 53 69 38 70 39 71 47 72 40 73 46 74 41 75 42 76
REMARK SMILES IDX 43 77 44 78 45 79 68 80 69 81 77 82 70 83 76 84 71 85 72 86
REMARK SMILES IDX 73 87 74 88 75 89 54 90 55 91 63 92 56 93 62 94 57 95 58 96
REMARK SMILES IDX 59 97 60 98 61 99
REMARK H PARENT 5 17 82 55 52 66
REMARK Flexibility Score: inf
ROOT
ATOM      1  C   UNL A   1      41.581  21.609  27.036  1.00  0.00     0.188 C 
ENDROOT
BRANCH   1   2
ATOM      2  O   UNL A   1      40.219  21.226  27.154  1.00  0.00    -0.376 OA
BRANCH   2   3
ATOM      3  C   UNL A   1      39.404  21.363  25.995  1.00  0.00     0.202 C 
BRANCH   3   4
ATOM      4  C   UNL A   1      38.188  22.292  26.111  1.00  0.00     0.261 C 
BRANCH   4   5
ATOM      5  O   UNL A   1      37.122  21.979  25.201  1.00  0.00    -0.463 OA
BRANCH   5   6
ATOM      6  C   UNL A   1      36.048  22.829  25.228  1.00  0.00     0.310 C 
ATOM      7  O   UNL A   1      35.975  23.848  25.897  1.00  0.00    -0.252 OA
BRANCH   6   8
ATOM      8  C   UNL A   1      34.988  22.337  24.248  1.00  0.00     0.115 C 
ATOM      9  C   UNL A   1      33.817  23.305  24.010  1.00  0.00     0.096 C 
ATOM     10  C   UNL A   1      32.620  22.526  24.616  1.00  0.00     0.003 C 
ATOM     11  C   UNL A   1      32.829  22.340  26.140  1.00  0.00     0.005 C 
ATOM     12  C   UNL A   1      32.888  21.117  24.101  1.00  0.00     0.009 C 
ATOM     13  C   UNL A   1      34.280  21.048  24.744  1.00  0.00     0.004 C 
ATOM     14  C   UNL A   1      33.869  21.208  26.218  1.00  0.00     0.005 C 
BRANCH   9  15
ATOM     15  C   UNL A   1      33.445  23.843  22.601  1.00  0.00     0.230 C 
ATOM     16  N   UNL A   1      32.698  24.912  22.228  1.00  0.00    -0.302 N 
ATOM     17  H   UNL A   1      32.690  25.077  21.257  1.00  0.00     0.172 HD
ATOM     18  O   UNL A   1      33.933  23.229  21.633  1.00  0.00    -0.274 OA
BRANCH  16  19
ATOM     19  C   UNL A   1      31.956  25.799  22.946  1.00  0.00     0.190 A 
ATOM     20  C   UNL A   1      29.230  26.237  25.140  1.00  0.00     0.068 C 
ATOM     21  C   UNL A   1      30.316  26.573  24.181  1.00  0.00     0.058 A 
ATOM     22  N   UNL A   1      31.276  25.596  24.030  1.00  0.00    -0.225 NA
ATOM     23  C   UNL A   1      30.454  27.676  23.340  1.00  0.00     0.059 A 
ATOM     24  S   UNL A   1      31.821  27.381  22.310  1.00  0.00    -0.096 S 
BRANCH  23  25
ATOM     25  C   UNL A   1      29.557  28.843  23.181  1.00  0.00    -0.006 A 
ATOM     26  C   UNL A   1      28.239  28.715  22.731  1.00  0.00     0.009 A 
ATOM     27  C   UNL A   1      29.949  30.105  23.656  1.00  0.00     0.009 A 
ATOM     28  C   UNL A   1      27.301  29.738  22.923  1.00  0.00     0.001 A 
ATOM     29  C   UNL A   1      29.022  31.135  23.841  1.00  0.00     0.001 A 
ATOM     30  C   UNL A   1      27.687  30.936  23.511  1.00  0.00     0.000 A 
ENDBRANCH  23  25
ENDBRANCH  16  19
ENDBRANCH   9  15
ENDBRANCH   6   8
ENDBRANCH   5   6
ENDBRANCH   4   5
ENDBRANCH   3   4
ENDBRANCH   2   3
ENDBRANCH   1   2
BRANCH   1  31
ATOM     31  C   UNL A   1      42.477  20.729  26.176  1.00  0.00     0.188 C 
BRANCH  31  32
ATOM     32  O   UNL A   1      43.309  21.393  25.231  1.00  0.00    -0.376 OA
BRANCH  32  33
ATOM     33  C   UNL A   1      43.921  22.583  25.752  1.00  0.00     0.202 C 
BRANCH  33  34
ATOM     34  C   UNL A   1      43.550  23.891  25.017  1.00  0.00     0.261 C 
BRANCH  34  35
ATOM     35  O   UNL A   1      42.733  24.803  25.788  1.00  0.00    -0.460 OA
BRANCH  35  36
ATOM     36  C   UNL A   1      43.291  26.000  26.056  1.00  0.00     0.338 C 
ATOM     37  O   UNL A   1      44.163  26.550  25.396  1.00  0.00    -0.246 OA
BRANCH  36  38
ATOM     38  C   UNL A   1      42.579  26.704  27.134  1.00  0.00     0.060 A 
ATOM     39  C   UNL A   1      42.784  28.085  27.263  1.00  0.00     0.016 A 
ATOM     40  C   UNL A   1      41.818  26.013  28.070  1.00  0.00     0.016 A 
ATOM     41  C   UNL A   1      42.280  28.777  28.359  1.00  0.00     0.010 A 
ATOM     42  C   UNL A   1      41.322  26.703  29.180  1.00  0.00     0.010 A 
ATOM     43  C   UNL A   1      41.586  28.077  29.350  1.00  0.00    -0.014 A 
BRANCH  43  44
ATOM     44  C   UNL A   1      41.272  28.744  30.635  1.00  0.00     0.031 A 
ATOM     45  C   UNL A   1      40.091  29.673  30.697  1.00  0.00     0.074 A 
ATOM     46  C   UNL A   1      42.008  28.506  31.735  1.00  0.00     0.049 A 
ATOM     47  N   UNL A   1      39.724  30.489  31.649  1.00  0.00    -0.248 NA
ATOM     48  C   UNL A   1      39.206  29.684  29.520  1.00  0.00     0.031 C 
ATOM     49  C   UNL A   1      43.112  27.551  31.824  1.00  0.00     0.029 A 
ATOM     50  N   UNL A   1      41.940  29.064  32.986  1.00  0.00    -0.354 N 
ATOM     51  C   UNL A   1      38.598  31.149  31.169  1.00  0.00     0.074 A 
ATOM     52  C   UNL A   1      38.337  30.632  29.843  1.00  0.00     0.031 C 
ATOM     53  C   UNL A   1      43.631  27.602  33.062  1.00  0.00     0.029 A 
ATOM     54  C   UNL A   1      42.938  28.635  33.827  1.00  0.00     0.049 A 
ATOM     55  H   UNL A   1      41.246  29.708  33.255  1.00  0.00     0.167 HD
ATOM     56  C   UNL A   1      37.862  32.110  31.777  1.00  0.00     0.031 A 
ATOM     57  C   UNL A   1      43.286  29.063  35.056  1.00  0.00     0.031 A 
ATOM     58  C   UNL A   1      38.133  32.604  33.101  1.00  0.00     0.049 A 
ATOM     59  C   UNL A   1      42.493  30.172  35.693  1.00  0.00     0.074 A 
ATOM     60  C   UNL A   1      37.454  33.577  33.814  1.00  0.00     0.029 A 
ATOM     61  N   UNL A   1      39.169  32.162  33.911  1.00  0.00    -0.354 N 
ATOM     62  N   UNL A   1      41.458  30.824  35.214  1.00  0.00    -0.248 NA
ATOM     63  C   UNL A   1      42.912  30.604  37.032  1.00  0.00     0.031 C 
ATOM     64  C   UNL A   1      38.112  33.759  35.036  1.00  0.00     0.029 A 
ATOM     65  C   UNL A   1      39.163  32.857  35.109  1.00  0.00     0.049 A 
ATOM     66  H   UNL A   1      39.813  31.457  33.670  1.00  0.00     0.167 HD
ATOM     67  C   UNL A   1      41.093  31.732  36.200  1.00  0.00     0.074 A 
ATOM     68  C   UNL A   1      42.007  31.534  37.308  1.00  0.00     0.031 C 
ATOM     69  C   UNL A   1      40.091  32.647  36.193  1.00  0.00     0.031 A 
BRANCH  56  70
ATOM     70  C   UNL A   1      36.750  32.739  30.977  1.00  0.00    -0.014 A 
ATOM     71  C   UNL A   1      35.395  32.467  31.243  1.00  0.00     0.010 A 
ATOM     72  C   UNL A   1      37.075  33.623  29.932  1.00  0.00     0.010 A 
ATOM     73  C   UNL A   1      34.392  33.024  30.443  1.00  0.00     0.020 A 
ATOM     74  C   UNL A   1      36.075  34.205  29.149  1.00  0.00     0.020 A 
ATOM     75  C   UNL A   1      34.740  33.883  29.395  1.00  0.00     0.054 A 
BRANCH  75  76
ATOM     76  S   UNL A   1      33.422  34.584  28.363  1.00  0.00     0.124 S 
ATOM     77  O   UNL A   1      32.522  35.148  29.367  1.00  0.00    -0.237 OA
ATOM     78  O   UNL A   1      34.138  35.558  27.544  1.00  0.00    -0.237 OA
ATOM     79  O   UNL A   1      32.898  33.430  27.637  1.00  0.00    -0.744 OA
ENDBRANCH  75  76
ENDBRANCH  56  70
BRANCH  57  80
ATOM     80  C   UNL A   1      44.480  28.476  35.726  1.00  0.00    -0.014 A 
ATOM     81  C   UNL A   1      45.752  29.052  35.573  1.00  0.00     0.010 A 
ATOM     82  C   UNL A   1      44.334  27.353  36.564  1.00  0.00     0.010 A 
ATOM     83  C   UNL A   1      46.855  28.518  36.249  1.00  0.00     0.020 A 
ATOM     84  C   UNL A   1      45.428  26.835  37.261  1.00  0.00     0.020 A 
ATOM     85  C   UNL A   1      46.685  27.418  37.095  1.00  0.00     0.054 A 
BRANCH  85  86
ATOM     86  S   UNL A   1      48.113  26.793  38.023  1.00  0.00     0.124 S 
ATOM     87  O   UNL A   1      49.207  27.016  37.083  1.00  0.00    -0.237 OA
ATOM     88  O   UNL A   1      48.116  27.644  39.211  1.00  0.00    -0.237 OA
ATOM     89  O   UNL A   1      47.776  25.392  38.270  1.00  0.00    -0.744 OA
ENDBRANCH  85  86
ENDBRANCH  57  80
BRANCH  69  90
ATOM     90  C   UNL A   1      39.913  33.481  37.435  1.00  0.00    -0.014 A 
ATOM     91  C   UNL A   1      40.640  34.669  37.629  1.00  0.00     0.010 A 
ATOM     92  C   UNL A   1      38.968  33.088  38.400  1.00  0.00     0.010 A 
ATOM     93  C   UNL A   1      40.451  35.429  38.785  1.00  0.00     0.020 A 
ATOM     94  C   UNL A   1      38.758  33.860  39.544  1.00  0.00     0.020 A 
ATOM     95  C   UNL A   1      39.513  35.018  39.738  1.00  0.00     0.054 A 
BRANCH  95  96
ATOM     96  S   UNL A   1      39.263  36.038  41.216  1.00  0.00     0.124 S 
ATOM     97  O   UNL A   1      37.894  35.698  41.591  1.00  0.00    -0.237 OA
ATOM     98  O   UNL A   1      40.302  35.552  42.123  1.00  0.00    -0.237 OA
ATOM     99  O   UNL A   1      39.457  37.403  40.733  1.00  0.00    -0.744 OA
ENDBRANCH  95  96
ENDBRANCH  69  90
ENDBRANCH  43  44
ENDBRANCH  36  38
ENDBRANCH  35  36
ENDBRANCH  34  35
ENDBRANCH  33  34
ENDBRANCH  32  33
ENDBRANCH  31  32
ENDBRANCH   1  31
TORSDOF 23
ENDMDL
MODEL 3
REMARK VINA RESULT:      -9.1      5.962      8.229
REMARK SMILES Cc1nc(NC(=O)[C@H]2[C@@H]3CC[C@@H](C3)[C@@H]2C(=O)OCCOCCOCCOC(=O)c2ccc(-c3c4nc(c(-c5ccc(S(=O)(=O)[O-])cc5)c5ccc([nH]5)c(-c5ccc(S(=O)(=O)[O-])cc5)c5nc(c(-c6ccc(S(=O)(=O)[O-])cc6)c6ccc3[nH]6)C=C5)C=C4)cc2)sc1-c1ccccc1
REMARK SMILES IDX 21 1 20 2 19 3 18 4 17 5 15 6 16 7 14 8 8 9 9 10 10 11 13 12
REMARK SMILES IDX 12 13 11 14 6 15 5 16 7 18 4 19 1 20 2 21 3 22 90 23 89 24
REMARK SMILES IDX 91 25 92 26 96 27 93 28 95 29 94 30 22 31 23 32 24 33 25 34
REMARK SMILES IDX 26 35 27 36 28 37 29 38 30 39 88 40 31 41 87 42 32 43 33 44
REMARK SMILES IDX 34 45 81 46 35 47 86 48 80 49 82 50 36 51 85 52 79 53 78 54
REMARK SMILES IDX 37 56 67 57 48 58 66 59 49 60 52 61 65 62 83 63 50 64 51 65
REMARK SMILES IDX 64 67 84 68 53 69 38 70 39 71 47 72 40 73 46 74 41 75 42 76
REMARK SMILES IDX 43 77 44 78 45 79 68 80 69 81 77 82 70 83 76 84 71 85 72 86
REMARK SMILES IDX 73 87 74 88 75 89 54 90 55 91 63 92 56 93 62 94 57 95 58 96
REMARK SMILES IDX 59 97 60 98 61 99
REMARK H PARENT 5 17 82 55 52 66
REMARK Flexibility Score: inf
ROOT
ATOM      1  C   UNL A   1      37.693  23.757  26.056  1.00  0.00     0.188 C 
ENDROOT
BRANCH   1   2
ATOM      2  O   UNL A   1      36.369  23.275  25.888  1.00  0.00    -0.376 OA
BRANCH   2   3
ATOM      3  C   UNL A   1      35.490  24.057  25.086  1.00  0.00     0.202 C 
BRANCH   3   4
ATOM      4  C   UNL A   1      34.867  25.294  25.748  1.00  0.00     0.261 C 
BRANCH   4   5
ATOM      5  O   UNL A   1      33.439  25.232  25.877  1.00  0.00    -0.463 OA
BRANCH   5   6
ATOM      6  C   UNL A   1      32.802  26.437  26.022  1.00  0.00     0.310 C 
ATOM      7  O   UNL A   1      32.765  27.093  27.051  1.00  0.00    -0.252 OA
BRANCH   6   8
ATOM      8  C   UNL A   1      32.201  26.856  24.684  1.00  0.00     0.115 C 
ATOM      9  C   UNL A   1      33.191  27.487  23.691  1.00  0.00     0.096 C 
ATOM     10  C   UNL A   1      32.669  28.945  23.591  1.00  0.00     0.003 C 
ATOM     11  C   UNL A   1      32.802  29.649  24.964  1.00  0.00     0.005 C 
ATOM     12  C   UNL A   1      31.164  28.720  23.513  1.00  0.00     0.009 C 
ATOM     13  C   UNL A   1      31.117  27.955  24.843  1.00  0.00     0.004 C 
ATOM     14  C   UNL A   1      31.628  29.067  25.774  1.00  0.00     0.005 C 
BRANCH   9  15
ATOM     15  C   UNL A   1      33.438  26.910  22.271  1.00  0.00     0.230 C 
ATOM     16  N   UNL A   1      33.116  25.706  21.733  1.00  0.00    -0.302 N 
ATOM     17  H   UNL A   1      33.319  25.629  20.773  1.00  0.00     0.172 HD
ATOM     18  O   UNL A   1      33.991  27.673  21.456  1.00  0.00    -0.274 OA
BRANCH  16  19
ATOM     19  C   UNL A   1      32.566  24.585  22.276  1.00  0.00     0.190 A 
ATOM     20  C   UNL A   1      30.709  23.235  24.953  1.00  0.00     0.068 C 
ATOM     21  C   UNL A   1      31.583  23.292  23.750  1.00  0.00     0.058 A 
ATOM     22  N   UNL A   1      31.540  24.485  23.061  1.00  0.00    -0.225 NA
ATOM     23  C   UNL A   1      32.510  22.365  23.277  1.00  0.00     0.059 A 
ATOM     24  S   UNL A   1      33.365  23.107  21.958  1.00  0.00    -0.096 S 
BRANCH  23  25
ATOM     25  C   UNL A   1      32.872  21.042  23.833  1.00  0.00    -0.006 A 
ATOM     26  C   UNL A   1      32.223  19.866  23.441  1.00  0.00     0.009 A 
ATOM     27  C   UNL A   1      34.009  20.903  24.644  1.00  0.00     0.009 A 
ATOM     28  C   UNL A   1      32.789  18.608  23.681  1.00  0.00     0.001 A 
ATOM     29  C   UNL A   1      34.575  19.650  24.898  1.00  0.00     0.001 A 
ATOM     30  C   UNL A   1      33.985  18.502  24.381  1.00  0.00     0.000 A 
ENDBRANCH  23  25
ENDBRANCH  16  19
ENDBRANCH   9  15
ENDBRANCH   6   8
ENDBRANCH   5   6
ENDBRANCH   4   5
ENDBRANCH   3   4
ENDBRANCH   2   3
ENDBRANCH   1   2
BRANCH   1  31
ATOM     31  C   UNL A   1      38.741  22.756  26.523  1.00  0.00     0.188 C 
BRANCH  31  32
ATOM     32  O   UNL A   1      39.366  21.967  25.516  1.00  0.00    -0.376 OA
BRANCH  32  33
ATOM     33  C   UNL A   1      39.070  20.567  25.628  1.00  0.00     0.202 C 
BRANCH  33  34
ATOM     34  C   UNL A   1      40.260  19.672  26.044  1.00  0.00     0.261 C 
BRANCH  34  35
ATOM     35  O   UNL A   1      41.393  20.392  26.587  1.00  0.00    -0.460 OA
BRANCH  35  36
ATOM     36  C   UNL A   1      42.518  20.349  25.847  1.00  0.00     0.338 C 
ATOM     37  O   UNL A   1      42.839  19.452  25.079  1.00  0.00    -0.246 OA
BRANCH  36  38
ATOM     38  C   UNL A   1      43.247  21.626  25.890  1.00  0.00     0.060 A 
ATOM     39  C   UNL A   1      44.372  21.711  26.725  1.00  0.00     0.016 A 
ATOM     40  C   UNL A   1      42.779  22.750  25.220  1.00  0.00     0.016 A 
ATOM     41  C   UNL A   1      45.001  22.931  26.943  1.00  0.00     0.010 A 
ATOM     42  C   UNL A   1      43.401  23.981  25.449  1.00  0.00     0.010 A 
ATOM     43  C   UNL A   1      44.487  24.084  26.342  1.00  0.00    -0.014 A 
BRANCH  43  44
ATOM     44  C   UNL A   1      44.981  25.414  26.765  1.00  0.00     0.031 A 
ATOM     45  C   UNL A   1      44.010  26.384  27.381  1.00  0.00     0.074 A 
ATOM     46  C   UNL A   1      46.277  25.746  26.628  1.00  0.00     0.049 A 
ATOM     47  N   UNL A   1      44.167  27.648  27.669  1.00  0.00    -0.248 NA
ATOM     48  C   UNL A   1      42.678  25.851  27.713  1.00  0.00     0.031 C 
ATOM     49  C   UNL A   1      47.331  24.857  26.139  1.00  0.00     0.029 A 
ATOM     50  N   UNL A   1      46.922  26.931  26.878  1.00  0.00    -0.354 N 
ATOM     51  C   UNL A   1      42.942  28.077  28.167  1.00  0.00     0.074 A 
ATOM     52  C   UNL A   1      42.054  26.936  28.149  1.00  0.00     0.031 C 
ATOM     53  C   UNL A   1      48.491  25.534  26.108  1.00  0.00     0.029 A 
ATOM     54  C   UNL A   1      48.247  26.916  26.514  1.00  0.00     0.049 A 
ATOM     55  H   UNL A   1      46.480  27.714  27.279  1.00  0.00     0.167 HD
ATOM     56  C   UNL A   1      42.591  29.317  28.585  1.00  0.00     0.031 A 
ATOM     57  C   UNL A   1      49.148  27.916  26.463  1.00  0.00     0.031 A 
ATOM     58  C   UNL A   1      43.493  30.438  28.604  1.00  0.00     0.049 A 
ATOM     59  C   UNL A   1      48.724  29.299  26.876  1.00  0.00     0.074 A 
ATOM     60  C   UNL A   1      43.244  31.739  29.005  1.00  0.00     0.029 A 
ATOM     61  N   UNL A   1      44.820  30.389  28.203  1.00  0.00    -0.354 N 
ATOM     62  N   UNL A   1      47.551  29.709  27.302  1.00  0.00    -0.248 NA
ATOM     63  C   UNL A   1      49.742  30.355  26.802  1.00  0.00     0.031 C 
ATOM     64  C   UNL A   1      44.407  32.488  28.797  1.00  0.00     0.029 A 
ATOM     65  C   UNL A   1      45.399  31.641  28.325  1.00  0.00     0.049 A 
ATOM     66  H   UNL A   1      45.283  29.583  27.880  1.00  0.00     0.167 HD
ATOM     67  C   UNL A   1      47.694  31.067  27.561  1.00  0.00     0.074 A 
ATOM     68  C   UNL A   1      49.071  31.405  27.261  1.00  0.00     0.031 C 
ATOM     69  C   UNL A   1      46.771  31.955  28.009  1.00  0.00     0.031 A 
BRANCH  56  70
ATOM     70  C   UNL A   1      41.151  29.535  28.975  1.00  0.00    -0.014 A 
ATOM     71  C   UNL A   1      40.093  29.301  28.077  1.00  0.00     0.010 A 
ATOM     72  C   UNL A   1      40.856  29.987  30.273  1.00  0.00     0.010 A 
ATOM     73  C   UNL A   1      38.773  29.569  28.455  1.00  0.00     0.020 A 
ATOM     74  C   UNL A   1      39.536  30.229  30.665  1.00  0.00     0.020 A 
ATOM     75  C   UNL A   1      38.505  30.041  29.744  1.00  0.00     0.054 A 
BRANCH  75  76
ATOM     76  S   UNL A   1      36.786  30.394  30.207  1.00  0.00     0.124 S 
ATOM     77  O   UNL A   1      36.953  31.471  31.181  1.00  0.00    -0.237 OA
ATOM     78  O   UNL A   1      36.184  30.785  28.936  1.00  0.00    -0.237 OA
ATOM     79  O   UNL A   1      36.307  29.129  30.758  1.00  0.00    -0.744 OA
ENDBRANCH  75  76
ENDBRANCH  56  70
BRANCH  57  80
ATOM     80  C   UNL A   1      50.516  27.644  25.943  1.00  0.00    -0.014 A 
ATOM     81  C   UNL A   1      51.542  27.209  26.799  1.00  0.00     0.010 A 
ATOM     82  C   UNL A   1      50.784  27.776  24.567  1.00  0.00     0.010 A 
ATOM     83  C   UNL A   1      52.809  26.909  26.287  1.00  0.00     0.020 A 
ATOM     84  C   UNL A   1      52.040  27.450  24.049  1.00  0.00     0.020 A 
ATOM     85  C   UNL A   1      53.048  27.024  24.914  1.00  0.00     0.054 A 
BRANCH  85  86
ATOM     86  S   UNL A   1      54.675  26.552  24.261  1.00  0.00     0.124 S 
ATOM     87  O   UNL A   1      54.453  26.614  22.820  1.00  0.00    -0.237 OA
ATOM     88  O   UNL A   1      55.549  27.584  24.812  1.00  0.00    -0.237 OA
ATOM     89  O   UNL A   1      54.886  25.211  24.805  1.00  0.00    -0.744 OA
ENDBRANCH  85  86
ENDBRANCH  57  80
BRANCH  69  90
ATOM     90  C   UNL A   1      47.232  33.371  28.232  1.00  0.00    -0.014 A 
ATOM     91  C   UNL A   1      47.752  33.784  29.472  1.00  0.00     0.010 A 
ATOM     92  C   UNL A   1      47.182  34.289  27.167  1.00  0.00     0.010 A 
ATOM     93  C   UNL A   1      48.181  35.101  29.651  1.00  0.00     0.020 A 
ATOM     94  C   UNL A   1      47.635  35.599  27.336  1.00  0.00     0.020 A 
ATOM     95  C   UNL A   1      48.116  36.002  28.583  1.00  0.00     0.054 A 
BRANCH  95  96
ATOM     96  S   UNL A   1      48.707  37.698  28.832  1.00  0.00     0.124 S 
ATOM     97  O   UNL A   1      49.037  38.107  27.470  1.00  0.00    -0.237 OA
ATOM     98  O   UNL A   1      47.546  38.361  29.424  1.00  0.00    -0.237 OA
ATOM     99  O   UNL A   1      49.849  37.540  29.729  1.00  0.00    -0.744 OA
ENDBRANCH  95  96
ENDBRANCH  69  90
ENDBRANCH  43  44
ENDBRANCH  36  38
ENDBRANCH  35  36
ENDBRANCH  34  35
ENDBRANCH  33  34
ENDBRANCH  32  33
ENDBRANCH  31  32
ENDBRANCH   1  31
TORSDOF 23
ENDMDL
