MODEL 1
REMARK VINA RESULT:      -9.2      0.000      0.000
REMARK SMILES COc1cc(/C=C/C(=O)c2ccc(OCC(=O)OCCOCCOCCOC(=O)c3ccc(-c4c5nc(c(-c6ccc(S(=O)(=O)[O-])cc6)c6ccc([nH]6)c(-c6ccc(S(=O)(=O)[O-])cc6)c6nc(c(-c7ccc(S(=O)(=O)[O-])cc7)c7ccc4[nH]7)C=C6)C=C5)cc3)cc2)cc2c1OCCO2
REMARK SMILES IDX 21 1 20 2 19 3 18 4 16 5 17 6 15 7 14 8 13 9 10 10 11 11
REMARK SMILES IDX 91 12 12 13 90 14 8 15 9 16 7 17 6 18 5 19 3 20 4 21 94 22
REMARK SMILES IDX 93 23 95 24 92 25 98 26 96 27 97 28 2 29 1 30 22 31 23 32
REMARK SMILES IDX 24 33 25 34 26 35 27 36 28 37 29 38 30 39 31 40 89 41 32 42
REMARK SMILES IDX 88 43 33 44 34 45 35 46 82 47 36 48 87 49 81 50 83 51 37 52
REMARK SMILES IDX 86 53 80 54 79 55 38 57 68 58 49 59 67 60 50 61 53 62 66 63
REMARK SMILES IDX 84 64 51 65 52 66 65 68 85 69 54 70 39 71 40 72 48 73 41 74
REMARK SMILES IDX 47 75 42 76 43 77 44 78 45 79 46 80 69 81 70 82 78 83 71 84
REMARK SMILES IDX 77 85 72 86 73 87 74 88 75 89 76 90 55 91 56 92 64 93 57 94
REMARK SMILES IDX 63 95 58 96 59 97 60 98 61 99 62 100
REMARK H PARENT 83 56 53 67
REMARK Flexibility Score: inf
ROOT
ATOM      1  O   UNL A   1      43.472  18.282  25.635  1.00  0.00    -0.376 OA
ENDROOT
BRANCH   1   2
ATOM      2  C   UNL A   1      42.722  19.050  26.574  1.00  0.00     0.202 C 
BRANCH   2   3
ATOM      3  C   UNL A   1      41.298  19.385  26.111  1.00  0.00     0.261 C 
BRANCH   3   4
ATOM      4  O   UNL A   1      41.134  20.818  25.965  1.00  0.00    -0.461 OA
BRANCH   4   5
ATOM      5  C   UNL A   1      40.257  21.436  26.800  1.00  0.00     0.344 C 
ATOM      6  O   UNL A   1      40.508  21.725  27.965  1.00  0.00    -0.248 OA
BRANCH   5   7
ATOM      7  C   UNL A   1      38.968  21.896  26.079  1.00  0.00     0.351 C 
BRANCH   7   8
ATOM      8  O   UNL A   1      38.234  20.916  25.351  1.00  0.00    -0.482 OA
BRANCH   8   9
ATOM      9  C   UNL A   1      37.024  21.241  24.785  1.00  0.00     0.120 A 
ATOM     10  C   UNL A   1      34.646  22.417  23.742  1.00  0.00     0.022 A 
ATOM     11  C   UNL A   1      35.911  22.851  23.324  1.00  0.00     0.016 A 
ATOM     12  C   UNL A   1      34.581  21.297  24.576  1.00  0.00     0.016 A 
ATOM     13  C   UNL A   1      37.082  22.274  23.847  1.00  0.00     0.047 A 
ATOM     14  C   UNL A   1      35.769  20.701  25.082  1.00  0.00     0.047 A 
BRANCH  10  15
ATOM     15  C   UNL A   1      33.464  23.237  23.305  1.00  0.00     0.185 C 
ATOM     16  O   UNL A   1      32.944  23.003  22.218  1.00  0.00    -0.289 OA
BRANCH  15  17
ATOM     17  C   UNL A   1      33.071  24.445  24.113  1.00  0.00     0.053 C 
ATOM     18  C   UNL A   1      33.174  25.663  23.536  1.00  0.00     0.012 C 
BRANCH  18  19
ATOM     19  C   UNL A   1      33.127  26.981  24.215  1.00  0.00    -0.018 A 
ATOM     20  C   UNL A   1      31.846  29.060  24.622  1.00  0.00     0.165 A 
ATOM     21  C   UNL A   1      32.022  27.812  23.999  1.00  0.00     0.058 A 
ATOM     22  C   UNL A   1      32.746  29.440  25.608  1.00  0.00     0.203 A 
ATOM     23  C   UNL A   1      33.818  28.576  25.910  1.00  0.00     0.165 A 
ATOM     24  O   UNL A   1      32.507  30.595  26.309  1.00  0.00    -0.483 OA
ATOM     25  C   UNL A   1      34.035  27.383  25.189  1.00  0.00     0.058 A 
ATOM     26  O   UNL A   1      34.683  28.819  26.952  1.00  0.00    -0.486 OA
ATOM     27  C   UNL A   1      33.578  30.952  27.184  1.00  0.00     0.271 C 
ATOM     28  C   UNL A   1      34.102  29.723  27.899  1.00  0.00     0.271 C 
BRANCH  20  29
ATOM     29  O   UNL A   1      30.725  29.740  24.222  1.00  0.00    -0.493 OA
ATOM     30  C   UNL A   1      29.809  29.045  23.377  1.00  0.00     0.278 C 
ENDBRANCH  20  29
ENDBRANCH  18  19
ENDBRANCH  15  17
ENDBRANCH  10  15
ENDBRANCH   8   9
ENDBRANCH   7   8
ENDBRANCH   5   7
ENDBRANCH   4   5
ENDBRANCH   3   4
ENDBRANCH   2   3
ENDBRANCH   1   2
BRANCH   1  31
ATOM     31  C   UNL A   1      43.964  18.980  24.493  1.00  0.00     0.188 C 
BRANCH  31  32
ATOM     32  C   UNL A   1      44.959  20.116  24.764  1.00  0.00     0.188 C 
BRANCH  32  33
ATOM     33  O   UNL A   1      44.479  21.364  24.278  1.00  0.00    -0.376 OA
BRANCH  33  34
ATOM     34  C   UNL A   1      44.060  22.243  25.311  1.00  0.00     0.202 C 
BRANCH  34  35
ATOM     35  C   UNL A   1      43.777  23.649  24.766  1.00  0.00     0.261 C 
BRANCH  35  36
ATOM     36  O   UNL A   1      42.572  24.356  25.187  1.00  0.00    -0.460 OA
BRANCH  36  37
ATOM     37  C   UNL A   1      42.672  25.669  25.469  1.00  0.00     0.338 C 
ATOM     38  O   UNL A   1      42.262  26.575  24.767  1.00  0.00    -0.246 OA
BRANCH  37  39
ATOM     39  C   UNL A   1      43.327  25.984  26.754  1.00  0.00     0.060 A 
ATOM     40  C   UNL A   1      42.992  25.198  27.858  1.00  0.00     0.016 A 
ATOM     41  C   UNL A   1      43.998  27.192  26.950  1.00  0.00     0.016 A 
ATOM     42  C   UNL A   1      43.270  25.642  29.154  1.00  0.00     0.010 A 
ATOM     43  C   UNL A   1      44.319  27.616  28.250  1.00  0.00     0.010 A 
ATOM     44  C   UNL A   1      43.951  26.852  29.369  1.00  0.00    -0.014 A 
BRANCH  44  45
ATOM     45  C   UNL A   1      44.383  27.242  30.743  1.00  0.00     0.031 A 
ATOM     46  C   UNL A   1      45.608  26.666  31.407  1.00  0.00     0.074 A 
ATOM     47  C   UNL A   1      43.625  28.127  31.422  1.00  0.00     0.049 A 
ATOM     48  N   UNL A   1      46.019  26.816  32.643  1.00  0.00    -0.248 NA
ATOM     49  C   UNL A   1      46.490  25.827  30.583  1.00  0.00     0.031 C 
ATOM     50  C   UNL A   1      42.431  28.792  30.894  1.00  0.00     0.029 A 
ATOM     51  N   UNL A   1      43.741  28.618  32.699  1.00  0.00    -0.354 N 
ATOM     52  C   UNL A   1      47.189  26.073  32.759  1.00  0.00     0.074 A 
ATOM     53  C   UNL A   1      47.428  25.477  31.458  1.00  0.00     0.031 C 
ATOM     54  C   UNL A   1      41.935  29.613  31.829  1.00  0.00     0.029 A 
ATOM     55  C   UNL A   1      42.724  29.475  33.048  1.00  0.00     0.049 A 
ATOM     56  H   UNL A   1      44.480  28.379  33.305  1.00  0.00     0.167 HD
ATOM     57  C   UNL A   1      47.982  25.896  33.847  1.00  0.00     0.031 A 
ATOM     58  C   UNL A   1      42.417  30.052  34.225  1.00  0.00     0.031 A 
ATOM     59  C   UNL A   1      47.744  26.483  35.144  1.00  0.00     0.049 A 
ATOM     60  C   UNL A   1      43.266  29.782  35.430  1.00  0.00     0.074 A 
ATOM     61  C   UNL A   1      48.498  26.352  36.300  1.00  0.00     0.029 A 
ATOM     62  N   UNL A   1      46.677  27.307  35.463  1.00  0.00    -0.354 N 
ATOM     63  N   UNL A   1      44.345  29.045  35.523  1.00  0.00    -0.248 NA
ATOM     64  C   UNL A   1      42.845  30.411  36.689  1.00  0.00     0.031 C 
ATOM     65  C   UNL A   1      47.862  27.060  37.327  1.00  0.00     0.029 A 
ATOM     66  C   UNL A   1      46.738  27.671  36.800  1.00  0.00     0.049 A 
ATOM     67  H   UNL A   1      45.976  27.592  34.832  1.00  0.00     0.167 HD
ATOM     68  C   UNL A   1      44.735  29.123  36.854  1.00  0.00     0.074 A 
ATOM     69  C   UNL A   1      43.790  29.995  37.522  1.00  0.00     0.031 C 
ATOM     70  C   UNL A   1      45.785  28.520  37.465  1.00  0.00     0.031 A 
BRANCH  57  71
ATOM     71  C   UNL A   1      49.175  24.983  33.709  1.00  0.00    -0.014 A 
ATOM     72  C   UNL A   1      49.110  23.629  34.080  1.00  0.00     0.010 A 
ATOM     73  C   UNL A   1      50.356  25.472  33.118  1.00  0.00     0.010 A 
ATOM     74  C   UNL A   1      50.213  22.788  33.890  1.00  0.00     0.020 A 
ATOM     75  C   UNL A   1      51.453  24.631  32.908  1.00  0.00     0.020 A 
ATOM     76  C   UNL A   1      51.381  23.296  33.312  1.00  0.00     0.054 A 
BRANCH  76  77
ATOM     77  S   UNL A   1      52.791  22.184  33.052  1.00  0.00     0.124 S 
ATOM     78  O   UNL A   1      52.945  21.582  34.374  1.00  0.00    -0.237 OA
ATOM     79  O   UNL A   1      52.307  21.285  32.006  1.00  0.00    -0.237 OA
ATOM     80  O   UNL A   1      53.870  23.080  32.647  1.00  0.00    -0.744 OA
ENDBRANCH  76  77
ENDBRANCH  57  71
BRANCH  58  81
ATOM     81  C   UNL A   1      41.202  30.901  34.315  1.00  0.00    -0.014 A 
ATOM     82  C   UNL A   1      41.279  32.286  34.098  1.00  0.00     0.010 A 
ATOM     83  C   UNL A   1      39.948  30.309  34.556  1.00  0.00     0.010 A 
ATOM     84  C   UNL A   1      40.120  33.065  34.113  1.00  0.00     0.020 A 
ATOM     85  C   UNL A   1      38.785  31.081  34.544  1.00  0.00     0.020 A 
ATOM     86  C   UNL A   1      38.880  32.456  34.328  1.00  0.00     0.054 A 
BRANCH  86  87
ATOM     87  S   UNL A   1      37.374  33.466  34.244  1.00  0.00     0.124 S 
ATOM     88  O   UNL A   1      36.718  32.930  33.057  1.00  0.00    -0.237 OA
ATOM     89  O   UNL A   1      36.721  33.171  35.517  1.00  0.00    -0.237 OA
ATOM     90  O   UNL A   1      37.888  34.827  34.119  1.00  0.00    -0.744 OA
ENDBRANCH  86  87
ENDBRANCH  58  81
BRANCH  70  91
ATOM     91  C   UNL A   1      45.967  28.795  38.932  1.00  0.00    -0.014 A 
ATOM     92  C   UNL A   1      46.695  29.915  39.372  1.00  0.00     0.010 A 
ATOM     93  C   UNL A   1      45.396  27.930  39.883  1.00  0.00     0.010 A 
ATOM     94  C   UNL A   1      46.878  30.147  40.739  1.00  0.00     0.020 A 
ATOM     95  C   UNL A   1      45.561  28.169  41.250  1.00  0.00     0.020 A 
ATOM     96  C   UNL A   1      46.316  29.268  41.670  1.00  0.00     0.054 A 
BRANCH  96  97
ATOM     97  S   UNL A   1      46.547  29.596  43.439  1.00  0.00     0.124 S 
ATOM     98  O   UNL A   1      47.980  29.864  43.513  1.00  0.00    -0.237 OA
ATOM     99  O   UNL A   1      45.680  30.748  43.671  1.00  0.00    -0.237 OA
ATOM    100  O   UNL A   1      46.110  28.357  44.079  1.00  0.00    -0.744 OA
ENDBRANCH  96  97
ENDBRANCH  70  91
ENDBRANCH  44  45
ENDBRANCH  37  39
ENDBRANCH  36  37
ENDBRANCH  35  36
ENDBRANCH  34  35
ENDBRANCH  33  34
ENDBRANCH  32  33
ENDBRANCH  31  32
ENDBRANCH   1  31
TORSDOF 26
ENDMDL
MODEL 2
REMARK VINA RESULT:      -8.2      5.440     11.938
REMARK SMILES COc1cc(/C=C/C(=O)c2ccc(OCC(=O)OCCOCCOCCOC(=O)c3ccc(-c4c5nc(c(-c6ccc(S(=O)(=O)[O-])cc6)c6ccc([nH]6)c(-c6ccc(S(=O)(=O)[O-])cc6)c6nc(c(-c7ccc(S(=O)(=O)[O-])cc7)c7ccc4[nH]7)C=C6)C=C5)cc3)cc2)cc2c1OCCO2
REMARK SMILES IDX 21 1 20 2 19 3 18 4 16 5 17 6 15 7 14 8 13 9 10 10 11 11
REMARK SMILES IDX 91 12 12 13 90 14 8 15 9 16 7 17 6 18 5 19 3 20 4 21 94 22
REMARK SMILES IDX 93 23 95 24 92 25 98 26 96 27 97 28 2 29 1 30 22 31 23 32
REMARK SMILES IDX 24 33 25 34 26 35 27 36 28 37 29 38 30 39 31 40 89 41 32 42
REMARK SMILES IDX 88 43 33 44 34 45 35 46 82 47 36 48 87 49 81 50 83 51 37 52
REMARK SMILES IDX 86 53 80 54 79 55 38 57 68 58 49 59 67 60 50 61 53 62 66 63
REMARK SMILES IDX 84 64 51 65 52 66 65 68 85 69 54 70 39 71 40 72 48 73 41 74
REMARK SMILES IDX 47 75 42 76 43 77 44 78 45 79 46 80 69 81 70 82 78 83 71 84
REMARK SMILES IDX 77 85 72 86 73 87 74 88 75 89 76 90 55 91 56 92 64 93 57 94
REMARK SMILES IDX 63 95 58 96 59 97 60 98 61 99 62 100
REMARK H PARENT 83 56 53 67
REMARK Flexibility Score: inf
ROOT
ATOM      1  O   UNL A   1      43.890  26.751  27.659  1.00  0.00    -0.376 OA
ENDROOT
BRANCH   1   2
ATOM      2  C   UNL A   1      42.879  25.818  27.286  1.00  0.00     0.202 C 
BRANCH   2   3
ATOM      3  C   UNL A   1      41.488  26.146  27.846  1.00  0.00     0.261 C 
BRANCH   3   4
ATOM      4  O   UNL A   1      40.664  26.769  26.830  1.00  0.00    -0.461 OA
BRANCH   4   5
ATOM      5  C   UNL A   1      40.615  28.127  26.808  1.00  0.00     0.344 C 
ATOM      6  O   UNL A   1      41.421  28.833  26.213  1.00  0.00    -0.248 OA
BRANCH   5   7
ATOM      7  C   UNL A   1      39.333  28.689  27.470  1.00  0.00     0.351 C 
BRANCH   7   8
ATOM      8  O   UNL A   1      39.492  29.702  28.458  1.00  0.00    -0.482 OA
BRANCH   8   9
ATOM      9  C   UNL A   1      39.746  29.357  29.764  1.00  0.00     0.120 A 
ATOM     10  C   UNL A   1      40.108  29.139  32.583  1.00  0.00     0.022 A 
ATOM     11  C   UNL A   1      38.873  29.514  32.040  1.00  0.00     0.016 A 
ATOM     12  C   UNL A   1      41.116  28.738  31.702  1.00  0.00     0.016 A 
ATOM     13  C   UNL A   1      38.700  29.628  30.650  1.00  0.00     0.047 A 
ATOM     14  C   UNL A   1      40.927  28.831  30.295  1.00  0.00     0.047 A 
BRANCH  10  15
ATOM     15  C   UNL A   1      40.265  29.263  34.073  1.00  0.00     0.185 C 
ATOM     16  O   UNL A   1      39.545  30.046  34.687  1.00  0.00    -0.289 OA
BRANCH  15  17
ATOM     17  C   UNL A   1      41.424  28.577  34.749  1.00  0.00     0.053 C 
ATOM     18  C   UNL A   1      41.413  27.229  34.828  1.00  0.00     0.012 C 
BRANCH  18  19
ATOM     19  C   UNL A   1      42.275  26.377  35.683  1.00  0.00    -0.018 A 
ATOM     20  C   UNL A   1      43.797  24.428  35.804  1.00  0.00     0.165 A 
ATOM     21  C   UNL A   1      42.921  25.278  35.106  1.00  0.00     0.058 A 
ATOM     22  C   UNL A   1      44.149  24.765  37.105  1.00  0.00     0.203 A 
ATOM     23  C   UNL A   1      43.581  25.920  37.678  1.00  0.00     0.165 A 
ATOM     24  O   UNL A   1      45.101  24.012  37.746  1.00  0.00    -0.483 OA
ATOM     25  C   UNL A   1      42.618  26.691  36.994  1.00  0.00     0.058 A 
ATOM     26  O   UNL A   1      43.967  26.391  38.912  1.00  0.00    -0.486 OA
ATOM     27  C   UNL A   1      45.263  24.365  39.120  1.00  0.00     0.271 C 
ATOM     28  C   UNL A   1      45.251  25.873  39.279  1.00  0.00     0.271 C 
BRANCH  20  29
ATOM     29  O   UNL A   1      44.273  23.374  35.067  1.00  0.00    -0.493 OA
ATOM     30  C   UNL A   1      43.618  23.097  33.831  1.00  0.00     0.278 C 
ENDBRANCH  20  29
ENDBRANCH  18  19
ENDBRANCH  15  17
ENDBRANCH  10  15
ENDBRANCH   8   9
ENDBRANCH   7   8
ENDBRANCH   5   7
ENDBRANCH   4   5
ENDBRANCH   3   4
ENDBRANCH   2   3
ENDBRANCH   1   2
BRANCH   1  31
ATOM     31  C   UNL A   1      44.987  26.234  28.410  1.00  0.00     0.188 C 
BRANCH  31  32
ATOM     32  C   UNL A   1      46.386  26.698  27.981  1.00  0.00     0.188 C 
BRANCH  32  33
ATOM     33  O   UNL A   1      46.612  28.063  28.310  1.00  0.00    -0.376 OA
BRANCH  33  34
ATOM     34  C   UNL A   1      47.052  28.838  27.205  1.00  0.00     0.202 C 
BRANCH  34  35
ATOM     35  C   UNL A   1      45.874  29.527  26.502  1.00  0.00     0.261 C 
BRANCH  35  36
ATOM     36  O   UNL A   1      46.101  30.759  25.755  1.00  0.00    -0.460 OA
BRANCH  36  37
ATOM     37  C   UNL A   1      45.397  31.852  26.103  1.00  0.00     0.338 C 
ATOM     38  O   UNL A   1      45.171  32.806  25.382  1.00  0.00    -0.246 OA
BRANCH  37  39
ATOM     39  C   UNL A   1      44.864  31.839  27.480  1.00  0.00     0.060 A 
ATOM     40  C   UNL A   1      43.946  30.840  27.806  1.00  0.00     0.016 A 
ATOM     41  C   UNL A   1      45.009  32.942  28.324  1.00  0.00     0.016 A 
ATOM     42  C   UNL A   1      43.133  30.968  28.936  1.00  0.00     0.010 A 
ATOM     43  C   UNL A   1      44.224  33.046  29.485  1.00  0.00     0.010 A 
ATOM     44  C   UNL A   1      43.270  32.066  29.801  1.00  0.00    -0.014 A 
BRANCH  44  45
ATOM     45  C   UNL A   1      42.511  32.116  31.085  1.00  0.00     0.031 A 
ATOM     46  C   UNL A   1      41.083  32.592  31.171  1.00  0.00     0.074 A 
ATOM     47  C   UNL A   1      43.146  31.740  32.214  1.00  0.00     0.049 A 
ATOM     48  N   UNL A   1      40.355  32.813  32.239  1.00  0.00    -0.248 NA
ATOM     49  C   UNL A   1      40.379  32.844  29.905  1.00  0.00     0.031 C 
ATOM     50  C   UNL A   1      44.516  31.225  32.278  1.00  0.00     0.029 A 
ATOM     51  N   UNL A   1      42.728  31.736  33.522  1.00  0.00    -0.354 N 
ATOM     52  C   UNL A   1      39.116  33.254  31.783  1.00  0.00     0.074 A 
ATOM     53  C   UNL A   1      39.192  33.261  30.334  1.00  0.00     0.031 C 
ATOM     54  C   UNL A   1      44.819  30.940  33.551  1.00  0.00     0.029 A 
ATOM     55  C   UNL A   1      43.700  31.326  34.403  1.00  0.00     0.049 A 
ATOM     56  H   UNL A   1      41.821  32.001  33.801  1.00  0.00     0.167 HD
ATOM     57  C   UNL A   1      38.027  33.626  32.502  1.00  0.00     0.031 A 
ATOM     58  C   UNL A   1      43.724  31.305  35.749  1.00  0.00     0.031 A 
ATOM     59  C   UNL A   1      37.951  33.624  33.943  1.00  0.00     0.049 A 
ATOM     60  C   UNL A   1      42.535  31.791  36.522  1.00  0.00     0.074 A 
ATOM     61  C   UNL A   1      36.885  33.989  34.751  1.00  0.00     0.029 A 
ATOM     62  N   UNL A   1      38.976  33.245  34.796  1.00  0.00    -0.354 N 
ATOM     63  N   UNL A   1      41.392  32.239  36.068  1.00  0.00    -0.248 NA
ATOM     64  C   UNL A   1      42.650  31.780  37.986  1.00  0.00     0.031 C 
ATOM     65  C   UNL A   1      37.280  33.872  36.088  1.00  0.00     0.029 A 
ATOM     66  C   UNL A   1      38.577  33.390  36.116  1.00  0.00     0.049 A 
ATOM     67  H   UNL A   1      39.859  32.920  34.506  1.00  0.00     0.167 HD
ATOM     68  C   UNL A   1      40.645  32.564  37.194  1.00  0.00     0.074 A 
ATOM     69  C   UNL A   1      41.459  32.240  38.348  1.00  0.00     0.031 C 
ATOM     70  C   UNL A   1      39.396  33.087  37.261  1.00  0.00     0.031 A 
BRANCH  57  71
ATOM     71  C   UNL A   1      36.819  34.122  31.746  1.00  0.00    -0.014 A 
ATOM     72  C   UNL A   1      36.643  33.841  30.380  1.00  0.00     0.010 A 
ATOM     73  C   UNL A   1      35.803  34.809  32.439  1.00  0.00     0.010 A 
ATOM     74  C   UNL A   1      35.486  34.264  29.714  1.00  0.00     0.020 A 
ATOM     75  C   UNL A   1      34.638  35.216  31.781  1.00  0.00     0.020 A 
ATOM     76  C   UNL A   1      34.494  34.955  30.417  1.00  0.00     0.054 A 
BRANCH  76  77
ATOM     77  S   UNL A   1      32.991  35.473  29.540  1.00  0.00     0.124 S 
ATOM     78  O   UNL A   1      32.560  34.223  28.920  1.00  0.00    -0.237 OA
ATOM     79  O   UNL A   1      32.139  35.964  30.620  1.00  0.00    -0.237 OA
ATOM     80  O   UNL A   1      33.467  36.497  28.614  1.00  0.00    -0.744 OA
ENDBRANCH  76  77
ENDBRANCH  57  71
BRANCH  58  81
ATOM     81  C   UNL A   1      44.959  30.854  36.441  1.00  0.00    -0.014 A 
ATOM     82  C   UNL A   1      46.027  31.742  36.647  1.00  0.00     0.010 A 
ATOM     83  C   UNL A   1      45.039  29.546  36.953  1.00  0.00     0.010 A 
ATOM     84  C   UNL A   1      47.153  31.331  37.363  1.00  0.00     0.020 A 
ATOM     85  C   UNL A   1      46.152  29.140  37.692  1.00  0.00     0.020 A 
ATOM     86  C   UNL A   1      47.205  30.035  37.887  1.00  0.00     0.054 A 
BRANCH  86  87
ATOM     87  S   UNL A   1      48.630  29.548  38.899  1.00  0.00     0.124 S 
ATOM     88  O   UNL A   1      48.686  30.626  39.880  1.00  0.00    -0.237 OA
ATOM     89  O   UNL A   1      48.225  28.242  39.414  1.00  0.00    -0.237 OA
ATOM     90  O   UNL A   1      49.730  29.515  37.938  1.00  0.00    -0.744 OA
ENDBRANCH  86  87
ENDBRANCH  58  81
BRANCH  70  91
ATOM     91  C   UNL A   1      38.833  33.331  38.633  1.00  0.00    -0.014 A 
ATOM     92  C   UNL A   1      37.998  32.383  39.250  1.00  0.00     0.010 A 
ATOM     93  C   UNL A   1      39.150  34.517  39.319  1.00  0.00     0.010 A 
ATOM     94  C   UNL A   1      37.461  32.632  40.518  1.00  0.00     0.020 A 
ATOM     95  C   UNL A   1      38.631  34.762  40.593  1.00  0.00     0.020 A 
ATOM     96  C   UNL A   1      37.775  33.824  41.178  1.00  0.00     0.054 A 
BRANCH  96  97
ATOM     97  S   UNL A   1      37.085  34.121  42.830  1.00  0.00     0.124 S 
ATOM     98  O   UNL A   1      35.649  34.065  42.573  1.00  0.00    -0.237 OA
ATOM     99  O   UNL A   1      37.627  33.013  43.611  1.00  0.00    -0.237 OA
ATOM    100  O   UNL A   1      37.604  35.439  43.188  1.00  0.00    -0.744 OA
ENDBRANCH  96  97
ENDBRANCH  70  91
ENDBRANCH  44  45
ENDBRANCH  37  39
ENDBRANCH  36  37
ENDBRANCH  35  36
ENDBRANCH  34  35
ENDBRANCH  33  34
ENDBRANCH  32  33
ENDBRANCH  31  32
ENDBRANCH   1  31
TORSDOF 26
ENDMDL
MODEL 3
REMARK VINA RESULT:      -7.9      7.566     10.065
REMARK SMILES COc1cc(/C=C/C(=O)c2ccc(OCC(=O)OCCOCCOCCOC(=O)c3ccc(-c4c5nc(c(-c6ccc(S(=O)(=O)[O-])cc6)c6ccc([nH]6)c(-c6ccc(S(=O)(=O)[O-])cc6)c6nc(c(-c7ccc(S(=O)(=O)[O-])cc7)c7ccc4[nH]7)C=C6)C=C5)cc3)cc2)cc2c1OCCO2
REMARK SMILES IDX 21 1 20 2 19 3 18 4 16 5 17 6 15 7 14 8 13 9 10 10 11 11
REMARK SMILES IDX 91 12 12 13 90 14 8 15 9 16 7 17 6 18 5 19 3 20 4 21 94 22
REMARK SMILES IDX 93 23 95 24 92 25 98 26 96 27 97 28 2 29 1 30 22 31 23 32
REMARK SMILES IDX 24 33 25 34 26 35 27 36 28 37 29 38 30 39 31 40 89 41 32 42
REMARK SMILES IDX 88 43 33 44 34 45 35 46 82 47 36 48 87 49 81 50 83 51 37 52
REMARK SMILES IDX 86 53 80 54 79 55 38 57 68 58 49 59 67 60 50 61 53 62 66 63
REMARK SMILES IDX 84 64 51 65 52 66 65 68 85 69 54 70 39 71 40 72 48 73 41 74
REMARK SMILES IDX 47 75 42 76 43 77 44 78 45 79 46 80 69 81 70 82 78 83 71 84
REMARK SMILES IDX 77 85 72 86 73 87 74 88 75 89 76 90 55 91 56 92 64 93 57 94
REMARK SMILES IDX 63 95 58 96 59 97 60 98 61 99 62 100
REMARK H PARENT 83 56 53 67
REMARK Flexibility Score: inf
ROOT
ATOM      1  O   UNL A   1      40.185  24.279  27.996  1.00  0.00    -0.376 OA
ENDROOT
BRANCH   1   2
ATOM      2  C   UNL A   1      40.085  25.181  26.896  1.00  0.00     0.202 C 
BRANCH   2   3
ATOM      3  C   UNL A   1      40.242  26.658  27.282  1.00  0.00     0.261 C 
BRANCH   3   4
ATOM      4  O   UNL A   1      41.517  26.882  27.933  1.00  0.00    -0.461 OA
BRANCH   4   5
ATOM      5  C   UNL A   1      41.920  28.170  28.095  1.00  0.00     0.344 C 
ATOM      6  O   UNL A   1      42.074  28.961  27.171  1.00  0.00    -0.248 OA
BRANCH   5   7
ATOM      7  C   UNL A   1      41.999  28.589  29.583  1.00  0.00     0.351 C 
BRANCH   7   8
ATOM      8  O   UNL A   1      40.835  28.404  30.382  1.00  0.00    -0.482 OA
BRANCH   8   9
ATOM      9  C   UNL A   1      39.691  29.114  30.107  1.00  0.00     0.120 A 
ATOM     10  C   UNL A   1      37.148  30.130  29.313  1.00  0.00     0.022 A 
ATOM     11  C   UNL A   1      37.251  28.977  30.101  1.00  0.00     0.016 A 
ATOM     12  C   UNL A   1      38.318  30.847  29.046  1.00  0.00     0.016 A 
ATOM     13  C   UNL A   1      38.507  28.474  30.485  1.00  0.00     0.047 A 
ATOM     14  C   UNL A   1      39.584  30.347  29.458  1.00  0.00     0.047 A 
BRANCH  10  15
ATOM     15  C   UNL A   1      35.789  30.463  28.765  1.00  0.00     0.185 C 
ATOM     16  O   UNL A   1      35.244  31.507  29.111  1.00  0.00    -0.289 OA
BRANCH  15  17
ATOM     17  C   UNL A   1      35.045  29.424  27.966  1.00  0.00     0.053 C 
ATOM     18  C   UNL A   1      34.314  29.833  26.906  1.00  0.00     0.012 C 
BRANCH  18  19
ATOM     19  C   UNL A   1      33.290  29.052  26.171  1.00  0.00    -0.018 A 
ATOM     20  C   UNL A   1      31.779  27.091  26.176  1.00  0.00     0.165 A 
ATOM     21  C   UNL A   1      32.783  27.886  26.756  1.00  0.00     0.058 A 
ATOM     22  C   UNL A   1      31.157  27.548  25.022  1.00  0.00     0.203 A 
ATOM     23  C   UNL A   1      31.589  28.767  24.463  1.00  0.00     0.165 A 
ATOM     24  O   UNL A   1      30.092  26.842  24.523  1.00  0.00    -0.483 OA
ATOM     25  C   UNL A   1      32.675  29.488  25.002  1.00  0.00     0.058 A 
ATOM     26  O   UNL A   1      30.948  29.350  23.393  1.00  0.00    -0.486 OA
ATOM     27  C   UNL A   1      29.640  27.326  23.258  1.00  0.00     0.271 C 
ATOM     28  C   UNL A   1      29.616  28.842  23.256  1.00  0.00     0.271 C 
BRANCH  20  29
ATOM     29  O   UNL A   1      31.472  25.958  26.885  1.00  0.00    -0.493 OA
ATOM     30  C   UNL A   1      32.076  24.739  26.456  1.00  0.00     0.278 C 
ENDBRANCH  20  29
ENDBRANCH  18  19
ENDBRANCH  15  17
ENDBRANCH  10  15
ENDBRANCH   8   9
ENDBRANCH   7   8
ENDBRANCH   5   7
ENDBRANCH   4   5
ENDBRANCH   3   4
ENDBRANCH   2   3
ENDBRANCH   1   2
BRANCH   1  31
ATOM     31  C   UNL A   1      41.237  23.318  27.936  1.00  0.00     0.188 C 
BRANCH  31  32
ATOM     32  C   UNL A   1      40.815  21.843  27.953  1.00  0.00     0.188 C 
BRANCH  32  33
ATOM     33  O   UNL A   1      41.320  21.137  26.826  1.00  0.00    -0.376 OA
BRANCH  33  34
ATOM     34  C   UNL A   1      41.798  21.994  25.799  1.00  0.00     0.202 C 
BRANCH  34  35
ATOM     35  C   UNL A   1      43.307  21.816  25.582  1.00  0.00     0.261 C 
BRANCH  35  36
ATOM     36  O   UNL A   1      44.231  22.833  26.074  1.00  0.00    -0.460 OA
BRANCH  36  37
ATOM     37  C   UNL A   1      45.551  22.574  26.014  1.00  0.00     0.338 C 
ATOM     38  O   UNL A   1      46.058  21.470  26.090  1.00  0.00    -0.246 OA
BRANCH  37  39
ATOM     39  C   UNL A   1      46.412  23.759  25.827  1.00  0.00     0.060 A 
ATOM     40  C   UNL A   1      47.047  24.279  26.956  1.00  0.00     0.016 A 
ATOM     41  C   UNL A   1      46.349  24.524  24.661  1.00  0.00     0.016 A 
ATOM     42  C   UNL A   1      47.566  25.577  26.942  1.00  0.00     0.010 A 
ATOM     43  C   UNL A   1      46.912  25.811  24.633  1.00  0.00     0.010 A 
ATOM     44  C   UNL A   1      47.518  26.358  25.775  1.00  0.00    -0.014 A 
BRANCH  44  45
ATOM     45  C   UNL A   1      48.212  27.678  25.721  1.00  0.00     0.031 A 
ATOM     46  C   UNL A   1      49.618  27.840  25.201  1.00  0.00     0.074 A 
ATOM     47  C   UNL A   1      47.555  28.761  26.182  1.00  0.00     0.049 A 
ATOM     48  N   UNL A   1      50.384  28.904  25.225  1.00  0.00    -0.248 NA
ATOM     49  C   UNL A   1      50.241  26.669  24.566  1.00  0.00     0.031 C 
ATOM     50  C   UNL A   1      46.179  28.762  26.683  1.00  0.00     0.029 A 
ATOM     51  N   UNL A   1      47.955  30.069  26.309  1.00  0.00    -0.354 N 
ATOM     52  C   UNL A   1      51.589  28.531  24.635  1.00  0.00     0.074 A 
ATOM     53  C   UNL A   1      51.446  27.139  24.255  1.00  0.00     0.031 C 
ATOM     54  C   UNL A   1      45.843  30.006  27.047  1.00  0.00     0.029 A 
ATOM     55  C   UNL A   1      47.001  30.877  26.882  1.00  0.00     0.049 A 
ATOM     56  H   UNL A   1      48.837  30.395  26.019  1.00  0.00     0.167 HD
ATOM     57  C   UNL A   1      52.707  29.274  24.440  1.00  0.00     0.031 A 
ATOM     58  C   UNL A   1      47.054  32.161  27.284  1.00  0.00     0.031 A 
ATOM     59  C   UNL A   1      52.854  30.659  24.822  1.00  0.00     0.049 A 
ATOM     60  C   UNL A   1      48.324  32.939  27.124  1.00  0.00     0.074 A 
ATOM     61  C   UNL A   1      53.956  31.485  24.661  1.00  0.00     0.029 A 
ATOM     62  N   UNL A   1      51.878  31.423  25.441  1.00  0.00    -0.354 N 
ATOM     63  N   UNL A   1      49.460  32.553  26.600  1.00  0.00    -0.248 NA
ATOM     64  C   UNL A   1      48.320  34.320  27.625  1.00  0.00     0.031 C 
ATOM     65  C   UNL A   1      53.660  32.733  25.223  1.00  0.00     0.029 A 
ATOM     66  C   UNL A   1      52.358  32.700  25.691  1.00  0.00     0.049 A 
ATOM     67  H   UNL A   1      50.974  31.106  25.670  1.00  0.00     0.167 HD
ATOM     68  C   UNL A   1      50.310  33.647  26.705  1.00  0.00     0.074 A 
ATOM     69  C   UNL A   1      49.550  34.715  27.323  1.00  0.00     0.031 C 
ATOM     70  C   UNL A   1      51.607  33.752  26.325  1.00  0.00     0.031 A 
BRANCH  57  71
ATOM     71  C   UNL A   1      53.904  28.598  23.820  1.00  0.00    -0.014 A 
ATOM     72  C   UNL A   1      54.110  28.601  22.429  1.00  0.00     0.010 A 
ATOM     73  C   UNL A   1      54.883  28.022  24.653  1.00  0.00     0.010 A 
ATOM     74  C   UNL A   1      55.257  28.015  21.881  1.00  0.00     0.020 A 
ATOM     75  C   UNL A   1      56.040  27.453  24.111  1.00  0.00     0.020 A 
ATOM     76  C   UNL A   1      56.212  27.438  22.725  1.00  0.00     0.054 A 
BRANCH  76  77
ATOM     77  S   UNL A   1      57.704  26.705  21.996  1.00  0.00     0.124 S 
ATOM     78  O   UNL A   1      57.190  26.166  20.741  1.00  0.00    -0.237 OA
ATOM     79  O   UNL A   1      58.599  27.853  21.866  1.00  0.00    -0.237 OA
ATOM     80  O   UNL A   1      58.117  25.708  22.980  1.00  0.00    -0.744 OA
ENDBRANCH  76  77
ENDBRANCH  57  71
BRANCH  58  81
ATOM     81  C   UNL A   1      45.861  32.761  27.934  1.00  0.00    -0.014 A 
ATOM     82  C   UNL A   1      44.935  33.503  27.184  1.00  0.00     0.010 A 
ATOM     83  C   UNL A   1      45.617  32.533  29.302  1.00  0.00     0.010 A 
ATOM     84  C   UNL A   1      43.779  34.002  27.789  1.00  0.00     0.020 A 
ATOM     85  C   UNL A   1      44.450  33.007  29.903  1.00  0.00     0.020 A 
ATOM     86  C   UNL A   1      43.540  33.744  29.143  1.00  0.00     0.054 A 
BRANCH  86  87
ATOM     87  S   UNL A   1      41.987  34.311  29.889  1.00  0.00     0.124 S 
ATOM     88  O   UNL A   1      41.316  33.050  30.186  1.00  0.00    -0.237 OA
ATOM     89  O   UNL A   1      42.449  35.072  31.048  1.00  0.00    -0.237 OA
ATOM     90  O   UNL A   1      41.378  35.114  28.831  1.00  0.00    -0.744 OA
ENDBRANCH  86  87
ENDBRANCH  58  81
BRANCH  70  91
ATOM     91  C   UNL A   1      52.280  35.076  26.559  1.00  0.00    -0.014 A 
ATOM     92  C   UNL A   1      52.935  35.349  27.773  1.00  0.00     0.010 A 
ATOM     93  C   UNL A   1      52.267  36.056  25.550  1.00  0.00     0.010 A 
ATOM     94  C   UNL A   1      53.537  36.593  27.988  1.00  0.00     0.020 A 
ATOM     95  C   UNL A   1      52.883  37.294  25.754  1.00  0.00     0.020 A 
ATOM     96  C   UNL A   1      53.501  37.560  26.979  1.00  0.00     0.054 A 
BRANCH  96  97
ATOM     97  S   UNL A   1      54.305  39.161  27.269  1.00  0.00     0.124 S 
ATOM     98  O   UNL A   1      55.711  38.781  27.362  1.00  0.00    -0.237 OA
ATOM     99  O   UNL A   1      53.938  39.927  26.081  1.00  0.00    -0.237 OA
ATOM    100  O   UNL A   1      53.701  39.629  28.515  1.00  0.00    -0.744 OA
ENDBRANCH  96  97
ENDBRANCH  70  91
ENDBRANCH  44  45
ENDBRANCH  37  39
ENDBRANCH  36  37
ENDBRANCH  35  36
ENDBRANCH  34  35
ENDBRANCH  33  34
ENDBRANCH  32  33
ENDBRANCH  31  32
ENDBRANCH   1  31
TORSDOF 26
ENDMDL
