MODEL 1
REMARK VINA RESULT:     -10.1      0.000      0.000
REMARK SMILES O=C(Cc1ccccc1Nc1c(Cl)cccc1C(F)(F)F)OCCOCCOCCOC(=O)c1ccc(-c2c3nc(c(-c4ccc(S(=O)(=O)[O-])cc4)c4ccc([nH]4)c(-c4ccc(S(=O)(=O)[O-])cc4)c4nc(c(-c5ccc(S(=O)(=O)[O-])cc5)c5ccc2[nH]5)C=C4)C=C3)cc1
REMARK SMILES IDX 26 1 25 2 24 3 23 4 22 5 2 6 1 7 3 8 4 9 5 10 9 11 6 12 8 13
REMARK SMILES IDX 7 14 10 15 11 17 12 18 17 19 13 20 14 21 16 22 15 23 18 24
REMARK SMILES IDX 19 25 20 26 21 27 27 28 28 29 29 30 30 31 31 32 32 33 33 34
REMARK SMILES IDX 34 35 35 36 93 37 36 38 92 39 37 40 38 41 39 42 86 43 40 44
REMARK SMILES IDX 91 45 85 46 87 47 41 48 90 49 84 50 83 51 42 53 72 54 53 55
REMARK SMILES IDX 71 56 54 57 57 58 70 59 88 60 55 61 56 62 69 64 89 65 58 66
REMARK SMILES IDX 43 67 44 68 52 69 45 70 51 71 46 72 47 73 48 74 49 75 50 76
REMARK SMILES IDX 73 77 74 78 82 79 75 80 81 81 76 82 77 83 78 84 79 85 80 86
REMARK SMILES IDX 59 87 60 88 68 89 61 90 67 91 62 92 63 93 64 94 65 95 66 96
REMARK H PARENT 10 16 87 52 57 63
REMARK Flexibility Score: inf
ROOT
ATOM      1  C   UNL A   1      32.216  30.174  26.104  1.00  0.00     0.188 C 
ENDROOT
BRANCH   1   2
ATOM      2  O   UNL A   1      32.421  29.688  24.784  1.00  0.00    -0.376 OA
BRANCH   2   3
ATOM      3  C   UNL A   1      33.174  28.490  24.639  1.00  0.00     0.202 C 
BRANCH   3   4
ATOM      4  C   UNL A   1      33.628  28.083  23.239  1.00  0.00     0.261 C 
BRANCH   4   5
ATOM      5  O   UNL A   1      32.624  27.465  22.425  1.00  0.00    -0.463 OA
BRANCH   5   6
ATOM      6  C   UNL A   1      32.685  26.167  22.037  1.00  0.00     0.310 C 
ATOM      7  O   UNL A   1      33.656  25.778  21.389  1.00  0.00    -0.252 OA
BRANCH   6   8
ATOM      8  C   UNL A   1      31.515  25.247  22.326  1.00  0.00     0.160 C 
BRANCH   8   9
ATOM      9  C   UNL A   1      31.215  25.007  23.788  1.00  0.00    -0.013 A 
ATOM     10  C   UNL A   1      30.354  25.919  24.432  1.00  0.00     0.006 A 
ATOM     11  C   UNL A   1      31.781  23.935  24.525  1.00  0.00     0.042 A 
ATOM     12  C   UNL A   1      30.026  25.767  25.774  1.00  0.00     0.000 A 
ATOM     13  C   UNL A   1      31.460  23.831  25.886  1.00  0.00     0.026 A 
ATOM     14  C   UNL A   1      30.586  24.729  26.503  1.00  0.00     0.002 A 
BRANCH  11  15
ATOM     15  N   UNL A   1      32.580  22.956  23.887  1.00  0.00    -0.354 N 
ATOM     16  H   UNL A   1      32.242  22.669  23.009  1.00  0.00     0.167 HD
BRANCH  15  17
ATOM     17  C   UNL A   1      33.781  22.315  24.287  1.00  0.00     0.070 A 
ATOM     18  C   UNL A   1      34.887  23.135  24.631  1.00  0.00     0.065 A 
ATOM     19  C   UNL A   1      33.928  20.921  24.431  1.00  0.00     0.080 A 
ATOM     20  Cl  UNL A   1      34.820  24.852  24.391  1.00  0.00    -0.082 Cl
ATOM     21  C   UNL A   1      36.065  22.606  25.166  1.00  0.00     0.023 A 
ATOM     22  C   UNL A   1      35.122  20.407  24.996  1.00  0.00     0.015 A 
ATOM     23  C   UNL A   1      36.175  21.238  25.369  1.00  0.00     0.002 A 
BRANCH  19  24
ATOM     24  C   UNL A   1      32.922  19.893  23.971  1.00  0.00     0.418 C 
ATOM     25  F   UNL A   1      31.777  19.947  24.722  1.00  0.00    -0.166 F 
ATOM     26  F   UNL A   1      32.506  20.105  22.691  1.00  0.00    -0.166 F 
ATOM     27  F   UNL A   1      33.304  18.591  24.044  1.00  0.00    -0.166 F 
ENDBRANCH  19  24
ENDBRANCH  15  17
ENDBRANCH  11  15
ENDBRANCH   8   9
ENDBRANCH   6   8
ENDBRANCH   5   6
ENDBRANCH   4   5
ENDBRANCH   3   4
ENDBRANCH   2   3
ENDBRANCH   1   2
BRANCH   1  28
ATOM     28  C   UNL A   1      33.409  30.419  27.042  1.00  0.00     0.188 C 
BRANCH  28  29
ATOM     29  O   UNL A   1      33.431  31.571  27.865  1.00  0.00    -0.376 OA
BRANCH  29  30
ATOM     30  C   UNL A   1      34.637  31.891  28.557  1.00  0.00     0.202 C 
BRANCH  30  31
ATOM     31  C   UNL A   1      35.950  31.320  28.022  1.00  0.00     0.261 C 
BRANCH  31  32
ATOM     32  O   UNL A   1      36.121  29.934  28.379  1.00  0.00    -0.460 OA
BRANCH  32  33
ATOM     33  C   UNL A   1      36.979  29.711  29.405  1.00  0.00     0.338 C 
ATOM     34  O   UNL A   1      36.757  29.865  30.592  1.00  0.00    -0.246 OA
BRANCH  33  35
ATOM     35  C   UNL A   1      38.234  29.119  28.912  1.00  0.00     0.060 A 
ATOM     36  C   UNL A   1      39.068  28.477  29.835  1.00  0.00     0.016 A 
ATOM     37  C   UNL A   1      38.656  29.330  27.598  1.00  0.00     0.016 A 
ATOM     38  C   UNL A   1      40.351  28.083  29.460  1.00  0.00     0.010 A 
ATOM     39  C   UNL A   1      39.952  28.952  27.229  1.00  0.00     0.010 A 
ATOM     40  C   UNL A   1      40.819  28.365  28.169  1.00  0.00    -0.014 A 
BRANCH  40  41
ATOM     41  C   UNL A   1      42.264  28.222  27.865  1.00  0.00     0.031 A 
ATOM     42  C   UNL A   1      43.173  29.400  28.095  1.00  0.00     0.074 A 
ATOM     43  C   UNL A   1      42.769  27.060  27.413  1.00  0.00     0.049 A 
ATOM     44  N   UNL A   1      44.457  29.512  27.870  1.00  0.00    -0.248 NA
ATOM     45  C   UNL A   1      42.551  30.612  28.653  1.00  0.00     0.031 C 
ATOM     46  C   UNL A   1      42.007  25.832  27.195  1.00  0.00     0.029 A 
ATOM     47  N   UNL A   1      44.052  26.733  27.052  1.00  0.00    -0.354 N 
ATOM     48  C   UNL A   1      44.797  30.804  28.257  1.00  0.00     0.074 A 
ATOM     49  C   UNL A   1      43.580  31.446  28.706  1.00  0.00     0.031 C 
ATOM     50  C   UNL A   1      42.838  24.884  26.726  1.00  0.00     0.029 A 
ATOM     51  C   UNL A   1      44.180  25.448  26.583  1.00  0.00     0.049 A 
ATOM     52  H   UNL A   1      44.809  27.358  27.124  1.00  0.00     0.167 HD
ATOM     53  C   UNL A   1      46.012  31.404  28.243  1.00  0.00     0.031 A 
ATOM     54  C   UNL A   1      45.252  24.807  26.075  1.00  0.00     0.031 A 
ATOM     55  C   UNL A   1      47.219  30.778  27.775  1.00  0.00     0.049 A 
ATOM     56  C   UNL A   1      46.576  25.522  25.989  1.00  0.00     0.074 A 
ATOM     57  C   UNL A   1      48.498  31.307  27.722  1.00  0.00     0.029 A 
ATOM     58  N   UNL A   1      47.299  29.490  27.269  1.00  0.00    -0.354 N 
ATOM     59  N   UNL A   1      46.885  26.739  26.374  1.00  0.00    -0.248 NA
ATOM     60  C   UNL A   1      47.699  24.774  25.404  1.00  0.00     0.031 C 
ATOM     61  C   UNL A   1      49.341  30.356  27.138  1.00  0.00     0.029 A 
ATOM     62  C   UNL A   1      48.598  29.215  26.880  1.00  0.00     0.049 A 
ATOM     63  H   UNL A   1      46.542  28.864  27.199  1.00  0.00     0.167 HD
ATOM     64  C   UNL A   1      48.242  26.889  26.104  1.00  0.00     0.074 A 
ATOM     65  C   UNL A   1      48.698  25.638  25.533  1.00  0.00     0.031 C 
ATOM     66  C   UNL A   1      49.041  27.965  26.313  1.00  0.00     0.031 A 
BRANCH  53  67
ATOM     67  C   UNL A   1      46.083  32.829  28.720  1.00  0.00    -0.014 A 
ATOM     68  C   UNL A   1      45.747  33.898  27.871  1.00  0.00     0.010 A 
ATOM     69  C   UNL A   1      46.464  33.100  30.047  1.00  0.00     0.010 A 
ATOM     70  C   UNL A   1      45.829  35.216  28.328  1.00  0.00     0.020 A 
ATOM     71  C   UNL A   1      46.522  34.416  30.516  1.00  0.00     0.020 A 
ATOM     72  C   UNL A   1      46.221  35.466  29.647  1.00  0.00     0.054 A 
BRANCH  72  73
ATOM     73  S   UNL A   1      46.306  37.186  30.220  1.00  0.00     0.124 S 
ATOM     74  O   UNL A   1      47.745  37.378  30.382  1.00  0.00    -0.237 OA
ATOM     75  O   UNL A   1      45.695  37.923  29.117  1.00  0.00    -0.237 OA
ATOM     76  O   UNL A   1      45.536  37.176  31.462  1.00  0.00    -0.744 OA
ENDBRANCH  72  73
ENDBRANCH  53  67
BRANCH  54  77
ATOM     77  C   UNL A   1      45.117  23.410  25.581  1.00  0.00    -0.014 A 
ATOM     78  C   UNL A   1      45.356  22.319  26.434  1.00  0.00     0.010 A 
ATOM     79  C   UNL A   1      44.763  23.166  24.241  1.00  0.00     0.010 A 
ATOM     80  C   UNL A   1      45.261  21.009  25.954  1.00  0.00     0.020 A 
ATOM     81  C   UNL A   1      44.641  21.857  23.763  1.00  0.00     0.020 A 
ATOM     82  C   UNL A   1      44.904  20.787  24.621  1.00  0.00     0.054 A 
BRANCH  82  83
ATOM     83  S   UNL A   1      44.746  19.080  24.026  1.00  0.00     0.124 S 
ATOM     84  O   UNL A   1      43.592  18.602  24.781  1.00  0.00    -0.237 OA
ATOM     85  O   UNL A   1      44.534  19.263  22.593  1.00  0.00    -0.237 OA
ATOM     86  O   UNL A   1      46.026  18.473  24.387  1.00  0.00    -0.744 OA
ENDBRANCH  82  83
ENDBRANCH  54  77
BRANCH  66  87
ATOM     87  C   UNL A   1      50.499  27.833  25.961  1.00  0.00    -0.014 A 
ATOM     88  C   UNL A   1      51.431  27.322  26.882  1.00  0.00     0.010 A 
ATOM     89  C   UNL A   1      50.934  28.170  24.666  1.00  0.00     0.010 A 
ATOM     90  C   UNL A   1      52.775  27.181  26.525  1.00  0.00     0.020 A 
ATOM     91  C   UNL A   1      52.272  28.007  24.296  1.00  0.00     0.020 A 
ATOM     92  C   UNL A   1      53.187  27.527  25.234  1.00  0.00     0.054 A 
BRANCH  92  93
ATOM     93  S   UNL A   1      54.929  27.295  24.778  1.00  0.00     0.124 S 
ATOM     94  O   UNL A   1      54.826  26.411  23.621  1.00  0.00    -0.237 OA
ATOM     95  O   UNL A   1      55.371  28.658  24.490  1.00  0.00    -0.237 OA
ATOM     96  O   UNL A   1      55.522  26.695  25.971  1.00  0.00    -0.744 OA
ENDBRANCH  92  93
ENDBRANCH  66  87
ENDBRANCH  40  41
ENDBRANCH  33  35
ENDBRANCH  32  33
ENDBRANCH  31  32
ENDBRANCH  30  31
ENDBRANCH  29  30
ENDBRANCH  28  29
ENDBRANCH   1  28
TORSDOF 24
ENDMDL
MODEL 2
REMARK VINA RESULT:      -9.8      2.146      8.088
REMARK SMILES O=C(Cc1ccccc1Nc1c(Cl)cccc1C(F)(F)F)OCCOCCOCCOC(=O)c1ccc(-c2c3nc(c(-c4ccc(S(=O)(=O)[O-])cc4)c4ccc([nH]4)c(-c4ccc(S(=O)(=O)[O-])cc4)c4nc(c(-c5ccc(S(=O)(=O)[O-])cc5)c5ccc2[nH]5)C=C4)C=C3)cc1
REMARK SMILES IDX 26 1 25 2 24 3 23 4 22 5 2 6 1 7 3 8 4 9 5 10 9 11 6 12 8 13
REMARK SMILES IDX 7 14 10 15 11 17 12 18 17 19 13 20 14 21 16 22 15 23 18 24
REMARK SMILES IDX 19 25 20 26 21 27 27 28 28 29 29 30 30 31 31 32 32 33 33 34
REMARK SMILES IDX 34 35 35 36 93 37 36 38 92 39 37 40 38 41 39 42 86 43 40 44
REMARK SMILES IDX 91 45 85 46 87 47 41 48 90 49 84 50 83 51 42 53 72 54 53 55
REMARK SMILES IDX 71 56 54 57 57 58 70 59 88 60 55 61 56 62 69 64 89 65 58 66
REMARK SMILES IDX 43 67 44 68 52 69 45 70 51 71 46 72 47 73 48 74 49 75 50 76
REMARK SMILES IDX 73 77 74 78 82 79 75 80 81 81 76 82 77 83 78 84 79 85 80 86
REMARK SMILES IDX 59 87 60 88 68 89 61 90 67 91 62 92 63 93 64 94 65 95 66 96
REMARK H PARENT 10 16 87 52 57 63
REMARK Flexibility Score: inf
ROOT
ATOM      1  C   UNL A   1      34.203  32.808  28.240  1.00  0.00     0.188 C 
ENDROOT
BRANCH   1   2
ATOM      2  O   UNL A   1      33.805  31.553  27.705  1.00  0.00    -0.376 OA
BRANCH   2   3
ATOM      3  C   UNL A   1      34.832  30.613  27.413  1.00  0.00     0.202 C 
BRANCH   3   4
ATOM      4  C   UNL A   1      34.527  29.127  27.587  1.00  0.00     0.261 C 
BRANCH   4   5
ATOM      5  O   UNL A   1      34.260  28.410  26.377  1.00  0.00    -0.463 OA
BRANCH   5   6
ATOM      6  C   UNL A   1      33.422  27.346  26.318  1.00  0.00     0.310 C 
ATOM      7  O   UNL A   1      32.440  27.311  27.060  1.00  0.00    -0.252 OA
BRANCH   6   8
ATOM      8  C   UNL A   1      33.761  26.179  25.411  1.00  0.00     0.160 C 
BRANCH   8   9
ATOM      9  C   UNL A   1      33.131  26.211  24.037  1.00  0.00    -0.013 A 
ATOM     10  C   UNL A   1      32.211  27.246  23.769  1.00  0.00     0.006 A 
ATOM     11  C   UNL A   1      33.405  25.240  23.041  1.00  0.00     0.042 A 
ATOM     12  C   UNL A   1      31.590  27.347  22.530  1.00  0.00     0.000 A 
ATOM     13  C   UNL A   1      32.734  25.349  21.814  1.00  0.00     0.026 A 
ATOM     14  C   UNL A   1      31.845  26.394  21.556  1.00  0.00     0.002 A 
BRANCH  11  15
ATOM     15  N   UNL A   1      34.385  24.240  23.250  1.00  0.00    -0.354 N 
ATOM     16  H   UNL A   1      35.248  24.424  22.813  1.00  0.00     0.167 HD
BRANCH  15  17
ATOM     17  C   UNL A   1      34.347  23.022  23.976  1.00  0.00     0.070 A 
ATOM     18  C   UNL A   1      35.309  22.831  25.002  1.00  0.00     0.065 A 
ATOM     19  C   UNL A   1      33.377  22.017  23.792  1.00  0.00     0.080 A 
ATOM     20  Cl  UNL A   1      36.594  23.975  25.229  1.00  0.00    -0.082 Cl
ATOM     21  C   UNL A   1      35.269  21.730  25.861  1.00  0.00     0.023 A 
ATOM     22  C   UNL A   1      33.340  20.919  24.688  1.00  0.00     0.015 A 
ATOM     23  C   UNL A   1      34.269  20.780  25.717  1.00  0.00     0.002 A 
BRANCH  19  24
ATOM     24  C   UNL A   1      32.379  21.974  22.659  1.00  0.00     0.418 C 
ATOM     25  F   UNL A   1      31.821  20.728  22.534  1.00  0.00    -0.166 F 
ATOM     26  F   UNL A   1      31.320  22.808  22.862  1.00  0.00    -0.166 F 
ATOM     27  F   UNL A   1      32.856  22.249  21.417  1.00  0.00    -0.166 F 
ENDBRANCH  19  24
ENDBRANCH  15  17
ENDBRANCH  11  15
ENDBRANCH   8   9
ENDBRANCH   6   8
ENDBRANCH   5   6
ENDBRANCH   4   5
ENDBRANCH   3   4
ENDBRANCH   2   3
ENDBRANCH   1   2
BRANCH   1  28
ATOM     28  C   UNL A   1      35.681  33.093  28.553  1.00  0.00     0.188 C 
BRANCH  28  29
ATOM     29  O   UNL A   1      36.033  33.730  29.768  1.00  0.00    -0.376 OA
BRANCH  29  30
ATOM     30  C   UNL A   1      35.321  33.378  30.952  1.00  0.00     0.202 C 
BRANCH  30  31
ATOM     31  C   UNL A   1      35.335  31.914  31.395  1.00  0.00     0.261 C 
BRANCH  31  32
ATOM     32  O   UNL A   1      36.647  31.491  31.819  1.00  0.00    -0.460 OA
BRANCH  32  33
ATOM     33  C   UNL A   1      37.049  30.296  31.322  1.00  0.00     0.338 C 
ATOM     34  O   UNL A   1      36.368  29.298  31.173  1.00  0.00    -0.246 OA
BRANCH  33  35
ATOM     35  C   UNL A   1      38.440  30.376  30.846  1.00  0.00     0.060 A 
ATOM     36  C   UNL A   1      38.659  30.509  29.469  1.00  0.00     0.016 A 
ATOM     37  C   UNL A   1      39.509  30.164  31.719  1.00  0.00     0.016 A 
ATOM     38  C   UNL A   1      39.948  30.384  28.952  1.00  0.00     0.010 A 
ATOM     39  C   UNL A   1      40.799  30.019  31.195  1.00  0.00     0.010 A 
ATOM     40  C   UNL A   1      41.017  30.087  29.807  1.00  0.00    -0.014 A 
BRANCH  40  41
ATOM     41  C   UNL A   1      42.317  29.661  29.234  1.00  0.00     0.031 A 
ATOM     42  C   UNL A   1      42.463  28.245  28.741  1.00  0.00     0.074 A 
ATOM     43  C   UNL A   1      43.348  30.518  29.131  1.00  0.00     0.049 A 
ATOM     44  N   UNL A   1      43.511  27.648  28.235  1.00  0.00    -0.248 NA
ATOM     45  C   UNL A   1      41.267  27.391  28.831  1.00  0.00     0.031 C 
ATOM     46  C   UNL A   1      43.323  31.925  29.526  1.00  0.00     0.029 A 
ATOM     47  N   UNL A   1      44.623  30.320  28.664  1.00  0.00    -0.354 N 
ATOM     48  C   UNL A   1      43.104  26.350  27.947  1.00  0.00     0.074 A 
ATOM     49  C   UNL A   1      41.721  26.239  28.358  1.00  0.00     0.031 C 
ATOM     50  C   UNL A   1      44.533  32.463  29.292  1.00  0.00     0.029 A 
ATOM     51  C   UNL A   1      45.424  31.431  28.762  1.00  0.00     0.049 A 
ATOM     52  H   UNL A   1      44.934  29.463  28.292  1.00  0.00     0.167 HD
ATOM     53  C   UNL A   1      43.814  25.340  27.387  1.00  0.00     0.031 A 
ATOM     54  C   UNL A   1      46.733  31.592  28.479  1.00  0.00     0.031 A 
ATOM     55  C   UNL A   1      45.195  25.439  26.999  1.00  0.00     0.049 A 
ATOM     56  C   UNL A   1      47.526  30.430  27.937  1.00  0.00     0.074 A 
ATOM     57  C   UNL A   1      45.999  24.469  26.425  1.00  0.00     0.029 A 
ATOM     58  N   UNL A   1      45.982  26.569  27.154  1.00  0.00    -0.354 N 
ATOM     59  N   UNL A   1      47.122  29.213  27.655  1.00  0.00    -0.248 NA
ATOM     60  C   UNL A   1      48.953  30.666  27.671  1.00  0.00     0.031 C 
ATOM     61  C   UNL A   1      47.285  24.997  26.278  1.00  0.00     0.029 A 
ATOM     62  C   UNL A   1      47.268  26.314  26.708  1.00  0.00     0.049 A 
ATOM     63  H   UNL A   1      45.671  27.427  27.525  1.00  0.00     0.167 HD
ATOM     64  C   UNL A   1      48.238  28.551  27.151  1.00  0.00     0.074 A 
ATOM     65  C   UNL A   1      49.330  29.502  27.159  1.00  0.00     0.031 C 
ATOM     66  C   UNL A   1      48.347  27.269  26.719  1.00  0.00     0.031 A 
BRANCH  53  67
ATOM     67  C   UNL A   1      43.109  24.025  27.196  1.00  0.00    -0.014 A 
ATOM     68  C   UNL A   1      43.034  23.081  28.235  1.00  0.00     0.010 A 
ATOM     69  C   UNL A   1      42.486  23.742  25.966  1.00  0.00     0.010 A 
ATOM     70  C   UNL A   1      42.384  21.860  28.036  1.00  0.00     0.020 A 
ATOM     71  C   UNL A   1      41.813  22.533  25.771  1.00  0.00     0.020 A 
ATOM     72  C   UNL A   1      41.782  21.592  26.802  1.00  0.00     0.054 A 
BRANCH  72  73
ATOM     73  S   UNL A   1      40.932  20.005  26.574  1.00  0.00     0.124 S 
ATOM     74  O   UNL A   1      39.662  20.426  25.988  1.00  0.00    -0.237 OA
ATOM     75  O   UNL A   1      41.831  19.286  25.673  1.00  0.00    -0.237 OA
ATOM     76  O   UNL A   1      40.844  19.461  27.927  1.00  0.00    -0.744 OA
ENDBRANCH  72  73
ENDBRANCH  53  67
BRANCH  54  77
ATOM     77  C   UNL A   1      47.391  32.904  28.724  1.00  0.00    -0.014 A 
ATOM     78  C   UNL A   1      47.368  33.914  27.747  1.00  0.00     0.010 A 
ATOM     79  C   UNL A   1      48.060  33.142  29.939  1.00  0.00     0.010 A 
ATOM     80  C   UNL A   1      48.018  35.132  27.971  1.00  0.00     0.020 A 
ATOM     81  C   UNL A   1      48.689  34.368  30.177  1.00  0.00     0.020 A 
ATOM     82  C   UNL A   1      48.674  35.350  29.185  1.00  0.00     0.054 A 
BRANCH  82  83
ATOM     83  S   UNL A   1      49.477  36.952  29.474  1.00  0.00     0.124 S 
ATOM     84  O   UNL A   1      50.870  36.655  29.157  1.00  0.00    -0.237 OA
ATOM     85  O   UNL A   1      48.785  37.827  28.530  1.00  0.00    -0.237 OA
ATOM     86  O   UNL A   1      49.198  37.225  30.882  1.00  0.00    -0.744 OA
ENDBRANCH  82  83
ENDBRANCH  54  77
BRANCH  66  87
ATOM     87  C   UNL A   1      49.682  26.825  26.180  1.00  0.00    -0.014 A 
ATOM     88  C   UNL A   1      50.050  27.071  24.845  1.00  0.00     0.010 A 
ATOM     89  C   UNL A   1      50.606  26.203  27.040  1.00  0.00     0.010 A 
ATOM     90  C   UNL A   1      51.305  26.675  24.373  1.00  0.00     0.020 A 
ATOM     91  C   UNL A   1      51.871  25.829  26.579  1.00  0.00     0.020 A 
ATOM     92  C   UNL A   1      52.207  26.054  25.243  1.00  0.00     0.054 A 
BRANCH  92  93
ATOM     93  S   UNL A   1      53.847  25.587  24.619  1.00  0.00     0.124 S 
ATOM     94  O   UNL A   1      53.843  26.177  23.284  1.00  0.00    -0.237 OA
ATOM     95  O   UNL A   1      54.749  26.217  25.582  1.00  0.00    -0.237 OA
ATOM     96  O   UNL A   1      53.828  24.127  24.657  1.00  0.00    -0.744 OA
ENDBRANCH  92  93
ENDBRANCH  66  87
ENDBRANCH  40  41
ENDBRANCH  33  35
ENDBRANCH  32  33
ENDBRANCH  31  32
ENDBRANCH  30  31
ENDBRANCH  29  30
ENDBRANCH  28  29
ENDBRANCH   1  28
TORSDOF 24
ENDMDL
MODEL 3
REMARK VINA RESULT:      -9.7      2.087      3.170
REMARK SMILES O=C(Cc1ccccc1Nc1c(Cl)cccc1C(F)(F)F)OCCOCCOCCOC(=O)c1ccc(-c2c3nc(c(-c4ccc(S(=O)(=O)[O-])cc4)c4ccc([nH]4)c(-c4ccc(S(=O)(=O)[O-])cc4)c4nc(c(-c5ccc(S(=O)(=O)[O-])cc5)c5ccc2[nH]5)C=C4)C=C3)cc1
REMARK SMILES IDX 26 1 25 2 24 3 23 4 22 5 2 6 1 7 3 8 4 9 5 10 9 11 6 12 8 13
REMARK SMILES IDX 7 14 10 15 11 17 12 18 17 19 13 20 14 21 16 22 15 23 18 24
REMARK SMILES IDX 19 25 20 26 21 27 27 28 28 29 29 30 30 31 31 32 32 33 33 34
REMARK SMILES IDX 34 35 35 36 93 37 36 38 92 39 37 40 38 41 39 42 86 43 40 44
REMARK SMILES IDX 91 45 85 46 87 47 41 48 90 49 84 50 83 51 42 53 72 54 53 55
REMARK SMILES IDX 71 56 54 57 57 58 70 59 88 60 55 61 56 62 69 64 89 65 58 66
REMARK SMILES IDX 43 67 44 68 52 69 45 70 51 71 46 72 47 73 48 74 49 75 50 76
REMARK SMILES IDX 73 77 74 78 82 79 75 80 81 81 76 82 77 83 78 84 79 85 80 86
REMARK SMILES IDX 59 87 60 88 68 89 61 90 67 91 62 92 63 93 64 94 65 95 66 96
REMARK H PARENT 10 16 87 52 57 63
REMARK Flexibility Score: inf
ROOT
ATOM      1  C   UNL A   1      33.885  32.256  27.958  1.00  0.00     0.188 C 
ENDROOT
BRANCH   1   2
ATOM      2  O   UNL A   1      33.619  30.930  27.521  1.00  0.00    -0.376 OA
BRANCH   2   3
ATOM      3  C   UNL A   1      34.728  30.149  27.093  1.00  0.00     0.202 C 
BRANCH   3   4
ATOM      4  C   UNL A   1      34.624  28.628  27.188  1.00  0.00     0.261 C 
BRANCH   4   5
ATOM      5  O   UNL A   1      34.105  27.975  26.025  1.00  0.00    -0.463 OA
BRANCH   5   6
ATOM      6  C   UNL A   1      33.440  26.794  26.075  1.00  0.00     0.310 C 
ATOM      7  O   UNL A   1      32.478  26.678  26.834  1.00  0.00    -0.252 OA
BRANCH   6   8
ATOM      8  C   UNL A   1      33.950  25.615  25.269  1.00  0.00     0.160 C 
BRANCH   8   9
ATOM      9  C   UNL A   1      33.633  24.249  25.833  1.00  0.00    -0.013 A 
ATOM     10  C   UNL A   1      34.555  23.694  26.746  1.00  0.00     0.006 A 
ATOM     11  C   UNL A   1      32.482  23.510  25.461  1.00  0.00     0.042 A 
ATOM     12  C   UNL A   1      34.336  22.444  27.311  1.00  0.00     0.000 A 
ATOM     13  C   UNL A   1      32.309  22.236  26.022  1.00  0.00     0.026 A 
ATOM     14  C   UNL A   1      33.218  21.711  26.943  1.00  0.00     0.002 A 
BRANCH  11  15
ATOM     15  N   UNL A   1      31.497  24.074  24.615  1.00  0.00    -0.354 N 
ATOM     16  H   UNL A   1      30.572  23.881  24.888  1.00  0.00     0.167 HD
BRANCH  15  17
ATOM     17  C   UNL A   1      31.606  24.867  23.443  1.00  0.00     0.070 A 
ATOM     18  C   UNL A   1      30.915  26.107  23.416  1.00  0.00     0.065 A 
ATOM     19  C   UNL A   1      32.408  24.538  22.332  1.00  0.00     0.080 A 
ATOM     20  Cl  UNL A   1      29.832  26.541  24.700  1.00  0.00    -0.082 Cl
ATOM     21  C   UNL A   1      31.068  27.018  22.368  1.00  0.00     0.023 A 
ATOM     22  C   UNL A   1      32.567  25.487  21.290  1.00  0.00     0.015 A 
ATOM     23  C   UNL A   1      31.913  26.716  21.311  1.00  0.00     0.002 A 
BRANCH  19  24
ATOM     24  C   UNL A   1      33.086  23.206  22.118  1.00  0.00     0.418 C 
ATOM     25  F   UNL A   1      33.394  23.011  20.797  1.00  0.00    -0.166 F 
ATOM     26  F   UNL A   1      34.280  23.117  22.768  1.00  0.00    -0.166 F 
ATOM     27  F   UNL A   1      32.375  22.100  22.459  1.00  0.00    -0.166 F 
ENDBRANCH  19  24
ENDBRANCH  15  17
ENDBRANCH  11  15
ENDBRANCH   8   9
ENDBRANCH   6   8
ENDBRANCH   5   6
ENDBRANCH   4   5
ENDBRANCH   3   4
ENDBRANCH   2   3
ENDBRANCH   1   2
BRANCH   1  28
ATOM     28  C   UNL A   1      35.282  32.646  28.467  1.00  0.00     0.188 C 
BRANCH  28  29
ATOM     29  O   UNL A   1      35.426  33.741  29.355  1.00  0.00    -0.376 OA
BRANCH  29  30
ATOM     30  C   UNL A   1      35.007  33.580  30.708  1.00  0.00     0.202 C 
BRANCH  30  31
ATOM     31  C   UNL A   1      35.084  32.184  31.328  1.00  0.00     0.261 C 
BRANCH  31  32
ATOM     32  O   UNL A   1      36.437  31.817  31.664  1.00  0.00    -0.460 OA
BRANCH  32  33
ATOM     33  C   UNL A   1      36.807  30.575  31.263  1.00  0.00     0.338 C 
ATOM     34  O   UNL A   1      36.095  29.593  31.170  1.00  0.00    -0.246 OA
BRANCH  33  35
ATOM     35  C   UNL A   1      38.210  30.573  30.815  1.00  0.00     0.060 A 
ATOM     36  C   UNL A   1      38.464  30.689  29.443  1.00  0.00     0.016 A 
ATOM     37  C   UNL A   1      39.246  30.303  31.711  1.00  0.00     0.016 A 
ATOM     38  C   UNL A   1      39.754  30.488  28.953  1.00  0.00     0.010 A 
ATOM     39  C   UNL A   1      40.536  30.082  31.214  1.00  0.00     0.010 A 
ATOM     40  C   UNL A   1      40.786  30.132  29.831  1.00  0.00    -0.014 A 
BRANCH  40  41
ATOM     41  C   UNL A   1      42.072  29.630  29.286  1.00  0.00     0.031 A 
ATOM     42  C   UNL A   1      43.232  30.583  29.171  1.00  0.00     0.074 A 
ATOM     43  C   UNL A   1      42.218  28.344  28.919  1.00  0.00     0.049 A 
ATOM     44  N   UNL A   1      44.433  30.373  28.696  1.00  0.00    -0.248 NA
ATOM     45  C   UNL A   1      43.007  31.955  29.655  1.00  0.00     0.031 C 
ATOM     46  C   UNL A   1      41.191  27.310  29.025  1.00  0.00     0.029 A 
ATOM     47  N   UNL A   1      43.298  27.695  28.375  1.00  0.00    -0.354 N 
ATOM     48  C   UNL A   1      45.106  31.583  28.823  1.00  0.00     0.074 A 
ATOM     49  C   UNL A   1      44.173  32.529  29.395  1.00  0.00     0.031 C 
ATOM     50  C   UNL A   1      41.688  26.154  28.550  1.00  0.00     0.029 A 
ATOM     51  C   UNL A   1      43.056  26.376  28.080  1.00  0.00     0.049 A 
ATOM     52  H   UNL A   1      44.165  28.133  28.214  1.00  0.00     0.167 HD
ATOM     53  C   UNL A   1      46.387  31.881  28.496  1.00  0.00     0.031 A 
ATOM     54  C   UNL A   1      43.839  25.458  27.478  1.00  0.00     0.031 A 
ATOM     55  C   UNL A   1      47.311  30.951  27.906  1.00  0.00     0.049 A 
ATOM     56  C   UNL A   1      45.232  25.836  27.044  1.00  0.00     0.074 A 
ATOM     57  C   UNL A   1      48.629  31.163  27.540  1.00  0.00     0.029 A 
ATOM     58  N   UNL A   1      47.013  29.637  27.585  1.00  0.00    -0.354 N 
ATOM     59  N   UNL A   1      45.860  26.980  27.186  1.00  0.00    -0.248 NA
ATOM     60  C   UNL A   1      46.025  24.796  26.373  1.00  0.00     0.031 C 
ATOM     61  C   UNL A   1      49.113  29.990  26.951  1.00  0.00     0.029 A 
ATOM     62  C   UNL A   1      48.114  29.031  27.003  1.00  0.00     0.049 A 
ATOM     63  H   UNL A   1      46.147  29.198  27.747  1.00  0.00     0.167 HD
ATOM     64  C   UNL A   1      47.129  26.786  26.648  1.00  0.00     0.074 A 
ATOM     65  C   UNL A   1      47.184  25.414  26.188  1.00  0.00     0.031 C 
ATOM     66  C   UNL A   1      48.158  27.664  26.548  1.00  0.00     0.031 A 
BRANCH  53  67
ATOM     67  C   UNL A   1      46.850  33.292  28.743  1.00  0.00    -0.014 A 
ATOM     68  C   UNL A   1      46.748  34.276  27.744  1.00  0.00     0.010 A 
ATOM     69  C   UNL A   1      47.369  33.644  30.002  1.00  0.00     0.010 A 
ATOM     70  C   UNL A   1      47.193  35.578  27.987  1.00  0.00     0.020 A 
ATOM     71  C   UNL A   1      47.791  34.951  30.257  1.00  0.00     0.020 A 
ATOM     72  C   UNL A   1      47.717  35.906  29.241  1.00  0.00     0.054 A 
BRANCH  72  73
ATOM     73  S   UNL A   1      48.276  37.607  29.536  1.00  0.00     0.124 S 
ATOM     74  O   UNL A   1      49.692  37.523  29.189  1.00  0.00    -0.237 OA
ATOM     75  O   UNL A   1      47.449  38.381  28.613  1.00  0.00    -0.237 OA
ATOM     76  O   UNL A   1      47.993  37.824  30.953  1.00  0.00    -0.744 OA
ENDBRANCH  72  73
ENDBRANCH  53  67
BRANCH  54  77
ATOM     77  C   UNL A   1      43.317  24.088  27.223  1.00  0.00    -0.014 A 
ATOM     78  C   UNL A   1      43.248  23.140  28.259  1.00  0.00     0.010 A 
ATOM     79  C   UNL A   1      42.899  23.720  25.930  1.00  0.00     0.010 A 
ATOM     80  C   UNL A   1      42.788  21.844  28.004  1.00  0.00     0.020 A 
ATOM     81  C   UNL A   1      42.414  22.434  25.677  1.00  0.00     0.020 A 
ATOM     82  C   UNL A   1      42.374  21.500  26.714  1.00  0.00     0.054 A 
BRANCH  82  83
ATOM     83  S   UNL A   1      41.742  19.825  26.413  1.00  0.00     0.124 S 
ATOM     84  O   UNL A   1      42.151  19.124  27.625  1.00  0.00    -0.237 OA
ATOM     85  O   UNL A   1      40.307  20.051  26.265  1.00  0.00    -0.237 OA
ATOM     86  O   UNL A   1      42.430  19.416  25.189  1.00  0.00    -0.744 OA
ENDBRANCH  82  83
ENDBRANCH  54  77
BRANCH  66  87
ATOM     87  C   UNL A   1      49.448  27.164  25.952  1.00  0.00    -0.014 A 
ATOM     88  C   UNL A   1      49.708  27.272  24.574  1.00  0.00     0.010 A 
ATOM     89  C   UNL A   1      50.440  26.630  26.795  1.00  0.00     0.010 A 
ATOM     90  C   UNL A   1      50.924  26.827  24.047  1.00  0.00     0.020 A 
ATOM     91  C   UNL A   1      51.667  26.207  26.275  1.00  0.00     0.020 A 
ATOM     92  C   UNL A   1      51.895  26.295  24.901  1.00  0.00     0.054 A 
BRANCH  92  93
ATOM     93  S   UNL A   1      53.483  25.763  24.200  1.00  0.00     0.124 S 
ATOM     94  O   UNL A   1      53.232  25.868  22.766  1.00  0.00    -0.237 OA
ATOM     95  O   UNL A   1      54.421  26.741  24.747  1.00  0.00    -0.237 OA
ATOM     96  O   UNL A   1      53.646  24.402  24.707  1.00  0.00    -0.744 OA
ENDBRANCH  92  93
ENDBRANCH  66  87
ENDBRANCH  40  41
ENDBRANCH  33  35
ENDBRANCH  32  33
ENDBRANCH  31  32
ENDBRANCH  30  31
ENDBRANCH  29  30
ENDBRANCH  28  29
ENDBRANCH   1  28
TORSDOF 24
ENDMDL
