MODEL 1
REMARK VINA RESULT:      -8.8      0.000      0.000
REMARK SMILES CC(=O)Oc1ccccc1C(=O)OCCOCCOCCOC(=O)c1ccc(-c2c3nc(c(-c4ccc(S(=O)(=O)[O-])cc4)c4ccc([nH]4)c(-c4ccc(S(=O)(=O)[O-])cc4)c4nc(c(-c5ccc(S(=O)(=O)[O-])cc5)c5ccc2[nH]5)C=C4)C=C3)cc1
REMARK SMILES IDX 18 1 17 2 16 3 15 4 14 5 13 6 11 7 12 8 10 9 5 10 6 11 7 12
REMARK SMILES IDX 9 13 8 14 4 15 2 16 1 17 3 18 19 19 20 20 21 21 22 22 23 23
REMARK SMILES IDX 24 24 25 25 26 26 84 27 27 28 83 29 28 30 29 31 30 32 77 33
REMARK SMILES IDX 31 34 82 35 76 36 78 37 32 38 81 39 75 40 74 41 33 43 63 44
REMARK SMILES IDX 44 45 62 46 45 47 48 48 61 49 79 50 46 51 47 52 60 54 80 55
REMARK SMILES IDX 49 56 34 57 35 58 43 59 36 60 42 61 37 62 38 63 39 64 40 65
REMARK SMILES IDX 41 66 64 67 65 68 73 69 66 70 72 71 67 72 68 73 69 74 70 75
REMARK SMILES IDX 71 76 50 77 51 78 59 79 52 80 58 81 53 82 54 83 55 84 56 85
REMARK SMILES IDX 57 86
REMARK H PARENT 78 42 48 53
REMARK Flexibility Score: inf
ROOT
ATOM      1  C   UNL A   1      34.035  33.559  29.281  1.00  0.00     0.188 C 
ENDROOT
BRANCH   1   2
ATOM      2  C   UNL A   1      34.454  32.867  27.967  1.00  0.00     0.188 C 
BRANCH   2   3
ATOM      3  O   UNL A   1      33.572  31.899  27.402  1.00  0.00    -0.376 OA
BRANCH   3   4
ATOM      4  C   UNL A   1      33.910  30.518  27.510  1.00  0.00     0.202 C 
BRANCH   4   5
ATOM      5  C   UNL A   1      32.971  29.498  26.858  1.00  0.00     0.261 C 
BRANCH   5   6
ATOM      6  O   UNL A   1      33.352  28.145  27.159  1.00  0.00    -0.460 OA
BRANCH   6   7
ATOM      7  C   UNL A   1      32.482  27.187  26.734  1.00  0.00     0.342 C 
ATOM      8  O   UNL A   1      31.368  26.993  27.161  1.00  0.00    -0.246 OA
BRANCH   7   9
ATOM      9  C   UNL A   1      33.006  26.514  25.515  1.00  0.00     0.102 A 
ATOM     10  C   UNL A   1      32.713  26.880  24.194  1.00  0.00     0.145 A 
ATOM     11  C   UNL A   1      33.225  26.139  23.121  1.00  0.00     0.048 A 
ATOM     12  C   UNL A   1      34.021  25.019  23.361  1.00  0.00     0.004 A 
ATOM     13  C   UNL A   1      33.804  25.380  25.740  1.00  0.00     0.019 A 
ATOM     14  C   UNL A   1      34.298  24.630  24.670  1.00  0.00     0.001 A 
BRANCH  10  15
ATOM     15  O   UNL A   1      31.761  27.853  23.844  1.00  0.00    -0.426 OA
BRANCH  15  16
ATOM     16  C   UNL A   1      30.668  27.458  23.086  1.00  0.00     0.308 C 
ATOM     17  C   UNL A   1      29.688  26.753  23.976  1.00  0.00     0.139 C 
ATOM     18  O   UNL A   1      30.523  27.624  21.883  1.00  0.00    -0.252 OA
ENDBRANCH  15  16
ENDBRANCH  10  15
ENDBRANCH   7   9
ENDBRANCH   6   7
ENDBRANCH   5   6
ENDBRANCH   4   5
ENDBRANCH   3   4
ENDBRANCH   2   3
ENDBRANCH   1   2
BRANCH   1  19
ATOM     19  O   UNL A   1      32.952  34.451  29.141  1.00  0.00    -0.376 OA
BRANCH  19  20
ATOM     20  C   UNL A   1      33.159  35.841  29.309  1.00  0.00     0.202 C 
BRANCH  20  21
ATOM     21  C   UNL A   1      32.572  36.684  30.459  1.00  0.00     0.261 C 
BRANCH  21  22
ATOM     22  O   UNL A   1      33.149  36.557  31.759  1.00  0.00    -0.460 OA
BRANCH  22  23
ATOM     23  C   UNL A   1      32.906  35.404  32.424  1.00  0.00     0.338 C 
ATOM     24  O   UNL A   1      31.821  34.959  32.750  1.00  0.00    -0.246 OA
BRANCH  23  25
ATOM     25  C   UNL A   1      34.185  34.668  32.530  1.00  0.00     0.060 A 
ATOM     26  C   UNL A   1      34.159  33.328  32.936  1.00  0.00     0.016 A 
ATOM     27  C   UNL A   1      35.395  35.297  32.229  1.00  0.00     0.016 A 
ATOM     28  C   UNL A   1      35.354  32.621  33.074  1.00  0.00     0.010 A 
ATOM     29  C   UNL A   1      36.592  34.592  32.387  1.00  0.00     0.010 A 
ATOM     30  C   UNL A   1      36.578  33.261  32.839  1.00  0.00    -0.014 A 
BRANCH  30  31
ATOM     31  C   UNL A   1      37.848  32.613  33.250  1.00  0.00     0.031 A 
ATOM     32  C   UNL A   1      38.365  32.881  34.637  1.00  0.00     0.074 A 
ATOM     33  C   UNL A   1      38.530  31.808  32.416  1.00  0.00     0.049 A 
ATOM     34  N   UNL A   1      39.476  32.483  35.199  1.00  0.00    -0.248 NA
ATOM     35  C   UNL A   1      37.512  33.710  35.506  1.00  0.00     0.031 C 
ATOM     36  C   UNL A   1      38.115  31.439  31.063  1.00  0.00     0.029 A 
ATOM     37  N   UNL A   1      39.730  31.164  32.588  1.00  0.00    -0.354 N 
ATOM     38  C   UNL A   1      39.459  33.013  36.483  1.00  0.00     0.074 A 
ATOM     39  C   UNL A   1      38.240  33.781  36.611  1.00  0.00     0.031 C 
ATOM     40  C   UNL A   1      39.059  30.648  30.520  1.00  0.00     0.029 A 
ATOM     41  C   UNL A   1      40.154  30.480  31.474  1.00  0.00     0.049 A 
ATOM     42  H   UNL A   1      40.238  31.189  33.431  1.00  0.00     0.167 HD
ATOM     43  C   UNL A   1      40.372  32.872  37.471  1.00  0.00     0.031 A 
ATOM     44  C   UNL A   1      41.307  29.819  31.244  1.00  0.00     0.031 A 
ATOM     45  C   UNL A   1      41.597  32.133  37.338  1.00  0.00     0.049 A 
ATOM     46  C   UNL A   1      42.347  29.740  32.333  1.00  0.00     0.074 A 
ATOM     47  C   UNL A   1      42.593  31.940  38.279  1.00  0.00     0.029 A 
ATOM     48  N   UNL A   1      41.997  31.470  36.188  1.00  0.00    -0.354 N 
ATOM     49  N   UNL A   1      42.308  30.232  33.549  1.00  0.00    -0.248 NA
ATOM     50  C   UNL A   1      43.584  29.009  32.021  1.00  0.00     0.031 C 
ATOM     51  C   UNL A   1      43.617  31.197  37.683  1.00  0.00     0.029 A 
ATOM     52  C   UNL A   1      43.232  30.880  36.390  1.00  0.00     0.049 A 
ATOM     53  H   UNL A   1      41.479  31.425  35.352  1.00  0.00     0.167 HD
ATOM     54  C   UNL A   1      43.499  29.842  34.154  1.00  0.00     0.074 A 
ATOM     55  C   UNL A   1      44.233  29.067  33.177  1.00  0.00     0.031 C 
ATOM     56  C   UNL A   1      43.944  30.100  35.409  1.00  0.00     0.031 A 
BRANCH  43  57
ATOM     57  C   UNL A   1      40.088  33.560  38.779  1.00  0.00    -0.014 A 
ATOM     58  C   UNL A   1      39.402  32.895  39.810  1.00  0.00     0.010 A 
ATOM     59  C   UNL A   1      40.538  34.875  38.988  1.00  0.00     0.010 A 
ATOM     60  C   UNL A   1      39.141  33.547  41.018  1.00  0.00     0.020 A 
ATOM     61  C   UNL A   1      40.299  35.522  40.203  1.00  0.00     0.020 A 
ATOM     62  C   UNL A   1      39.589  34.858  41.205  1.00  0.00     0.054 A 
BRANCH  62  63
ATOM     63  S   UNL A   1      39.257  35.672  42.792  1.00  0.00     0.124 S 
ATOM     64  O   UNL A   1      37.819  35.465  42.941  1.00  0.00    -0.237 OA
ATOM     65  O   UNL A   1      40.098  34.921  43.720  1.00  0.00    -0.237 OA
ATOM     66  O   UNL A   1      39.667  37.056  42.564  1.00  0.00    -0.744 OA
ENDBRANCH  62  63
ENDBRANCH  43  57
BRANCH  44  67
ATOM     67  C   UNL A   1      41.561  29.200  29.913  1.00  0.00    -0.014 A 
ATOM     68  C   UNL A   1      42.174  29.934  28.882  1.00  0.00     0.010 A 
ATOM     69  C   UNL A   1      41.166  27.873  29.663  1.00  0.00     0.010 A 
ATOM     70  C   UNL A   1      42.362  29.362  27.620  1.00  0.00     0.020 A 
ATOM     71  C   UNL A   1      41.376  27.288  28.411  1.00  0.00     0.020 A 
ATOM     72  C   UNL A   1      41.959  28.043  27.392  1.00  0.00     0.054 A 
BRANCH  72  73
ATOM     73  S   UNL A   1      42.238  27.310  25.755  1.00  0.00     0.124 S 
ATOM     74  O   UNL A   1      43.543  26.678  25.925  1.00  0.00    -0.237 OA
ATOM     75  O   UNL A   1      41.105  26.397  25.621  1.00  0.00    -0.237 OA
ATOM     76  O   UNL A   1      42.210  28.462  24.856  1.00  0.00    -0.744 OA
ENDBRANCH  72  73
ENDBRANCH  44  67
BRANCH  56  77
ATOM     77  C   UNL A   1      45.262  29.500  35.824  1.00  0.00    -0.014 A 
ATOM     78  C   UNL A   1      46.467  30.208  35.678  1.00  0.00     0.010 A 
ATOM     79  C   UNL A   1      45.279  28.234  36.440  1.00  0.00     0.010 A 
ATOM     80  C   UNL A   1      47.670  29.649  36.120  1.00  0.00     0.020 A 
ATOM     81  C   UNL A   1      46.476  27.685  36.907  1.00  0.00     0.020 A 
ATOM     82  C   UNL A   1      47.667  28.392  36.733  1.00  0.00     0.054 A 
BRANCH  82  83
ATOM     83  S   UNL A   1      49.233  27.714  37.349  1.00  0.00     0.124 S 
ATOM     84  O   UNL A   1      49.253  28.198  38.726  1.00  0.00    -0.237 OA
ATOM     85  O   UNL A   1      49.044  26.274  37.191  1.00  0.00    -0.237 OA
ATOM     86  O   UNL A   1      50.237  28.304  36.466  1.00  0.00    -0.744 OA
ENDBRANCH  82  83
ENDBRANCH  56  77
ENDBRANCH  30  31
ENDBRANCH  23  25
ENDBRANCH  22  23
ENDBRANCH  21  22
ENDBRANCH  20  21
ENDBRANCH  19  20
ENDBRANCH   1  19
TORSDOF 22
ENDMDL
MODEL 2
REMARK VINA RESULT:      -8.6      2.907      9.932
REMARK SMILES CC(=O)Oc1ccccc1C(=O)OCCOCCOCCOC(=O)c1ccc(-c2c3nc(c(-c4ccc(S(=O)(=O)[O-])cc4)c4ccc([nH]4)c(-c4ccc(S(=O)(=O)[O-])cc4)c4nc(c(-c5ccc(S(=O)(=O)[O-])cc5)c5ccc2[nH]5)C=C4)C=C3)cc1
REMARK SMILES IDX 18 1 17 2 16 3 15 4 14 5 13 6 11 7 12 8 10 9 5 10 6 11 7 12
REMARK SMILES IDX 9 13 8 14 4 15 2 16 1 17 3 18 19 19 20 20 21 21 22 22 23 23
REMARK SMILES IDX 24 24 25 25 26 26 84 27 27 28 83 29 28 30 29 31 30 32 77 33
REMARK SMILES IDX 31 34 82 35 76 36 78 37 32 38 81 39 75 40 74 41 33 43 63 44
REMARK SMILES IDX 44 45 62 46 45 47 48 48 61 49 79 50 46 51 47 52 60 54 80 55
REMARK SMILES IDX 49 56 34 57 35 58 43 59 36 60 42 61 37 62 38 63 39 64 40 65
REMARK SMILES IDX 41 66 64 67 65 68 73 69 66 70 72 71 67 72 68 73 69 74 70 75
REMARK SMILES IDX 71 76 50 77 51 78 59 79 52 80 58 81 53 82 54 83 55 84 56 85
REMARK SMILES IDX 57 86
REMARK H PARENT 78 42 48 53
REMARK Flexibility Score: inf
ROOT
ATOM      1  C   UNL A   1      40.429  21.648  27.231  1.00  0.00     0.188 C 
ENDROOT
BRANCH   1   2
ATOM      2  C   UNL A   1      39.563  21.483  25.965  1.00  0.00     0.188 C 
BRANCH   2   3
ATOM      3  O   UNL A   1      39.156  20.168  25.590  1.00  0.00    -0.376 OA
BRANCH   3   4
ATOM      4  C   UNL A   1      37.871  19.990  24.998  1.00  0.00     0.202 C 
BRANCH   4   5
ATOM      5  C   UNL A   1      36.981  21.225  24.833  1.00  0.00     0.261 C 
BRANCH   5   6
ATOM      6  O   UNL A   1      35.927  21.265  25.810  1.00  0.00    -0.460 OA
BRANCH   6   7
ATOM      7  C   UNL A   1      35.401  22.498  26.049  1.00  0.00     0.342 C 
ATOM      8  O   UNL A   1      36.023  23.516  26.241  1.00  0.00    -0.246 OA
BRANCH   7   9
ATOM      9  C   UNL A   1      33.926  22.481  25.848  1.00  0.00     0.102 A 
ATOM     10  C   UNL A   1      33.276  22.364  24.612  1.00  0.00     0.145 A 
ATOM     11  C   UNL A   1      31.877  22.411  24.537  1.00  0.00     0.048 A 
ATOM     12  C   UNL A   1      31.121  22.589  25.696  1.00  0.00     0.004 A 
ATOM     13  C   UNL A   1      33.151  22.666  27.004  1.00  0.00     0.019 A 
ATOM     14  C   UNL A   1      31.758  22.732  26.927  1.00  0.00     0.001 A 
BRANCH  10  15
ATOM     15  O   UNL A   1      33.938  22.393  23.373  1.00  0.00    -0.426 OA
BRANCH  15  16
ATOM     16  C   UNL A   1      33.722  23.481  22.539  1.00  0.00     0.308 C 
ATOM     17  C   UNL A   1      34.107  24.735  23.267  1.00  0.00     0.139 C 
ATOM     18  O   UNL A   1      33.267  23.446  21.404  1.00  0.00    -0.252 OA
ENDBRANCH  15  16
ENDBRANCH  10  15
ENDBRANCH   7   9
ENDBRANCH   6   7
ENDBRANCH   5   6
ENDBRANCH   4   5
ENDBRANCH   3   4
ENDBRANCH   2   3
ENDBRANCH   1   2
BRANCH   1  19
ATOM     19  O   UNL A   1      41.815  21.541  26.997  1.00  0.00    -0.376 OA
BRANCH  19  20
ATOM     20  C   UNL A   1      42.385  22.152  25.854  1.00  0.00     0.202 C 
BRANCH  20  21
ATOM     21  C   UNL A   1      42.662  23.662  25.712  1.00  0.00     0.261 C 
BRANCH  21  22
ATOM     22  O   UNL A   1      41.627  24.580  26.067  1.00  0.00    -0.460 OA
BRANCH  22  23
ATOM     23  C   UNL A   1      41.904  25.896  25.922  1.00  0.00     0.338 C 
ATOM     24  O   UNL A   1      42.008  26.514  24.878  1.00  0.00    -0.246 OA
BRANCH  23  25
ATOM     25  C   UNL A   1      41.877  26.512  27.266  1.00  0.00     0.060 A 
ATOM     26  C   UNL A   1      40.963  26.030  28.211  1.00  0.00     0.016 A 
ATOM     27  C   UNL A   1      42.749  27.555  27.588  1.00  0.00     0.016 A 
ATOM     28  C   UNL A   1      40.897  26.614  29.476  1.00  0.00     0.010 A 
ATOM     29  C   UNL A   1      42.667  28.152  28.850  1.00  0.00     0.010 A 
ATOM     30  C   UNL A   1      41.721  27.705  29.787  1.00  0.00    -0.014 A 
BRANCH  30  31
ATOM     31  C   UNL A   1      41.466  28.504  31.011  1.00  0.00     0.031 A 
ATOM     32  C   UNL A   1      40.347  29.510  30.980  1.00  0.00     0.074 A 
ATOM     33  C   UNL A   1      42.206  28.347  32.122  1.00  0.00     0.049 A 
ATOM     34  N   UNL A   1      39.975  30.365  31.897  1.00  0.00    -0.248 NA
ATOM     35  C   UNL A   1      39.540  29.557  29.749  1.00  0.00     0.031 C 
ATOM     36  C   UNL A   1      43.290  27.381  32.291  1.00  0.00     0.029 A 
ATOM     37  N   UNL A   1      42.160  29.015  33.321  1.00  0.00    -0.354 N 
ATOM     38  C   UNL A   1      38.896  31.052  31.355  1.00  0.00     0.074 A 
ATOM     39  C   UNL A   1      38.686  30.533  30.021  1.00  0.00     0.031 C 
ATOM     40  C   UNL A   1      43.822  27.534  33.518  1.00  0.00     0.029 A 
ATOM     41  C   UNL A   1      43.135  28.625  34.208  1.00  0.00     0.049 A 
ATOM     42  H   UNL A   1      41.491  29.708  33.525  1.00  0.00     0.167 HD
ATOM     43  C   UNL A   1      38.142  32.025  31.916  1.00  0.00     0.031 A 
ATOM     44  C   UNL A   1      43.453  29.114  35.424  1.00  0.00     0.031 A 
ATOM     45  C   UNL A   1      38.366  32.562  33.230  1.00  0.00     0.049 A 
ATOM     46  C   UNL A   1      42.648  30.253  35.999  1.00  0.00     0.074 A 
ATOM     47  C   UNL A   1      37.663  33.558  33.885  1.00  0.00     0.029 A 
ATOM     48  N   UNL A   1      39.374  32.153  34.089  1.00  0.00    -0.354 N 
ATOM     49  N   UNL A   1      41.618  30.881  35.481  1.00  0.00    -0.248 NA
ATOM     50  C   UNL A   1      43.045  30.745  37.327  1.00  0.00     0.031 C 
ATOM     51  C   UNL A   1      38.273  33.782  35.122  1.00  0.00     0.029 A 
ATOM     52  C   UNL A   1      39.322  32.886  35.261  1.00  0.00     0.049 A 
ATOM     53  H   UNL A   1      40.030  31.444  33.894  1.00  0.00     0.167 HD
ATOM     54  C   UNL A   1      41.227  31.817  36.433  1.00  0.00     0.074 A 
ATOM     55  C   UNL A   1      42.122  31.669  37.561  1.00  0.00     0.031 C 
ATOM     56  C   UNL A   1      40.214  32.716  36.380  1.00  0.00     0.031 A 
BRANCH  43  57
ATOM     57  C   UNL A   1      37.019  32.591  31.091  1.00  0.00    -0.014 A 
ATOM     58  C   UNL A   1      35.677  32.335  31.426  1.00  0.00     0.010 A 
ATOM     59  C   UNL A   1      37.308  33.412  29.987  1.00  0.00     0.010 A 
ATOM     60  C   UNL A   1      34.644  32.864  30.648  1.00  0.00     0.020 A 
ATOM     61  C   UNL A   1      36.277  33.962  29.222  1.00  0.00     0.020 A 
ATOM     62  C   UNL A   1      34.951  33.672  29.549  1.00  0.00     0.054 A 
BRANCH  62  63
ATOM     63  S   UNL A   1      33.589  34.364  28.571  1.00  0.00     0.124 S 
ATOM     64  O   UNL A   1      32.639  34.751  29.611  1.00  0.00    -0.237 OA
ATOM     65  O   UNL A   1      34.230  35.469  27.864  1.00  0.00    -0.237 OA
ATOM     66  O   UNL A   1      33.167  33.248  27.726  1.00  0.00    -0.744 OA
ENDBRANCH  62  63
ENDBRANCH  43  57
BRANCH  44  67
ATOM     67  C   UNL A   1      44.608  28.552  36.177  1.00  0.00    -0.014 A 
ATOM     68  C   UNL A   1      45.904  29.070  36.000  1.00  0.00     0.010 A 
ATOM     69  C   UNL A   1      44.419  27.474  37.062  1.00  0.00     0.010 A 
ATOM     70  C   UNL A   1      46.991  28.503  36.673  1.00  0.00     0.020 A 
ATOM     71  C   UNL A   1      45.499  26.921  37.756  1.00  0.00     0.020 A 
ATOM     72  C   UNL A   1      46.781  27.431  37.544  1.00  0.00     0.054 A 
BRANCH  72  73
ATOM     73  S   UNL A   1      48.202  26.727  38.429  1.00  0.00     0.124 S 
ATOM     74  O   UNL A   1      47.559  26.076  39.566  1.00  0.00    -0.237 OA
ATOM     75  O   UNL A   1      48.783  25.831  37.432  1.00  0.00    -0.237 OA
ATOM     76  O   UNL A   1      49.016  27.897  38.753  1.00  0.00    -0.744 OA
ENDBRANCH  72  73
ENDBRANCH  44  67
BRANCH  56  77
ATOM     77  C   UNL A   1      39.978  33.581  37.592  1.00  0.00    -0.014 A 
ATOM     78  C   UNL A   1      40.473  34.893  37.662  1.00  0.00     0.010 A 
ATOM     79  C   UNL A   1      39.181  33.090  38.643  1.00  0.00     0.010 A 
ATOM     80  C   UNL A   1      40.195  35.694  38.774  1.00  0.00     0.020 A 
ATOM     81  C   UNL A   1      38.879  33.895  39.744  1.00  0.00     0.020 A 
ATOM     82  C   UNL A   1      39.398  35.190  39.808  1.00  0.00     0.054 A 
BRANCH  82  83
ATOM     83  S   UNL A   1      39.004  36.266  41.214  1.00  0.00     0.124 S 
ATOM     84  O   UNL A   1      38.920  37.577  40.580  1.00  0.00    -0.237 OA
ATOM     85  O   UNL A   1      37.739  35.716  41.695  1.00  0.00    -0.237 OA
ATOM     86  O   UNL A   1      40.139  36.082  42.118  1.00  0.00    -0.744 OA
ENDBRANCH  82  83
ENDBRANCH  56  77
ENDBRANCH  30  31
ENDBRANCH  23  25
ENDBRANCH  22  23
ENDBRANCH  21  22
ENDBRANCH  20  21
ENDBRANCH  19  20
ENDBRANCH   1  19
TORSDOF 22
ENDMDL
MODEL 3
REMARK VINA RESULT:      -8.6      7.204     13.110
REMARK SMILES CC(=O)Oc1ccccc1C(=O)OCCOCCOCCOC(=O)c1ccc(-c2c3nc(c(-c4ccc(S(=O)(=O)[O-])cc4)c4ccc([nH]4)c(-c4ccc(S(=O)(=O)[O-])cc4)c4nc(c(-c5ccc(S(=O)(=O)[O-])cc5)c5ccc2[nH]5)C=C4)C=C3)cc1
REMARK SMILES IDX 18 1 17 2 16 3 15 4 14 5 13 6 11 7 12 8 10 9 5 10 6 11 7 12
REMARK SMILES IDX 9 13 8 14 4 15 2 16 1 17 3 18 19 19 20 20 21 21 22 22 23 23
REMARK SMILES IDX 24 24 25 25 26 26 84 27 27 28 83 29 28 30 29 31 30 32 77 33
REMARK SMILES IDX 31 34 82 35 76 36 78 37 32 38 81 39 75 40 74 41 33 43 63 44
REMARK SMILES IDX 44 45 62 46 45 47 48 48 61 49 79 50 46 51 47 52 60 54 80 55
REMARK SMILES IDX 49 56 34 57 35 58 43 59 36 60 42 61 37 62 38 63 39 64 40 65
REMARK SMILES IDX 41 66 64 67 65 68 73 69 66 70 72 71 67 72 68 73 69 74 70 75
REMARK SMILES IDX 71 76 50 77 51 78 59 79 52 80 58 81 53 82 54 83 55 84 56 85
REMARK SMILES IDX 57 86
REMARK H PARENT 78 42 48 53
REMARK Flexibility Score: inf
ROOT
ATOM      1  C   UNL A   1      41.109  21.541  27.277  1.00  0.00     0.188 C 
ENDROOT
BRANCH   1   2
ATOM      2  C   UNL A   1      39.982  22.192  26.448  1.00  0.00     0.188 C 
BRANCH   2   3
ATOM      3  O   UNL A   1      39.553  23.505  26.802  1.00  0.00    -0.376 OA
BRANCH   3   4
ATOM      4  C   UNL A   1      38.206  23.884  26.529  1.00  0.00     0.202 C 
BRANCH   4   5
ATOM      5  C   UNL A   1      37.350  22.932  25.689  1.00  0.00     0.261 C 
BRANCH   5   6
ATOM      6  O   UNL A   1      36.380  23.637  24.895  1.00  0.00    -0.460 OA
BRANCH   6   7
ATOM      7  C   UNL A   1      35.972  22.991  23.767  1.00  0.00     0.342 C 
ATOM      8  O   UNL A   1      36.547  22.975  22.704  1.00  0.00    -0.246 OA
BRANCH   7   9
ATOM      9  C   UNL A   1      34.799  22.124  24.061  1.00  0.00     0.102 A 
ATOM     10  C   UNL A   1      33.456  22.486  23.890  1.00  0.00     0.145 A 
ATOM     11  C   UNL A   1      32.430  21.603  24.250  1.00  0.00     0.048 A 
ATOM     12  C   UNL A   1      32.740  20.357  24.796  1.00  0.00     0.004 A 
ATOM     13  C   UNL A   1      35.094  20.868  24.618  1.00  0.00     0.019 A 
ATOM     14  C   UNL A   1      34.070  19.996  24.994  1.00  0.00     0.001 A 
BRANCH  10  15
ATOM     15  O   UNL A   1      33.032  23.782  23.550  1.00  0.00    -0.426 OA
BRANCH  15  16
ATOM     16  C   UNL A   1      31.949  24.318  24.232  1.00  0.00     0.308 C 
ATOM     17  C   UNL A   1      30.819  24.521  23.267  1.00  0.00     0.139 C 
ATOM     18  O   UNL A   1      31.912  24.610  25.419  1.00  0.00    -0.252 OA
ENDBRANCH  15  16
ENDBRANCH  10  15
ENDBRANCH   7   9
ENDBRANCH   6   7
ENDBRANCH   5   6
ENDBRANCH   4   5
ENDBRANCH   3   4
ENDBRANCH   2   3
ENDBRANCH   1   2
BRANCH   1  19
ATOM     19  O   UNL A   1      41.099  20.132  27.255  1.00  0.00    -0.376 OA
BRANCH  19  20
ATOM     20  C   UNL A   1      41.390  19.445  26.051  1.00  0.00     0.202 C 
BRANCH  20  21
ATOM     21  C   UNL A   1      42.746  18.790  25.721  1.00  0.00     0.261 C 
BRANCH  21  22
ATOM     22  O   UNL A   1      43.376  19.116  24.481  1.00  0.00    -0.460 OA
BRANCH  22  23
ATOM     23  C   UNL A   1      44.643  19.585  24.546  1.00  0.00     0.338 C 
ATOM     24  O   UNL A   1      45.654  19.024  24.164  1.00  0.00    -0.246 OA
BRANCH  23  25
ATOM     25  C   UNL A   1      44.580  20.992  24.995  1.00  0.00     0.060 A 
ATOM     26  C   UNL A   1      44.328  21.992  24.048  1.00  0.00     0.016 A 
ATOM     27  C   UNL A   1      44.765  21.319  26.341  1.00  0.00     0.016 A 
ATOM     28  C   UNL A   1      44.294  23.331  24.441  1.00  0.00     0.010 A 
ATOM     29  C   UNL A   1      44.750  22.662  26.730  1.00  0.00     0.010 A 
ATOM     30  C   UNL A   1      44.545  23.674  25.777  1.00  0.00    -0.014 A 
BRANCH  30  31
ATOM     31  C   UNL A   1      44.788  25.090  26.147  1.00  0.00     0.031 A 
ATOM     32  C   UNL A   1      46.194  25.618  26.047  1.00  0.00     0.074 A 
ATOM     33  C   UNL A   1      43.791  25.891  26.564  1.00  0.00     0.049 A 
ATOM     34  N   UNL A   1      46.662  26.794  26.373  1.00  0.00    -0.248 NA
ATOM     35  C   UNL A   1      47.205  24.694  25.506  1.00  0.00     0.031 C 
ATOM     36  C   UNL A   1      42.383  25.511  26.666  1.00  0.00     0.029 A 
ATOM     37  N   UNL A   1      43.821  27.195  26.993  1.00  0.00    -0.354 N 
ATOM     38  C   UNL A   1      48.020  26.751  26.081  1.00  0.00     0.074 A 
ATOM     39  C   UNL A   1      48.306  25.427  25.574  1.00  0.00     0.031 C 
ATOM     40  C   UNL A   1      41.685  26.555  27.149  1.00  0.00     0.029 A 
ATOM     41  C   UNL A   1      42.600  27.664  27.416  1.00  0.00     0.049 A 
ATOM     42  H   UNL A   1      44.640  27.742  26.996  1.00  0.00     0.167 HD
ATOM     43  C   UNL A   1      48.948  27.726  26.218  1.00  0.00     0.031 A 
ATOM     44  C   UNL A   1      42.268  28.843  27.980  1.00  0.00     0.031 A 
ATOM     45  C   UNL A   1      48.673  29.033  26.748  1.00  0.00     0.049 A 
ATOM     46  C   UNL A   1      43.333  29.889  28.197  1.00  0.00     0.074 A 
ATOM     47  C   UNL A   1      49.549  30.088  26.937  1.00  0.00     0.029 A 
ATOM     48  N   UNL A   1      47.428  29.463  27.182  1.00  0.00    -0.354 N 
ATOM     49  N   UNL A   1      44.611  29.840  27.898  1.00  0.00    -0.248 NA
ATOM     50  C   UNL A   1      42.911  31.152  28.819  1.00  0.00     0.031 C 
ATOM     51  C   UNL A   1      48.842  31.141  27.526  1.00  0.00     0.029 A 
ATOM     52  C   UNL A   1      47.515  30.761  27.651  1.00  0.00     0.049 A 
ATOM     53  H   UNL A   1      46.604  28.924  27.158  1.00  0.00     0.167 HD
ATOM     54  C   UNL A   1      45.134  31.075  28.267  1.00  0.00     0.074 A 
ATOM     55  C   UNL A   1      44.037  31.853  28.801  1.00  0.00     0.031 C 
ATOM     56  C   UNL A   1      46.409  31.526  28.168  1.00  0.00     0.031 A 
BRANCH  43  57
ATOM     57  C   UNL A   1      50.359  27.400  25.811  1.00  0.00    -0.014 A 
ATOM     58  C   UNL A   1      51.228  26.730  26.690  1.00  0.00     0.010 A 
ATOM     59  C   UNL A   1      50.810  27.741  24.524  1.00  0.00     0.010 A 
ATOM     60  C   UNL A   1      52.537  26.437  26.299  1.00  0.00     0.020 A 
ATOM     61  C   UNL A   1      52.111  27.428  24.122  1.00  0.00     0.020 A 
ATOM     62  C   UNL A   1      52.971  26.791  25.018  1.00  0.00     0.054 A 
BRANCH  62  63
ATOM     63  S   UNL A   1      54.668  26.376  24.529  1.00  0.00     0.124 S 
ATOM     64  O   UNL A   1      54.737  24.955  24.857  1.00  0.00    -0.237 OA
ATOM     65  O   UNL A   1      54.678  26.693  23.103  1.00  0.00    -0.237 OA
ATOM     66  O   UNL A   1      55.492  27.249  25.364  1.00  0.00    -0.744 OA
ENDBRANCH  62  63
ENDBRANCH  43  57
BRANCH  44  67
ATOM     67  C   UNL A   1      40.865  29.096  28.414  1.00  0.00    -0.014 A 
ATOM     68  C   UNL A   1      39.851  29.336  27.470  1.00  0.00     0.010 A 
ATOM     69  C   UNL A   1      40.543  29.122  29.783  1.00  0.00     0.010 A 
ATOM     70  C   UNL A   1      38.548  29.624  27.888  1.00  0.00     0.020 A 
ATOM     71  C   UNL A   1      39.236  29.384  30.205  1.00  0.00     0.020 A 
ATOM     72  C   UNL A   1      38.250  29.648  29.253  1.00  0.00     0.054 A 
BRANCH  72  73
ATOM     73  S   UNL A   1      36.546  29.996  29.774  1.00  0.00     0.124 S 
ATOM     74  O   UNL A   1      36.563  31.449  29.914  1.00  0.00    -0.237 OA
ATOM     75  O   UNL A   1      35.762  29.478  28.656  1.00  0.00    -0.237 OA
ATOM     76  O   UNL A   1      36.411  29.246  31.021  1.00  0.00    -0.744 OA
ENDBRANCH  72  73
ENDBRANCH  44  67
BRANCH  56  77
ATOM     77  C   UNL A   1      46.687  32.944  28.598  1.00  0.00    -0.014 A 
ATOM     78  C   UNL A   1      46.534  34.021  27.710  1.00  0.00     0.010 A 
ATOM     79  C   UNL A   1      47.033  33.202  29.938  1.00  0.00     0.010 A 
ATOM     80  C   UNL A   1      46.747  35.332  28.148  1.00  0.00     0.020 A 
ATOM     81  C   UNL A   1      47.220  34.512  30.386  1.00  0.00     0.020 A 
ATOM     82  C   UNL A   1      47.087  35.569  29.484  1.00  0.00     0.054 A 
BRANCH  82  83
ATOM     83  S   UNL A   1      47.301  37.282  30.043  1.00  0.00     0.124 S 
ATOM     84  O   UNL A   1      47.206  38.025  28.790  1.00  0.00    -0.237 OA
ATOM     85  O   UNL A   1      46.185  37.461  30.967  1.00  0.00    -0.237 OA
ATOM     86  O   UNL A   1      48.624  37.278  30.666  1.00  0.00    -0.744 OA
ENDBRANCH  82  83
ENDBRANCH  56  77
ENDBRANCH  30  31
ENDBRANCH  23  25
ENDBRANCH  22  23
ENDBRANCH  21  22
ENDBRANCH  20  21
ENDBRANCH  19  20
ENDBRANCH   1  19
TORSDOF 22
ENDMDL
