MODEL 1
REMARK VINA RESULT:      -9.8      0.000      0.000
REMARK SMILES Cc1nc(C)n(CC[C@H]2CCC[C@@]2([NH2+]C(C)C)C(=O)OCCOCCOCCOC(=O)c2ccc(-c3c4nc(c(-c5ccc(S(=O)(=O)[O-])cc5)c5ccc([nH]5)c(-c5ccc(S(=O)(=O)[O-])cc5)c5nc(c(-c6ccc(S(=O)(=O)[O-])cc6)c6ccc3[nH]6)C=C5)C=C4)cc2)n1
REMARK SMILES IDX 24 1 23 2 22 3 21 4 20 5 18 6 19 7 13 8 9 9 10 10 11 11
REMARK SMILES IDX 12 12 8 13 7 14 6 15 1 16 2 17 3 18 92 19 4 20 5 21 14 22
REMARK SMILES IDX 15 25 16 26 17 27 25 28 26 29 27 30 28 31 29 32 30 33 31 34
REMARK SMILES IDX 32 35 33 36 91 37 34 38 90 39 35 40 36 41 37 42 84 43 38 44
REMARK SMILES IDX 89 45 83 46 85 47 39 48 88 49 82 50 81 51 40 53 70 54 51 55
REMARK SMILES IDX 69 56 52 57 55 58 68 59 86 60 53 61 54 62 67 64 87 65 56 66
REMARK SMILES IDX 41 67 42 68 50 69 43 70 49 71 44 72 45 73 46 74 47 75 48 76
REMARK SMILES IDX 71 77 72 78 80 79 73 80 79 81 74 82 75 83 76 84 77 85 78 86
REMARK SMILES IDX 57 87 58 88 66 89 59 90 65 91 60 92 61 93 62 94 63 95 64 96
REMARK H PARENT 14 23 14 24 85 52 55 63
REMARK Flexibility Score: inf
ROOT
ATOM      1  C   UNL A   1      39.039  23.347  26.530  1.00  0.00     0.188 C 
ENDROOT
BRANCH   1   2
ATOM      2  O   UNL A   1      37.891  23.989  25.990  1.00  0.00    -0.376 OA
BRANCH   2   3
ATOM      3  C   UNL A   1      36.925  23.171  25.349  1.00  0.00     0.202 C 
BRANCH   3   4
ATOM      4  C   UNL A   1      35.521  23.155  25.964  1.00  0.00     0.261 C 
BRANCH   4   5
ATOM      5  O   UNL A   1      34.770  24.359  25.713  1.00  0.00    -0.459 OA
BRANCH   5   6
ATOM      6  C   UNL A   1      34.345  24.582  24.442  1.00  0.00     0.368 C 
ATOM      7  O   UNL A   1      35.110  24.782  23.504  1.00  0.00    -0.245 OA
BRANCH   6   8
ATOM      8  C   UNL A   1      32.785  24.720  24.344  1.00  0.00     0.197 C 
ATOM      9  C   UNL A   1      32.254  23.854  23.139  1.00  0.00     0.064 C 
ATOM     10  C   UNL A   1      30.738  23.678  23.407  1.00  0.00     0.011 C 
ATOM     11  C   UNL A   1      30.498  23.988  24.871  1.00  0.00     0.008 C 
ATOM     12  C   UNL A   1      31.886  24.166  25.471  1.00  0.00     0.081 C 
BRANCH   9  13
ATOM     13  C   UNL A   1      32.943  22.488  22.892  1.00  0.00     0.034 C 
BRANCH  13  14
ATOM     14  C   UNL A   1      32.070  21.219  22.917  1.00  0.00     0.147 C 
BRANCH  14  15
ATOM     15  N   UNL A   1      32.399  20.023  23.673  1.00  0.00    -0.250 N 
ATOM     16  C   UNL A   1      33.486  16.671  23.372  1.00  0.00     0.092 C 
ATOM     17  C   UNL A   1      33.095  18.038  23.749  1.00  0.00     0.147 A 
ATOM     18  N   UNL A   1      33.345  18.529  24.985  1.00  0.00    -0.217 NA
ATOM     19  N   UNL A   1      32.494  18.890  22.923  1.00  0.00    -0.156 NA
ATOM     20  C   UNL A   1      32.914  19.773  24.932  1.00  0.00     0.124 A 
ATOM     21  C   UNL A   1      33.027  20.642  26.117  1.00  0.00     0.089 C 
ENDBRANCH  14  15
ENDBRANCH  13  14
ENDBRANCH   9  13
BRANCH   8  22
ATOM     22  N   UNL A   1      32.417  26.148  24.066  1.00  0.00    -0.330 N 
ATOM     23  H   UNL A   1      33.068  26.739  24.584  1.00  0.00     0.347 HD
ATOM     24  H   UNL A   1      31.440  26.226  24.349  1.00  0.00     0.347 HD
BRANCH  22  25
ATOM     25  C   UNL A   1      32.438  26.592  22.664  1.00  0.00     0.176 C 
ATOM     26  C   UNL A   1      31.071  27.206  22.356  1.00  0.00     0.075 C 
ATOM     27  C   UNL A   1      33.519  27.618  22.330  1.00  0.00     0.075 C 
ENDBRANCH  22  25
ENDBRANCH   8  22
ENDBRANCH   6   8
ENDBRANCH   5   6
ENDBRANCH   4   5
ENDBRANCH   3   4
ENDBRANCH   2   3
ENDBRANCH   1   2
BRANCH   1  28
ATOM     28  C   UNL A   1      39.364  21.890  26.122  1.00  0.00     0.188 C 
BRANCH  28  29
ATOM     29  O   UNL A   1      40.654  21.459  26.536  1.00  0.00    -0.376 OA
BRANCH  29  30
ATOM     30  C   UNL A   1      40.798  20.058  26.720  1.00  0.00     0.202 C 
BRANCH  30  31
ATOM     31  C   UNL A   1      42.070  19.561  26.048  1.00  0.00     0.261 C 
BRANCH  31  32
ATOM     32  O   UNL A   1      42.779  20.617  25.416  1.00  0.00    -0.460 OA
BRANCH  32  33
ATOM     33  C   UNL A   1      44.051  20.370  25.040  1.00  0.00     0.338 C 
ATOM     34  O   UNL A   1      44.585  19.286  24.926  1.00  0.00    -0.246 OA
BRANCH  33  35
ATOM     35  C   UNL A   1      44.701  21.677  24.835  1.00  0.00     0.060 A 
ATOM     36  C   UNL A   1      45.884  21.908  25.536  1.00  0.00     0.016 A 
ATOM     37  C   UNL A   1      43.939  22.717  24.284  1.00  0.00     0.016 A 
ATOM     38  C   UNL A   1      46.087  23.176  26.024  1.00  0.00     0.010 A 
ATOM     39  C   UNL A   1      44.100  23.958  24.821  1.00  0.00     0.010 A 
ATOM     40  C   UNL A   1      45.093  24.125  25.783  1.00  0.00    -0.014 A 
BRANCH  40  41
ATOM     41  C   UNL A   1      44.954  25.223  26.712  1.00  0.00     0.031 A 
ATOM     42  C   UNL A   1      45.986  26.260  26.588  1.00  0.00     0.074 A 
ATOM     43  C   UNL A   1      43.833  25.340  27.449  1.00  0.00     0.049 A 
ATOM     44  N   UNL A   1      46.977  26.488  27.384  1.00  0.00    -0.248 NA
ATOM     45  C   UNL A   1      46.037  27.003  25.318  1.00  0.00     0.031 C 
ATOM     46  C   UNL A   1      42.601  24.546  27.331  1.00  0.00     0.029 A 
ATOM     47  N   UNL A   1      43.500  26.294  28.358  1.00  0.00    -0.354 N 
ATOM     48  C   UNL A   1      47.629  27.570  26.810  1.00  0.00     0.074 A 
ATOM     49  C   UNL A   1      47.214  27.610  25.434  1.00  0.00     0.031 C 
ATOM     50  C   UNL A   1      41.597  25.198  27.959  1.00  0.00     0.029 A 
ATOM     51  C   UNL A   1      42.136  26.387  28.599  1.00  0.00     0.049 A 
ATOM     52  H   UNL A   1      44.165  26.866  28.803  1.00  0.00     0.167 HD
ATOM     53  C   UNL A   1      48.142  28.579  27.566  1.00  0.00     0.031 A 
ATOM     54  C   UNL A   1      41.496  27.431  29.181  1.00  0.00     0.031 A 
ATOM     55  C   UNL A   1      48.233  28.218  28.957  1.00  0.00     0.049 A 
ATOM     56  C   UNL A   1      42.522  28.253  29.874  1.00  0.00     0.074 A 
ATOM     57  C   UNL A   1      48.838  27.199  29.663  1.00  0.00     0.029 A 
ATOM     58  N   UNL A   1      47.299  28.775  29.804  1.00  0.00    -0.354 N 
ATOM     59  N   UNL A   1      43.190  27.853  30.921  1.00  0.00    -0.248 NA
ATOM     60  C   UNL A   1      43.115  29.373  29.158  1.00  0.00     0.031 C 
ATOM     61  C   UNL A   1      47.970  26.926  30.758  1.00  0.00     0.029 A 
ATOM     62  C   UNL A   1      46.892  27.811  30.692  1.00  0.00     0.049 A 
ATOM     63  H   UNL A   1      46.978  29.705  29.776  1.00  0.00     0.167 HD
ATOM     64  C   UNL A   1      44.466  28.379  30.759  1.00  0.00     0.074 A 
ATOM     65  C   UNL A   1      44.323  29.401  29.728  1.00  0.00     0.031 C 
ATOM     66  C   UNL A   1      45.561  27.736  31.262  1.00  0.00     0.031 A 
BRANCH  53  67
ATOM     67  C   UNL A   1      48.128  30.020  27.108  1.00  0.00    -0.014 A 
ATOM     68  C   UNL A   1      49.323  30.759  27.166  1.00  0.00     0.010 A 
ATOM     69  C   UNL A   1      46.940  30.748  26.873  1.00  0.00     0.010 A 
ATOM     70  C   UNL A   1      49.312  32.156  27.067  1.00  0.00     0.020 A 
ATOM     71  C   UNL A   1      46.924  32.130  26.714  1.00  0.00     0.020 A 
ATOM     72  C   UNL A   1      48.108  32.832  26.858  1.00  0.00     0.054 A 
BRANCH  72  73
ATOM     73  S   UNL A   1      48.078  34.637  26.867  1.00  0.00     0.124 S 
ATOM     74  O   UNL A   1      47.108  34.910  27.923  1.00  0.00    -0.237 OA
ATOM     75  O   UNL A   1      49.466  34.969  27.175  1.00  0.00    -0.237 OA
ATOM     76  O   UNL A   1      47.646  34.978  25.513  1.00  0.00    -0.744 OA
ENDBRANCH  72  73
ENDBRANCH  53  67
BRANCH  54  77
ATOM     77  C   UNL A   1      40.126  27.928  28.896  1.00  0.00    -0.014 A 
ATOM     78  C   UNL A   1      39.063  27.653  29.777  1.00  0.00     0.010 A 
ATOM     79  C   UNL A   1      39.904  28.889  27.887  1.00  0.00     0.010 A 
ATOM     80  C   UNL A   1      37.850  28.356  29.687  1.00  0.00     0.020 A 
ATOM     81  C   UNL A   1      38.693  29.581  27.780  1.00  0.00     0.020 A 
ATOM     82  C   UNL A   1      37.680  29.329  28.698  1.00  0.00     0.054 A 
BRANCH  82  83
ATOM     83  S   UNL A   1      36.179  30.353  28.696  1.00  0.00     0.124 S 
ATOM     84  O   UNL A   1      36.490  31.357  27.682  1.00  0.00    -0.237 OA
ATOM     85  O   UNL A   1      35.140  29.392  28.337  1.00  0.00    -0.237 OA
ATOM     86  O   UNL A   1      36.105  30.858  30.066  1.00  0.00    -0.744 OA
ENDBRANCH  82  83
ENDBRANCH  54  77
BRANCH  66  87
ATOM     87  C   UNL A   1      45.342  26.669  32.311  1.00  0.00    -0.014 A 
ATOM     88  C   UNL A   1      45.294  26.935  33.692  1.00  0.00     0.010 A 
ATOM     89  C   UNL A   1      45.031  25.371  31.865  1.00  0.00     0.010 A 
ATOM     90  C   UNL A   1      44.965  25.923  34.605  1.00  0.00     0.020 A 
ATOM     91  C   UNL A   1      44.684  24.364  32.768  1.00  0.00     0.020 A 
ATOM     92  C   UNL A   1      44.660  24.642  34.135  1.00  0.00     0.054 A 
BRANCH  92  93
ATOM     93  S   UNL A   1      44.173  23.355  35.318  1.00  0.00     0.124 S 
ATOM     94  O   UNL A   1      45.132  23.541  36.403  1.00  0.00    -0.237 OA
ATOM     95  O   UNL A   1      42.791  23.708  35.632  1.00  0.00    -0.237 OA
ATOM     96  O   UNL A   1      44.327  22.111  34.562  1.00  0.00    -0.744 OA
ENDBRANCH  92  93
ENDBRANCH  66  87
ENDBRANCH  40  41
ENDBRANCH  33  35
ENDBRANCH  32  33
ENDBRANCH  31  32
ENDBRANCH  30  31
ENDBRANCH  29  30
ENDBRANCH  28  29
ENDBRANCH   1  28
TORSDOF 25
ENDMDL
MODEL 2
REMARK VINA RESULT:      -9.5      4.975     10.457
REMARK SMILES Cc1nc(C)n(CC[C@H]2CCC[C@@]2([NH2+]C(C)C)C(=O)OCCOCCOCCOC(=O)c2ccc(-c3c4nc(c(-c5ccc(S(=O)(=O)[O-])cc5)c5ccc([nH]5)c(-c5ccc(S(=O)(=O)[O-])cc5)c5nc(c(-c6ccc(S(=O)(=O)[O-])cc6)c6ccc3[nH]6)C=C5)C=C4)cc2)n1
REMARK SMILES IDX 24 1 23 2 22 3 21 4 20 5 18 6 19 7 13 8 9 9 10 10 11 11
REMARK SMILES IDX 12 12 8 13 7 14 6 15 1 16 2 17 3 18 92 19 4 20 5 21 14 22
REMARK SMILES IDX 15 25 16 26 17 27 25 28 26 29 27 30 28 31 29 32 30 33 31 34
REMARK SMILES IDX 32 35 33 36 91 37 34 38 90 39 35 40 36 41 37 42 84 43 38 44
REMARK SMILES IDX 89 45 83 46 85 47 39 48 88 49 82 50 81 51 40 53 70 54 51 55
REMARK SMILES IDX 69 56 52 57 55 58 68 59 86 60 53 61 54 62 67 64 87 65 56 66
REMARK SMILES IDX 41 67 42 68 50 69 43 70 49 71 44 72 45 73 46 74 47 75 48 76
REMARK SMILES IDX 71 77 72 78 80 79 73 80 79 81 74 82 75 83 76 84 77 85 78 86
REMARK SMILES IDX 57 87 58 88 66 89 59 90 65 91 60 92 61 93 62 94 63 95 64 96
REMARK H PARENT 14 23 14 24 85 52 55 63
REMARK Flexibility Score: inf
ROOT
ATOM      1  C   UNL A   1      33.443  31.278  27.586  1.00  0.00     0.188 C 
ENDROOT
BRANCH   1   2
ATOM      2  O   UNL A   1      33.747  30.277  26.623  1.00  0.00    -0.376 OA
BRANCH   2   3
ATOM      3  C   UNL A   1      34.399  29.104  27.081  1.00  0.00     0.202 C 
BRANCH   3   4
ATOM      4  C   UNL A   1      33.872  27.770  26.541  1.00  0.00     0.261 C 
BRANCH   4   5
ATOM      5  O   UNL A   1      32.760  27.914  25.637  1.00  0.00    -0.459 OA
BRANCH   5   6
ATOM      6  C   UNL A   1      31.679  27.116  25.837  1.00  0.00     0.368 C 
ATOM      7  O   UNL A   1      31.117  27.007  26.922  1.00  0.00    -0.245 OA
BRANCH   6   8
ATOM      8  C   UNL A   1      31.342  26.233  24.583  1.00  0.00     0.197 C 
ATOM      9  C   UNL A   1      32.508  25.201  24.337  1.00  0.00     0.064 C 
ATOM     10  C   UNL A   1      31.893  24.112  23.422  1.00  0.00     0.011 C 
ATOM     11  C   UNL A   1      30.386  24.230  23.525  1.00  0.00     0.008 C 
ATOM     12  C   UNL A   1      30.144  25.259  24.622  1.00  0.00     0.081 C 
BRANCH   9  13
ATOM     13  C   UNL A   1      33.174  24.576  25.587  1.00  0.00     0.034 C 
BRANCH  13  14
ATOM     14  C   UNL A   1      32.980  23.067  25.836  1.00  0.00     0.147 C 
BRANCH  14  15
ATOM     15  N   UNL A   1      33.995  22.064  25.567  1.00  0.00    -0.250 N 
ATOM     16  C   UNL A   1      34.490  18.708  24.567  1.00  0.00     0.092 C 
ATOM     17  C   UNL A   1      34.538  20.132  24.930  1.00  0.00     0.147 A 
ATOM     18  N   UNL A   1      35.643  20.880  24.709  1.00  0.00    -0.217 NA
ATOM     19  N   UNL A   1      33.520  20.791  25.478  1.00  0.00    -0.156 NA
ATOM     20  C   UNL A   1      35.297  22.090  25.102  1.00  0.00     0.124 A 
ATOM     21  C   UNL A   1      36.263  23.199  25.004  1.00  0.00     0.089 C 
ENDBRANCH  14  15
ENDBRANCH  13  14
ENDBRANCH   9  13
BRANCH   8  22
ATOM     22  N   UNL A   1      31.244  27.100  23.362  1.00  0.00    -0.330 N 
ATOM     23  H   UNL A   1      30.889  26.519  22.602  1.00  0.00     0.347 HD
ATOM     24  H   UNL A   1      32.187  27.466  23.226  1.00  0.00     0.347 HD
BRANCH  22  25
ATOM     25  C   UNL A   1      30.386  28.291  23.444  1.00  0.00     0.176 C 
ATOM     26  C   UNL A   1      31.007  29.366  22.550  1.00  0.00     0.075 C 
ATOM     27  C   UNL A   1      28.938  28.073  23.010  1.00  0.00     0.075 C 
ENDBRANCH  22  25
ENDBRANCH   8  22
ENDBRANCH   6   8
ENDBRANCH   5   6
ENDBRANCH   4   5
ENDBRANCH   3   4
ENDBRANCH   2   3
ENDBRANCH   1   2
BRANCH   1  28
ATOM     28  C   UNL A   1      34.529  32.302  27.995  1.00  0.00     0.188 C 
BRANCH  28  29
ATOM     29  O   UNL A   1      34.087  33.240  28.967  1.00  0.00    -0.376 OA
BRANCH  29  30
ATOM     30  C   UNL A   1      33.923  34.571  28.499  1.00  0.00     0.202 C 
BRANCH  30  31
ATOM     31  C   UNL A   1      33.315  35.446  29.585  1.00  0.00     0.261 C 
BRANCH  31  32
ATOM     32  O   UNL A   1      34.025  35.336  30.810  1.00  0.00    -0.460 OA
BRANCH  32  33
ATOM     33  C   UNL A   1      33.304  35.092  31.923  1.00  0.00     0.338 C 
ATOM     34  O   UNL A   1      32.135  35.360  32.114  1.00  0.00    -0.246 OA
BRANCH  33  35
ATOM     35  C   UNL A   1      34.216  34.471  32.900  1.00  0.00     0.060 A 
ATOM     36  C   UNL A   1      35.167  35.304  33.489  1.00  0.00     0.016 A 
ATOM     37  C   UNL A   1      34.337  33.075  32.900  1.00  0.00     0.016 A 
ATOM     38  C   UNL A   1      36.414  34.771  33.716  1.00  0.00     0.010 A 
ATOM     39  C   UNL A   1      35.589  32.559  33.058  1.00  0.00     0.010 A 
ATOM     40  C   UNL A   1      36.626  33.446  33.335  1.00  0.00    -0.014 A 
BRANCH  40  41
ATOM     41  C   UNL A   1      37.970  33.036  32.999  1.00  0.00     0.031 A 
ATOM     42  C   UNL A   1      38.876  32.920  34.148  1.00  0.00     0.074 A 
ATOM     43  C   UNL A   1      38.248  32.599  31.756  1.00  0.00     0.049 A 
ATOM     44  N   UNL A   1      39.835  33.717  34.482  1.00  0.00    -0.248 NA
ATOM     45  C   UNL A   1      38.543  31.905  35.162  1.00  0.00     0.031 C 
ATOM     46  C   UNL A   1      37.292  32.327  30.672  1.00  0.00     0.029 A 
ATOM     47  N   UNL A   1      39.427  32.158  31.245  1.00  0.00    -0.354 N 
ATOM     48  C   UNL A   1      40.367  33.144  35.629  1.00  0.00     0.074 A 
ATOM     49  C   UNL A   1      39.354  32.267  36.151  1.00  0.00     0.031 C 
ATOM     50  C   UNL A   1      37.894  31.556  29.739  1.00  0.00     0.029 A 
ATOM     51  C   UNL A   1      39.288  31.373  30.109  1.00  0.00     0.049 A 
ATOM     52  H   UNL A   1      40.299  32.376  31.646  1.00  0.00     0.167 HD
ATOM     53  C   UNL A   1      41.708  33.114  35.859  1.00  0.00     0.031 A 
ATOM     54  C   UNL A   1      40.227  30.543  29.590  1.00  0.00     0.031 A 
ATOM     55  C   UNL A   1      42.424  34.014  34.992  1.00  0.00     0.049 A 
ATOM     56  C   UNL A   1      41.535  30.922  30.185  1.00  0.00     0.074 A 
ATOM     57  C   UNL A   1      42.362  35.366  34.725  1.00  0.00     0.029 A 
ATOM     58  N   UNL A   1      43.127  33.446  33.953  1.00  0.00    -0.354 N 
ATOM     59  N   UNL A   1      42.147  32.049  29.944  1.00  0.00    -0.248 NA
ATOM     60  C   UNL A   1      41.980  30.225  31.384  1.00  0.00     0.031 C 
ATOM     61  C   UNL A   1      42.681  35.497  33.344  1.00  0.00     0.029 A 
ATOM     62  C   UNL A   1      42.956  34.225  32.837  1.00  0.00     0.049 A 
ATOM     63  H   UNL A   1      43.662  32.621  34.002  1.00  0.00     0.167 HD
ATOM     64  C   UNL A   1      42.740  32.403  31.149  1.00  0.00     0.074 A 
ATOM     65  C   UNL A   1      42.708  31.189  31.956  1.00  0.00     0.031 C 
ATOM     66  C   UNL A   1      42.932  33.716  31.480  1.00  0.00     0.031 A 
BRANCH  53  67
ATOM     67  C   UNL A   1      42.385  31.948  36.544  1.00  0.00    -0.014 A 
ATOM     68  C   UNL A   1      43.007  32.164  37.787  1.00  0.00     0.010 A 
ATOM     69  C   UNL A   1      42.661  30.722  35.898  1.00  0.00     0.010 A 
ATOM     70  C   UNL A   1      43.911  31.231  38.312  1.00  0.00     0.020 A 
ATOM     71  C   UNL A   1      43.510  29.762  36.438  1.00  0.00     0.020 A 
ATOM     72  C   UNL A   1      44.167  30.043  37.624  1.00  0.00     0.054 A 
BRANCH  72  73
ATOM     73  S   UNL A   1      45.431  28.907  38.233  1.00  0.00     0.124 S 
ATOM     74  O   UNL A   1      44.622  27.908  38.923  1.00  0.00    -0.237 OA
ATOM     75  O   UNL A   1      46.073  28.467  36.998  1.00  0.00    -0.237 OA
ATOM     76  O   UNL A   1      46.260  29.749  39.094  1.00  0.00    -0.744 OA
ENDBRANCH  72  73
ENDBRANCH  53  67
BRANCH  54  77
ATOM     77  C   UNL A   1      40.009  29.257  28.882  1.00  0.00    -0.014 A 
ATOM     78  C   UNL A   1      40.675  28.979  27.673  1.00  0.00     0.010 A 
ATOM     79  C   UNL A   1      39.339  28.189  29.517  1.00  0.00     0.010 A 
ATOM     80  C   UNL A   1      40.718  27.674  27.154  1.00  0.00     0.020 A 
ATOM     81  C   UNL A   1      39.363  26.890  28.998  1.00  0.00     0.020 A 
ATOM     82  C   UNL A   1      40.075  26.634  27.831  1.00  0.00     0.054 A 
BRANCH  82  83
ATOM     83  S   UNL A   1      40.280  24.924  27.252  1.00  0.00     0.124 S 
ATOM     84  O   UNL A   1      40.569  25.110  25.833  1.00  0.00    -0.237 OA
ATOM     85  O   UNL A   1      41.392  24.444  28.067  1.00  0.00    -0.237 OA
ATOM     86  O   UNL A   1      38.988  24.305  27.546  1.00  0.00    -0.744 OA
ENDBRANCH  82  83
ENDBRANCH  54  77
BRANCH  66  87
ATOM     87  C   UNL A   1      42.848  34.748  30.379  1.00  0.00    -0.014 A 
ATOM     88  C   UNL A   1      41.677  35.007  29.643  1.00  0.00     0.010 A 
ATOM     89  C   UNL A   1      43.962  35.584  30.184  1.00  0.00     0.010 A 
ATOM     90  C   UNL A   1      41.629  36.061  28.720  1.00  0.00     0.020 A 
ATOM     91  C   UNL A   1      43.915  36.648  29.280  1.00  0.00     0.020 A 
ATOM     92  C   UNL A   1      42.751  36.877  28.546  1.00  0.00     0.054 A 
BRANCH  92  93
ATOM     93  S   UNL A   1      42.660  38.279  27.397  1.00  0.00     0.124 S 
ATOM     94  O   UNL A   1      42.342  39.395  28.283  1.00  0.00    -0.237 OA
ATOM     95  O   UNL A   1      43.996  38.303  26.808  1.00  0.00    -0.237 OA
ATOM     96  O   UNL A   1      41.592  37.901  26.470  1.00  0.00    -0.744 OA
ENDBRANCH  92  93
ENDBRANCH  66  87
ENDBRANCH  40  41
ENDBRANCH  33  35
ENDBRANCH  32  33
ENDBRANCH  31  32
ENDBRANCH  30  31
ENDBRANCH  29  30
ENDBRANCH  28  29
ENDBRANCH   1  28
TORSDOF 25
ENDMDL
MODEL 3
REMARK VINA RESULT:      -9.2      4.824     10.592
REMARK SMILES Cc1nc(C)n(CC[C@H]2CCC[C@@]2([NH2+]C(C)C)C(=O)OCCOCCOCCOC(=O)c2ccc(-c3c4nc(c(-c5ccc(S(=O)(=O)[O-])cc5)c5ccc([nH]5)c(-c5ccc(S(=O)(=O)[O-])cc5)c5nc(c(-c6ccc(S(=O)(=O)[O-])cc6)c6ccc3[nH]6)C=C5)C=C4)cc2)n1
REMARK SMILES IDX 24 1 23 2 22 3 21 4 20 5 18 6 19 7 13 8 9 9 10 10 11 11
REMARK SMILES IDX 12 12 8 13 7 14 6 15 1 16 2 17 3 18 92 19 4 20 5 21 14 22
REMARK SMILES IDX 15 25 16 26 17 27 25 28 26 29 27 30 28 31 29 32 30 33 31 34
REMARK SMILES IDX 32 35 33 36 91 37 34 38 90 39 35 40 36 41 37 42 84 43 38 44
REMARK SMILES IDX 89 45 83 46 85 47 39 48 88 49 82 50 81 51 40 53 70 54 51 55
REMARK SMILES IDX 69 56 52 57 55 58 68 59 86 60 53 61 54 62 67 64 87 65 56 66
REMARK SMILES IDX 41 67 42 68 50 69 43 70 49 71 44 72 45 73 46 74 47 75 48 76
REMARK SMILES IDX 71 77 72 78 80 79 73 80 79 81 74 82 75 83 76 84 77 85 78 86
REMARK SMILES IDX 57 87 58 88 66 89 59 90 65 91 60 92 61 93 62 94 63 95 64 96
REMARK H PARENT 14 23 14 24 85 52 55 63
REMARK Flexibility Score: inf
ROOT
ATOM      1  C   UNL A   1      33.262  30.799  27.220  1.00  0.00     0.188 C 
ENDROOT
BRANCH   1   2
ATOM      2  O   UNL A   1      33.539  29.722  26.334  1.00  0.00    -0.376 OA
BRANCH   2   3
ATOM      3  C   UNL A   1      33.445  28.406  26.856  1.00  0.00     0.202 C 
BRANCH   3   4
ATOM      4  C   UNL A   1      33.372  27.266  25.834  1.00  0.00     0.261 C 
BRANCH   4   5
ATOM      5  O   UNL A   1      33.216  25.965  26.433  1.00  0.00    -0.459 OA
BRANCH   5   6
ATOM      6  C   UNL A   1      33.967  24.949  25.934  1.00  0.00     0.368 C 
ATOM      7  O   UNL A   1      34.993  25.128  25.286  1.00  0.00    -0.245 OA
BRANCH   6   8
ATOM      8  C   UNL A   1      33.292  23.546  26.135  1.00  0.00     0.197 C 
ATOM      9  C   UNL A   1      32.862  22.964  24.734  1.00  0.00     0.064 C 
ATOM     10  C   UNL A   1      32.656  21.447  24.975  1.00  0.00     0.011 C 
ATOM     11  C   UNL A   1      33.370  21.092  26.264  1.00  0.00     0.008 C 
ATOM     12  C   UNL A   1      34.123  22.355  26.661  1.00  0.00     0.081 C 
BRANCH   9  13
ATOM     13  C   UNL A   1      33.814  23.219  23.540  1.00  0.00     0.034 C 
BRANCH  13  14
ATOM     14  C   UNL A   1      33.190  23.547  22.169  1.00  0.00     0.147 C 
BRANCH  14  15
ATOM     15  N   UNL A   1      32.328  24.690  21.925  1.00  0.00    -0.250 N 
ATOM     16  C   UNL A   1      30.663  27.390  23.488  1.00  0.00     0.092 C 
ATOM     17  C   UNL A   1      31.307  26.396  22.616  1.00  0.00     0.147 A 
ATOM     18  N   UNL A   1      31.490  26.628  21.296  1.00  0.00    -0.217 NA
ATOM     19  N   UNL A   1      31.767  25.224  23.044  1.00  0.00    -0.156 NA
ATOM     20  C   UNL A   1      32.135  25.561  20.868  1.00  0.00     0.124 A 
ATOM     21  C   UNL A   1      32.521  25.455  19.449  1.00  0.00     0.089 C 
ENDBRANCH  14  15
ENDBRANCH  13  14
ENDBRANCH   9  13
BRANCH   8  22
ATOM     22  N   UNL A   1      32.048  23.693  26.961  1.00  0.00    -0.330 N 
ATOM     23  H   UNL A   1      32.124  24.570  27.475  1.00  0.00     0.347 HD
ATOM     24  H   UNL A   1      32.017  22.852  27.537  1.00  0.00     0.347 HD
BRANCH  22  25
ATOM     25  C   UNL A   1      30.761  23.709  26.249  1.00  0.00     0.176 C 
ATOM     26  C   UNL A   1      29.833  22.720  26.956  1.00  0.00     0.075 C 
ATOM     27  C   UNL A   1      30.071  25.072  26.196  1.00  0.00     0.075 C 
ENDBRANCH  22  25
ENDBRANCH   8  22
ENDBRANCH   6   8
ENDBRANCH   5   6
ENDBRANCH   4   5
ENDBRANCH   3   4
ENDBRANCH   2   3
ENDBRANCH   1   2
BRANCH   1  28
ATOM     28  C   UNL A   1      34.405  31.748  27.653  1.00  0.00     0.188 C 
BRANCH  28  29
ATOM     29  O   UNL A   1      34.144  32.431  28.872  1.00  0.00    -0.376 OA
BRANCH  29  30
ATOM     30  C   UNL A   1      34.696  33.735  28.970  1.00  0.00     0.202 C 
BRANCH  30  31
ATOM     31  C   UNL A   1      33.647  34.722  29.459  1.00  0.00     0.261 C 
BRANCH  31  32
ATOM     32  O   UNL A   1      34.055  35.378  30.651  1.00  0.00    -0.460 OA
BRANCH  32  33
ATOM     33  C   UNL A   1      33.306  35.178  31.755  1.00  0.00     0.338 C 
ATOM     34  O   UNL A   1      32.165  35.547  31.944  1.00  0.00    -0.246 OA
BRANCH  33  35
ATOM     35  C   UNL A   1      34.150  34.455  32.723  1.00  0.00     0.060 A 
ATOM     36  C   UNL A   1      35.096  35.209  33.417  1.00  0.00     0.016 A 
ATOM     37  C   UNL A   1      34.230  33.060  32.622  1.00  0.00     0.016 A 
ATOM     38  C   UNL A   1      36.313  34.620  33.661  1.00  0.00     0.010 A 
ATOM     39  C   UNL A   1      35.456  32.492  32.799  1.00  0.00     0.010 A 
ATOM     40  C   UNL A   1      36.504  33.321  33.190  1.00  0.00    -0.014 A 
BRANCH  40  41
ATOM     41  C   UNL A   1      37.851  32.892  32.887  1.00  0.00     0.031 A 
ATOM     42  C   UNL A   1      38.721  32.746  34.060  1.00  0.00     0.074 A 
ATOM     43  C   UNL A   1      38.156  32.466  31.646  1.00  0.00     0.049 A 
ATOM     44  N   UNL A   1      39.683  33.522  34.432  1.00  0.00    -0.248 NA
ATOM     45  C   UNL A   1      38.342  31.723  35.050  1.00  0.00     0.031 C 
ATOM     46  C   UNL A   1      37.227  32.225  30.532  1.00  0.00     0.029 A 
ATOM     47  N   UNL A   1      39.342  32.012  31.164  1.00  0.00    -0.354 N 
ATOM     48  C   UNL A   1      40.173  32.925  35.586  1.00  0.00     0.074 A 
ATOM     49  C   UNL A   1      39.130  32.059  36.066  1.00  0.00     0.031 C 
ATOM     50  C   UNL A   1      37.843  31.456  29.606  1.00  0.00     0.029 A 
ATOM     51  C   UNL A   1      39.222  31.244  30.013  1.00  0.00     0.049 A 
ATOM     52  H   UNL A   1      40.206  32.210  31.591  1.00  0.00     0.167 HD
ATOM     53  C   UNL A   1      41.506  32.869  35.853  1.00  0.00     0.031 A 
ATOM     54  C   UNL A   1      40.162  30.405  29.510  1.00  0.00     0.031 A 
ATOM     55  C   UNL A   1      42.261  33.768  35.018  1.00  0.00     0.049 A 
ATOM     56  C   UNL A   1      41.459  30.754  30.147  1.00  0.00     0.074 A 
ATOM     57  C   UNL A   1      42.230  35.125  34.768  1.00  0.00     0.029 A 
ATOM     58  N   UNL A   1      42.984  33.201  33.992  1.00  0.00    -0.354 N 
ATOM     59  N   UNL A   1      42.095  31.874  29.939  1.00  0.00    -0.248 NA
ATOM     60  C   UNL A   1      41.857  30.035  31.349  1.00  0.00     0.031 C 
ATOM     61  C   UNL A   1      42.590  35.268  33.398  1.00  0.00     0.029 A 
ATOM     62  C   UNL A   1      42.858  33.998  32.882  1.00  0.00     0.049 A 
ATOM     63  H   UNL A   1      43.504  32.367  34.045  1.00  0.00     0.167 HD
ATOM     64  C   UNL A   1      42.660  32.202  31.165  1.00  0.00     0.074 A 
ATOM     65  C   UNL A   1      42.585  30.978  31.954  1.00  0.00     0.031 C 
ATOM     66  C   UNL A   1      42.864  33.507  31.518  1.00  0.00     0.031 A 
BRANCH  53  67
ATOM     67  C   UNL A   1      42.143  31.683  36.540  1.00  0.00    -0.014 A 
ATOM     68  C   UNL A   1      43.062  31.919  37.579  1.00  0.00     0.010 A 
ATOM     69  C   UNL A   1      42.077  30.365  36.036  1.00  0.00     0.010 A 
ATOM     70  C   UNL A   1      43.915  30.904  38.031  1.00  0.00     0.020 A 
ATOM     71  C   UNL A   1      42.877  29.334  36.518  1.00  0.00     0.020 A 
ATOM     72  C   UNL A   1      43.826  29.622  37.484  1.00  0.00     0.054 A 
BRANCH  72  73
ATOM     73  S   UNL A   1      45.015  28.353  37.970  1.00  0.00     0.124 S 
ATOM     74  O   UNL A   1      44.239  27.133  37.778  1.00  0.00    -0.237 OA
ATOM     75  O   UNL A   1      46.106  28.572  37.024  1.00  0.00    -0.237 OA
ATOM     76  O   UNL A   1      45.324  28.690  39.359  1.00  0.00    -0.744 OA
ENDBRANCH  72  73
ENDBRANCH  53  67
BRANCH  54  77
ATOM     77  C   UNL A   1      39.943  29.132  28.778  1.00  0.00    -0.014 A 
ATOM     78  C   UNL A   1      40.472  28.944  27.488  1.00  0.00     0.010 A 
ATOM     79  C   UNL A   1      39.427  28.000  29.443  1.00  0.00     0.010 A 
ATOM     80  C   UNL A   1      40.536  27.664  26.912  1.00  0.00     0.020 A 
ATOM     81  C   UNL A   1      39.471  26.724  28.870  1.00  0.00     0.020 A 
ATOM     82  C   UNL A   1      40.050  26.558  27.616  1.00  0.00     0.054 A 
BRANCH  82  83
ATOM     83  S   UNL A   1      40.293  24.889  26.944  1.00  0.00     0.124 S 
ATOM     84  O   UNL A   1      40.526  24.099  28.149  1.00  0.00    -0.237 OA
ATOM     85  O   UNL A   1      39.029  24.636  26.257  1.00  0.00    -0.237 OA
ATOM     86  O   UNL A   1      41.453  25.037  26.066  1.00  0.00    -0.744 OA
ENDBRANCH  82  83
ENDBRANCH  54  77
BRANCH  66  87
ATOM     87  C   UNL A   1      42.829  34.554  30.430  1.00  0.00    -0.014 A 
ATOM     88  C   UNL A   1      41.651  34.951  29.769  1.00  0.00     0.010 A 
ATOM     89  C   UNL A   1      44.016  35.264  30.170  1.00  0.00     0.010 A 
ATOM     90  C   UNL A   1      41.665  36.014  28.856  1.00  0.00     0.020 A 
ATOM     91  C   UNL A   1      44.033  36.337  29.275  1.00  0.00     0.020 A 
ATOM     92  C   UNL A   1      42.858  36.702  28.616  1.00  0.00     0.054 A 
BRANCH  92  93
ATOM     93  S   UNL A   1      42.854  38.118  27.481  1.00  0.00     0.124 S 
ATOM     94  O   UNL A   1      42.274  37.551  26.267  1.00  0.00    -0.237 OA
ATOM     95  O   UNL A   1      42.021  39.093  28.181  1.00  0.00    -0.237 OA
ATOM     96  O   UNL A   1      44.267  38.487  27.379  1.00  0.00    -0.744 OA
ENDBRANCH  92  93
ENDBRANCH  66  87
ENDBRANCH  40  41
ENDBRANCH  33  35
ENDBRANCH  32  33
ENDBRANCH  31  32
ENDBRANCH  30  31
ENDBRANCH  29  30
ENDBRANCH  28  29
ENDBRANCH   1  28
TORSDOF 25
ENDMDL
