MODEL 1
REMARK VINA RESULT:     -10.2      0.000      0.000
REMARK SMILES O=C(OCCOCCOCCOC(=O)[C@@H]1CC=CC[C@@H]1C(=O)Nc1sc2c(c1C(=O)N1CCCCC1)CCCC2)c1ccc(-c2c3nc(c(-c4ccc(S(=O)(=O)[O-])cc4)c4ccc([nH]4)c(-c4ccc(S(=O)(=O)[O-])cc4)c4nc(c(-c5ccc(S(=O)(=O)[O-])cc5)c5ccc2[nH]5)C=C4)C=C3)cc1
REMARK SMILES IDX 7 1 6 2 5 3 4 4 3 5 2 6 1 7 41 8 42 9 100 10 43 11 99 12
REMARK SMILES IDX 44 13 45 14 46 15 93 16 47 17 98 18 92 19 94 20 48 21 97 22
REMARK SMILES IDX 91 23 90 24 49 26 79 27 60 28 78 29 61 30 64 31 77 32 95 33
REMARK SMILES IDX 62 34 63 35 76 37 96 38 65 39 50 40 51 41 59 42 52 43 58 44
REMARK SMILES IDX 53 45 54 46 55 47 56 48 57 49 80 50 81 51 89 52 82 53 88 54
REMARK SMILES IDX 83 55 84 56 85 57 86 58 87 59 66 60 67 61 75 62 68 63 74 64
REMARK SMILES IDX 69 65 70 66 71 67 72 68 73 69 8 70 9 71 10 72 11 73 12 74
REMARK SMILES IDX 13 75 14 76 15 77 16 78 20 79 17 80 19 81 18 82 21 83 22 84
REMARK SMILES IDX 23 85 24 87 25 88 28 89 26 90 27 91 40 92 37 93 39 94 38 95
REMARK SMILES IDX 29 96 30 97 31 98 32 99 36 100 33 101 35 102 34 103
REMARK H PARENT 94 25 64 36 23 86
REMARK Flexibility Score: inf
ROOT
ATOM      1  C   UNL A   1      31.804  28.952  23.858  1.00  0.00     0.188 C 
ENDROOT
BRANCH   1   2
ATOM      2  O   UNL A   1      31.148  29.731  24.869  1.00  0.00    -0.376 OA
BRANCH   2   3
ATOM      3  C   UNL A   1      31.717  29.573  26.174  1.00  0.00     0.202 C 
BRANCH   3   4
ATOM      4  C   UNL A   1      32.164  30.867  26.875  1.00  0.00     0.261 C 
BRANCH   4   5
ATOM      5  O   UNL A   1      33.588  31.023  26.906  1.00  0.00    -0.460 OA
BRANCH   5   6
ATOM      6  C   UNL A   1      34.353  31.507  27.917  1.00  0.00     0.338 C 
ATOM      7  O   UNL A   1      34.040  32.592  28.407  1.00  0.00    -0.246 OA
BRANCH   6   8
ATOM      8  C   UNL A   1      35.553  30.803  28.476  1.00  0.00     0.060 A 
ATOM      9  C   UNL A   1      35.549  29.874  29.521  1.00  0.00     0.016 A 
ATOM     10  C   UNL A   1      36.782  31.076  27.851  1.00  0.00     0.016 A 
ATOM     11  C   UNL A   1      36.730  29.327  30.017  1.00  0.00     0.010 A 
ATOM     12  C   UNL A   1      37.967  30.495  28.310  1.00  0.00     0.010 A 
ATOM     13  C   UNL A   1      37.946  29.656  29.430  1.00  0.00    -0.014 A 
BRANCH  13  14
ATOM     14  C   UNL A   1      39.206  29.264  30.088  1.00  0.00     0.031 A 
ATOM     15  C   UNL A   1      39.669  30.078  31.256  1.00  0.00     0.074 A 
ATOM     16  C   UNL A   1      39.894  28.181  29.691  1.00  0.00     0.049 A 
ATOM     17  N   UNL A   1      40.801  30.027  31.900  1.00  0.00    -0.248 NA
ATOM     18  C   UNL A   1      38.716  31.074  31.775  1.00  0.00     0.031 C 
ATOM     19  C   UNL A   1      39.454  27.234  28.669  1.00  0.00     0.029 A 
ATOM     20  N   UNL A   1      41.112  27.699  30.097  1.00  0.00    -0.354 N 
ATOM     21  C   UNL A   1      40.711  31.003  32.884  1.00  0.00     0.074 A 
ATOM     22  C   UNL A   1      39.418  31.637  32.744  1.00  0.00     0.031 C 
ATOM     23  C   UNL A   1      40.407  26.302  28.508  1.00  0.00     0.029 A 
ATOM     24  C   UNL A   1      41.549  26.639  29.340  1.00  0.00     0.049 A 
ATOM     25  H   UNL A   1      41.621  28.074  30.851  1.00  0.00     0.167 HD
ATOM     26  C   UNL A   1      41.634  31.340  33.813  1.00  0.00     0.031 A 
ATOM     27  C   UNL A   1      42.755  26.047  29.266  1.00  0.00     0.031 A 
ATOM     28  C   UNL A   1      42.921  30.712  33.902  1.00  0.00     0.049 A 
ATOM     29  C   UNL A   1      43.828  26.526  30.194  1.00  0.00     0.074 A 
ATOM     30  C   UNL A   1      43.961  30.988  34.769  1.00  0.00     0.029 A 
ATOM     31  N   UNL A   1      43.349  29.682  33.072  1.00  0.00    -0.354 N 
ATOM     32  N   UNL A   1      43.755  27.477  31.096  1.00  0.00    -0.248 NA
ATOM     33  C   UNL A   1      45.131  25.858  30.118  1.00  0.00     0.031 C 
ATOM     34  C   UNL A   1      45.036  30.159  34.429  1.00  0.00     0.029 A 
ATOM     35  C   UNL A   1      44.646  29.325  33.390  1.00  0.00     0.049 A 
ATOM     36  H   UNL A   1      42.807  29.267  32.363  1.00  0.00     0.167 HD
ATOM     37  C   UNL A   1      44.991  27.500  31.723  1.00  0.00     0.074 A 
ATOM     38  C   UNL A   1      45.797  26.471  31.089  1.00  0.00     0.031 C 
ATOM     39  C   UNL A   1      45.413  28.288  32.741  1.00  0.00     0.031 A 
BRANCH  26  40
ATOM     40  C   UNL A   1      41.289  32.493  34.714  1.00  0.00    -0.014 A 
ATOM     41  C   UNL A   1      41.644  33.816  34.386  1.00  0.00     0.010 A 
ATOM     42  C   UNL A   1      40.674  32.235  35.952  1.00  0.00     0.010 A 
ATOM     43  C   UNL A   1      41.461  34.846  35.315  1.00  0.00     0.020 A 
ATOM     44  C   UNL A   1      40.465  33.267  36.871  1.00  0.00     0.020 A 
ATOM     45  C   UNL A   1      40.890  34.559  36.559  1.00  0.00     0.054 A 
BRANCH  45  46
ATOM     46  S   UNL A   1      40.724  35.897  37.772  1.00  0.00     0.124 S 
ATOM     47  O   UNL A   1      42.105  36.359  37.898  1.00  0.00    -0.237 OA
ATOM     48  O   UNL A   1      39.813  36.825  37.106  1.00  0.00    -0.237 OA
ATOM     49  O   UNL A   1      40.179  35.229  38.951  1.00  0.00    -0.744 OA
ENDBRANCH  45  46
ENDBRANCH  26  40
BRANCH  27  50
ATOM     50  C   UNL A   1      42.997  25.008  28.225  1.00  0.00    -0.014 A 
ATOM     51  C   UNL A   1      43.391  25.356  26.923  1.00  0.00     0.010 A 
ATOM     52  C   UNL A   1      42.914  23.642  28.569  1.00  0.00     0.010 A 
ATOM     53  C   UNL A   1      43.699  24.360  25.987  1.00  0.00     0.020 A 
ATOM     54  C   UNL A   1      43.243  22.646  27.645  1.00  0.00     0.020 A 
ATOM     55  C   UNL A   1      43.628  23.013  26.356  1.00  0.00     0.054 A 
BRANCH  55  56
ATOM     56  S   UNL A   1      44.095  21.745  25.141  1.00  0.00     0.124 S 
ATOM     57  O   UNL A   1      45.457  21.421  25.552  1.00  0.00    -0.237 OA
ATOM     58  O   UNL A   1      43.099  20.704  25.378  1.00  0.00    -0.237 OA
ATOM     59  O   UNL A   1      43.977  22.439  23.860  1.00  0.00    -0.744 OA
ENDBRANCH  55  56
ENDBRANCH  27  50
BRANCH  39  60
ATOM     60  C   UNL A   1      46.790  28.034  33.279  1.00  0.00    -0.014 A 
ATOM     61  C   UNL A   1      47.886  28.810  32.869  1.00  0.00     0.010 A 
ATOM     62  C   UNL A   1      46.955  27.076  34.296  1.00  0.00     0.010 A 
ATOM     63  C   UNL A   1      49.130  28.635  33.477  1.00  0.00     0.020 A 
ATOM     64  C   UNL A   1      48.191  26.916  34.921  1.00  0.00     0.020 A 
ATOM     65  C   UNL A   1      49.271  27.698  34.505  1.00  0.00     0.054 A 
BRANCH  65  66
ATOM     66  S   UNL A   1      50.867  27.567  35.354  1.00  0.00     0.124 S 
ATOM     67  O   UNL A   1      50.508  27.900  36.730  1.00  0.00    -0.237 OA
ATOM     68  O   UNL A   1      51.242  26.175  35.119  1.00  0.00    -0.237 OA
ATOM     69  O   UNL A   1      51.703  28.553  34.672  1.00  0.00    -0.744 OA
ENDBRANCH  65  66
ENDBRANCH  39  60
ENDBRANCH  13  14
ENDBRANCH   6   8
ENDBRANCH   5   6
ENDBRANCH   4   5
ENDBRANCH   3   4
ENDBRANCH   2   3
ENDBRANCH   1   2
BRANCH   1  70
ATOM     70  C   UNL A   1      33.306  28.796  24.097  1.00  0.00     0.188 C 
BRANCH  70  71
ATOM     71  O   UNL A   1      34.026  28.137  23.055  1.00  0.00    -0.376 OA
BRANCH  71  72
ATOM     72  C   UNL A   1      33.255  27.572  21.997  1.00  0.00     0.202 C 
BRANCH  72  73
ATOM     73  C   UNL A   1      33.298  26.049  21.866  1.00  0.00     0.261 C 
BRANCH  73  74
ATOM     74  O   UNL A   1      32.001  25.447  21.991  1.00  0.00    -0.463 OA
BRANCH  74  75
ATOM     75  C   UNL A   1      31.959  24.253  22.641  1.00  0.00     0.310 C 
ATOM     76  O   UNL A   1      32.712  23.309  22.403  1.00  0.00    -0.252 OA
BRANCH  75  77
ATOM     77  C   UNL A   1      30.889  24.250  23.724  1.00  0.00     0.116 C 
ATOM     78  C   UNL A   1      29.981  25.474  23.459  1.00  0.00     0.043 C 
ATOM     79  C   UNL A   1      31.482  24.087  25.145  1.00  0.00     0.097 C 
ATOM     80  C   UNL A   1      29.497  26.243  24.637  1.00  0.00    -0.030 C 
ATOM     81  C   UNL A   1      30.756  24.854  26.270  1.00  0.00     0.041 C 
ATOM     82  C   UNL A   1      29.860  25.977  25.890  1.00  0.00    -0.030 C 
BRANCH  79  83
ATOM     83  C   UNL A   1      32.982  24.360  25.219  1.00  0.00     0.229 C 
ATOM     84  O   UNL A   1      33.390  25.524  25.119  1.00  0.00    -0.274 OA
ATOM     85  N   UNL A   1      33.945  23.401  25.346  1.00  0.00    -0.317 N 
ATOM     86  H   UNL A   1      34.842  23.795  25.438  1.00  0.00     0.170 HD
BRANCH  85  87
ATOM     87  C   UNL A   1      33.989  22.014  25.378  1.00  0.00     0.108 A 
ATOM     88  S   UNL A   1      32.662  21.059  25.828  1.00  0.00    -0.122 S 
ATOM     89  C   UNL A   1      35.103  21.230  25.060  1.00  0.00     0.078 A 
ATOM     90  C   UNL A   1      33.404  19.635  25.317  1.00  0.00     0.011 A 
ATOM     91  C   UNL A   1      34.730  19.822  24.983  1.00  0.00    -0.019 A 
ATOM     92  C   UNL A   1      32.656  18.344  25.218  1.00  0.00     0.047 C 
ATOM     93  C   UNL A   1      35.583  18.655  24.571  1.00  0.00     0.037 C 
ATOM     94  C   UNL A   1      33.625  17.160  25.231  1.00  0.00     0.006 C 
ATOM     95  C   UNL A   1      34.778  17.386  24.251  1.00  0.00     0.005 C 
BRANCH  89  96
ATOM     96  C   UNL A   1      36.422  21.825  24.782  1.00  0.00     0.257 C 
ATOM     97  O   UNL A   1      36.774  22.151  23.636  1.00  0.00    -0.269 OA
ATOM     98  N   UNL A   1      37.230  22.057  25.876  1.00  0.00    -0.339 N 
ATOM     99  C   UNL A   1      37.285  23.407  26.425  1.00  0.00     0.120 C 
ATOM    100  C   UNL A   1      38.366  21.183  26.126  1.00  0.00     0.120 C 
ATOM    101  C   UNL A   1      38.636  24.083  26.182  1.00  0.00     0.022 C 
ATOM    102  C   UNL A   1      39.708  21.852  25.865  1.00  0.00     0.022 C 
ATOM    103  C   UNL A   1      39.791  23.179  26.610  1.00  0.00     0.004 C 
ENDBRANCH  89  96
ENDBRANCH  85  87
ENDBRANCH  79  83
ENDBRANCH  75  77
ENDBRANCH  74  75
ENDBRANCH  73  74
ENDBRANCH  72  73
ENDBRANCH  71  72
ENDBRANCH  70  71
ENDBRANCH   1  70
TORSDOF 23
ENDMDL
MODEL 2
REMARK VINA RESULT:     -10.2      3.520      4.140
REMARK SMILES O=C(OCCOCCOCCOC(=O)[C@@H]1CC=CC[C@@H]1C(=O)Nc1sc2c(c1C(=O)N1CCCCC1)CCCC2)c1ccc(-c2c3nc(c(-c4ccc(S(=O)(=O)[O-])cc4)c4ccc([nH]4)c(-c4ccc(S(=O)(=O)[O-])cc4)c4nc(c(-c5ccc(S(=O)(=O)[O-])cc5)c5ccc2[nH]5)C=C4)C=C3)cc1
REMARK SMILES IDX 7 1 6 2 5 3 4 4 3 5 2 6 1 7 41 8 42 9 100 10 43 11 99 12
REMARK SMILES IDX 44 13 45 14 46 15 93 16 47 17 98 18 92 19 94 20 48 21 97 22
REMARK SMILES IDX 91 23 90 24 49 26 79 27 60 28 78 29 61 30 64 31 77 32 95 33
REMARK SMILES IDX 62 34 63 35 76 37 96 38 65 39 50 40 51 41 59 42 52 43 58 44
REMARK SMILES IDX 53 45 54 46 55 47 56 48 57 49 80 50 81 51 89 52 82 53 88 54
REMARK SMILES IDX 83 55 84 56 85 57 86 58 87 59 66 60 67 61 75 62 68 63 74 64
REMARK SMILES IDX 69 65 70 66 71 67 72 68 73 69 8 70 9 71 10 72 11 73 12 74
REMARK SMILES IDX 13 75 14 76 15 77 16 78 20 79 17 80 19 81 18 82 21 83 22 84
REMARK SMILES IDX 23 85 24 87 25 88 28 89 26 90 27 91 40 92 37 93 39 94 38 95
REMARK SMILES IDX 29 96 30 97 31 98 32 99 36 100 33 101 35 102 34 103
REMARK H PARENT 94 25 64 36 23 86
REMARK Flexibility Score: inf
ROOT
ATOM      1  C   UNL A   1      32.174  29.326  24.411  1.00  0.00     0.188 C 
ENDROOT
BRANCH   1   2
ATOM      2  O   UNL A   1      31.752  30.205  25.464  1.00  0.00    -0.376 OA
BRANCH   2   3
ATOM      3  C   UNL A   1      32.299  29.872  26.745  1.00  0.00     0.202 C 
BRANCH   3   4
ATOM      4  C   UNL A   1      32.957  31.027  27.517  1.00  0.00     0.261 C 
BRANCH   4   5
ATOM      5  O   UNL A   1      34.385  30.923  27.572  1.00  0.00    -0.460 OA
BRANCH   5   6
ATOM      6  C   UNL A   1      35.190  31.052  28.656  1.00  0.00     0.338 C 
ATOM      7  O   UNL A   1      34.792  31.747  29.590  1.00  0.00    -0.246 OA
BRANCH   6   8
ATOM      8  C   UNL A   1      36.534  30.400  28.789  1.00  0.00     0.060 A 
ATOM      9  C   UNL A   1      37.156  30.036  29.987  1.00  0.00     0.016 A 
ATOM     10  C   UNL A   1      37.197  30.090  27.589  1.00  0.00     0.016 A 
ATOM     11  C   UNL A   1      38.441  29.499  30.010  1.00  0.00     0.010 A 
ATOM     12  C   UNL A   1      38.466  29.506  27.600  1.00  0.00     0.010 A 
ATOM     13  C   UNL A   1      39.111  29.256  28.816  1.00  0.00    -0.014 A 
BRANCH  13  14
ATOM     14  C   UNL A   1      40.543  28.905  28.839  1.00  0.00     0.031 A 
ATOM     15  C   UNL A   1      41.527  29.994  29.135  1.00  0.00     0.074 A 
ATOM     16  C   UNL A   1      40.956  27.640  28.656  1.00  0.00     0.049 A 
ATOM     17  N   UNL A   1      42.828  29.971  29.067  1.00  0.00    -0.248 NA
ATOM     18  C   UNL A   1      40.961  31.279  29.583  1.00  0.00     0.031 C 
ATOM     19  C   UNL A   1      40.077  26.482  28.514  1.00  0.00     0.029 A 
ATOM     20  N   UNL A   1      42.221  27.121  28.549  1.00  0.00    -0.354 N 
ATOM     21  C   UNL A   1      43.240  31.246  29.436  1.00  0.00     0.074 A 
ATOM     22  C   UNL A   1      42.050  32.019  29.715  1.00  0.00     0.031 C 
ATOM     23  C   UNL A   1      40.833  25.391  28.309  1.00  0.00     0.029 A 
ATOM     24  C   UNL A   1      42.226  25.789  28.212  1.00  0.00     0.049 A 
ATOM     25  H   UNL A   1      43.039  27.647  28.698  1.00  0.00     0.167 HD
ATOM     26  C   UNL A   1      44.502  31.723  29.523  1.00  0.00     0.031 A 
ATOM     27  C   UNL A   1      43.227  24.988  27.798  1.00  0.00     0.031 A 
ATOM     28  C   UNL A   1      45.660  30.937  29.205  1.00  0.00     0.049 A 
ATOM     29  C   UNL A   1      44.608  25.565  27.748  1.00  0.00     0.074 A 
ATOM     30  C   UNL A   1      46.990  31.313  29.212  1.00  0.00     0.029 A 
ATOM     31  N   UNL A   1      45.618  29.606  28.805  1.00  0.00    -0.354 N 
ATOM     32  N   UNL A   1      44.991  26.782  28.056  1.00  0.00    -0.248 NA
ATOM     33  C   UNL A   1      45.691  24.677  27.316  1.00  0.00     0.031 C 
ATOM     34  C   UNL A   1      47.746  30.223  28.767  1.00  0.00     0.029 A 
ATOM     35  C   UNL A   1      46.895  29.150  28.539  1.00  0.00     0.049 A 
ATOM     36  H   UNL A   1      44.797  29.068  28.724  1.00  0.00     0.167 HD
ATOM     37  C   UNL A   1      46.367  26.799  27.892  1.00  0.00     0.074 A 
ATOM     38  C   UNL A   1      46.748  25.470  27.446  1.00  0.00     0.031 C 
ATOM     39  C   UNL A   1      47.236  27.816  28.107  1.00  0.00     0.031 A 
BRANCH  26  40
ATOM     40  C   UNL A   1      44.647  33.176  29.882  1.00  0.00    -0.014 A 
ATOM     41  C   UNL A   1      44.642  34.182  28.897  1.00  0.00     0.010 A 
ATOM     42  C   UNL A   1      44.878  33.530  31.222  1.00  0.00     0.010 A 
ATOM     43  C   UNL A   1      44.944  35.504  29.238  1.00  0.00     0.020 A 
ATOM     44  C   UNL A   1      45.154  34.855  31.571  1.00  0.00     0.020 A 
ATOM     45  C   UNL A   1      45.217  35.827  30.571  1.00  0.00     0.054 A 
BRANCH  45  46
ATOM     46  S   UNL A   1      45.672  37.535  30.981  1.00  0.00     0.124 S 
ATOM     47  O   UNL A   1      46.416  37.355  32.226  1.00  0.00    -0.237 OA
ATOM     48  O   UNL A   1      46.472  37.941  29.828  1.00  0.00    -0.237 OA
ATOM     49  O   UNL A   1      44.386  38.213  31.114  1.00  0.00    -0.744 OA
ENDBRANCH  45  46
ENDBRANCH  26  40
BRANCH  27  50
ATOM     50  C   UNL A   1      42.915  23.606  27.337  1.00  0.00    -0.014 A 
ATOM     51  C   UNL A   1      42.867  23.285  25.971  1.00  0.00     0.010 A 
ATOM     52  C   UNL A   1      42.746  22.576  28.286  1.00  0.00     0.010 A 
ATOM     53  C   UNL A   1      42.660  21.961  25.562  1.00  0.00     0.020 A 
ATOM     54  C   UNL A   1      42.562  21.250  27.882  1.00  0.00     0.020 A 
ATOM     55  C   UNL A   1      42.514  20.952  26.520  1.00  0.00     0.054 A 
BRANCH  55  56
ATOM     56  S   UNL A   1      42.311  19.235  25.962  1.00  0.00     0.124 S 
ATOM     57  O   UNL A   1      42.682  18.484  27.157  1.00  0.00    -0.237 OA
ATOM     58  O   UNL A   1      40.897  19.189  25.601  1.00  0.00    -0.237 OA
ATOM     59  O   UNL A   1      43.244  19.128  24.842  1.00  0.00    -0.744 OA
ENDBRANCH  55  56
ENDBRANCH  27  50
BRANCH  39  60
ATOM     60  C   UNL A   1      48.695  27.521  27.922  1.00  0.00    -0.014 A 
ATOM     61  C   UNL A   1      49.508  27.161  29.008  1.00  0.00     0.010 A 
ATOM     62  C   UNL A   1      49.222  27.497  26.618  1.00  0.00     0.010 A 
ATOM     63  C   UNL A   1      50.831  26.771  28.790  1.00  0.00     0.020 A 
ATOM     64  C   UNL A   1      50.535  27.085  26.394  1.00  0.00     0.020 A 
ATOM     65  C   UNL A   1      51.331  26.725  27.484  1.00  0.00     0.054 A 
BRANCH  65  66
ATOM     66  S   UNL A   1      53.015  26.110  27.216  1.00  0.00     0.124 S 
ATOM     67  O   UNL A   1      52.770  24.821  26.576  1.00  0.00    -0.237 OA
ATOM     68  O   UNL A   1      53.599  27.139  26.359  1.00  0.00    -0.237 OA
ATOM     69  O   UNL A   1      53.576  26.041  28.564  1.00  0.00    -0.744 OA
ENDBRANCH  65  66
ENDBRANCH  39  60
ENDBRANCH  13  14
ENDBRANCH   6   8
ENDBRANCH   5   6
ENDBRANCH   4   5
ENDBRANCH   3   4
ENDBRANCH   2   3
ENDBRANCH   1   2
BRANCH   1  70
ATOM     70  C   UNL A   1      33.521  28.658  24.688  1.00  0.00     0.188 C 
BRANCH  70  71
ATOM     71  O   UNL A   1      34.422  28.616  23.581  1.00  0.00    -0.376 OA
BRANCH  71  72
ATOM     72  C   UNL A   1      33.848  28.421  22.291  1.00  0.00     0.202 C 
BRANCH  72  73
ATOM     73  C   UNL A   1      33.568  26.974  21.885  1.00  0.00     0.261 C 
BRANCH  73  74
ATOM     74  O   UNL A   1      32.192  26.606  22.067  1.00  0.00    -0.463 OA
BRANCH  74  75
ATOM     75  C   UNL A   1      31.950  25.281  22.256  1.00  0.00     0.310 C 
ATOM     76  O   UNL A   1      32.660  24.379  21.813  1.00  0.00    -0.252 OA
BRANCH  75  77
ATOM     77  C   UNL A   1      30.713  25.063  23.116  1.00  0.00     0.116 C 
ATOM     78  C   UNL A   1      29.910  26.384  23.089  1.00  0.00     0.043 C 
ATOM     79  C   UNL A   1      31.051  24.452  24.499  1.00  0.00     0.097 C 
ATOM     80  C   UNL A   1      29.264  26.825  24.355  1.00  0.00    -0.030 C 
ATOM     81  C   UNL A   1      30.175  24.927  25.677  1.00  0.00     0.041 C 
ATOM     82  C   UNL A   1      29.399  26.184  25.514  1.00  0.00    -0.030 C 
BRANCH  79  83
ATOM     83  C   UNL A   1      32.527  24.564  24.874  1.00  0.00     0.229 C 
ATOM     84  O   UNL A   1      33.023  25.684  25.047  1.00  0.00    -0.274 OA
ATOM     85  N   UNL A   1      33.383  23.509  24.998  1.00  0.00    -0.317 N 
ATOM     86  H   UNL A   1      34.271  23.795  25.309  1.00  0.00     0.170 HD
BRANCH  85  87
ATOM     87  C   UNL A   1      33.327  22.136  24.798  1.00  0.00     0.108 A 
ATOM     88  S   UNL A   1      32.052  21.374  23.982  1.00  0.00    -0.122 S 
ATOM     89  C   UNL A   1      34.284  21.213  25.235  1.00  0.00     0.078 A 
ATOM     90  C   UNL A   1      32.867  19.900  23.907  1.00  0.00     0.011 A 
ATOM     91  C   UNL A   1      34.023  19.898  24.660  1.00  0.00    -0.019 A 
ATOM     92  C   UNL A   1      32.371  18.764  23.071  1.00  0.00     0.047 C 
ATOM     93  C   UNL A   1      34.853  18.651  24.778  1.00  0.00     0.037 C 
ATOM     94  C   UNL A   1      32.969  17.441  23.556  1.00  0.00     0.006 C 
ATOM     95  C   UNL A   1      34.481  17.565  23.756  1.00  0.00     0.005 C 
BRANCH  89  96
ATOM     96  C   UNL A   1      35.413  21.608  26.096  1.00  0.00     0.257 C 
ATOM     97  O   UNL A   1      35.400  21.438  27.326  1.00  0.00    -0.269 OA
ATOM     98  N   UNL A   1      36.517  22.129  25.453  1.00  0.00    -0.339 N 
ATOM     99  C   UNL A   1      37.655  21.251  25.205  1.00  0.00     0.120 C 
ATOM    100  C   UNL A   1      36.774  23.560  25.515  1.00  0.00     0.120 C 
ATOM    101  C   UNL A   1      38.871  21.614  26.060  1.00  0.00     0.022 C 
ATOM    102  C   UNL A   1      37.972  23.919  26.381  1.00  0.00     0.022 C 
ATOM    103  C   UNL A   1      39.191  23.104  25.962  1.00  0.00     0.004 C 
ENDBRANCH  89  96
ENDBRANCH  85  87
ENDBRANCH  79  83
ENDBRANCH  75  77
ENDBRANCH  74  75
ENDBRANCH  73  74
ENDBRANCH  72  73
ENDBRANCH  71  72
ENDBRANCH  70  71
ENDBRANCH   1  70
TORSDOF 23
ENDMDL
MODEL 3
REMARK VINA RESULT:     -10.1      0.766      7.659
REMARK SMILES O=C(OCCOCCOCCOC(=O)[C@@H]1CC=CC[C@@H]1C(=O)Nc1sc2c(c1C(=O)N1CCCCC1)CCCC2)c1ccc(-c2c3nc(c(-c4ccc(S(=O)(=O)[O-])cc4)c4ccc([nH]4)c(-c4ccc(S(=O)(=O)[O-])cc4)c4nc(c(-c5ccc(S(=O)(=O)[O-])cc5)c5ccc2[nH]5)C=C4)C=C3)cc1
REMARK SMILES IDX 7 1 6 2 5 3 4 4 3 5 2 6 1 7 41 8 42 9 100 10 43 11 99 12
REMARK SMILES IDX 44 13 45 14 46 15 93 16 47 17 98 18 92 19 94 20 48 21 97 22
REMARK SMILES IDX 91 23 90 24 49 26 79 27 60 28 78 29 61 30 64 31 77 32 95 33
REMARK SMILES IDX 62 34 63 35 76 37 96 38 65 39 50 40 51 41 59 42 52 43 58 44
REMARK SMILES IDX 53 45 54 46 55 47 56 48 57 49 80 50 81 51 89 52 82 53 88 54
REMARK SMILES IDX 83 55 84 56 85 57 86 58 87 59 66 60 67 61 75 62 68 63 74 64
REMARK SMILES IDX 69 65 70 66 71 67 72 68 73 69 8 70 9 71 10 72 11 73 12 74
REMARK SMILES IDX 13 75 14 76 15 77 16 78 20 79 17 80 19 81 18 82 21 83 22 84
REMARK SMILES IDX 23 85 24 87 25 88 28 89 26 90 27 91 40 92 37 93 39 94 38 95
REMARK SMILES IDX 29 96 30 97 31 98 32 99 36 100 33 101 35 102 34 103
REMARK H PARENT 94 25 64 36 23 86
REMARK Flexibility Score: inf
ROOT
ATOM      1  C   UNL A   1      32.635  28.384  23.597  1.00  0.00     0.188 C 
ENDROOT
BRANCH   1   2
ATOM      2  O   UNL A   1      32.449  29.610  24.318  1.00  0.00    -0.376 OA
BRANCH   2   3
ATOM      3  C   UNL A   1      31.669  29.462  25.511  1.00  0.00     0.202 C 
BRANCH   3   4
ATOM      4  C   UNL A   1      32.216  30.164  26.765  1.00  0.00     0.261 C 
BRANCH   4   5
ATOM      5  O   UNL A   1      33.648  30.144  26.838  1.00  0.00    -0.460 OA
BRANCH   5   6
ATOM      6  C   UNL A   1      34.451  30.863  27.661  1.00  0.00     0.338 C 
ATOM      7  O   UNL A   1      34.121  32.020  27.922  1.00  0.00    -0.246 OA
BRANCH   6   8
ATOM      8  C   UNL A   1      35.716  30.339  28.273  1.00  0.00     0.060 A 
ATOM      9  C   UNL A   1      35.807  29.561  29.432  1.00  0.00     0.016 A 
ATOM     10  C   UNL A   1      36.906  30.622  27.582  1.00  0.00     0.016 A 
ATOM     11  C   UNL A   1      37.037  29.181  29.962  1.00  0.00     0.010 A 
ATOM     12  C   UNL A   1      38.143  30.203  28.080  1.00  0.00     0.010 A 
ATOM     13  C   UNL A   1      38.212  29.523  29.301  1.00  0.00    -0.014 A 
BRANCH  13  14
ATOM     14  C   UNL A   1      39.511  29.324  29.969  1.00  0.00     0.031 A 
ATOM     15  C   UNL A   1      40.393  28.221  29.472  1.00  0.00     0.074 A 
ATOM     16  C   UNL A   1      39.921  30.139  30.955  1.00  0.00     0.049 A 
ATOM     17  N   UNL A   1      41.500  27.758  29.981  1.00  0.00    -0.248 NA
ATOM     18  C   UNL A   1      39.972  27.563  28.223  1.00  0.00     0.031 C 
ATOM     19  C   UNL A   1      39.212  31.333  31.409  1.00  0.00     0.029 A 
ATOM     20  N   UNL A   1      41.032  30.079  31.757  1.00  0.00    -0.354 N 
ATOM     21  C   UNL A   1      41.896  26.733  29.131  1.00  0.00     0.074 A 
ATOM     22  C   UNL A   1      40.905  26.636  28.081  1.00  0.00     0.031 C 
ATOM     23  C   UNL A   1      39.893  31.874  32.431  1.00  0.00     0.029 A 
ATOM     24  C   UNL A   1      41.021  31.020  32.758  1.00  0.00     0.049 A 
ATOM     25  H   UNL A   1      41.760  29.430  31.631  1.00  0.00     0.167 HD
ATOM     26  C   UNL A   1      42.988  25.942  29.230  1.00  0.00     0.031 A 
ATOM     27  C   UNL A   1      41.785  31.144  33.860  1.00  0.00     0.031 A 
ATOM     28  C   UNL A   1      43.934  26.043  30.304  1.00  0.00     0.049 A 
ATOM     29  C   UNL A   1      42.906  30.169  34.048  1.00  0.00     0.074 A 
ATOM     30  C   UNL A   1      45.058  25.276  30.543  1.00  0.00     0.029 A 
ATOM     31  N   UNL A   1      43.851  26.972  31.335  1.00  0.00    -0.354 N 
ATOM     32  N   UNL A   1      43.254  29.174  33.265  1.00  0.00    -0.248 NA
ATOM     33  C   UNL A   1      43.743  30.329  35.240  1.00  0.00     0.031 C 
ATOM     34  C   UNL A   1      45.626  25.709  31.747  1.00  0.00     0.029 A 
ATOM     35  C   UNL A   1      44.890  26.784  32.227  1.00  0.00     0.049 A 
ATOM     36  H   UNL A   1      43.155  27.663  31.417  1.00  0.00     0.167 HD
ATOM     37  C   UNL A   1      44.376  28.609  33.850  1.00  0.00     0.074 A 
ATOM     38  C   UNL A   1      44.642  29.368  35.059  1.00  0.00     0.031 C 
ATOM     39  C   UNL A   1      45.128  27.567  33.416  1.00  0.00     0.031 A 
BRANCH  26  40
ATOM     40  C   UNL A   1      43.128  24.859  28.196  1.00  0.00    -0.014 A 
ATOM     41  C   UNL A   1      42.860  23.511  28.500  1.00  0.00     0.010 A 
ATOM     42  C   UNL A   1      43.620  25.189  26.921  1.00  0.00     0.010 A 
ATOM     43  C   UNL A   1      43.157  22.506  27.574  1.00  0.00     0.020 A 
ATOM     44  C   UNL A   1      43.891  24.189  25.983  1.00  0.00     0.020 A 
ATOM     45  C   UNL A   1      43.689  22.852  26.328  1.00  0.00     0.054 A 
BRANCH  45  46
ATOM     46  S   UNL A   1      44.128  21.529  25.168  1.00  0.00     0.124 S 
ATOM     47  O   UNL A   1      43.057  20.562  25.399  1.00  0.00    -0.237 OA
ATOM     48  O   UNL A   1      44.090  22.207  23.875  1.00  0.00    -0.237 OA
ATOM     49  O   UNL A   1      45.454  21.107  25.611  1.00  0.00    -0.744 OA
ENDBRANCH  45  46
ENDBRANCH  26  40
BRANCH  27  50
ATOM     50  C   UNL A   1      41.443  32.182  34.874  1.00  0.00    -0.014 A 
ATOM     51  C   UNL A   1      42.008  33.466  34.825  1.00  0.00     0.010 A 
ATOM     52  C   UNL A   1      40.470  31.903  35.857  1.00  0.00     0.010 A 
ATOM     53  C   UNL A   1      41.605  34.452  35.734  1.00  0.00     0.020 A 
ATOM     54  C   UNL A   1      40.048  32.890  36.752  1.00  0.00     0.020 A 
ATOM     55  C   UNL A   1      40.624  34.159  36.688  1.00  0.00     0.054 A 
BRANCH  55  56
ATOM     56  S   UNL A   1      40.075  35.475  37.814  1.00  0.00     0.124 S 
ATOM     57  O   UNL A   1      39.856  36.587  36.894  1.00  0.00    -0.237 OA
ATOM     58  O   UNL A   1      38.871  34.898  38.405  1.00  0.00    -0.237 OA
ATOM     59  O   UNL A   1      41.203  35.634  38.730  1.00  0.00    -0.744 OA
ENDBRANCH  55  56
ENDBRANCH  27  50
BRANCH  39  60
ATOM     60  C   UNL A   1      46.346  27.220  34.219  1.00  0.00    -0.014 A 
ATOM     61  C   UNL A   1      47.553  27.915  34.046  1.00  0.00     0.010 A 
ATOM     62  C   UNL A   1      46.235  26.258  35.238  1.00  0.00     0.010 A 
ATOM     63  C   UNL A   1      48.634  27.656  34.891  1.00  0.00     0.020 A 
ATOM     64  C   UNL A   1      47.304  26.014  36.099  1.00  0.00     0.020 A 
ATOM     65  C   UNL A   1      48.498  26.716  35.918  1.00  0.00     0.054 A 
BRANCH  65  66
ATOM     66  S   UNL A   1      49.876  26.478  37.071  1.00  0.00     0.124 S 
ATOM     67  O   UNL A   1      50.723  27.629  36.775  1.00  0.00    -0.237 OA
ATOM     68  O   UNL A   1      49.212  26.501  38.373  1.00  0.00    -0.237 OA
ATOM     69  O   UNL A   1      50.429  25.181  36.686  1.00  0.00    -0.744 OA
ENDBRANCH  65  66
ENDBRANCH  39  60
ENDBRANCH  13  14
ENDBRANCH   6   8
ENDBRANCH   5   6
ENDBRANCH   4   5
ENDBRANCH   3   4
ENDBRANCH   2   3
ENDBRANCH   1   2
BRANCH   1  70
ATOM     70  C   UNL A   1      33.940  28.345  22.802  1.00  0.00     0.188 C 
BRANCH  70  71
ATOM     71  O   UNL A   1      33.945  27.465  21.677  1.00  0.00    -0.376 OA
BRANCH  71  72
ATOM     72  C   UNL A   1      32.742  26.742  21.420  1.00  0.00     0.202 C 
BRANCH  72  73
ATOM     73  C   UNL A   1      32.856  25.217  21.411  1.00  0.00     0.261 C 
BRANCH  73  74
ATOM     74  O   UNL A   1      32.934  24.661  22.731  1.00  0.00    -0.463 OA
BRANCH  74  75
ATOM     75  C   UNL A   1      32.164  23.566  22.963  1.00  0.00     0.310 C 
ATOM     76  O   UNL A   1      32.365  22.460  22.461  1.00  0.00    -0.252 OA
BRANCH  75  77
ATOM     77  C   UNL A   1      31.048  23.873  23.952  1.00  0.00     0.116 C 
ATOM     78  C   UNL A   1      30.181  24.986  23.317  1.00  0.00     0.043 C 
ATOM     79  C   UNL A   1      31.574  24.102  25.391  1.00  0.00     0.097 C 
ATOM     80  C   UNL A   1      29.665  26.055  24.214  1.00  0.00    -0.030 C 
ATOM     81  C   UNL A   1      30.819  25.157  26.225  1.00  0.00     0.041 C 
ATOM     82  C   UNL A   1      29.967  26.142  25.508  1.00  0.00    -0.030 C 
BRANCH  79  83
ATOM     83  C   UNL A   1      33.076  24.369  25.459  1.00  0.00     0.229 C 
ATOM     84  O   UNL A   1      33.485  25.536  25.418  1.00  0.00    -0.274 OA
ATOM     85  N   UNL A   1      34.039  23.403  25.519  1.00  0.00    -0.317 N 
ATOM     86  H   UNL A   1      34.938  23.791  25.620  1.00  0.00     0.170 HD
BRANCH  85  87
ATOM     87  C   UNL A   1      34.080  22.016  25.473  1.00  0.00     0.108 A 
ATOM     88  S   UNL A   1      32.763  21.040  25.902  1.00  0.00    -0.122 S 
ATOM     89  C   UNL A   1      35.185  21.250  25.083  1.00  0.00     0.078 A 
ATOM     90  C   UNL A   1      33.489  19.645  25.295  1.00  0.00     0.011 A 
ATOM     91  C   UNL A   1      34.807  19.849  24.937  1.00  0.00    -0.019 A 
ATOM     92  C   UNL A   1      32.736  18.362  25.144  1.00  0.00     0.047 C 
ATOM     93  C   UNL A   1      35.646  18.707  24.440  1.00  0.00     0.037 C 
ATOM     94  C   UNL A   1      33.703  17.178  25.067  1.00  0.00     0.006 C 
ATOM     95  C   UNL A   1      34.831  17.458  24.071  1.00  0.00     0.005 C 
BRANCH  89  96
ATOM     96  C   UNL A   1      36.497  21.859  24.804  1.00  0.00     0.257 C 
ATOM     97  O   UNL A   1      36.857  22.164  23.655  1.00  0.00    -0.269 OA
ATOM     98  N   UNL A   1      37.289  22.129  25.901  1.00  0.00    -0.339 N 
ATOM     99  C   UNL A   1      37.319  23.492  26.419  1.00  0.00     0.120 C 
ATOM    100  C   UNL A   1      38.436  21.279  26.184  1.00  0.00     0.120 C 
ATOM    101  C   UNL A   1      38.662  24.183  26.174  1.00  0.00     0.022 C 
ATOM    102  C   UNL A   1      39.770  21.962  25.922  1.00  0.00     0.022 C 
ATOM    103  C   UNL A   1      39.826  23.308  26.636  1.00  0.00     0.004 C 
ENDBRANCH  89  96
ENDBRANCH  85  87
ENDBRANCH  79  83
ENDBRANCH  75  77
ENDBRANCH  74  75
ENDBRANCH  73  74
ENDBRANCH  72  73
ENDBRANCH  71  72
ENDBRANCH  70  71
ENDBRANCH   1  70
TORSDOF 23
ENDMDL
