MODEL 1
REMARK VINA RESULT:     -10.0      0.000      0.000
REMARK SMILES CC(C)C[C@H](NC(=O)[C@H](C)NC(=O)[C@@H](NC(=O)CNC(=O)OCc1ccccc1)C(C)C)C(=O)OCCOCCOCCOC(=O)c1ccc(-c2c3nc(c(-c4ccc(S(=O)(=O)[O-])cc4)c4ccc([nH]4)c(-c4ccc(S(=O)(=O)[O-])cc4)c4nc(c(-c5ccc(S(=O)(=O)[O-])cc5)c5ccc2[nH]5)C=C4)C=C3)cc1
REMARK SMILES IDX 36 1 35 2 33 3 34 4 5 5 4 6 2 7 1 8 3 9 6 10 7 11 8 13 9 14
REMARK SMILES IDX 10 15 11 16 12 17 13 19 14 20 15 21 16 22 17 24 18 25 19 26
REMARK SMILES IDX 20 27 21 29 22 30 23 31 24 32 25 33 29 34 26 35 28 36 27 37
REMARK SMILES IDX 30 38 31 39 32 40 37 41 38 42 39 43 40 44 41 45 42 46 43 47
REMARK SMILES IDX 44 48 45 49 46 50 47 51 48 52 106 53 49 54 105 55 50 56
REMARK SMILES IDX 51 57 52 58 99 59 53 60 104 61 98 62 100 63 54 64 103 65
REMARK SMILES IDX 97 66 96 67 55 69 85 70 66 71 84 72 67 73 70 74 83 75 101 76
REMARK SMILES IDX 68 77 69 78 82 80 102 81 71 82 56 83 57 84 65 85 58 86 64 87
REMARK SMILES IDX 59 88 60 89 61 90 62 91 63 92 86 93 87 94 95 95 88 96 94 97
REMARK SMILES IDX 89 98 90 99 91 100 92 101 93 102 72 103 73 104 81 105 74 106
REMARK SMILES IDX 80 107 75 108 76 109 77 110 78 111 79 112
REMARK H PARENT 6 12 11 18 15 23 19 28 100 68 70 79
REMARK Flexibility Score: inf
ROOT
ATOM      1  C   UNL A   1      34.225  28.667  26.443  1.00  0.00     0.261 C 
ENDROOT
BRANCH   1   2
ATOM      2  O   UNL A   1      33.610  28.073  24.577  1.00  0.00    -0.462 OA
BRANCH   2   3
ATOM      3  C   UNL A   1      32.496  28.466  23.497  1.00  0.00     0.328 C 
ATOM      4  O   UNL A   1      32.766  29.100  22.452  1.00  0.00    -0.250 OA
BRANCH   3   5
ATOM      5  C   UNL A   1      30.977  28.481  23.514  1.00  0.00     0.192 C 
BRANCH   5   6
ATOM      6  C   UNL A   1      30.058  29.537  24.049  1.00  0.00     0.040 C 
BRANCH   6   7
ATOM      7  C   UNL A   1      29.488  30.422  22.940  1.00  0.00    -0.015 C 
ATOM      8  C   UNL A   1      28.488  29.692  22.036  1.00  0.00     0.007 C 
ATOM      9  C   UNL A   1      28.816  31.656  23.514  1.00  0.00     0.007 C 
ENDBRANCH   6   7
ENDBRANCH   5   6
BRANCH   5  10
ATOM     10  N   UNL A   1      30.438  26.957  23.641  1.00  0.00    -0.341 N 
ATOM     11  C   UNL A   1      30.999  25.699  23.944  1.00  0.00     0.242 C 
ATOM     12  H   UNL A   1      29.472  26.894  23.459  1.00  0.00     0.164 HD
ATOM     13  O   UNL A   1      30.352  25.057  24.797  1.00  0.00    -0.273 OA
BRANCH  11  14
ATOM     14  C   UNL A   1      32.205  24.893  23.209  1.00  0.00     0.168 C 
ATOM     15  C   UNL A   1      32.442  25.579  21.844  1.00  0.00     0.041 C 
BRANCH  14  16
ATOM     16  N   UNL A   1      31.978  23.458  22.843  1.00  0.00    -0.343 N 
ATOM     17  C   UNL A   1      32.692  22.290  22.899  1.00  0.00     0.243 C 
ATOM     18  H   UNL A   1      31.081  23.318  22.462  1.00  0.00     0.164 HD
ATOM     19  O   UNL A   1      32.294  21.407  22.119  1.00  0.00    -0.273 OA
BRANCH  17  20
ATOM     20  C   UNL A   1      33.848  21.889  23.914  1.00  0.00     0.174 C 
BRANCH  20  21
ATOM     21  N   UNL A   1      34.598  23.063  24.372  1.00  0.00    -0.343 N 
ATOM     22  C   UNL A   1      35.814  23.280  24.922  1.00  0.00     0.240 C 
ATOM     23  H   UNL A   1      34.091  23.898  24.248  1.00  0.00     0.164 HD
ATOM     24  O   UNL A   1      36.026  24.444  25.291  1.00  0.00    -0.273 OA
BRANCH  22  25
ATOM     25  C   UNL A   1      36.955  22.225  25.059  1.00  0.00     0.219 C 
BRANCH  25  26
ATOM     26  N   UNL A   1      38.303  22.685  25.365  1.00  0.00    -0.312 N 
ATOM     27  C   UNL A   1      39.268  22.316  26.278  1.00  0.00     0.407 C 
ATOM     28  H   UNL A   1      38.591  23.431  24.790  1.00  0.00     0.167 HD
ATOM     29  O   UNL A   1      39.422  22.969  27.299  1.00  0.00    -0.225 OA
BRANCH  27  30
ATOM     30  O   UNL A   1      40.115  21.333  25.896  1.00  0.00    -0.445 OA
BRANCH  30  31
ATOM     31  C   UNL A   1      41.269  21.173  26.788  1.00  0.00     0.270 C 
BRANCH  31  32
ATOM     32  C   UNL A   1      42.488  20.689  26.023  1.00  0.00    -0.011 A 
ATOM     33  C   UNL A   1      43.633  22.029  25.783  1.00  0.00     0.007 A 
ATOM     34  C   UNL A   1      43.139  18.979  25.687  1.00  0.00     0.007 A 
ATOM     35  C   UNL A   1      45.275  21.700  25.265  1.00  0.00     0.000 A 
ATOM     36  C   UNL A   1      44.852  18.694  25.217  1.00  0.00     0.000 A 
ATOM     37  C   UNL A   1      45.891  20.080  25.036  1.00  0.00     0.000 A 
ENDBRANCH  31  32
ENDBRANCH  30  31
ENDBRANCH  27  30
ENDBRANCH  25  26
ENDBRANCH  22  25
ENDBRANCH  20  21
BRANCH  20  38
ATOM     38  C   UNL A   1      33.444  20.910  25.034  1.00  0.00     0.015 C 
ATOM     39  C   UNL A   1      33.106  21.488  26.398  1.00  0.00     0.010 C 
ATOM     40  C   UNL A   1      32.645  19.638  24.738  1.00  0.00     0.010 C 
ENDBRANCH  20  38
ENDBRANCH  17  20
ENDBRANCH  14  16
ENDBRANCH  11  14
ENDBRANCH   5  10
ENDBRANCH   3   5
ENDBRANCH   2   3
ENDBRANCH   1   2
BRANCH   1  41
ATOM     41  C   UNL A   1      33.763  30.293  27.260  1.00  0.00     0.202 C 
BRANCH  41  42
ATOM     42  O   UNL A   1      34.589  31.370  27.808  1.00  0.00    -0.376 OA
BRANCH  42  43
ATOM     43  C   UNL A   1      34.401  32.587  28.596  1.00  0.00     0.188 C 
BRANCH  43  44
ATOM     44  C   UNL A   1      33.683  34.011  28.340  1.00  0.00     0.188 C 
BRANCH  44  45
ATOM     45  O   UNL A   1      34.216  35.286  28.698  1.00  0.00    -0.376 OA
BRANCH  45  46
ATOM     46  C   UNL A   1      33.303  36.347  28.813  1.00  0.00     0.202 C 
BRANCH  46  47
ATOM     47  C   UNL A   1      32.519  36.411  30.123  1.00  0.00     0.261 C 
BRANCH  47  48
ATOM     48  O   UNL A   1      33.335  36.380  31.311  1.00  0.00    -0.460 OA
BRANCH  48  49
ATOM     49  C   UNL A   1      33.120  35.330  32.162  1.00  0.00     0.338 C 
ATOM     50  O   UNL A   1      32.040  34.885  32.507  1.00  0.00    -0.246 OA
BRANCH  49  51
ATOM     51  C   UNL A   1      34.424  34.639  32.400  1.00  0.00     0.060 A 
ATOM     52  C   UNL A   1      34.454  33.418  33.112  1.00  0.00     0.016 A 
ATOM     53  C   UNL A   1      35.595  35.148  31.850  1.00  0.00     0.016 A 
ATOM     54  C   UNL A   1      35.643  32.706  33.252  1.00  0.00     0.010 A 
ATOM     55  C   UNL A   1      36.802  34.482  32.074  1.00  0.00     0.010 A 
ATOM     56  C   UNL A   1      36.832  33.276  32.800  1.00  0.00    -0.014 A 
BRANCH  56  57
ATOM     57  C   UNL A   1      38.110  32.810  33.385  1.00  0.00     0.031 A 
ATOM     58  C   UNL A   1      38.931  31.873  32.546  1.00  0.00     0.074 A 
ATOM     59  C   UNL A   1      38.541  33.198  34.595  1.00  0.00     0.049 A 
ATOM     60  N   UNL A   1      40.005  31.204  32.863  1.00  0.00    -0.248 NA
ATOM     61  C   UNL A   1      38.453  31.638  31.172  1.00  0.00     0.031 C 
ATOM     62  C   UNL A   1      37.862  34.150  35.463  1.00  0.00     0.029 A 
ATOM     63  N   UNL A   1      39.660  32.834  35.301  1.00  0.00    -0.354 N 
ATOM     64  C   UNL A   1      40.307  30.441  31.743  1.00  0.00     0.074 A 
ATOM     65  C   UNL A   1      39.299  30.716  30.746  1.00  0.00     0.031 C 
ATOM     66  C   UNL A   1      38.590  34.314  36.582  1.00  0.00     0.029 A 
ATOM     67  C   UNL A   1      39.741  33.417  36.543  1.00  0.00     0.049 A 
ATOM     68  H   UNL A   1      40.340  32.214  34.952  1.00  0.00     0.167 HD
ATOM     69  C   UNL A   1      41.330  29.576  31.570  1.00  0.00     0.031 A 
ATOM     70  C   UNL A   1      40.616  33.217  37.549  1.00  0.00     0.031 A 
ATOM     71  C   UNL A   1      42.318  29.304  32.578  1.00  0.00     0.049 A 
ATOM     72  C   UNL A   1      41.702  32.187  37.364  1.00  0.00     0.074 A 
ATOM     73  C   UNL A   1      43.397  28.443  32.510  1.00  0.00     0.029 A 
ATOM     74  N   UNL A   1      42.341  29.883  33.839  1.00  0.00    -0.354 N 
ATOM     75  N   UNL A   1      41.973  31.453  36.310  1.00  0.00    -0.248 NA
ATOM     76  C   UNL A   1      42.589  31.945  38.510  1.00  0.00     0.031 C 
ATOM     77  C   UNL A   1      44.027  28.442  33.757  1.00  0.00     0.029 A 
ATOM     78  C   UNL A   1      43.398  29.371  34.572  1.00  0.00     0.049 A 
ATOM     79  H   UNL A   1      41.702  30.558  34.164  1.00  0.00     0.167 HD
ATOM     80  C   UNL A   1      43.079  30.685  36.655  1.00  0.00     0.074 A 
ATOM     81  C   UNL A   1      43.437  31.057  38.009  1.00  0.00     0.031 C 
ATOM     82  C   UNL A   1      43.741  29.756  35.919  1.00  0.00     0.031 A 
BRANCH  69  83
ATOM     83  C   UNL A   1      41.383  28.815  30.273  1.00  0.00    -0.014 A 
ATOM     84  C   UNL A   1      42.294  29.146  29.255  1.00  0.00     0.010 A 
ATOM     85  C   UNL A   1      40.511  27.727  30.084  1.00  0.00     0.010 A 
ATOM     86  C   UNL A   1      42.311  28.424  28.059  1.00  0.00     0.020 A 
ATOM     87  C   UNL A   1      40.549  26.979  28.905  1.00  0.00     0.020 A 
ATOM     88  C   UNL A   1      41.442  27.341  27.895  1.00  0.00     0.054 A 
BRANCH  88  89
ATOM     89  S   UNL A   1      41.518  26.392  26.352  1.00  0.00     0.124 S 
ATOM     90  O   UNL A   1      42.524  25.381  26.666  1.00  0.00    -0.237 OA
ATOM     91  O   UNL A   1      40.150  25.900  26.215  1.00  0.00    -0.237 OA
ATOM     92  O   UNL A   1      41.924  27.382  25.354  1.00  0.00    -0.744 OA
ENDBRANCH  88  89
ENDBRANCH  69  83
BRANCH  70  93
ATOM     93  C   UNL A   1      40.467  33.952  38.839  1.00  0.00    -0.014 A 
ATOM     94  C   UNL A   1      41.134  35.170  39.061  1.00  0.00     0.010 A 
ATOM     95  C   UNL A   1      39.656  33.427  39.864  1.00  0.00     0.010 A 
ATOM     96  C   UNL A   1      41.004  35.840  40.282  1.00  0.00     0.020 A 
ATOM     97  C   UNL A   1      39.492  34.113  41.071  1.00  0.00     0.020 A 
ATOM     98  C   UNL A   1      40.175  35.311  41.276  1.00  0.00     0.054 A 
BRANCH  98  99
ATOM     99  S   UNL A   1      39.972  36.230  42.827  1.00  0.00     0.124 S 
ATOM    100  O   UNL A   1      41.139  35.803  43.591  1.00  0.00    -0.237 OA
ATOM    101  O   UNL A   1      39.985  37.618  42.371  1.00  0.00    -0.237 OA
ATOM    102  O   UNL A   1      38.684  35.764  43.336  1.00  0.00    -0.744 OA
ENDBRANCH  98  99
ENDBRANCH  70  93
BRANCH  82 103
ATOM    103  C   UNL A   1      44.955  29.111  36.536  1.00  0.00    -0.014 A 
ATOM    104  C   UNL A   1      44.871  27.893  37.233  1.00  0.00     0.010 A 
ATOM    105  C   UNL A   1      46.216  29.710  36.355  1.00  0.00     0.010 A 
ATOM    106  C   UNL A   1      46.021  27.306  37.767  1.00  0.00     0.020 A 
ATOM    107  C   UNL A   1      47.372  29.107  36.852  1.00  0.00     0.020 A 
ATOM    108  C   UNL A   1      47.266  27.914  37.568  1.00  0.00     0.054 A 
BRANCH 108 109
ATOM    109  S   UNL A   1      48.747  27.106  38.231  1.00  0.00     0.124 S 
ATOM    110  O   UNL A   1      49.130  26.222  37.133  1.00  0.00    -0.237 OA
ATOM    111  O   UNL A   1      49.644  28.235  38.471  1.00  0.00    -0.237 OA
ATOM    112  O   UNL A   1      48.267  26.431  39.435  1.00  0.00    -0.744 OA
ENDBRANCH 108 109
ENDBRANCH  82 103
ENDBRANCH  56  57
ENDBRANCH  49  51
ENDBRANCH  48  49
ENDBRANCH  47  48
ENDBRANCH  46  47
ENDBRANCH  45  46
ENDBRANCH  44  45
ENDBRANCH  43  44
ENDBRANCH  42  43
ENDBRANCH  41  42
ENDBRANCH   1  41
TORSDOF 33
ENDMDL
MODEL 2
REMARK VINA RESULT:      -9.4      4.316      9.675
REMARK SMILES CC(C)C[C@H](NC(=O)[C@H](C)NC(=O)[C@@H](NC(=O)CNC(=O)OCc1ccccc1)C(C)C)C(=O)OCCOCCOCCOC(=O)c1ccc(-c2c3nc(c(-c4ccc(S(=O)(=O)[O-])cc4)c4ccc([nH]4)c(-c4ccc(S(=O)(=O)[O-])cc4)c4nc(c(-c5ccc(S(=O)(=O)[O-])cc5)c5ccc2[nH]5)C=C4)C=C3)cc1
REMARK SMILES IDX 36 1 35 2 33 3 34 4 5 5 4 6 2 7 1 8 3 9 6 10 7 11 8 13 9 14
REMARK SMILES IDX 10 15 11 16 12 17 13 19 14 20 15 21 16 22 17 24 18 25 19 26
REMARK SMILES IDX 20 27 21 29 22 30 23 31 24 32 25 33 29 34 26 35 28 36 27 37
REMARK SMILES IDX 30 38 31 39 32 40 37 41 38 42 39 43 40 44 41 45 42 46 43 47
REMARK SMILES IDX 44 48 45 49 46 50 47 51 48 52 106 53 49 54 105 55 50 56
REMARK SMILES IDX 51 57 52 58 99 59 53 60 104 61 98 62 100 63 54 64 103 65
REMARK SMILES IDX 97 66 96 67 55 69 85 70 66 71 84 72 67 73 70 74 83 75 101 76
REMARK SMILES IDX 68 77 69 78 82 80 102 81 71 82 56 83 57 84 65 85 58 86 64 87
REMARK SMILES IDX 59 88 60 89 61 90 62 91 63 92 86 93 87 94 95 95 88 96 94 97
REMARK SMILES IDX 89 98 90 99 91 100 92 101 93 102 72 103 73 104 81 105 74 106
REMARK SMILES IDX 80 107 75 108 76 109 77 110 78 111 79 112
REMARK H PARENT 6 12 11 18 15 23 19 28 100 68 70 79
REMARK Flexibility Score: inf
ROOT
ATOM      1  C   UNL A   1      34.478  30.429  27.663  1.00  0.00     0.261 C 
ENDROOT
BRANCH   1   2
ATOM      2  O   UNL A   1      33.628  28.572  27.459  1.00  0.00    -0.462 OA
BRANCH   2   3
ATOM      3  C   UNL A   1      32.192  27.934  27.154  1.00  0.00     0.328 C 
ATOM      4  O   UNL A   1      31.387  27.626  28.062  1.00  0.00    -0.250 OA
BRANCH   3   5
ATOM      5  C   UNL A   1      31.560  27.310  25.923  1.00  0.00     0.192 C 
BRANCH   5   6
ATOM      6  C   UNL A   1      30.924  27.993  24.750  1.00  0.00     0.040 C 
BRANCH   6   7
ATOM      7  C   UNL A   1      30.395  26.996  23.718  1.00  0.00    -0.015 C 
ATOM      8  C   UNL A   1      28.887  26.747  23.835  1.00  0.00     0.007 C 
ATOM      9  C   UNL A   1      30.707  27.451  22.305  1.00  0.00     0.007 C 
ENDBRANCH   6   7
ENDBRANCH   5   6
BRANCH   5  10
ATOM     10  N   UNL A   1      30.916  25.879  26.330  1.00  0.00    -0.341 N 
ATOM     11  C   UNL A   1      31.366  24.545  26.420  1.00  0.00     0.242 C 
ATOM     12  H   UNL A   1      29.966  25.963  26.579  1.00  0.00     0.164 HD
ATOM     13  O   UNL A   1      31.061  23.986  27.493  1.00  0.00    -0.273 OA
BRANCH  11  14
ATOM     14  C   UNL A   1      32.016  23.589  25.277  1.00  0.00     0.168 C 
ATOM     15  C   UNL A   1      30.892  23.260  24.268  1.00  0.00     0.041 C 
BRANCH  14  16
ATOM     16  N   UNL A   1      32.520  22.238  25.687  1.00  0.00    -0.343 N 
ATOM     17  C   UNL A   1      33.695  21.539  25.584  1.00  0.00     0.243 C 
ATOM     18  H   UNL A   1      31.827  21.717  26.153  1.00  0.00     0.164 HD
ATOM     19  O   UNL A   1      33.568  20.307  25.688  1.00  0.00    -0.273 OA
BRANCH  17  20
ATOM     20  C   UNL A   1      35.177  22.109  25.492  1.00  0.00     0.174 C 
BRANCH  20  21
ATOM     21  N   UNL A   1      36.164  21.031  25.377  1.00  0.00    -0.343 N 
ATOM     22  C   UNL A   1      37.514  20.956  25.335  1.00  0.00     0.240 C 
ATOM     23  H   UNL A   1      35.740  20.145  25.315  1.00  0.00     0.164 HD
ATOM     24  O   UNL A   1      37.973  19.829  25.097  1.00  0.00    -0.273 OA
BRANCH  22  25
ATOM     25  C   UNL A   1      38.502  22.128  25.623  1.00  0.00     0.219 C 
BRANCH  25  26
ATOM     26  N   UNL A   1      39.221  22.145  26.890  1.00  0.00    -0.312 N 
ATOM     27  C   UNL A   1      40.551  22.195  27.247  1.00  0.00     0.407 C 
ATOM     28  H   UNL A   1      38.619  22.113  27.669  1.00  0.00     0.167 HD
ATOM     29  O   UNL A   1      41.130  21.171  27.581  1.00  0.00    -0.225 OA
BRANCH  27  30
ATOM     30  O   UNL A   1      41.097  23.426  27.373  1.00  0.00    -0.445 OA
BRANCH  30  31
ATOM     31  C   UNL A   1      40.390  24.462  26.611  1.00  0.00     0.270 C 
BRANCH  31  32
ATOM     32  C   UNL A   1      40.352  25.772  27.377  1.00  0.00    -0.011 A 
ATOM     33  C   UNL A   1      40.896  27.107  26.336  1.00  0.00     0.007 A 
ATOM     34  C   UNL A   1      39.500  26.256  28.960  1.00  0.00     0.007 A 
ATOM     35  C   UNL A   1      40.612  28.770  26.818  1.00  0.00     0.000 A 
ATOM     36  C   UNL A   1      39.180  27.976  29.374  1.00  0.00     0.000 A 
ATOM     37  C   UNL A   1      39.735  29.201  28.267  1.00  0.00     0.000 A 
ENDBRANCH  31  32
ENDBRANCH  30  31
ENDBRANCH  27  30
ENDBRANCH  25  26
ENDBRANCH  22  25
ENDBRANCH  20  21
BRANCH  20  38
ATOM     38  C   UNL A   1      35.384  23.276  24.507  1.00  0.00     0.015 C 
ATOM     39  C   UNL A   1      35.688  24.649  25.083  1.00  0.00     0.010 C 
ATOM     40  C   UNL A   1      36.051  23.066  23.145  1.00  0.00     0.010 C 
ENDBRANCH  20  38
ENDBRANCH  17  20
ENDBRANCH  14  16
ENDBRANCH  11  14
ENDBRANCH   5  10
ENDBRANCH   3   5
ENDBRANCH   2   3
ENDBRANCH   1   2
BRANCH   1  41
ATOM     41  C   UNL A   1      33.541  32.054  27.588  1.00  0.00     0.202 C 
BRANCH  41  42
ATOM     42  O   UNL A   1      33.912  33.406  28.009  1.00  0.00    -0.376 OA
BRANCH  42  43
ATOM     43  C   UNL A   1      34.425  34.066  29.208  1.00  0.00     0.188 C 
BRANCH  43  44
ATOM     44  C   UNL A   1      34.409  33.732  30.788  1.00  0.00     0.188 C 
BRANCH  44  45
ATOM     45  O   UNL A   1      34.396  32.425  31.360  1.00  0.00    -0.376 OA
BRANCH  45  46
ATOM     46  C   UNL A   1      35.616  31.932  31.852  1.00  0.00     0.202 C 
BRANCH  46  47
ATOM     47  C   UNL A   1      36.504  32.950  32.568  1.00  0.00     0.261 C 
BRANCH  47  48
ATOM     48  O   UNL A   1      37.839  32.486  32.850  1.00  0.00    -0.460 OA
BRANCH  48  49
ATOM     49  C   UNL A   1      38.857  33.200  32.280  1.00  0.00     0.338 C 
ATOM     50  O   UNL A   1      38.932  34.412  32.191  1.00  0.00    -0.246 OA
BRANCH  49  51
ATOM     51  C   UNL A   1      39.998  32.271  32.015  1.00  0.00     0.060 A 
ATOM     52  C   UNL A   1      40.196  31.143  32.843  1.00  0.00     0.016 A 
ATOM     53  C   UNL A   1      40.814  32.466  30.905  1.00  0.00     0.016 A 
ATOM     54  C   UNL A   1      41.188  30.210  32.550  1.00  0.00     0.010 A 
ATOM     55  C   UNL A   1      41.868  31.581  30.667  1.00  0.00     0.010 A 
ATOM     56  C   UNL A   1      42.075  30.470  31.506  1.00  0.00    -0.014 A 
BRANCH  56  57
ATOM     57  C   UNL A   1      43.394  29.798  31.513  1.00  0.00     0.031 A 
ATOM     58  C   UNL A   1      44.413  30.325  32.481  1.00  0.00     0.074 A 
ATOM     59  C   UNL A   1      43.686  28.760  30.713  1.00  0.00     0.049 A 
ATOM     60  N   UNL A   1      45.677  30.026  32.597  1.00  0.00    -0.248 NA
ATOM     61  C   UNL A   1      43.944  31.355  33.426  1.00  0.00     0.031 C 
ATOM     62  C   UNL A   1      42.757  28.126  29.787  1.00  0.00     0.029 A 
ATOM     63  N   UNL A   1      44.854  28.056  30.556  1.00  0.00    -0.354 N 
ATOM     64  C   UNL A   1      46.162  30.856  33.599  1.00  0.00     0.074 A 
ATOM     65  C   UNL A   1      45.064  31.681  34.047  1.00  0.00     0.031 C 
ATOM     66  C   UNL A   1      43.385  27.108  29.170  1.00  0.00     0.029 A 
ATOM     67  C   UNL A   1      44.780  27.075  29.597  1.00  0.00     0.049 A 
ATOM     68  H   UNL A   1      45.667  28.238  31.080  1.00  0.00     0.167 HD
ATOM     69  C   UNL A   1      47.418  30.933  34.089  1.00  0.00     0.031 A 
ATOM     70  C   UNL A   1      45.739  26.272  29.091  1.00  0.00     0.031 A 
ATOM     71  C   UNL A   1      48.503  30.112  33.622  1.00  0.00     0.049 A 
ATOM     72  C   UNL A   1      47.151  26.430  29.596  1.00  0.00     0.074 A 
ATOM     73  C   UNL A   1      49.818  30.108  34.047  1.00  0.00     0.029 A 
ATOM     74  N   UNL A   1      48.398  29.159  32.619  1.00  0.00    -0.354 N 
ATOM     75  N   UNL A   1      47.609  27.230  30.530  1.00  0.00    -0.248 NA
ATOM     76  C   UNL A   1      48.179  25.589  28.967  1.00  0.00     0.031 C 
ATOM     77  C   UNL A   1      50.526  29.207  33.248  1.00  0.00     0.029 A 
ATOM     78  C   UNL A   1      49.635  28.582  32.388  1.00  0.00     0.049 A 
ATOM     79  H   UNL A   1      47.568  28.925  32.144  1.00  0.00     0.167 HD
ATOM     80  C   UNL A   1      48.971  26.968  30.622  1.00  0.00     0.074 A 
ATOM     81  C   UNL A   1      49.259  25.923  29.661  1.00  0.00     0.031 C 
ATOM     82  C   UNL A   1      49.902  27.540  31.428  1.00  0.00     0.031 A 
BRANCH  69  83
ATOM     83  C   UNL A   1      47.695  31.982  35.131  1.00  0.00    -0.014 A 
ATOM     84  C   UNL A   1      47.579  31.712  36.505  1.00  0.00     0.010 A 
ATOM     85  C   UNL A   1      48.100  33.265  34.717  1.00  0.00     0.010 A 
ATOM     86  C   UNL A   1      47.834  32.714  37.446  1.00  0.00     0.020 A 
ATOM     87  C   UNL A   1      48.392  34.257  35.654  1.00  0.00     0.020 A 
ATOM     88  C   UNL A   1      48.246  33.978  37.013  1.00  0.00     0.054 A 
BRANCH  88  89
ATOM     89  S   UNL A   1      48.616  35.244  38.258  1.00  0.00     0.124 S 
ATOM     90  O   UNL A   1      49.877  34.763  38.814  1.00  0.00    -0.237 OA
ATOM     91  O   UNL A   1      48.704  36.461  37.454  1.00  0.00    -0.237 OA
ATOM     92  O   UNL A   1      47.472  35.183  39.167  1.00  0.00    -0.744 OA
ENDBRANCH  88  89
ENDBRANCH  69  83
BRANCH  70  93
ATOM     93  C   UNL A   1      45.415  25.299  28.008  1.00  0.00    -0.014 A 
ATOM     94  C   UNL A   1      45.013  23.985  28.309  1.00  0.00     0.010 A 
ATOM     95  C   UNL A   1      45.518  25.682  26.656  1.00  0.00     0.010 A 
ATOM     96  C   UNL A   1      44.732  23.075  27.285  1.00  0.00     0.020 A 
ATOM     97  C   UNL A   1      45.201  24.788  25.631  1.00  0.00     0.020 A 
ATOM     98  C   UNL A   1      44.819  23.485  25.952  1.00  0.00     0.054 A 
BRANCH  98  99
ATOM     99  S   UNL A   1      44.389  22.306  24.642  1.00  0.00     0.124 S 
ATOM    100  O   UNL A   1      44.976  21.066  25.141  1.00  0.00    -0.237 OA
ATOM    101  O   UNL A   1      42.929  22.360  24.640  1.00  0.00    -0.237 OA
ATOM    102  O   UNL A   1      45.026  22.865  23.452  1.00  0.00    -0.744 OA
ENDBRANCH  98  99
ENDBRANCH  70  93
BRANCH  82 103
ATOM    103  C   UNL A   1      51.312  27.013  31.350  1.00  0.00    -0.014 A 
ATOM    104  C   UNL A   1      52.251  27.547  30.451  1.00  0.00     0.010 A 
ATOM    105  C   UNL A   1      51.717  26.005  32.244  1.00  0.00     0.010 A 
ATOM    106  C   UNL A   1      53.560  27.058  30.425  1.00  0.00     0.020 A 
ATOM    107  C   UNL A   1      53.034  25.541  32.249  1.00  0.00     0.020 A 
ATOM    108  C   UNL A   1      53.944  26.061  31.329  1.00  0.00     0.054 A 
BRANCH 108 109
ATOM    109  S   UNL A   1      55.660  25.477  31.305  1.00  0.00     0.124 S 
ATOM    110  O   UNL A   1      55.493  24.034  31.464  1.00  0.00    -0.237 OA
ATOM    111  O   UNL A   1      56.127  25.914  29.991  1.00  0.00    -0.237 OA
ATOM    112  O   UNL A   1      56.277  26.160  32.439  1.00  0.00    -0.744 OA
ENDBRANCH 108 109
ENDBRANCH  82 103
ENDBRANCH  56  57
ENDBRANCH  49  51
ENDBRANCH  48  49
ENDBRANCH  47  48
ENDBRANCH  46  47
ENDBRANCH  45  46
ENDBRANCH  44  45
ENDBRANCH  43  44
ENDBRANCH  42  43
ENDBRANCH  41  42
ENDBRANCH   1  41
TORSDOF 33
ENDMDL
MODEL 3
REMARK VINA RESULT:      -9.3      2.426      8.068
REMARK SMILES CC(C)C[C@H](NC(=O)[C@H](C)NC(=O)[C@@H](NC(=O)CNC(=O)OCc1ccccc1)C(C)C)C(=O)OCCOCCOCCOC(=O)c1ccc(-c2c3nc(c(-c4ccc(S(=O)(=O)[O-])cc4)c4ccc([nH]4)c(-c4ccc(S(=O)(=O)[O-])cc4)c4nc(c(-c5ccc(S(=O)(=O)[O-])cc5)c5ccc2[nH]5)C=C4)C=C3)cc1
REMARK SMILES IDX 36 1 35 2 33 3 34 4 5 5 4 6 2 7 1 8 3 9 6 10 7 11 8 13 9 14
REMARK SMILES IDX 10 15 11 16 12 17 13 19 14 20 15 21 16 22 17 24 18 25 19 26
REMARK SMILES IDX 20 27 21 29 22 30 23 31 24 32 25 33 29 34 26 35 28 36 27 37
REMARK SMILES IDX 30 38 31 39 32 40 37 41 38 42 39 43 40 44 41 45 42 46 43 47
REMARK SMILES IDX 44 48 45 49 46 50 47 51 48 52 106 53 49 54 105 55 50 56
REMARK SMILES IDX 51 57 52 58 99 59 53 60 104 61 98 62 100 63 54 64 103 65
REMARK SMILES IDX 97 66 96 67 55 69 85 70 66 71 84 72 67 73 70 74 83 75 101 76
REMARK SMILES IDX 68 77 69 78 82 80 102 81 71 82 56 83 57 84 65 85 58 86 64 87
REMARK SMILES IDX 59 88 60 89 61 90 62 91 63 92 86 93 87 94 95 95 88 96 94 97
REMARK SMILES IDX 89 98 90 99 91 100 92 101 93 102 72 103 73 104 81 105 74 106
REMARK SMILES IDX 80 107 75 108 76 109 77 110 78 111 79 112
REMARK H PARENT 6 12 11 18 15 23 19 28 100 68 70 79
REMARK Flexibility Score: inf
ROOT
ATOM      1  C   UNL A   1      34.954  29.306  26.801  1.00  0.00     0.261 C 
ENDROOT
BRANCH   1   2
ATOM      2  O   UNL A   1      34.110  28.338  25.200  1.00  0.00    -0.462 OA
BRANCH   2   3
ATOM      3  C   UNL A   1      33.080  28.648  24.014  1.00  0.00     0.328 C 
ATOM      4  O   UNL A   1      33.432  29.195  22.945  1.00  0.00    -0.250 OA
BRANCH   3   5
ATOM      5  C   UNL A   1      31.565  28.671  23.919  1.00  0.00     0.192 C 
BRANCH   5   6
ATOM      6  C   UNL A   1      30.619  29.761  24.324  1.00  0.00     0.040 C 
BRANCH   6   7
ATOM      7  C   UNL A   1      29.445  29.897  23.353  1.00  0.00    -0.015 C 
ATOM      8  C   UNL A   1      28.626  31.174  23.568  1.00  0.00     0.007 C 
ATOM      9  C   UNL A   1      29.918  29.858  21.912  1.00  0.00     0.007 C 
ENDBRANCH   6   7
ENDBRANCH   5   6
BRANCH   5  10
ATOM     10  N   UNL A   1      31.004  27.160  24.095  1.00  0.00    -0.341 N 
ATOM     11  C   UNL A   1      31.546  25.859  24.047  1.00  0.00     0.242 C 
ATOM     12  H   UNL A   1      30.037  27.148  24.283  1.00  0.00     0.164 HD
ATOM     13  O   UNL A   1      31.216  25.145  25.016  1.00  0.00    -0.273 OA
BRANCH  11  14
ATOM     14  C   UNL A   1      32.337  25.105  22.843  1.00  0.00     0.168 C 
ATOM     15  C   UNL A   1      31.922  25.799  21.525  1.00  0.00     0.041 C 
BRANCH  14  16
ATOM     16  N   UNL A   1      32.027  23.661  22.587  1.00  0.00    -0.343 N 
ATOM     17  C   UNL A   1      32.678  22.463  22.726  1.00  0.00     0.243 C 
ATOM     18  H   UNL A   1      31.119  23.543  22.225  1.00  0.00     0.164 HD
ATOM     19  O   UNL A   1      32.222  21.548  22.018  1.00  0.00    -0.273 OA
BRANCH  17  20
ATOM     20  C   UNL A   1      33.822  22.076  23.760  1.00  0.00     0.174 C 
BRANCH  20  21
ATOM     21  N   UNL A   1      34.404  23.264  24.392  1.00  0.00    -0.343 N 
ATOM     22  C   UNL A   1      35.615  23.599  24.891  1.00  0.00     0.240 C 
ATOM     23  H   UNL A   1      33.752  23.997  24.474  1.00  0.00     0.164 HD
ATOM     24  O   UNL A   1      35.663  24.693  25.472  1.00  0.00    -0.273 OA
BRANCH  22  25
ATOM     25  C   UNL A   1      36.927  22.770  24.735  1.00  0.00     0.219 C 
BRANCH  25  26
ATOM     26  N   UNL A   1      37.652  22.370  25.934  1.00  0.00    -0.312 N 
ATOM     27  C   UNL A   1      38.911  22.628  26.435  1.00  0.00     0.407 C 
ATOM     28  H   UNL A   1      37.124  21.781  26.520  1.00  0.00     0.167 HD
ATOM     29  O   UNL A   1      39.799  21.799  26.306  1.00  0.00    -0.225 OA
BRANCH  27  30
ATOM     30  O   UNL A   1      39.039  23.734  27.203  1.00  0.00    -0.445 OA
BRANCH  30  31
ATOM     31  C   UNL A   1      40.306  24.446  27.000  1.00  0.00     0.270 C 
BRANCH  31  32
ATOM     32  C   UNL A   1      40.257  25.834  27.613  1.00  0.00    -0.011 A 
ATOM     33  C   UNL A   1      40.781  27.049  26.425  1.00  0.00     0.007 A 
ATOM     34  C   UNL A   1      39.407  26.485  29.135  1.00  0.00     0.007 A 
ATOM     35  C   UNL A   1      40.481  28.752  26.717  1.00  0.00     0.000 A 
ATOM     36  C   UNL A   1      39.070  28.237  29.355  1.00  0.00     0.000 A 
ATOM     37  C   UNL A   1      39.606  29.335  28.113  1.00  0.00     0.000 A 
ENDBRANCH  31  32
ENDBRANCH  30  31
ENDBRANCH  27  30
ENDBRANCH  25  26
ENDBRANCH  22  25
ENDBRANCH  20  21
BRANCH  20  38
ATOM     38  C   UNL A   1      33.483  20.931  24.735  1.00  0.00     0.015 C 
ATOM     39  C   UNL A   1      32.062  20.845  25.266  1.00  0.00     0.010 C 
ATOM     40  C   UNL A   1      34.130  19.550  24.606  1.00  0.00     0.010 C 
ENDBRANCH  20  38
ENDBRANCH  17  20
ENDBRANCH  14  16
ENDBRANCH  11  14
ENDBRANCH   5  10
ENDBRANCH   3   5
ENDBRANCH   2   3
ENDBRANCH   1   2
BRANCH   1  41
ATOM     41  C   UNL A   1      34.171  30.740  27.725  1.00  0.00     0.202 C 
BRANCH  41  42
ATOM     42  O   UNL A   1      34.357  32.187  27.603  1.00  0.00    -0.376 OA
BRANCH  42  43
ATOM     43  C   UNL A   1      34.266  33.369  28.460  1.00  0.00     0.188 C 
BRANCH  43  44
ATOM     44  C   UNL A   1      33.245  34.613  28.580  1.00  0.00     0.188 C 
BRANCH  44  45
ATOM     45  O   UNL A   1      33.547  35.883  29.158  1.00  0.00    -0.376 OA
BRANCH  45  46
ATOM     46  C   UNL A   1      32.760  36.290  30.249  1.00  0.00     0.202 C 
BRANCH  46  47
ATOM     47  C   UNL A   1      33.147  35.701  31.605  1.00  0.00     0.261 C 
BRANCH  47  48
ATOM     48  O   UNL A   1      34.488  35.176  31.669  1.00  0.00    -0.460 OA
BRANCH  48  49
ATOM     49  C   UNL A   1      34.611  33.893  32.129  1.00  0.00     0.338 C 
ATOM     50  O   UNL A   1      33.926  32.939  31.809  1.00  0.00    -0.246 OA
BRANCH  49  51
ATOM     51  C   UNL A   1      35.891  33.784  32.894  1.00  0.00     0.060 A 
ATOM     52  C   UNL A   1      37.016  34.542  32.497  1.00  0.00     0.016 A 
ATOM     53  C   UNL A   1      35.952  33.007  34.045  1.00  0.00     0.016 A 
ATOM     54  C   UNL A   1      38.183  34.534  33.257  1.00  0.00     0.010 A 
ATOM     55  C   UNL A   1      37.153  32.926  34.754  1.00  0.00     0.010 A 
ATOM     56  C   UNL A   1      38.278  33.666  34.344  1.00  0.00    -0.014 A 
BRANCH  56  57
ATOM     57  C   UNL A   1      39.623  33.269  34.818  1.00  0.00     0.031 A 
ATOM     58  C   UNL A   1      40.147  33.985  36.029  1.00  0.00     0.074 A 
ATOM     59  C   UNL A   1      40.353  32.313  34.222  1.00  0.00     0.049 A 
ATOM     60  N   UNL A   1      41.336  33.943  36.566  1.00  0.00    -0.248 NA
ATOM     61  C   UNL A   1      39.208  34.897  36.706  1.00  0.00     0.031 C 
ATOM     62  C   UNL A   1      39.918  31.511  33.086  1.00  0.00     0.029 A 
ATOM     63  N   UNL A   1      41.619  31.857  34.495  1.00  0.00    -0.354 N 
ATOM     64  C   UNL A   1      41.297  34.849  37.618  1.00  0.00     0.074 A 
ATOM     65  C   UNL A   1      39.978  35.437  37.635  1.00  0.00     0.031 C 
ATOM     66  C   UNL A   1      40.895  30.642  32.769  1.00  0.00     0.029 A 
ATOM     67  C   UNL A   1      42.052  30.885  33.626  1.00  0.00     0.049 A 
ATOM     68  H   UNL A   1      42.164  32.195  35.241  1.00  0.00     0.167 HD
ATOM     69  C   UNL A   1      42.283  35.172  38.482  1.00  0.00     0.031 A 
ATOM     70  C   UNL A   1      43.257  30.291  33.507  1.00  0.00     0.031 A 
ATOM     71  C   UNL A   1      43.596  34.586  38.442  1.00  0.00     0.049 A 
ATOM     72  C   UNL A   1      44.367  30.724  34.431  1.00  0.00     0.074 A 
ATOM     73  C   UNL A   1      44.673  34.841  39.269  1.00  0.00     0.029 A 
ATOM     74  N   UNL A   1      44.010  33.634  37.521  1.00  0.00    -0.354 N 
ATOM     75  N   UNL A   1      44.332  31.596  35.412  1.00  0.00    -0.248 NA
ATOM     76  C   UNL A   1      45.684  30.108  34.221  1.00  0.00     0.031 C 
ATOM     77  C   UNL A   1      45.762  34.103  38.799  1.00  0.00     0.029 A 
ATOM     78  C   UNL A   1      45.339  33.317  37.738  1.00  0.00     0.049 A 
ATOM     79  H   UNL A   1      43.442  33.242  36.818  1.00  0.00     0.167 HD
ATOM     80  C   UNL A   1      45.611  31.610  35.955  1.00  0.00     0.074 A 
ATOM     81  C   UNL A   1      46.392  30.647  35.205  1.00  0.00     0.031 C 
ATOM     82  C   UNL A   1      46.099  32.352  36.981  1.00  0.00     0.031 A 
BRANCH  69  83
ATOM     83  C   UNL A   1      41.998  36.251  39.490  1.00  0.00    -0.014 A 
ATOM     84  C   UNL A   1      42.229  37.609  39.208  1.00  0.00     0.010 A 
ATOM     85  C   UNL A   1      41.464  35.893  40.742  1.00  0.00     0.010 A 
ATOM     86  C   UNL A   1      41.962  38.586  40.172  1.00  0.00     0.020 A 
ATOM     87  C   UNL A   1      41.161  36.868  41.693  1.00  0.00     0.020 A 
ATOM     88  C   UNL A   1      41.423  38.209  41.405  1.00  0.00     0.054 A 
BRANCH  88  89
ATOM     89  S   UNL A   1      41.041  39.502  42.618  1.00  0.00     0.124 S 
ATOM     90  O   UNL A   1      40.828  40.667  41.763  1.00  0.00    -0.237 OA
ATOM     91  O   UNL A   1      39.847  38.976  43.276  1.00  0.00    -0.237 OA
ATOM     92  O   UNL A   1      42.237  39.557  43.456  1.00  0.00    -0.744 OA
ENDBRANCH  88  89
ENDBRANCH  69  83
BRANCH  70  93
ATOM     93  C   UNL A   1      43.498  29.277  32.439  1.00  0.00    -0.014 A 
ATOM     94  C   UNL A   1      43.763  29.668  31.115  1.00  0.00     0.010 A 
ATOM     95  C   UNL A   1      43.454  27.903  32.744  1.00  0.00     0.010 A 
ATOM     96  C   UNL A   1      43.967  28.708  30.117  1.00  0.00     0.020 A 
ATOM     97  C   UNL A   1      43.696  26.941  31.759  1.00  0.00     0.020 A 
ATOM     98  C   UNL A   1      43.941  27.351  30.449  1.00  0.00     0.054 A 
BRANCH  98  99
ATOM     99  S   UNL A   1      44.272  26.126  29.152  1.00  0.00     0.124 S 
ATOM    100  O   UNL A   1      44.162  26.929  27.938  1.00  0.00    -0.237 OA
ATOM    101  O   UNL A   1      45.617  25.669  29.489  1.00  0.00    -0.237 OA
ATOM    102  O   UNL A   1      43.220  25.131  29.342  1.00  0.00    -0.744 OA
ENDBRANCH  98  99
ENDBRANCH  70  93
BRANCH  82 103
ATOM    103  C   UNL A   1      47.529  32.117  37.396  1.00  0.00    -0.014 A 
ATOM    104  C   UNL A   1      48.591  32.845  36.833  1.00  0.00     0.010 A 
ATOM    105  C   UNL A   1      47.802  31.191  38.420  1.00  0.00     0.010 A 
ATOM    106  C   UNL A   1      49.903  32.625  37.262  1.00  0.00     0.020 A 
ATOM    107  C   UNL A   1      49.106  30.996  38.880  1.00  0.00     0.020 A 
ATOM    108  C   UNL A   1      50.151  31.705  38.287  1.00  0.00     0.054 A 
BRANCH 108 109
ATOM    109  S   UNL A   1      51.856  31.473  38.856  1.00  0.00     0.124 S 
ATOM    110  O   UNL A   1      51.714  30.371  39.804  1.00  0.00    -0.237 OA
ATOM    111  O   UNL A   1      52.563  31.150  37.618  1.00  0.00    -0.237 OA
ATOM    112  O   UNL A   1      52.205  32.762  39.448  1.00  0.00    -0.744 OA
ENDBRANCH 108 109
ENDBRANCH  82 103
ENDBRANCH  56  57
ENDBRANCH  49  51
ENDBRANCH  48  49
ENDBRANCH  47  48
ENDBRANCH  46  47
ENDBRANCH  45  46
ENDBRANCH  44  45
ENDBRANCH  43  44
ENDBRANCH  42  43
ENDBRANCH  41  42
ENDBRANCH   1  41
TORSDOF 33
ENDMDL
