MODEL 1
REMARK VINA RESULT:      -9.7      0.000      0.000
REMARK SMILES Cc1cc(SCC(=O)OCCOCCOCCOC(=O)c2ccc(-c3c4nc(c(-c5ccc(S(=O)(=O)[O-])cc5)c5ccc([nH]5)c(-c5ccc(S(=O)(=O)[O-])cc5)c5nc(c(-c6ccc(S(=O)(=O)[O-])cc6)c6ccc3[nH]6)C=C5)C=C4)cc2)c2cc(I)ccc2n1
REMARK SMILES IDX 14 1 13 2 12 3 11 4 10 5 9 6 7 7 8 8 6 9 5 10 4 11 1 12 2 13
REMARK SMILES IDX 3 14 88 15 87 16 81 17 86 18 82 19 85 20 83 21 84 22 15 23
REMARK SMILES IDX 16 24 17 25 18 26 19 27 20 28 21 29 22 30 80 31 23 32 79 33
REMARK SMILES IDX 24 34 25 35 26 36 73 37 27 38 78 39 72 40 74 41 28 42 77 43
REMARK SMILES IDX 71 44 70 45 29 47 59 48 40 49 58 50 41 51 44 52 57 53 75 54
REMARK SMILES IDX 42 55 43 56 56 58 76 59 45 60 30 61 31 62 39 63 32 64 38 65
REMARK SMILES IDX 33 66 34 67 35 68 36 69 37 70 60 71 61 72 69 73 62 74 68 75
REMARK SMILES IDX 63 76 64 77 65 78 66 79 67 80 46 81 47 82 55 83 48 84 54 85
REMARK SMILES IDX 49 86 50 87 51 88 52 89 53 90
REMARK H PARENT 74 46 44 57
REMARK Flexibility Score: inf
ROOT
ATOM      1  C   UNL A   1      35.391  21.587  25.022  1.00  0.00     0.188 C 
ENDROOT
BRANCH   1   2
ATOM      2  C   UNL A   1      33.990  21.521  24.378  1.00  0.00     0.188 C 
BRANCH   2   3
ATOM      3  O   UNL A   1      33.081  22.583  24.659  1.00  0.00    -0.376 OA
BRANCH   3   4
ATOM      4  C   UNL A   1      33.595  23.744  25.306  1.00  0.00     0.202 C 
BRANCH   4   5
ATOM      5  C   UNL A   1      32.692  24.318  26.402  1.00  0.00     0.261 C 
BRANCH   5   6
ATOM      6  O   UNL A   1      31.320  24.057  26.052  1.00  0.00    -0.463 OA
BRANCH   6   7
ATOM      7  C   UNL A   1      30.583  25.109  25.615  1.00  0.00     0.316 C 
ATOM      8  O   UNL A   1      30.201  26.024  26.332  1.00  0.00    -0.251 OA
BRANCH   7   9
ATOM      9  C   UNL A   1      30.475  25.107  24.098  1.00  0.00     0.197 C 
BRANCH   9  10
ATOM     10  S   UNL A   1      31.636  26.272  23.293  1.00  0.00    -0.114 SA
BRANCH  10  11
ATOM     11  C   UNL A   1      30.844  27.907  23.420  1.00  0.00     0.019 A 
ATOM     12  C   UNL A   1      28.220  30.091  21.744  1.00  0.00     0.067 C 
ATOM     13  C   UNL A   1      29.245  29.554  22.695  1.00  0.00     0.039 A 
ATOM     14  C   UNL A   1      29.833  28.304  22.535  1.00  0.00     0.039 A 
ATOM     15  N   UNL A   1      29.582  30.386  23.697  1.00  0.00    -0.253 NA
ATOM     16  C   UNL A   1      30.584  30.057  24.510  1.00  0.00     0.072 A 
ATOM     17  C   UNL A   1      31.290  28.838  24.412  1.00  0.00     0.015 A 
ATOM     18  C   UNL A   1      30.948  31.003  25.457  1.00  0.00     0.030 A 
ATOM     19  C   UNL A   1      32.401  28.658  25.281  1.00  0.00     0.026 A 
ATOM     20  C   UNL A   1      32.046  30.821  26.293  1.00  0.00     0.017 A 
ATOM     21  C   UNL A   1      32.783  29.650  26.189  1.00  0.00     0.014 A 
ATOM     22  I   UNL A   1      34.483  29.399  27.356  1.00  0.00    -0.044 I 
ENDBRANCH  10  11
ENDBRANCH   9  10
ENDBRANCH   7   9
ENDBRANCH   6   7
ENDBRANCH   5   6
ENDBRANCH   4   5
ENDBRANCH   3   4
ENDBRANCH   2   3
ENDBRANCH   1   2
BRANCH   1  23
ATOM     23  O   UNL A   1      36.215  20.434  24.914  1.00  0.00    -0.376 OA
BRANCH  23  24
ATOM     24  C   UNL A   1      37.620  20.663  24.956  1.00  0.00     0.202 C 
BRANCH  24  25
ATOM     25  C   UNL A   1      37.996  22.104  25.290  1.00  0.00     0.261 C 
BRANCH  25  26
ATOM     26  O   UNL A   1      38.824  22.127  26.468  1.00  0.00    -0.460 OA
BRANCH  26  27
ATOM     27  C   UNL A   1      40.016  22.742  26.294  1.00  0.00     0.338 C 
ATOM     28  O   UNL A   1      41.013  22.263  25.790  1.00  0.00    -0.246 OA
BRANCH  27  29
ATOM     29  C   UNL A   1      39.951  24.121  26.824  1.00  0.00     0.060 A 
ATOM     30  C   UNL A   1      39.231  24.344  27.993  1.00  0.00     0.016 A 
ATOM     31  C   UNL A   1      40.737  25.143  26.281  1.00  0.00     0.016 A 
ATOM     32  C   UNL A   1      39.343  25.574  28.648  1.00  0.00     0.010 A 
ATOM     33  C   UNL A   1      40.886  26.353  26.967  1.00  0.00     0.010 A 
ATOM     34  C   UNL A   1      40.228  26.567  28.182  1.00  0.00    -0.014 A 
BRANCH  34  35
ATOM     35  C   UNL A   1      40.572  27.713  29.072  1.00  0.00     0.031 A 
ATOM     36  C   UNL A   1      39.669  28.899  29.259  1.00  0.00     0.074 A 
ATOM     37  C   UNL A   1      41.759  27.693  29.715  1.00  0.00     0.049 A 
ATOM     38  N   UNL A   1      39.722  29.820  30.188  1.00  0.00    -0.248 NA
ATOM     39  C   UNL A   1      38.604  29.110  28.267  1.00  0.00     0.031 C 
ATOM     40  C   UNL A   1      42.817  26.702  29.502  1.00  0.00     0.029 A 
ATOM     41  N   UNL A   1      42.262  28.503  30.705  1.00  0.00    -0.354 N 
ATOM     42  C   UNL A   1      38.684  30.700  29.912  1.00  0.00     0.074 A 
ATOM     43  C   UNL A   1      38.079  30.258  28.674  1.00  0.00     0.031 C 
ATOM     44  C   UNL A   1      43.800  26.907  30.391  1.00  0.00     0.029 A 
ATOM     45  C   UNL A   1      43.445  28.041  31.239  1.00  0.00     0.049 A 
ATOM     46  H   UNL A   1      41.822  29.333  31.003  1.00  0.00     0.167 HD
ATOM     47  C   UNL A   1      38.243  31.746  30.650  1.00  0.00     0.031 A 
ATOM     48  C   UNL A   1      44.138  28.435  32.326  1.00  0.00     0.031 A 
ATOM     49  C   UNL A   1      38.844  32.169  31.887  1.00  0.00     0.049 A 
ATOM     50  C   UNL A   1      43.589  29.532  33.194  1.00  0.00     0.074 A 
ATOM     51  C   UNL A   1      38.401  33.135  32.772  1.00  0.00     0.029 A 
ATOM     52  N   UNL A   1      40.020  31.655  32.412  1.00  0.00    -0.354 N 
ATOM     53  N   UNL A   1      42.492  30.233  33.032  1.00  0.00    -0.248 NA
ATOM     54  C   UNL A   1      44.346  29.868  34.408  1.00  0.00     0.031 C 
ATOM     55  C   UNL A   1      39.332  33.239  33.810  1.00  0.00     0.029 A 
ATOM     56  C   UNL A   1      40.328  32.299  33.598  1.00  0.00     0.049 A 
ATOM     57  H   UNL A   1      40.555  30.938  32.002  1.00  0.00     0.167 HD
ATOM     58  C   UNL A   1      42.420  31.082  34.130  1.00  0.00     0.074 A 
ATOM     59  C   UNL A   1      43.572  30.794  34.960  1.00  0.00     0.031 C 
ATOM     60  C   UNL A   1      41.480  32.015  34.419  1.00  0.00     0.031 A 
BRANCH  47  61
ATOM     61  C   UNL A   1      37.001  32.464  30.185  1.00  0.00    -0.014 A 
ATOM     62  C   UNL A   1      37.039  33.314  29.066  1.00  0.00     0.010 A 
ATOM     63  C   UNL A   1      35.812  32.370  30.931  1.00  0.00     0.010 A 
ATOM     64  C   UNL A   1      35.913  34.063  28.707  1.00  0.00     0.020 A 
ATOM     65  C   UNL A   1      34.677  33.094  30.560  1.00  0.00     0.020 A 
ATOM     66  C   UNL A   1      34.740  33.950  29.460  1.00  0.00     0.054 A 
BRANCH  66  67
ATOM     67  S   UNL A   1      33.284  34.919  28.982  1.00  0.00     0.124 S 
ATOM     68  O   UNL A   1      32.557  35.026  30.244  1.00  0.00    -0.237 OA
ATOM     69  O   UNL A   1      33.872  36.159  28.482  1.00  0.00    -0.237 OA
ATOM     70  O   UNL A   1      32.646  34.090  27.960  1.00  0.00    -0.744 OA
ENDBRANCH  66  67
ENDBRANCH  47  61
BRANCH  48  71
ATOM     71  C   UNL A   1      45.360  27.678  32.715  1.00  0.00    -0.014 A 
ATOM     72  C   UNL A   1      45.270  26.540  33.535  1.00  0.00     0.010 A 
ATOM     73  C   UNL A   1      46.629  28.153  32.337  1.00  0.00     0.010 A 
ATOM     74  C   UNL A   1      46.428  25.913  34.003  1.00  0.00     0.020 A 
ATOM     75  C   UNL A   1      47.789  27.515  32.786  1.00  0.00     0.020 A 
ATOM     76  C   UNL A   1      47.681  26.414  33.638  1.00  0.00     0.054 A 
BRANCH  76  77
ATOM     77  S   UNL A   1      49.171  25.615  34.297  1.00  0.00     0.124 S 
ATOM     78  O   UNL A   1      50.134  26.712  34.272  1.00  0.00    -0.237 OA
ATOM     79  O   UNL A   1      48.741  25.183  35.625  1.00  0.00    -0.237 OA
ATOM     80  O   UNL A   1      49.427  24.535  33.347  1.00  0.00    -0.744 OA
ENDBRANCH  76  77
ENDBRANCH  48  71
BRANCH  60  81
ATOM     81  C   UNL A   1      41.644  32.826  35.677  1.00  0.00    -0.014 A 
ATOM     82  C   UNL A   1      40.963  32.445  36.848  1.00  0.00     0.010 A 
ATOM     83  C   UNL A   1      42.360  34.034  35.661  1.00  0.00     0.010 A 
ATOM     84  C   UNL A   1      40.963  33.278  37.969  1.00  0.00     0.020 A 
ATOM     85  C   UNL A   1      42.384  34.858  36.791  1.00  0.00     0.020 A 
ATOM     86  C   UNL A   1      41.662  34.487  37.927  1.00  0.00     0.054 A 
BRANCH  86  87
ATOM     87  S   UNL A   1      41.617  35.578  39.377  1.00  0.00     0.124 S 
ATOM     88  O   UNL A   1      40.562  36.521  39.018  1.00  0.00    -0.237 OA
ATOM     89  O   UNL A   1      41.297  34.659  40.465  1.00  0.00    -0.237 OA
ATOM     90  O   UNL A   1      42.966  36.138  39.423  1.00  0.00    -0.744 OA
ENDBRANCH  86  87
ENDBRANCH  60  81
ENDBRANCH  34  35
ENDBRANCH  27  29
ENDBRANCH  26  27
ENDBRANCH  25  26
ENDBRANCH  24  25
ENDBRANCH  23  24
ENDBRANCH   1  23
TORSDOF 22
ENDMDL
MODEL 2
REMARK VINA RESULT:      -9.1      5.352      9.923
REMARK SMILES Cc1cc(SCC(=O)OCCOCCOCCOC(=O)c2ccc(-c3c4nc(c(-c5ccc(S(=O)(=O)[O-])cc5)c5ccc([nH]5)c(-c5ccc(S(=O)(=O)[O-])cc5)c5nc(c(-c6ccc(S(=O)(=O)[O-])cc6)c6ccc3[nH]6)C=C5)C=C4)cc2)c2cc(I)ccc2n1
REMARK SMILES IDX 14 1 13 2 12 3 11 4 10 5 9 6 7 7 8 8 6 9 5 10 4 11 1 12 2 13
REMARK SMILES IDX 3 14 88 15 87 16 81 17 86 18 82 19 85 20 83 21 84 22 15 23
REMARK SMILES IDX 16 24 17 25 18 26 19 27 20 28 21 29 22 30 80 31 23 32 79 33
REMARK SMILES IDX 24 34 25 35 26 36 73 37 27 38 78 39 72 40 74 41 28 42 77 43
REMARK SMILES IDX 71 44 70 45 29 47 59 48 40 49 58 50 41 51 44 52 57 53 75 54
REMARK SMILES IDX 42 55 43 56 56 58 76 59 45 60 30 61 31 62 39 63 32 64 38 65
REMARK SMILES IDX 33 66 34 67 35 68 36 69 37 70 60 71 61 72 69 73 62 74 68 75
REMARK SMILES IDX 63 76 64 77 65 78 66 79 67 80 46 81 47 82 55 83 48 84 54 85
REMARK SMILES IDX 49 86 50 87 51 88 52 89 53 90
REMARK H PARENT 74 46 44 57
REMARK Flexibility Score: inf
ROOT
ATOM      1  C   UNL A   1      36.563  23.175  24.885  1.00  0.00     0.188 C 
ENDROOT
BRANCH   1   2
ATOM      2  C   UNL A   1      35.231  23.456  25.613  1.00  0.00     0.188 C 
BRANCH   2   3
ATOM      3  O   UNL A   1      34.791  22.506  26.580  1.00  0.00    -0.376 OA
BRANCH   3   4
ATOM      4  C   UNL A   1      33.433  22.076  26.520  1.00  0.00     0.202 C 
BRANCH   4   5
ATOM      5  C   UNL A   1      32.457  22.924  27.340  1.00  0.00     0.261 C 
BRANCH   5   6
ATOM      6  O   UNL A   1      31.152  22.835  26.739  1.00  0.00    -0.463 OA
BRANCH   6   7
ATOM      7  C   UNL A   1      30.956  23.520  25.583  1.00  0.00     0.316 C 
ATOM      8  O   UNL A   1      30.886  22.997  24.479  1.00  0.00    -0.251 OA
BRANCH   7   9
ATOM      9  C   UNL A   1      30.627  24.979  25.863  1.00  0.00     0.197 C 
BRANCH   9  10
ATOM     10  S   UNL A   1      29.837  25.822  24.443  1.00  0.00    -0.114 SA
BRANCH  10  11
ATOM     11  C   UNL A   1      31.199  26.225  23.304  1.00  0.00     0.019 A 
ATOM     12  C   UNL A   1      32.848  25.045  20.086  1.00  0.00     0.067 C 
ATOM     13  C   UNL A   1      32.473  25.842  21.298  1.00  0.00     0.039 A 
ATOM     14  C   UNL A   1      31.435  25.473  22.145  1.00  0.00     0.039 A 
ATOM     15  N   UNL A   1      33.241  26.923  21.526  1.00  0.00    -0.253 NA
ATOM     16  C   UNL A   1      33.077  27.614  22.653  1.00  0.00     0.072 A 
ATOM     17  C   UNL A   1      32.090  27.302  23.613  1.00  0.00     0.015 A 
ATOM     18  C   UNL A   1      33.967  28.655  22.874  1.00  0.00     0.030 A 
ATOM     19  C   UNL A   1      32.090  28.062  24.815  1.00  0.00     0.026 A 
ATOM     20  C   UNL A   1      33.965  29.382  24.061  1.00  0.00     0.017 A 
ATOM     21  C   UNL A   1      33.032  29.069  25.040  1.00  0.00     0.014 A 
ATOM     22  I   UNL A   1      33.075  30.073  26.858  1.00  0.00    -0.044 I 
ENDBRANCH  10  11
ENDBRANCH   9  10
ENDBRANCH   7   9
ENDBRANCH   6   7
ENDBRANCH   5   6
ENDBRANCH   4   5
ENDBRANCH   3   4
ENDBRANCH   2   3
ENDBRANCH   1   2
BRANCH   1  23
ATOM     23  O   UNL A   1      36.769  21.863  24.381  1.00  0.00    -0.376 OA
BRANCH  23  24
ATOM     24  C   UNL A   1      37.744  21.078  25.061  1.00  0.00     0.202 C 
BRANCH  24  25
ATOM     25  C   UNL A   1      38.864  21.903  25.690  1.00  0.00     0.261 C 
BRANCH  25  26
ATOM     26  O   UNL A   1      39.509  21.134  26.723  1.00  0.00    -0.460 OA
BRANCH  26  27
ATOM     27  C   UNL A   1      40.691  20.593  26.355  1.00  0.00     0.338 C 
ATOM     28  O   UNL A   1      40.865  19.493  25.866  1.00  0.00    -0.246 OA
BRANCH  27  29
ATOM     29  C   UNL A   1      41.788  21.542  26.640  1.00  0.00     0.060 A 
ATOM     30  C   UNL A   1      42.122  22.476  25.664  1.00  0.00     0.016 A 
ATOM     31  C   UNL A   1      42.355  21.633  27.915  1.00  0.00     0.016 A 
ATOM     32  C   UNL A   1      42.982  23.531  25.983  1.00  0.00     0.010 A 
ATOM     33  C   UNL A   1      43.173  22.718  28.245  1.00  0.00     0.010 A 
ATOM     34  C   UNL A   1      43.459  23.705  27.297  1.00  0.00    -0.014 A 
BRANCH  34  35
ATOM     35  C   UNL A   1      44.088  25.003  27.678  1.00  0.00     0.031 A 
ATOM     36  C   UNL A   1      45.550  25.286  27.491  1.00  0.00     0.074 A 
ATOM     37  C   UNL A   1      43.310  25.953  28.240  1.00  0.00     0.049 A 
ATOM     38  N   UNL A   1      46.165  26.442  27.530  1.00  0.00    -0.248 NA
ATOM     39  C   UNL A   1      46.446  24.140  27.276  1.00  0.00     0.031 C 
ATOM     40  C   UNL A   1      41.914  25.767  28.649  1.00  0.00     0.029 A 
ATOM     41  N   UNL A   1      43.564  27.273  28.530  1.00  0.00    -0.354 N 
ATOM     42  C   UNL A   1      47.509  26.167  27.316  1.00  0.00     0.074 A 
ATOM     43  C   UNL A   1      47.635  24.728  27.245  1.00  0.00     0.031 C 
ATOM     44  C   UNL A   1      41.412  26.944  29.051  1.00  0.00     0.029 A 
ATOM     45  C   UNL A   1      42.444  27.968  28.930  1.00  0.00     0.049 A 
ATOM     46  H   UNL A   1      44.458  27.679  28.461  1.00  0.00     0.167 HD
ATOM     47  C   UNL A   1      48.532  27.036  27.141  1.00  0.00     0.031 A 
ATOM     48  C   UNL A   1      42.243  29.289  29.115  1.00  0.00     0.031 A 
ATOM     49  C   UNL A   1      48.393  28.467  27.201  1.00  0.00     0.049 A 
ATOM     50  C   UNL A   1      43.358  30.253  28.823  1.00  0.00     0.074 A 
ATOM     51  C   UNL A   1      49.339  29.436  26.916  1.00  0.00     0.029 A 
ATOM     52  N   UNL A   1      47.237  29.135  27.574  1.00  0.00    -0.354 N 
ATOM     53  N   UNL A   1      44.580  29.995  28.425  1.00  0.00    -0.248 NA
ATOM     54  C   UNL A   1      43.059  31.685  28.968  1.00  0.00     0.031 C 
ATOM     55  C   UNL A   1      48.770  30.690  27.162  1.00  0.00     0.029 A 
ATOM     56  C   UNL A   1      47.452  30.502  27.548  1.00  0.00     0.049 A 
ATOM     57  H   UNL A   1      46.388  28.701  27.821  1.00  0.00     0.167 HD
ATOM     58  C   UNL A   1      45.192  31.231  28.258  1.00  0.00     0.074 A 
ATOM     59  C   UNL A   1      44.200  32.238  28.577  1.00  0.00     0.031 C 
ATOM     60  C   UNL A   1      46.464  31.502  27.874  1.00  0.00     0.031 A 
BRANCH  47  61
ATOM     61  C   UNL A   1      49.885  26.472  26.788  1.00  0.00    -0.014 A 
ATOM     62  C   UNL A   1      50.822  26.170  27.792  1.00  0.00     0.010 A 
ATOM     63  C   UNL A   1      50.262  26.337  25.439  1.00  0.00     0.010 A 
ATOM     64  C   UNL A   1      52.114  25.752  27.453  1.00  0.00     0.020 A 
ATOM     65  C   UNL A   1      51.541  25.893  25.097  1.00  0.00     0.020 A 
ATOM     66  C   UNL A   1      52.465  25.621  26.106  1.00  0.00     0.054 A 
BRANCH  66  67
ATOM     67  S   UNL A   1      54.139  25.072  25.677  1.00  0.00     0.124 S 
ATOM     68  O   UNL A   1      53.876  23.907  24.838  1.00  0.00    -0.237 OA
ATOM     69  O   UNL A   1      54.694  26.236  24.991  1.00  0.00    -0.237 OA
ATOM     70  O   UNL A   1      54.744  24.784  26.977  1.00  0.00    -0.744 OA
ENDBRANCH  66  67
ENDBRANCH  47  61
BRANCH  48  71
ATOM     71  C   UNL A   1      40.878  29.766  29.471  1.00  0.00    -0.014 A 
ATOM     72  C   UNL A   1      40.552  30.082  30.802  1.00  0.00     0.010 A 
ATOM     73  C   UNL A   1      39.873  29.818  28.488  1.00  0.00     0.010 A 
ATOM     74  C   UNL A   1      39.237  30.401  31.151  1.00  0.00     0.020 A 
ATOM     75  C   UNL A   1      38.561  30.159  28.830  1.00  0.00     0.020 A 
ATOM     76  C   UNL A   1      38.247  30.423  30.165  1.00  0.00     0.054 A 
BRANCH  76  77
ATOM     77  S   UNL A   1      36.537  30.793  30.647  1.00  0.00     0.124 S 
ATOM     78  O   UNL A   1      36.235  29.685  31.550  1.00  0.00    -0.237 OA
ATOM     79  O   UNL A   1      36.660  32.105  31.277  1.00  0.00    -0.237 OA
ATOM     80  O   UNL A   1      35.814  30.781  29.377  1.00  0.00    -0.744 OA
ENDBRANCH  76  77
ENDBRANCH  48  71
BRANCH  60  81
ATOM     81  C   UNL A   1      46.890  32.943  27.786  1.00  0.00    -0.014 A 
ATOM     82  C   UNL A   1      47.346  33.609  28.940  1.00  0.00     0.010 A 
ATOM     83  C   UNL A   1      46.711  33.672  26.599  1.00  0.00     0.010 A 
ATOM     84  C   UNL A   1      47.578  34.986  28.918  1.00  0.00     0.020 A 
ATOM     85  C   UNL A   1      46.968  35.047  26.566  1.00  0.00     0.020 A 
ATOM     86  C   UNL A   1      47.372  35.699  27.733  1.00  0.00     0.054 A 
BRANCH  86  87
ATOM     87  S   UNL A   1      47.638  37.494  27.731  1.00  0.00     0.124 S 
ATOM     88  O   UNL A   1      48.686  37.649  28.735  1.00  0.00    -0.237 OA
ATOM     89  O   UNL A   1      48.041  37.760  26.353  1.00  0.00    -0.237 OA
ATOM     90  O   UNL A   1      46.331  38.032  28.103  1.00  0.00    -0.744 OA
ENDBRANCH  86  87
ENDBRANCH  60  81
ENDBRANCH  34  35
ENDBRANCH  27  29
ENDBRANCH  26  27
ENDBRANCH  25  26
ENDBRANCH  24  25
ENDBRANCH  23  24
ENDBRANCH   1  23
TORSDOF 22
ENDMDL
MODEL 3
REMARK VINA RESULT:      -9.0      3.952      4.670
REMARK SMILES Cc1cc(SCC(=O)OCCOCCOCCOC(=O)c2ccc(-c3c4nc(c(-c5ccc(S(=O)(=O)[O-])cc5)c5ccc([nH]5)c(-c5ccc(S(=O)(=O)[O-])cc5)c5nc(c(-c6ccc(S(=O)(=O)[O-])cc6)c6ccc3[nH]6)C=C5)C=C4)cc2)c2cc(I)ccc2n1
REMARK SMILES IDX 14 1 13 2 12 3 11 4 10 5 9 6 7 7 8 8 6 9 5 10 4 11 1 12 2 13
REMARK SMILES IDX 3 14 88 15 87 16 81 17 86 18 82 19 85 20 83 21 84 22 15 23
REMARK SMILES IDX 16 24 17 25 18 26 19 27 20 28 21 29 22 30 80 31 23 32 79 33
REMARK SMILES IDX 24 34 25 35 26 36 73 37 27 38 78 39 72 40 74 41 28 42 77 43
REMARK SMILES IDX 71 44 70 45 29 47 59 48 40 49 58 50 41 51 44 52 57 53 75 54
REMARK SMILES IDX 42 55 43 56 56 58 76 59 45 60 30 61 31 62 39 63 32 64 38 65
REMARK SMILES IDX 33 66 34 67 35 68 36 69 37 70 60 71 61 72 69 73 62 74 68 75
REMARK SMILES IDX 63 76 64 77 65 78 66 79 67 80 46 81 47 82 55 83 48 84 54 85
REMARK SMILES IDX 49 86 50 87 51 88 52 89 53 90
REMARK H PARENT 74 46 44 57
REMARK Flexibility Score: inf
ROOT
ATOM      1  C   UNL A   1      35.649  23.587  23.911  1.00  0.00     0.188 C 
ENDROOT
BRANCH   1   2
ATOM      2  C   UNL A   1      34.560  22.676  23.304  1.00  0.00     0.188 C 
BRANCH   2   3
ATOM      3  O   UNL A   1      33.461  22.312  24.136  1.00  0.00    -0.376 OA
BRANCH   3   4
ATOM      4  C   UNL A   1      32.145  22.531  23.633  1.00  0.00     0.202 C 
BRANCH   4   5
ATOM      5  C   UNL A   1      31.151  23.079  24.661  1.00  0.00     0.261 C 
BRANCH   5   6
ATOM      6  O   UNL A   1      31.371  24.494  24.806  1.00  0.00    -0.463 OA
BRANCH   6   7
ATOM      7  C   UNL A   1      31.816  24.930  26.013  1.00  0.00     0.316 C 
ATOM      8  O   UNL A   1      31.219  24.758  27.067  1.00  0.00    -0.251 OA
BRANCH   7   9
ATOM      9  C   UNL A   1      33.235  25.466  25.910  1.00  0.00     0.197 C 
BRANCH   9  10
ATOM     10  S   UNL A   1      33.538  26.407  24.369  1.00  0.00    -0.114 SA
BRANCH  10  11
ATOM     11  C   UNL A   1      32.383  27.814  24.428  1.00  0.00     0.019 A 
ATOM     12  C   UNL A   1      29.305  29.225  22.695  1.00  0.00     0.067 C 
ATOM     13  C   UNL A   1      30.435  28.996  23.652  1.00  0.00     0.039 A 
ATOM     14  C   UNL A   1      31.300  27.914  23.544  1.00  0.00     0.039 A 
ATOM     15  N   UNL A   1      30.573  29.937  24.604  1.00  0.00    -0.253 NA
ATOM     16  C   UNL A   1      31.630  29.898  25.412  1.00  0.00     0.072 A 
ATOM     17  C   UNL A   1      32.604  28.876  25.362  1.00  0.00     0.015 A 
ATOM     18  C   UNL A   1      31.766  30.952  26.304  1.00  0.00     0.030 A 
ATOM     19  C   UNL A   1      33.731  29.010  26.218  1.00  0.00     0.026 A 
ATOM     20  C   UNL A   1      32.882  31.078  27.126  1.00  0.00     0.017 A 
ATOM     21  C   UNL A   1      33.874  30.110  27.067  1.00  0.00     0.014 A 
ATOM     22  I   UNL A   1      35.594  30.330  28.212  1.00  0.00    -0.044 I 
ENDBRANCH  10  11
ENDBRANCH   9  10
ENDBRANCH   7   9
ENDBRANCH   6   7
ENDBRANCH   5   6
ENDBRANCH   4   5
ENDBRANCH   3   4
ENDBRANCH   2   3
ENDBRANCH   1   2
BRANCH   1  23
ATOM     23  O   UNL A   1      36.891  22.984  24.248  1.00  0.00    -0.376 OA
BRANCH  23  24
ATOM     24  C   UNL A   1      36.972  22.406  25.547  1.00  0.00     0.202 C 
BRANCH  24  25
ATOM     25  C   UNL A   1      38.014  21.295  25.658  1.00  0.00     0.261 C 
BRANCH  25  26
ATOM     26  O   UNL A   1      39.336  21.862  25.587  1.00  0.00    -0.460 OA
BRANCH  26  27
ATOM     27  C   UNL A   1      40.003  21.860  26.762  1.00  0.00     0.338 C 
ATOM     28  O   UNL A   1      40.407  20.885  27.366  1.00  0.00    -0.246 OA
BRANCH  27  29
ATOM     29  C   UNL A   1      40.179  23.247  27.243  1.00  0.00     0.060 A 
ATOM     30  C   UNL A   1      41.004  23.464  28.342  1.00  0.00     0.016 A 
ATOM     31  C   UNL A   1      39.689  24.335  26.512  1.00  0.00     0.016 A 
ATOM     32  C   UNL A   1      41.381  24.768  28.676  1.00  0.00     0.010 A 
ATOM     33  C   UNL A   1      40.111  25.633  26.818  1.00  0.00     0.010 A 
ATOM     34  C   UNL A   1      40.998  25.862  27.874  1.00  0.00    -0.014 A 
BRANCH  34  35
ATOM     35  C   UNL A   1      41.681  27.175  28.057  1.00  0.00     0.031 A 
ATOM     36  C   UNL A   1      40.987  28.383  28.617  1.00  0.00     0.074 A 
ATOM     37  C   UNL A   1      42.972  27.286  27.678  1.00  0.00     0.049 A 
ATOM     38  N   UNL A   1      41.522  29.489  29.069  1.00  0.00    -0.248 NA
ATOM     39  C   UNL A   1      39.516  28.379  28.636  1.00  0.00     0.031 C 
ATOM     40  C   UNL A   1      43.731  26.258  26.958  1.00  0.00     0.029 A 
ATOM     41  N   UNL A   1      43.888  28.291  27.877  1.00  0.00    -0.354 N 
ATOM     42  C   UNL A   1      40.460  30.297  29.453  1.00  0.00     0.074 A 
ATOM     43  C   UNL A   1      39.248  29.596  29.091  1.00  0.00     0.031 C 
ATOM     44  C   UNL A   1      45.010  26.647  26.855  1.00  0.00     0.029 A 
ATOM     45  C   UNL A   1      45.167  27.946  27.499  1.00  0.00     0.049 A 
ATOM     46  H   UNL A   1      43.653  29.172  28.250  1.00  0.00     0.167 HD
ATOM     47  C   UNL A   1      40.493  31.488  30.097  1.00  0.00     0.031 A 
ATOM     48  C   UNL A   1      46.346  28.567  27.703  1.00  0.00     0.031 A 
ATOM     49  C   UNL A   1      41.705  32.171  30.465  1.00  0.00     0.049 A 
ATOM     50  C   UNL A   1      46.383  29.838  28.504  1.00  0.00     0.074 A 
ATOM     51  C   UNL A   1      41.849  33.318  31.226  1.00  0.00     0.029 A 
ATOM     52  N   UNL A   1      42.981  31.774  30.095  1.00  0.00    -0.354 N 
ATOM     53  N   UNL A   1      45.384  30.498  29.039  1.00  0.00    -0.248 NA
ATOM     54  C   UNL A   1      47.704  30.429  28.760  1.00  0.00     0.031 C 
ATOM     55  C   UNL A   1      43.209  33.641  31.278  1.00  0.00     0.029 A 
ATOM     56  C   UNL A   1      43.916  32.665  30.594  1.00  0.00     0.049 A 
ATOM     57  H   UNL A   1      43.191  30.977  29.558  1.00  0.00     0.167 HD
ATOM     58  C   UNL A   1      45.956  31.573  29.708  1.00  0.00     0.074 A 
ATOM     59  C   UNL A   1      47.390  31.465  29.528  1.00  0.00     0.031 C 
ATOM     60  C   UNL A   1      45.343  32.559  30.407  1.00  0.00     0.031 A 
BRANCH  47  61
ATOM     61  C   UNL A   1      39.181  32.098  30.521  1.00  0.00    -0.014 A 
ATOM     62  C   UNL A   1      38.558  31.702  31.717  1.00  0.00     0.010 A 
ATOM     63  C   UNL A   1      38.515  32.999  29.669  1.00  0.00     0.010 A 
ATOM     64  C   UNL A   1      37.289  32.189  32.049  1.00  0.00     0.020 A 
ATOM     65  C   UNL A   1      37.261  33.509  30.010  1.00  0.00     0.020 A 
ATOM     66  C   UNL A   1      36.647  33.087  31.190  1.00  0.00     0.054 A 
BRANCH  66  67
ATOM     67  S   UNL A   1      35.006  33.718  31.633  1.00  0.00     0.124 S 
ATOM     68  O   UNL A   1      35.273  34.419  32.884  1.00  0.00    -0.237 OA
ATOM     69  O   UNL A   1      34.668  34.564  30.491  1.00  0.00    -0.237 OA
ATOM     70  O   UNL A   1      34.198  32.504  31.754  1.00  0.00    -0.744 OA
ENDBRANCH  66  67
ENDBRANCH  47  61
BRANCH  48  71
ATOM     71  C   UNL A   1      47.598  27.902  27.247  1.00  0.00    -0.014 A 
ATOM     72  C   UNL A   1      48.252  26.963  28.064  1.00  0.00     0.010 A 
ATOM     73  C   UNL A   1      48.189  28.278  26.027  1.00  0.00     0.010 A 
ATOM     74  C   UNL A   1      49.494  26.442  27.689  1.00  0.00     0.020 A 
ATOM     75  C   UNL A   1      49.420  27.742  25.638  1.00  0.00     0.020 A 
ATOM     76  C   UNL A   1      50.077  26.847  26.485  1.00  0.00     0.054 A 
BRANCH  76  77
ATOM     77  S   UNL A   1      51.711  26.196  26.040  1.00  0.00     0.124 S 
ATOM     78  O   UNL A   1      51.663  24.852  26.609  1.00  0.00    -0.237 OA
ATOM     79  O   UNL A   1      51.695  26.264  24.580  1.00  0.00    -0.237 OA
ATOM     80  O   UNL A   1      52.636  27.120  26.692  1.00  0.00    -0.744 OA
ENDBRANCH  76  77
ENDBRANCH  48  71
BRANCH  60  81
ATOM     81  C   UNL A   1      46.199  33.630  31.029  1.00  0.00    -0.014 A 
ATOM     82  C   UNL A   1      46.626  33.497  32.364  1.00  0.00     0.010 A 
ATOM     83  C   UNL A   1      46.463  34.825  30.339  1.00  0.00     0.010 A 
ATOM     84  C   UNL A   1      47.269  34.556  33.010  1.00  0.00     0.020 A 
ATOM     85  C   UNL A   1      47.130  35.877  30.975  1.00  0.00     0.020 A 
ATOM     86  C   UNL A   1      47.503  35.745  32.315  1.00  0.00     0.054 A 
BRANCH  86  87
ATOM     87  S   UNL A   1      48.302  37.125  33.180  1.00  0.00     0.124 S 
ATOM     88  O   UNL A   1      48.112  36.759  34.581  1.00  0.00    -0.237 OA
ATOM     89  O   UNL A   1      49.677  37.062  32.693  1.00  0.00    -0.237 OA
ATOM     90  O   UNL A   1      47.545  38.292  32.732  1.00  0.00    -0.744 OA
ENDBRANCH  86  87
ENDBRANCH  60  81
ENDBRANCH  34  35
ENDBRANCH  27  29
ENDBRANCH  26  27
ENDBRANCH  25  26
ENDBRANCH  24  25
ENDBRANCH  23  24
ENDBRANCH   1  23
TORSDOF 22
ENDMDL
