MODEL 1
REMARK VINA RESULT:      -9.0      0.000      0.000
REMARK SMILES C[C@@H](NC1=[NH+]CCC1)C(=O)OCCOCCOCCOC(=O)c1ccc(-c2c3nc(c(-c4ccc(S(=O)(=O)[O-])cc4)c4ccc([nH]4)c(-c4ccc(S(=O)(=O)[O-])cc4)c4nc(c(-c5ccc(S(=O)(=O)[O-])cc5)c5ccc2[nH]5)C=C4)C=C3)cc1
REMARK SMILES IDX 16 1 15 2 14 3 13 4 12 5 11 6 9 7 10 8 2 9 1 10 3 11 4 12
REMARK SMILES IDX 5 14 8 15 6 16 7 18 17 19 18 20 19 21 20 22 21 23 22 24
REMARK SMILES IDX 23 25 24 26 82 27 25 28 81 29 26 30 27 31 28 32 75 33 29 34
REMARK SMILES IDX 80 35 74 36 76 37 30 38 79 39 73 40 72 41 31 43 61 44 42 45
REMARK SMILES IDX 60 46 43 47 46 48 59 49 77 50 44 51 45 52 58 54 78 55 47 56
REMARK SMILES IDX 32 57 33 58 41 59 34 60 40 61 35 62 36 63 37 64 38 65 39 66
REMARK SMILES IDX 62 67 63 68 71 69 64 70 70 71 65 72 66 73 67 74 68 75 69 76
REMARK SMILES IDX 48 77 49 78 57 79 50 80 56 81 51 82 52 83 53 84 54 85 55 86
REMARK H PARENT 3 13 5 17 76 42 46 53
REMARK Flexibility Score: inf
ROOT
ATOM      1  C   UNL A   1      40.416  19.963  26.335  1.00  0.00     0.188 C 
ENDROOT
BRANCH   1   2
ATOM      2  C   UNL A   1      41.485  19.802  27.426  1.00  0.00     0.188 C 
BRANCH   2   3
ATOM      3  O   UNL A   1      42.761  19.316  27.063  1.00  0.00    -0.376 OA
BRANCH   3   4
ATOM      4  C   UNL A   1      42.919  18.613  25.843  1.00  0.00     0.202 C 
BRANCH   4   5
ATOM      5  C   UNL A   1      44.051  18.957  24.870  1.00  0.00     0.261 C 
BRANCH   5   6
ATOM      6  O   UNL A   1      44.269  20.351  24.571  1.00  0.00    -0.460 OA
BRANCH   6   7
ATOM      7  C   UNL A   1      45.506  20.850  24.875  1.00  0.00     0.350 C 
ATOM      8  O   UNL A   1      46.408  20.186  25.376  1.00  0.00    -0.247 OA
BRANCH   7   9
ATOM      9  C   UNL A   1      45.636  22.361  24.642  1.00  0.00     0.279 C 
ATOM     10  C   UNL A   1      44.460  22.985  23.885  1.00  0.00     0.071 C 
BRANCH   9  11
ATOM     11  N   UNL A   1      45.863  23.130  25.869  1.00  0.00    -0.265 N 
ATOM     12  C   UNL A   1      46.631  24.244  26.009  1.00  0.00     0.243 C 
ATOM     13  H   UNL A   1      45.411  22.805  26.680  1.00  0.00     0.305 HD
ATOM     14  N   UNL A   1      47.527  24.294  26.953  1.00  0.00    -0.279 N 
ATOM     15  C   UNL A   1      46.475  25.504  25.201  1.00  0.00     0.131 C 
ATOM     16  C   UNL A   1      48.176  25.611  26.803  1.00  0.00     0.234 C 
ATOM     17  H   UNL A   1      47.728  23.602  27.623  1.00  0.00     0.304 HD
ATOM     18  C   UNL A   1      47.862  26.059  25.391  1.00  0.00     0.058 C 
ENDBRANCH   9  11
ENDBRANCH   7   9
ENDBRANCH   6   7
ENDBRANCH   5   6
ENDBRANCH   4   5
ENDBRANCH   3   4
ENDBRANCH   2   3
ENDBRANCH   1   2
BRANCH   1  19
ATOM     19  O   UNL A   1      39.844  21.224  26.103  1.00  0.00    -0.376 OA
BRANCH  19  20
ATOM     20  C   UNL A   1      40.033  22.279  27.027  1.00  0.00     0.202 C 
BRANCH  20  21
ATOM     21  C   UNL A   1      40.631  23.666  26.706  1.00  0.00     0.261 C 
BRANCH  21  22
ATOM     22  O   UNL A   1      39.851  24.834  26.973  1.00  0.00    -0.460 OA
BRANCH  22  23
ATOM     23  C   UNL A   1      40.407  26.024  26.635  1.00  0.00     0.338 C 
ATOM     24  O   UNL A   1      40.816  26.352  25.534  1.00  0.00    -0.246 OA
BRANCH  23  25
ATOM     25  C   UNL A   1      40.210  26.963  27.766  1.00  0.00     0.060 A 
ATOM     26  C   UNL A   1      40.738  28.261  27.669  1.00  0.00     0.016 A 
ATOM     27  C   UNL A   1      39.489  26.582  28.897  1.00  0.00     0.016 A 
ATOM     28  C   UNL A   1      40.562  29.173  28.712  1.00  0.00     0.010 A 
ATOM     29  C   UNL A   1      39.343  27.487  29.955  1.00  0.00     0.010 A 
ATOM     30  C   UNL A   1      39.903  28.776  29.881  1.00  0.00    -0.014 A 
BRANCH  30  31
ATOM     31  C   UNL A   1      39.986  29.613  31.105  1.00  0.00     0.031 A 
ATOM     32  C   UNL A   1      41.116  29.349  32.064  1.00  0.00     0.074 A 
ATOM     33  C   UNL A   1      39.088  30.579  31.374  1.00  0.00     0.049 A 
ATOM     34  N   UNL A   1      41.347  29.870  33.241  1.00  0.00    -0.248 NA
ATOM     35  C   UNL A   1      42.117  28.358  31.637  1.00  0.00     0.031 C 
ATOM     36  C   UNL A   1      37.982  30.976  30.506  1.00  0.00     0.029 A 
ATOM     37  N   UNL A   1      38.962  31.391  32.476  1.00  0.00    -0.354 N 
ATOM     38  C   UNL A   1      42.504  29.254  33.705  1.00  0.00     0.074 A 
ATOM     39  C   UNL A   1      42.916  28.307  32.691  1.00  0.00     0.031 C 
ATOM     40  C   UNL A   1      37.274  31.943  31.119  1.00  0.00     0.029 A 
ATOM     41  C   UNL A   1      37.852  32.202  32.439  1.00  0.00     0.049 A 
ATOM     42  H   UNL A   1      39.605  31.393  33.221  1.00  0.00     0.167 HD
ATOM     43  C   UNL A   1      43.164  29.454  34.869  1.00  0.00     0.031 A 
ATOM     44  C   UNL A   1      37.342  33.031  33.374  1.00  0.00     0.031 A 
ATOM     45  C   UNL A   1      42.744  30.384  35.884  1.00  0.00     0.049 A 
ATOM     46  C   UNL A   1      38.048  33.180  34.700  1.00  0.00     0.074 A 
ATOM     47  C   UNL A   1      43.357  30.671  37.091  1.00  0.00     0.029 A 
ATOM     48  N   UNL A   1      41.601  31.165  35.819  1.00  0.00    -0.354 N 
ATOM     49  N   UNL A   1      39.155  32.610  35.116  1.00  0.00    -0.248 NA
ATOM     50  C   UNL A   1      37.438  34.090  35.681  1.00  0.00     0.031 C 
ATOM     51  C   UNL A   1      42.548  31.576  37.786  1.00  0.00     0.029 A 
ATOM     52  C   UNL A   1      41.472  31.911  36.978  1.00  0.00     0.049 A 
ATOM     53  H   UNL A   1      40.974  31.188  35.060  1.00  0.00     0.167 HD
ATOM     54  C   UNL A   1      39.387  33.116  36.392  1.00  0.00     0.074 A 
ATOM     55  C   UNL A   1      38.315  34.047  36.676  1.00  0.00     0.031 C 
ATOM     56  C   UNL A   1      40.401  32.838  37.250  1.00  0.00     0.031 A 
BRANCH  43  57
ATOM     57  C   UNL A   1      44.386  28.613  35.129  1.00  0.00    -0.014 A 
ATOM     58  C   UNL A   1      45.639  28.949  34.585  1.00  0.00     0.010 A 
ATOM     59  C   UNL A   1      44.280  27.478  35.954  1.00  0.00     0.010 A 
ATOM     60  C   UNL A   1      46.754  28.142  34.827  1.00  0.00     0.020 A 
ATOM     61  C   UNL A   1      45.400  26.687  36.225  1.00  0.00     0.020 A 
ATOM     62  C   UNL A   1      46.626  27.014  35.644  1.00  0.00     0.054 A 
BRANCH  62  63
ATOM     63  S   UNL A   1      48.094  25.994  35.953  1.00  0.00     0.124 S 
ATOM     64  O   UNL A   1      47.612  24.660  35.604  1.00  0.00    -0.237 OA
ATOM     65  O   UNL A   1      49.078  26.567  35.039  1.00  0.00    -0.237 OA
ATOM     66  O   UNL A   1      48.370  26.203  37.373  1.00  0.00    -0.744 OA
ENDBRANCH  62  63
ENDBRANCH  43  57
BRANCH  44  67
ATOM     67  C   UNL A   1      36.072  33.765  33.106  1.00  0.00    -0.014 A 
ATOM     68  C   UNL A   1      36.086  35.121  32.738  1.00  0.00     0.010 A 
ATOM     69  C   UNL A   1      34.834  33.105  33.224  1.00  0.00     0.010 A 
ATOM     70  C   UNL A   1      34.887  35.807  32.507  1.00  0.00     0.020 A 
ATOM     71  C   UNL A   1      33.636  33.777  32.964  1.00  0.00     0.020 A 
ATOM     72  C   UNL A   1      33.670  35.128  32.615  1.00  0.00     0.054 A 
BRANCH  72  73
ATOM     73  S   UNL A   1      32.134  36.022  32.251  1.00  0.00     0.124 S 
ATOM     74  O   UNL A   1      32.268  36.289  30.822  1.00  0.00    -0.237 OA
ATOM     75  O   UNL A   1      31.109  35.048  32.619  1.00  0.00    -0.237 OA
ATOM     76  O   UNL A   1      32.207  37.196  33.117  1.00  0.00    -0.744 OA
ENDBRANCH  72  73
ENDBRANCH  44  67
BRANCH  56  77
ATOM     77  C   UNL A   1      40.436  33.577  38.565  1.00  0.00    -0.014 A 
ATOM     78  C   UNL A   1      41.097  34.810  38.699  1.00  0.00     0.010 A 
ATOM     79  C   UNL A   1      39.727  33.060  39.666  1.00  0.00     0.010 A 
ATOM     80  C   UNL A   1      41.071  35.498  39.917  1.00  0.00     0.020 A 
ATOM     81  C   UNL A   1      39.672  33.759  40.875  1.00  0.00     0.020 A 
ATOM     82  C   UNL A   1      40.355  34.969  40.996  1.00  0.00     0.054 A 
BRANCH  82  83
ATOM     83  S   UNL A   1      40.293  35.907  42.548  1.00  0.00     0.124 S 
ATOM     84  O   UNL A   1      41.643  36.459  42.625  1.00  0.00    -0.237 OA
ATOM     85  O   UNL A   1      39.230  36.877  42.293  1.00  0.00    -0.237 OA
ATOM     86  O   UNL A   1      39.976  34.896  43.554  1.00  0.00    -0.744 OA
ENDBRANCH  82  83
ENDBRANCH  56  77
ENDBRANCH  30  31
ENDBRANCH  23  25
ENDBRANCH  22  23
ENDBRANCH  21  22
ENDBRANCH  20  21
ENDBRANCH  19  20
ENDBRANCH   1  19
TORSDOF 21
ENDMDL
MODEL 2
REMARK VINA RESULT:      -8.9      6.085      8.981
REMARK SMILES C[C@@H](NC1=[NH+]CCC1)C(=O)OCCOCCOCCOC(=O)c1ccc(-c2c3nc(c(-c4ccc(S(=O)(=O)[O-])cc4)c4ccc([nH]4)c(-c4ccc(S(=O)(=O)[O-])cc4)c4nc(c(-c5ccc(S(=O)(=O)[O-])cc5)c5ccc2[nH]5)C=C4)C=C3)cc1
REMARK SMILES IDX 16 1 15 2 14 3 13 4 12 5 11 6 9 7 10 8 2 9 1 10 3 11 4 12
REMARK SMILES IDX 5 14 8 15 6 16 7 18 17 19 18 20 19 21 20 22 21 23 22 24
REMARK SMILES IDX 23 25 24 26 82 27 25 28 81 29 26 30 27 31 28 32 75 33 29 34
REMARK SMILES IDX 80 35 74 36 76 37 30 38 79 39 73 40 72 41 31 43 61 44 42 45
REMARK SMILES IDX 60 46 43 47 46 48 59 49 77 50 44 51 45 52 58 54 78 55 47 56
REMARK SMILES IDX 32 57 33 58 41 59 34 60 40 61 35 62 36 63 37 64 38 65 39 66
REMARK SMILES IDX 62 67 63 68 71 69 64 70 70 71 65 72 66 73 67 74 68 75 69 76
REMARK SMILES IDX 48 77 49 78 57 79 50 80 56 81 51 82 52 83 53 84 54 85 55 86
REMARK H PARENT 3 13 5 17 76 42 46 53
REMARK Flexibility Score: inf
ROOT
ATOM      1  C   UNL A   1      35.525  23.288  24.076  1.00  0.00     0.188 C 
ENDROOT
BRANCH   1   2
ATOM      2  C   UNL A   1      34.548  24.402  24.478  1.00  0.00     0.188 C 
BRANCH   2   3
ATOM      3  O   UNL A   1      34.049  24.426  25.800  1.00  0.00    -0.376 OA
BRANCH   3   4
ATOM      4  C   UNL A   1      32.653  24.521  26.018  1.00  0.00     0.202 C 
BRANCH   4   5
ATOM      5  C   UNL A   1      31.670  23.609  25.275  1.00  0.00     0.261 C 
BRANCH   5   6
ATOM      6  O   UNL A   1      31.629  22.222  25.663  1.00  0.00    -0.460 OA
BRANCH   6   7
ATOM      7  C   UNL A   1      32.417  21.367  24.943  1.00  0.00     0.350 C 
ATOM      8  O   UNL A   1      32.300  21.180  23.735  1.00  0.00    -0.247 OA
BRANCH   7   9
ATOM      9  C   UNL A   1      33.400  20.560  25.802  1.00  0.00     0.279 C 
ATOM     10  C   UNL A   1      33.674  21.167  27.182  1.00  0.00     0.071 C 
BRANCH   9  11
ATOM     11  N   UNL A   1      33.018  19.157  25.976  1.00  0.00    -0.265 N 
ATOM     12  C   UNL A   1      33.271  18.126  25.124  1.00  0.00     0.243 C 
ATOM     13  H   UNL A   1      32.524  18.935  26.797  1.00  0.00     0.305 HD
ATOM     14  N   UNL A   1      32.298  17.347  24.749  1.00  0.00    -0.279 N 
ATOM     15  C   UNL A   1      34.637  17.734  24.631  1.00  0.00     0.131 C 
ATOM     16  C   UNL A   1      32.914  16.370  23.829  1.00  0.00     0.234 C 
ATOM     17  H   UNL A   1      31.352  17.399  25.019  1.00  0.00     0.304 HD
ATOM     18  C   UNL A   1      34.217  17.000  23.384  1.00  0.00     0.058 C 
ENDBRANCH   9  11
ENDBRANCH   7   9
ENDBRANCH   6   7
ENDBRANCH   5   6
ENDBRANCH   4   5
ENDBRANCH   3   4
ENDBRANCH   2   3
ENDBRANCH   1   2
BRANCH   1  19
ATOM     19  O   UNL A   1      36.667  23.049  24.858  1.00  0.00    -0.376 OA
BRANCH  19  20
ATOM     20  C   UNL A   1      36.919  21.760  25.384  1.00  0.00     0.202 C 
BRANCH  20  21
ATOM     21  C   UNL A   1      38.278  21.029  25.371  1.00  0.00     0.261 C 
BRANCH  21  22
ATOM     22  O   UNL A   1      39.473  21.786  25.581  1.00  0.00    -0.460 OA
BRANCH  22  23
ATOM     23  C   UNL A   1      40.029  21.710  26.817  1.00  0.00     0.338 C 
ATOM     24  O   UNL A   1      40.391  20.698  27.393  1.00  0.00    -0.246 OA
BRANCH  23  25
ATOM     25  C   UNL A   1      40.360  23.086  27.259  1.00  0.00     0.060 A 
ATOM     26  C   UNL A   1      39.661  24.167  26.697  1.00  0.00     0.016 A 
ATOM     27  C   UNL A   1      41.328  23.311  28.238  1.00  0.00     0.016 A 
ATOM     28  C   UNL A   1      39.942  25.474  27.098  1.00  0.00     0.010 A 
ATOM     29  C   UNL A   1      41.632  24.624  28.615  1.00  0.00     0.010 A 
ATOM     30  C   UNL A   1      40.962  25.714  28.026  1.00  0.00    -0.014 A 
BRANCH  30  31
ATOM     31  C   UNL A   1      41.484  27.090  28.222  1.00  0.00     0.031 A 
ATOM     32  C   UNL A   1      42.957  27.321  28.014  1.00  0.00     0.074 A 
ATOM     33  C   UNL A   1      40.687  28.115  28.578  1.00  0.00     0.049 A 
ATOM     34  N   UNL A   1      43.668  28.399  28.220  1.00  0.00    -0.248 NA
ATOM     35  C   UNL A   1      43.733  26.175  27.512  1.00  0.00     0.031 C 
ATOM     36  C   UNL A   1      39.239  28.042  28.756  1.00  0.00     0.029 A 
ATOM     37  N   UNL A   1      41.000  29.420  28.874  1.00  0.00    -0.354 N 
ATOM     38  C   UNL A   1      44.976  28.056  27.896  1.00  0.00     0.074 A 
ATOM     39  C   UNL A   1      44.963  26.665  27.499  1.00  0.00     0.031 C 
ATOM     40  C   UNL A   1      38.789  29.248  29.151  1.00  0.00     0.029 A 
ATOM     41  C   UNL A   1      39.922  30.162  29.297  1.00  0.00     0.049 A 
ATOM     42  H   UNL A   1      41.908  29.789  28.791  1.00  0.00     0.167 HD
ATOM     43  C   UNL A   1      46.088  28.826  27.927  1.00  0.00     0.031 A 
ATOM     44  C   UNL A   1      39.862  31.422  29.777  1.00  0.00     0.031 A 
ATOM     45  C   UNL A   1      46.102  30.205  28.339  1.00  0.00     0.049 A 
ATOM     46  C   UNL A   1      41.126  32.240  29.883  1.00  0.00     0.074 A 
ATOM     47  C   UNL A   1      47.177  31.075  28.387  1.00  0.00     0.029 A 
ATOM     48  N   UNL A   1      44.995  30.910  28.784  1.00  0.00    -0.354 N 
ATOM     49  N   UNL A   1      42.353  31.911  29.549  1.00  0.00    -0.248 NA
ATOM     50  C   UNL A   1      40.997  33.601  30.423  1.00  0.00     0.031 C 
ATOM     51  C   UNL A   1      46.733  32.286  28.927  1.00  0.00     0.029 A 
ATOM     52  C   UNL A   1      45.366  32.196  29.142  1.00  0.00     0.049 A 
ATOM     53  H   UNL A   1      44.079  30.552  28.838  1.00  0.00     0.167 HD
ATOM     54  C   UNL A   1      43.133  33.035  29.812  1.00  0.00     0.074 A 
ATOM     55  C   UNL A   1      42.240  34.055  30.319  1.00  0.00     0.031 C 
ATOM     56  C   UNL A   1      44.469  33.206  29.643  1.00  0.00     0.031 A 
BRANCH  43  57
ATOM     57  C   UNL A   1      47.394  28.177  27.552  1.00  0.00    -0.014 A 
ATOM     58  C   UNL A   1      48.202  27.542  28.514  1.00  0.00     0.010 A 
ATOM     59  C   UNL A   1      47.806  28.180  26.207  1.00  0.00     0.010 A 
ATOM     60  C   UNL A   1      49.418  26.962  28.143  1.00  0.00     0.020 A 
ATOM     61  C   UNL A   1      49.006  27.573  25.828  1.00  0.00     0.020 A 
ATOM     62  C   UNL A   1      49.813  26.983  26.802  1.00  0.00     0.054 A 
BRANCH  62  63
ATOM     63  S   UNL A   1      51.389  26.208  26.347  1.00  0.00     0.124 S 
ATOM     64  O   UNL A   1      51.194  24.837  26.813  1.00  0.00    -0.237 OA
ATOM     65  O   UNL A   1      51.422  26.380  24.897  1.00  0.00    -0.237 OA
ATOM     66  O   UNL A   1      52.383  26.980  27.088  1.00  0.00    -0.744 OA
ENDBRANCH  62  63
ENDBRANCH  43  57
BRANCH  44  67
ATOM     67  C   UNL A   1      38.558  31.984  30.232  1.00  0.00    -0.014 A 
ATOM     68  C   UNL A   1      38.057  31.699  31.514  1.00  0.00     0.010 A 
ATOM     69  C   UNL A   1      37.804  32.809  29.375  1.00  0.00     0.010 A 
ATOM     70  C   UNL A   1      36.822  32.216  31.925  1.00  0.00     0.020 A 
ATOM     71  C   UNL A   1      36.586  33.352  29.793  1.00  0.00     0.020 A 
ATOM     72  C   UNL A   1      36.098  33.044  31.064  1.00  0.00     0.054 A 
BRANCH  72  73
ATOM     73  S   UNL A   1      34.530  33.751  31.642  1.00  0.00     0.124 S 
ATOM     74  O   UNL A   1      34.974  34.967  32.317  1.00  0.00    -0.237 OA
ATOM     75  O   UNL A   1      33.797  33.952  30.395  1.00  0.00    -0.237 OA
ATOM     76  O   UNL A   1      33.987  32.713  32.515  1.00  0.00    -0.744 OA
ENDBRANCH  72  73
ENDBRANCH  44  67
BRANCH  56  77
ATOM     77  C   UNL A   1      45.052  34.560  29.965  1.00  0.00    -0.014 A 
ATOM     78  C   UNL A   1      45.095  35.589  29.008  1.00  0.00     0.010 A 
ATOM     79  C   UNL A   1      45.495  34.826  31.274  1.00  0.00     0.010 A 
ATOM     80  C   UNL A   1      45.595  36.851  29.348  1.00  0.00     0.020 A 
ATOM     81  C   UNL A   1      45.968  36.094  31.626  1.00  0.00     0.020 A 
ATOM     82  C   UNL A   1      46.026  37.095  30.657  1.00  0.00     0.054 A 
BRANCH  82  83
ATOM     83  S   UNL A   1      46.621  38.755  31.085  1.00  0.00     0.124 S 
ATOM     84  O   UNL A   1      47.571  39.025  30.009  1.00  0.00    -0.237 OA
ATOM     85  O   UNL A   1      45.396  39.551  31.058  1.00  0.00    -0.237 OA
ATOM     86  O   UNL A   1      47.214  38.581  32.409  1.00  0.00    -0.744 OA
ENDBRANCH  82  83
ENDBRANCH  56  77
ENDBRANCH  30  31
ENDBRANCH  23  25
ENDBRANCH  22  23
ENDBRANCH  21  22
ENDBRANCH  20  21
ENDBRANCH  19  20
ENDBRANCH   1  19
TORSDOF 21
ENDMDL
MODEL 3
REMARK VINA RESULT:      -8.8      6.833     14.119
REMARK SMILES C[C@@H](NC1=[NH+]CCC1)C(=O)OCCOCCOCCOC(=O)c1ccc(-c2c3nc(c(-c4ccc(S(=O)(=O)[O-])cc4)c4ccc([nH]4)c(-c4ccc(S(=O)(=O)[O-])cc4)c4nc(c(-c5ccc(S(=O)(=O)[O-])cc5)c5ccc2[nH]5)C=C4)C=C3)cc1
REMARK SMILES IDX 16 1 15 2 14 3 13 4 12 5 11 6 9 7 10 8 2 9 1 10 3 11 4 12
REMARK SMILES IDX 5 14 8 15 6 16 7 18 17 19 18 20 19 21 20 22 21 23 22 24
REMARK SMILES IDX 23 25 24 26 82 27 25 28 81 29 26 30 27 31 28 32 75 33 29 34
REMARK SMILES IDX 80 35 74 36 76 37 30 38 79 39 73 40 72 41 31 43 61 44 42 45
REMARK SMILES IDX 60 46 43 47 46 48 59 49 77 50 44 51 45 52 58 54 78 55 47 56
REMARK SMILES IDX 32 57 33 58 41 59 34 60 40 61 35 62 36 63 37 64 38 65 39 66
REMARK SMILES IDX 62 67 63 68 71 69 64 70 70 71 65 72 66 73 67 74 68 75 69 76
REMARK SMILES IDX 48 77 49 78 57 79 50 80 56 81 51 82 52 83 53 84 54 85 55 86
REMARK H PARENT 3 13 5 17 76 42 46 53
REMARK Flexibility Score: inf
ROOT
ATOM      1  C   UNL A   1      35.189  31.940  29.040  1.00  0.00     0.188 C 
ENDROOT
BRANCH   1   2
ATOM      2  C   UNL A   1      34.514  31.627  27.697  1.00  0.00     0.188 C 
BRANCH   2   3
ATOM      3  O   UNL A   1      33.696  30.479  27.597  1.00  0.00    -0.376 OA
BRANCH   3   4
ATOM      4  C   UNL A   1      33.761  29.676  26.432  1.00  0.00     0.202 C 
BRANCH   4   5
ATOM      5  C   UNL A   1      32.655  29.725  25.372  1.00  0.00     0.261 C 
BRANCH   5   6
ATOM      6  O   UNL A   1      32.505  28.575  24.516  1.00  0.00    -0.460 OA
BRANCH   6   7
ATOM      7  C   UNL A   1      31.259  28.013  24.468  1.00  0.00     0.350 C 
ATOM      8  O   UNL A   1      30.764  27.366  25.386  1.00  0.00    -0.247 OA
BRANCH   7   9
ATOM      9  C   UNL A   1      30.566  28.163  23.107  1.00  0.00     0.279 C 
ATOM     10  C   UNL A   1      29.088  27.759  23.105  1.00  0.00     0.071 C 
BRANCH   9  11
ATOM     11  N   UNL A   1      30.685  29.504  22.529  1.00  0.00    -0.265 N 
ATOM     12  C   UNL A   1      29.758  30.499  22.568  1.00  0.00     0.243 C 
ATOM     13  H   UNL A   1      31.526  29.706  22.061  1.00  0.00     0.305 HD
ATOM     14  N   UNL A   1      29.411  31.100  21.466  1.00  0.00    -0.279 N 
ATOM     15  C   UNL A   1      29.143  31.053  23.825  1.00  0.00     0.131 C 
ATOM     16  C   UNL A   1      28.393  32.090  21.867  1.00  0.00     0.234 C 
ATOM     17  H   UNL A   1      29.753  30.928  20.558  1.00  0.00     0.304 HD
ATOM     18  C   UNL A   1      27.890  31.629  23.219  1.00  0.00     0.058 C 
ENDBRANCH   9  11
ENDBRANCH   7   9
ENDBRANCH   6   7
ENDBRANCH   5   6
ENDBRANCH   4   5
ENDBRANCH   3   4
ENDBRANCH   2   3
ENDBRANCH   1   2
BRANCH   1  19
ATOM     19  O   UNL A   1      35.489  33.271  29.373  1.00  0.00    -0.376 OA
BRANCH  19  20
ATOM     20  C   UNL A   1      35.592  33.666  30.729  1.00  0.00     0.202 C 
BRANCH  20  21
ATOM     21  C   UNL A   1      36.099  32.784  31.890  1.00  0.00     0.261 C 
BRANCH  21  22
ATOM     22  O   UNL A   1      37.405  32.210  31.803  1.00  0.00    -0.460 OA
BRANCH  22  23
ATOM     23  C   UNL A   1      37.490  30.867  31.980  1.00  0.00     0.338 C 
ATOM     24  O   UNL A   1      36.667  30.149  32.522  1.00  0.00    -0.246 OA
BRANCH  23  25
ATOM     25  C   UNL A   1      38.636  30.367  31.182  1.00  0.00     0.060 A 
ATOM     26  C   UNL A   1      39.654  29.650  31.833  1.00  0.00     0.016 A 
ATOM     27  C   UNL A   1      38.696  30.576  29.805  1.00  0.00     0.016 A 
ATOM     28  C   UNL A   1      40.742  29.157  31.110  1.00  0.00     0.010 A 
ATOM     29  C   UNL A   1      39.805  30.111  29.088  1.00  0.00     0.010 A 
ATOM     30  C   UNL A   1      40.847  29.425  29.741  1.00  0.00    -0.014 A 
BRANCH  30  31
ATOM     31  C   UNL A   1      42.130  29.192  29.031  1.00  0.00     0.031 A 
ATOM     32  C   UNL A   1      42.390  27.816  28.477  1.00  0.00     0.074 A 
ATOM     33  C   UNL A   1      43.051  30.162  28.878  1.00  0.00     0.049 A 
ATOM     34  N   UNL A   1      43.467  27.336  27.911  1.00  0.00    -0.248 NA
ATOM     35  C   UNL A   1      41.284  26.850  28.584  1.00  0.00     0.031 C 
ATOM     36  C   UNL A   1      42.903  31.549  29.313  1.00  0.00     0.029 A 
ATOM     37  N   UNL A   1      44.308  30.113  28.325  1.00  0.00    -0.354 N 
ATOM     38  C   UNL A   1      43.178  26.009  27.616  1.00  0.00     0.074 A 
ATOM     39  C   UNL A   1      41.833  25.754  28.084  1.00  0.00     0.031 C 
ATOM     40  C   UNL A   1      44.038  32.216  29.030  1.00  0.00     0.029 A 
ATOM     41  C   UNL A   1      45.005  31.293  28.434  1.00  0.00     0.049 A 
ATOM     42  H   UNL A   1      44.676  29.309  27.892  1.00  0.00     0.167 HD
ATOM     43  C   UNL A   1      43.960  25.083  27.013  1.00  0.00     0.031 A 
ATOM     44  C   UNL A   1      46.285  31.587  28.121  1.00  0.00     0.031 A 
ATOM     45  C   UNL A   1      45.303  25.334  26.565  1.00  0.00     0.049 A 
ATOM     46  C   UNL A   1      47.168  30.518  27.525  1.00  0.00     0.074 A 
ATOM     47  C   UNL A   1      46.171  24.464  25.925  1.00  0.00     0.029 A 
ATOM     48  N   UNL A   1      45.980  26.534  26.718  1.00  0.00    -0.354 N 
ATOM     49  N   UNL A   1      46.874  29.273  27.229  1.00  0.00    -0.248 NA
ATOM     50  C   UNL A   1      48.555  30.896  27.215  1.00  0.00     0.031 C 
ATOM     51  C   UNL A   1      47.395  25.118  25.754  1.00  0.00     0.029 A 
ATOM     52  C   UNL A   1      47.266  26.419  26.216  1.00  0.00     0.049 A 
ATOM     53  H   UNL A   1      45.603  27.348  27.122  1.00  0.00     0.167 HD
ATOM     54  C   UNL A   1      48.030  28.732  26.671  1.00  0.00     0.074 A 
ATOM     55  C   UNL A   1      49.023  29.786  26.658  1.00  0.00     0.031 C 
ATOM     56  C   UNL A   1      48.247  27.475  26.206  1.00  0.00     0.031 A 
BRANCH  43  57
ATOM     57  C   UNL A   1      43.396  23.696  26.851  1.00  0.00    -0.014 A 
ATOM     58  C   UNL A   1      43.182  22.855  27.959  1.00  0.00     0.010 A 
ATOM     59  C   UNL A   1      43.051  23.237  25.567  1.00  0.00     0.010 A 
ATOM     60  C   UNL A   1      42.674  21.566  27.779  1.00  0.00     0.020 A 
ATOM     61  C   UNL A   1      42.512  21.960  25.387  1.00  0.00     0.020 A 
ATOM     62  C   UNL A   1      42.344  21.126  26.493  1.00  0.00     0.054 A 
BRANCH  62  63
ATOM     63  S   UNL A   1      41.671  19.454  26.293  1.00  0.00     0.124 S 
ATOM     64  O   UNL A   1      40.248  19.723  26.102  1.00  0.00    -0.237 OA
ATOM     65  O   UNL A   1      42.381  18.963  25.115  1.00  0.00    -0.237 OA
ATOM     66  O   UNL A   1      42.014  18.788  27.548  1.00  0.00    -0.744 OA
ENDBRANCH  62  63
ENDBRANCH  43  57
BRANCH  44  67
ATOM     67  C   UNL A   1      46.826  32.949  28.397  1.00  0.00    -0.014 A 
ATOM     68  C   UNL A   1      46.749  33.965  27.430  1.00  0.00     0.010 A 
ATOM     69  C   UNL A   1      47.429  33.234  29.637  1.00  0.00     0.010 A 
ATOM     70  C   UNL A   1      47.276  35.236  27.691  1.00  0.00     0.020 A 
ATOM     71  C   UNL A   1      47.929  34.509  29.913  1.00  0.00     0.020 A 
ATOM     72  C   UNL A   1      47.858  35.501  28.934  1.00  0.00     0.054 A 
BRANCH  72  73
ATOM     73  S   UNL A   1      48.479  37.172  29.271  1.00  0.00     0.124 S 
ATOM     74  O   UNL A   1      49.907  37.026  29.002  1.00  0.00    -0.237 OA
ATOM     75  O   UNL A   1      47.735  37.983  28.311  1.00  0.00    -0.237 OA
ATOM     76  O   UNL A   1      48.125  37.394  30.670  1.00  0.00    -0.744 OA
ENDBRANCH  72  73
ENDBRANCH  44  67
BRANCH  56  77
ATOM     77  C   UNL A   1      49.594  27.170  25.599  1.00  0.00    -0.014 A 
ATOM     78  C   UNL A   1      49.861  27.410  24.240  1.00  0.00     0.010 A 
ATOM     79  C   UNL A   1      50.634  26.706  26.427  1.00  0.00     0.010 A 
ATOM     80  C   UNL A   1      51.135  27.165  23.715  1.00  0.00     0.020 A 
ATOM     81  C   UNL A   1      51.916  26.489  25.914  1.00  0.00     0.020 A 
ATOM     82  C   UNL A   1      52.155  26.708  24.557  1.00  0.00     0.054 A 
BRANCH  82  83
ATOM     83  S   UNL A   1      53.811  26.449  23.863  1.00  0.00     0.124 S 
ATOM     84  O   UNL A   1      54.281  25.293  24.621  1.00  0.00    -0.237 OA
ATOM     85  O   UNL A   1      53.530  26.204  22.450  1.00  0.00    -0.237 OA
ATOM     86  O   UNL A   1      54.506  27.702  24.144  1.00  0.00    -0.744 OA
ENDBRANCH  82  83
ENDBRANCH  56  77
ENDBRANCH  30  31
ENDBRANCH  23  25
ENDBRANCH  22  23
ENDBRANCH  21  22
ENDBRANCH  20  21
ENDBRANCH  19  20
ENDBRANCH   1  19
TORSDOF 21
ENDMDL
