MODEL 1
REMARK VINA RESULT:     -10.7      0.000      0.000
REMARK SMILES O=C(OCCOCCOCCOC(=O)[C@H](c1cnn(Cc2ccccc2)c1)[NH+]1CCOCC1)c1ccc(-c2c3nc(c(-c4ccc(S(=O)(=O)[O-])cc4)c4ccc([nH]4)c(-c4ccc(S(=O)(=O)[O-])cc4)c4nc(c(-c5ccc(S(=O)(=O)[O-])cc5)c5ccc2[nH]5)C=C4)C=C3)cc1
REMARK SMILES IDX 7 1 6 2 5 3 4 4 3 5 2 6 1 7 34 8 35 9 93 10 36 11 92 12
REMARK SMILES IDX 37 13 38 14 39 15 86 16 40 17 91 18 85 19 87 20 41 21 90 22
REMARK SMILES IDX 84 23 83 24 42 26 72 27 53 28 71 29 54 30 57 31 70 32 88 33
REMARK SMILES IDX 55 34 56 35 69 37 89 38 58 39 43 40 44 41 52 42 45 43 51 44
REMARK SMILES IDX 46 45 47 46 48 47 49 48 50 49 73 50 74 51 82 52 75 53 81 54
REMARK SMILES IDX 76 55 77 56 78 57 79 58 80 59 59 60 60 61 68 62 61 63 67 64
REMARK SMILES IDX 62 65 63 66 64 67 65 68 66 69 8 70 9 71 10 72 11 73 12 74
REMARK SMILES IDX 13 75 14 76 15 77 28 78 29 79 33 80 30 82 32 83 31 84 16 85
REMARK SMILES IDX 17 86 27 87 18 88 19 89 20 90 21 91 22 92 26 93 23 94 25 95
REMARK SMILES IDX 24 96
REMARK H PARENT 87 25 57 36 28 81
REMARK Flexibility Score: inf
ROOT
ATOM      1  C   UNL A   1      40.047  22.849  27.386  1.00  0.00     0.188 C 
ENDROOT
BRANCH   1   2
ATOM      2  O   UNL A   1      40.990  21.800  27.449  1.00  0.00    -0.376 OA
BRANCH   2   3
ATOM      3  C   UNL A   1      41.554  21.134  26.335  1.00  0.00     0.202 C 
BRANCH   3   4
ATOM      4  C   UNL A   1      42.917  21.419  25.693  1.00  0.00     0.261 C 
BRANCH   4   5
ATOM      5  O   UNL A   1      43.004  22.482  24.754  1.00  0.00    -0.460 OA
BRANCH   5   6
ATOM      6  C   UNL A   1      43.433  23.749  24.902  1.00  0.00     0.338 C 
ATOM      7  O   UNL A   1      44.494  24.070  24.364  1.00  0.00    -0.246 OA
BRANCH   6   8
ATOM      8  C   UNL A   1      42.778  24.746  25.790  1.00  0.00     0.060 A 
ATOM      9  C   UNL A   1      41.821  25.687  25.406  1.00  0.00     0.016 A 
ATOM     10  C   UNL A   1      43.211  24.722  27.133  1.00  0.00     0.016 A 
ATOM     11  C   UNL A   1      41.474  26.709  26.268  1.00  0.00     0.010 A 
ATOM     12  C   UNL A   1      42.851  25.728  28.007  1.00  0.00     0.010 A 
ATOM     13  C   UNL A   1      42.072  26.768  27.522  1.00  0.00    -0.014 A 
BRANCH  13  14
ATOM     14  C   UNL A   1      41.923  28.005  28.259  1.00  0.00     0.031 A 
ATOM     15  C   UNL A   1      43.063  28.945  28.157  1.00  0.00     0.074 A 
ATOM     16  C   UNL A   1      40.801  28.239  28.965  1.00  0.00     0.049 A 
ATOM     17  N   UNL A   1      43.868  29.328  29.092  1.00  0.00    -0.248 NA
ATOM     18  C   UNL A   1      43.434  29.407  26.811  1.00  0.00     0.031 C 
ATOM     19  C   UNL A   1      39.541  27.487  28.929  1.00  0.00     0.029 A 
ATOM     20  N   UNL A   1      40.509  29.281  29.782  1.00  0.00    -0.354 N 
ATOM     21  C   UNL A   1      44.719  30.254  28.496  1.00  0.00     0.074 A 
ATOM     22  C   UNL A   1      44.520  30.135  27.074  1.00  0.00     0.031 C 
ATOM     23  C   UNL A   1      38.559  28.242  29.469  1.00  0.00     0.029 A 
ATOM     24  C   UNL A   1      39.150  29.452  30.014  1.00  0.00     0.049 A 
ATOM     25  H   UNL A   1      41.197  29.865  30.175  1.00  0.00     0.167 HD
ATOM     26  C   UNL A   1      45.345  31.226  29.216  1.00  0.00     0.031 A 
ATOM     27  C   UNL A   1      38.552  30.557  30.528  1.00  0.00     0.031 A 
ATOM     28  C   UNL A   1      45.379  30.926  30.620  1.00  0.00     0.049 A 
ATOM     29  C   UNL A   1      39.603  31.334  31.232  1.00  0.00     0.074 A 
ATOM     30  C   UNL A   1      45.918  29.904  31.377  1.00  0.00     0.029 A 
ATOM     31  N   UNL A   1      44.452  31.545  31.426  1.00  0.00    -0.354 N 
ATOM     32  N   UNL A   1      40.209  30.908  32.306  1.00  0.00    -0.248 NA
ATOM     33  C   UNL A   1      40.315  32.360  30.485  1.00  0.00     0.031 C 
ATOM     34  C   UNL A   1      44.957  29.656  32.398  1.00  0.00     0.029 A 
ATOM     35  C   UNL A   1      43.924  30.585  32.253  1.00  0.00     0.049 A 
ATOM     36  H   UNL A   1      44.212  32.499  31.413  1.00  0.00     0.167 HD
ATOM     37  C   UNL A   1      41.536  31.285  32.144  1.00  0.00     0.074 A 
ATOM     38  C   UNL A   1      41.521  32.255  31.050  1.00  0.00     0.031 C 
ATOM     39  C   UNL A   1      42.551  30.573  32.718  1.00  0.00     0.031 A 
BRANCH  26  40
ATOM     40  C   UNL A   1      45.573  32.613  28.673  1.00  0.00    -0.014 A 
ATOM     41  C   UNL A   1      46.755  33.304  29.001  1.00  0.00     0.010 A 
ATOM     42  C   UNL A   1      44.540  33.361  28.068  1.00  0.00     0.010 A 
ATOM     43  C   UNL A   1      46.874  34.683  28.773  1.00  0.00     0.020 A 
ATOM     44  C   UNL A   1      44.664  34.721  27.795  1.00  0.00     0.020 A 
ATOM     45  C   UNL A   1      45.822  35.382  28.178  1.00  0.00     0.054 A 
BRANCH  45  46
ATOM     46  S   UNL A   1      45.944  37.175  27.968  1.00  0.00     0.124 S 
ATOM     47  O   UNL A   1      47.027  37.290  26.997  1.00  0.00    -0.237 OA
ATOM     48  O   UNL A   1      44.612  37.520  27.480  1.00  0.00    -0.237 OA
ATOM     49  O   UNL A   1      46.253  37.656  29.313  1.00  0.00    -0.744 OA
ENDBRANCH  45  46
ENDBRANCH  26  40
BRANCH  27  50
ATOM     50  C   UNL A   1      37.253  31.139  30.104  1.00  0.00    -0.014 A 
ATOM     51  C   UNL A   1      36.412  31.789  31.025  1.00  0.00     0.010 A 
ATOM     52  C   UNL A   1      36.962  31.292  28.731  1.00  0.00     0.010 A 
ATOM     53  C   UNL A   1      35.357  32.609  30.585  1.00  0.00     0.020 A 
ATOM     54  C   UNL A   1      35.909  32.098  28.287  1.00  0.00     0.020 A 
ATOM     55  C   UNL A   1      35.125  32.774  29.216  1.00  0.00     0.054 A 
BRANCH  55  56
ATOM     56  S   UNL A   1      33.885  33.976  28.653  1.00  0.00     0.124 S 
ATOM     57  O   UNL A   1      33.275  34.404  29.909  1.00  0.00    -0.237 OA
ATOM     58  O   UNL A   1      34.701  34.979  27.973  1.00  0.00    -0.237 OA
ATOM     59  O   UNL A   1      33.016  33.192  27.777  1.00  0.00    -0.744 OA
ENDBRANCH  55  56
ENDBRANCH  27  50
BRANCH  39  60
ATOM     60  C   UNL A   1      42.202  29.519  33.746  1.00  0.00    -0.014 A 
ATOM     61  C   UNL A   1      41.805  28.206  33.418  1.00  0.00     0.010 A 
ATOM     62  C   UNL A   1      42.440  29.826  35.097  1.00  0.00     0.010 A 
ATOM     63  C   UNL A   1      41.627  27.239  34.421  1.00  0.00     0.020 A 
ATOM     64  C   UNL A   1      42.282  28.863  36.097  1.00  0.00     0.020 A 
ATOM     65  C   UNL A   1      41.868  27.576  35.755  1.00  0.00     0.054 A 
BRANCH  65  66
ATOM     66  S   UNL A   1      41.684  26.310  37.045  1.00  0.00     0.124 S 
ATOM     67  O   UNL A   1      42.855  26.541  37.885  1.00  0.00    -0.237 OA
ATOM     68  O   UNL A   1      40.397  26.650  37.650  1.00  0.00    -0.237 OA
ATOM     69  O   UNL A   1      41.694  25.051  36.301  1.00  0.00    -0.744 OA
ENDBRANCH  65  66
ENDBRANCH  39  60
ENDBRANCH  13  14
ENDBRANCH   6   8
ENDBRANCH   5   6
ENDBRANCH   4   5
ENDBRANCH   3   4
ENDBRANCH   2   3
ENDBRANCH   1   2
BRANCH   1  70
ATOM     70  C   UNL A   1      38.940  22.835  26.307  1.00  0.00     0.188 C 
BRANCH  70  71
ATOM     71  O   UNL A   1      38.038  23.919  26.110  1.00  0.00    -0.376 OA
BRANCH  71  72
ATOM     72  C   UNL A   1      36.758  23.682  25.576  1.00  0.00     0.202 C 
BRANCH  72  73
ATOM     73  C   UNL A   1      36.740  23.433  24.066  1.00  0.00     0.261 C 
BRANCH  73  74
ATOM     74  O   UNL A   1      35.598  22.746  23.528  1.00  0.00    -0.459 OA
BRANCH  74  75
ATOM     75  C   UNL A   1      34.457  23.497  23.428  1.00  0.00     0.370 C 
ATOM     76  O   UNL A   1      34.396  24.575  22.843  1.00  0.00    -0.245 OA
BRANCH  75  77
ATOM     77  C   UNL A   1      33.295  22.878  24.238  1.00  0.00     0.329 C 
BRANCH  77  78
ATOM     78  N   UNL A   1      32.169  23.834  24.465  1.00  0.00    -0.315 N 
ATOM     79  C   UNL A   1      32.465  25.000  25.332  1.00  0.00     0.292 C 
ATOM     80  C   UNL A   1      30.939  23.189  24.957  1.00  0.00     0.292 C 
ATOM     81  H   UNL A   1      32.024  24.192  23.521  1.00  0.00     0.349 HD
ATOM     82  C   UNL A   1      32.396  24.717  26.853  1.00  0.00     0.221 C 
ATOM     83  C   UNL A   1      30.930  22.911  26.468  1.00  0.00     0.221 C 
ATOM     84  O   UNL A   1      31.150  24.114  27.218  1.00  0.00    -0.370 OA
ENDBRANCH  77  78
BRANCH  77  85
ATOM     85  C   UNL A   1      32.748  21.650  23.534  1.00  0.00     0.059 A 
ATOM     86  C   UNL A   1      32.204  21.589  22.230  1.00  0.00     0.145 A 
ATOM     87  C   UNL A   1      32.711  20.326  23.955  1.00  0.00     0.119 A 
ATOM     88  N   UNL A   1      31.916  20.350  21.839  1.00  0.00    -0.181 NA
ATOM     89  N   UNL A   1      32.156  19.595  22.931  1.00  0.00    -0.268 N 
BRANCH  89  90
ATOM     90  C   UNL A   1      31.965  18.143  22.862  1.00  0.00     0.179 C 
BRANCH  90  91
ATOM     91  C   UNL A   1      32.883  17.370  23.788  1.00  0.00    -0.027 A 
ATOM     92  C   UNL A   1      34.266  17.325  23.559  1.00  0.00     0.005 A 
ATOM     93  C   UNL A   1      32.367  16.638  24.871  1.00  0.00     0.005 A 
ATOM     94  C   UNL A   1      35.108  16.606  24.414  1.00  0.00     0.000 A 
ATOM     95  C   UNL A   1      33.208  15.930  25.731  1.00  0.00     0.000 A 
ATOM     96  C   UNL A   1      34.580  15.919  25.506  1.00  0.00     0.000 A 
ENDBRANCH  90  91
ENDBRANCH  89  90
ENDBRANCH  77  85
ENDBRANCH  75  77
ENDBRANCH  74  75
ENDBRANCH  73  74
ENDBRANCH  72  73
ENDBRANCH  71  72
ENDBRANCH  70  71
ENDBRANCH   1  70
TORSDOF 24
ENDMDL
MODEL 2
REMARK VINA RESULT:     -10.6      1.567      3.880
REMARK SMILES O=C(OCCOCCOCCOC(=O)[C@H](c1cnn(Cc2ccccc2)c1)[NH+]1CCOCC1)c1ccc(-c2c3nc(c(-c4ccc(S(=O)(=O)[O-])cc4)c4ccc([nH]4)c(-c4ccc(S(=O)(=O)[O-])cc4)c4nc(c(-c5ccc(S(=O)(=O)[O-])cc5)c5ccc2[nH]5)C=C4)C=C3)cc1
REMARK SMILES IDX 7 1 6 2 5 3 4 4 3 5 2 6 1 7 34 8 35 9 93 10 36 11 92 12
REMARK SMILES IDX 37 13 38 14 39 15 86 16 40 17 91 18 85 19 87 20 41 21 90 22
REMARK SMILES IDX 84 23 83 24 42 26 72 27 53 28 71 29 54 30 57 31 70 32 88 33
REMARK SMILES IDX 55 34 56 35 69 37 89 38 58 39 43 40 44 41 52 42 45 43 51 44
REMARK SMILES IDX 46 45 47 46 48 47 49 48 50 49 73 50 74 51 82 52 75 53 81 54
REMARK SMILES IDX 76 55 77 56 78 57 79 58 80 59 59 60 60 61 68 62 61 63 67 64
REMARK SMILES IDX 62 65 63 66 64 67 65 68 66 69 8 70 9 71 10 72 11 73 12 74
REMARK SMILES IDX 13 75 14 76 15 77 28 78 29 79 33 80 30 82 32 83 31 84 16 85
REMARK SMILES IDX 17 86 27 87 18 88 19 89 20 90 21 91 22 92 26 93 23 94 25 95
REMARK SMILES IDX 24 96
REMARK H PARENT 87 25 57 36 28 81
REMARK Flexibility Score: inf
ROOT
ATOM      1  C   UNL A   1      40.891  21.663  27.683  1.00  0.00     0.188 C 
ENDROOT
BRANCH   1   2
ATOM      2  O   UNL A   1      41.640  20.519  27.337  1.00  0.00    -0.376 OA
BRANCH   2   3
ATOM      3  C   UNL A   1      42.363  20.344  26.133  1.00  0.00     0.202 C 
BRANCH   3   4
ATOM      4  C   UNL A   1      43.488  21.241  25.602  1.00  0.00     0.261 C 
BRANCH   4   5
ATOM      5  O   UNL A   1      43.129  22.361  24.805  1.00  0.00    -0.460 OA
BRANCH   5   6
ATOM      6  C   UNL A   1      43.512  23.649  24.878  1.00  0.00     0.338 C 
ATOM      7  O   UNL A   1      44.566  23.974  24.329  1.00  0.00    -0.246 OA
BRANCH   6   8
ATOM      8  C   UNL A   1      42.815  24.674  25.701  1.00  0.00     0.060 A 
ATOM      9  C   UNL A   1      41.999  25.699  25.220  1.00  0.00     0.016 A 
ATOM     10  C   UNL A   1      43.047  24.581  27.089  1.00  0.00     0.016 A 
ATOM     11  C   UNL A   1      41.612  26.725  26.060  1.00  0.00     0.010 A 
ATOM     12  C   UNL A   1      42.644  25.591  27.939  1.00  0.00     0.010 A 
ATOM     13  C   UNL A   1      42.026  26.703  27.387  1.00  0.00    -0.014 A 
BRANCH  13  14
ATOM     14  C   UNL A   1      41.868  27.929  28.140  1.00  0.00     0.031 A 
ATOM     15  C   UNL A   1      43.001  28.878  28.051  1.00  0.00     0.074 A 
ATOM     16  C   UNL A   1      40.745  28.146  28.849  1.00  0.00     0.049 A 
ATOM     17  N   UNL A   1      43.804  29.255  28.990  1.00  0.00    -0.248 NA
ATOM     18  C   UNL A   1      43.370  29.360  26.711  1.00  0.00     0.031 C 
ATOM     19  C   UNL A   1      39.489  27.386  28.803  1.00  0.00     0.029 A 
ATOM     20  N   UNL A   1      40.445  29.176  29.680  1.00  0.00    -0.354 N 
ATOM     21  C   UNL A   1      44.648  30.194  28.407  1.00  0.00     0.074 A 
ATOM     22  C   UNL A   1      44.450  30.092  26.983  1.00  0.00     0.031 C 
ATOM     23  C   UNL A   1      38.503  28.128  29.353  1.00  0.00     0.029 A 
ATOM     24  C   UNL A   1      39.085  29.335  29.914  1.00  0.00     0.049 A 
ATOM     25  H   UNL A   1      41.129  29.759  30.080  1.00  0.00     0.167 HD
ATOM     26  C   UNL A   1      45.268  31.161  29.139  1.00  0.00     0.031 A 
ATOM     27  C   UNL A   1      38.480  30.428  30.441  1.00  0.00     0.031 A 
ATOM     28  C   UNL A   1      45.304  30.843  30.540  1.00  0.00     0.049 A 
ATOM     29  C   UNL A   1      39.525  31.204  31.156  1.00  0.00     0.074 A 
ATOM     30  C   UNL A   1      45.850  29.815  31.283  1.00  0.00     0.029 A 
ATOM     31  N   UNL A   1      44.373  31.445  31.353  1.00  0.00    -0.354 N 
ATOM     32  N   UNL A   1      40.135  30.768  32.225  1.00  0.00    -0.248 NA
ATOM     33  C   UNL A   1      40.230  32.244  30.422  1.00  0.00     0.031 C 
ATOM     34  C   UNL A   1      44.890  29.548  32.301  1.00  0.00     0.029 A 
ATOM     35  C   UNL A   1      43.852  30.471  32.168  1.00  0.00     0.049 A 
ATOM     36  H   UNL A   1      44.126  32.398  31.353  1.00  0.00     0.167 HD
ATOM     37  C   UNL A   1      41.458  31.156  32.067  1.00  0.00     0.074 A 
ATOM     38  C   UNL A   1      41.437  32.140  30.986  1.00  0.00     0.031 C 
ATOM     39  C   UNL A   1      42.478  30.444  32.632  1.00  0.00     0.031 A 
BRANCH  26  40
ATOM     40  C   UNL A   1      45.487  32.556  28.615  1.00  0.00    -0.014 A 
ATOM     41  C   UNL A   1      46.777  33.119  28.647  1.00  0.00     0.010 A 
ATOM     42  C   UNL A   1      44.413  33.430  28.337  1.00  0.00     0.010 A 
ATOM     43  C   UNL A   1      46.972  34.495  28.454  1.00  0.00     0.020 A 
ATOM     44  C   UNL A   1      44.599  34.790  28.099  1.00  0.00     0.020 A 
ATOM     45  C   UNL A   1      45.877  35.321  28.189  1.00  0.00     0.054 A 
BRANCH  45  46
ATOM     46  S   UNL A   1      46.122  37.106  28.030  1.00  0.00     0.124 S 
ATOM     47  O   UNL A   1      45.284  37.423  26.878  1.00  0.00    -0.237 OA
ATOM     48  O   UNL A   1      45.645  37.599  29.319  1.00  0.00    -0.237 OA
ATOM     49  O   UNL A   1      47.562  37.235  27.813  1.00  0.00    -0.744 OA
ENDBRANCH  45  46
ENDBRANCH  26  40
BRANCH  27  50
ATOM     50  C   UNL A   1      37.177  31.007  30.025  1.00  0.00    -0.014 A 
ATOM     51  C   UNL A   1      36.363  31.701  30.939  1.00  0.00     0.010 A 
ATOM     52  C   UNL A   1      36.856  31.109  28.654  1.00  0.00     0.010 A 
ATOM     53  C   UNL A   1      35.306  32.515  30.491  1.00  0.00     0.020 A 
ATOM     54  C   UNL A   1      35.800  31.908  28.202  1.00  0.00     0.020 A 
ATOM     55  C   UNL A   1      35.045  32.628  29.122  1.00  0.00     0.054 A 
BRANCH  55  56
ATOM     56  S   UNL A   1      33.803  33.821  28.541  1.00  0.00     0.124 S 
ATOM     57  O   UNL A   1      34.628  34.835  27.890  1.00  0.00    -0.237 OA
ATOM     58  O   UNL A   1      32.978  33.010  27.649  1.00  0.00    -0.237 OA
ATOM     59  O   UNL A   1      33.140  34.255  29.769  1.00  0.00    -0.744 OA
ENDBRANCH  55  56
ENDBRANCH  27  50
BRANCH  39  60
ATOM     60  C   UNL A   1      42.137  29.374  33.647  1.00  0.00    -0.014 A 
ATOM     61  C   UNL A   1      42.070  27.999  33.342  1.00  0.00     0.010 A 
ATOM     62  C   UNL A   1      42.036  29.765  34.993  1.00  0.00     0.010 A 
ATOM     63  C   UNL A   1      41.881  27.048  34.358  1.00  0.00     0.020 A 
ATOM     64  C   UNL A   1      41.866  28.822  36.010  1.00  0.00     0.020 A 
ATOM     65  C   UNL A   1      41.781  27.468  35.687  1.00  0.00     0.054 A 
BRANCH  65  66
ATOM     66  S   UNL A   1      41.585  26.232  37.004  1.00  0.00     0.124 S 
ATOM     67  O   UNL A   1      40.402  26.709  37.713  1.00  0.00    -0.237 OA
ATOM     68  O   UNL A   1      41.414  24.988  36.257  1.00  0.00    -0.237 OA
ATOM     69  O   UNL A   1      42.836  26.324  37.756  1.00  0.00    -0.744 OA
ENDBRANCH  65  66
ENDBRANCH  39  60
ENDBRANCH  13  14
ENDBRANCH   6   8
ENDBRANCH   5   6
ENDBRANCH   4   5
ENDBRANCH   3   4
ENDBRANCH   2   3
ENDBRANCH   1   2
BRANCH   1  70
ATOM     70  C   UNL A   1      39.925  22.300  26.658  1.00  0.00     0.188 C 
BRANCH  70  71
ATOM     71  O   UNL A   1      39.630  23.693  26.635  1.00  0.00    -0.376 OA
BRANCH  71  72
ATOM     72  C   UNL A   1      38.299  24.129  26.498  1.00  0.00     0.202 C 
BRANCH  72  73
ATOM     73  C   UNL A   1      37.327  23.048  26.019  1.00  0.00     0.261 C 
BRANCH  73  74
ATOM     74  O   UNL A   1      36.031  23.482  25.574  1.00  0.00    -0.459 OA
BRANCH  74  75
ATOM     75  C   UNL A   1      35.599  22.927  24.399  1.00  0.00     0.370 C 
ATOM     76  O   UNL A   1      36.342  22.635  23.466  1.00  0.00    -0.245 OA
BRANCH  75  77
ATOM     77  C   UNL A   1      34.057  22.826  24.349  1.00  0.00     0.329 C 
BRANCH  77  78
ATOM     78  N   UNL A   1      33.513  21.772  25.258  1.00  0.00    -0.315 N 
ATOM     79  C   UNL A   1      34.460  20.707  25.667  1.00  0.00     0.292 C 
ATOM     80  C   UNL A   1      32.286  21.133  24.750  1.00  0.00     0.292 C 
ATOM     81  H   UNL A   1      33.303  22.323  26.091  1.00  0.00     0.349 HD
ATOM     82  C   UNL A   1      34.652  19.571  24.633  1.00  0.00     0.221 C 
ATOM     83  C   UNL A   1      32.531  20.028  23.711  1.00  0.00     0.221 C 
ATOM     84  O   UNL A   1      33.398  19.010  24.231  1.00  0.00    -0.370 OA
ENDBRANCH  77  78
BRANCH  77  85
ATOM     85  C   UNL A   1      33.423  24.154  24.719  1.00  0.00     0.059 A 
ATOM     86  C   UNL A   1      32.719  24.459  25.907  1.00  0.00     0.145 A 
ATOM     87  C   UNL A   1      33.436  25.367  24.039  1.00  0.00     0.119 A 
ATOM     88  N   UNL A   1      32.380  25.743  26.002  1.00  0.00    -0.181 NA
ATOM     89  N   UNL A   1      32.755  26.272  24.819  1.00  0.00    -0.268 N 
BRANCH  89  90
ATOM     90  C   UNL A   1      32.553  27.702  24.570  1.00  0.00     0.179 C 
BRANCH  90  91
ATOM     91  C   UNL A   1      31.214  28.019  23.932  1.00  0.00    -0.027 A 
ATOM     92  C   UNL A   1      31.027  29.201  23.200  1.00  0.00     0.005 A 
ATOM     93  C   UNL A   1      30.114  27.162  24.099  1.00  0.00     0.005 A 
ATOM     94  C   UNL A   1      29.788  29.491  22.618  1.00  0.00     0.000 A 
ATOM     95  C   UNL A   1      28.881  27.445  23.509  1.00  0.00     0.000 A 
ATOM     96  C   UNL A   1      28.720  28.608  22.763  1.00  0.00     0.000 A 
ENDBRANCH  90  91
ENDBRANCH  89  90
ENDBRANCH  77  85
ENDBRANCH  75  77
ENDBRANCH  74  75
ENDBRANCH  73  74
ENDBRANCH  72  73
ENDBRANCH  71  72
ENDBRANCH  70  71
ENDBRANCH   1  70
TORSDOF 24
ENDMDL
MODEL 3
REMARK VINA RESULT:     -10.5      2.555      5.615
REMARK SMILES O=C(OCCOCCOCCOC(=O)[C@H](c1cnn(Cc2ccccc2)c1)[NH+]1CCOCC1)c1ccc(-c2c3nc(c(-c4ccc(S(=O)(=O)[O-])cc4)c4ccc([nH]4)c(-c4ccc(S(=O)(=O)[O-])cc4)c4nc(c(-c5ccc(S(=O)(=O)[O-])cc5)c5ccc2[nH]5)C=C4)C=C3)cc1
REMARK SMILES IDX 7 1 6 2 5 3 4 4 3 5 2 6 1 7 34 8 35 9 93 10 36 11 92 12
REMARK SMILES IDX 37 13 38 14 39 15 86 16 40 17 91 18 85 19 87 20 41 21 90 22
REMARK SMILES IDX 84 23 83 24 42 26 72 27 53 28 71 29 54 30 57 31 70 32 88 33
REMARK SMILES IDX 55 34 56 35 69 37 89 38 58 39 43 40 44 41 52 42 45 43 51 44
REMARK SMILES IDX 46 45 47 46 48 47 49 48 50 49 73 50 74 51 82 52 75 53 81 54
REMARK SMILES IDX 76 55 77 56 78 57 79 58 80 59 59 60 60 61 68 62 61 63 67 64
REMARK SMILES IDX 62 65 63 66 64 67 65 68 66 69 8 70 9 71 10 72 11 73 12 74
REMARK SMILES IDX 13 75 14 76 15 77 28 78 29 79 33 80 30 82 32 83 31 84 16 85
REMARK SMILES IDX 17 86 27 87 18 88 19 89 20 90 21 91 22 92 26 93 23 94 25 95
REMARK SMILES IDX 24 96
REMARK H PARENT 87 25 57 36 28 81
REMARK Flexibility Score: inf
ROOT
ATOM      1  C   UNL A   1      33.888  20.098  24.977  1.00  0.00     0.188 C 
ENDROOT
BRANCH   1   2
ATOM      2  O   UNL A   1      35.239  19.997  24.582  1.00  0.00    -0.376 OA
BRANCH   2   3
ATOM      3  C   UNL A   1      36.355  20.359  25.373  1.00  0.00     0.202 C 
BRANCH   3   4
ATOM      4  C   UNL A   1      37.698  20.901  24.868  1.00  0.00     0.261 C 
BRANCH   4   5
ATOM      5  O   UNL A   1      38.171  22.126  25.413  1.00  0.00    -0.460 OA
BRANCH   5   6
ATOM      6  C   UNL A   1      39.311  22.412  26.068  1.00  0.00     0.338 C 
ATOM      7  O   UNL A   1      40.258  21.631  25.954  1.00  0.00    -0.246 OA
BRANCH   6   8
ATOM      8  C   UNL A   1      39.452  23.537  27.031  1.00  0.00     0.060 A 
ATOM      9  C   UNL A   1      38.561  24.599  27.192  1.00  0.00     0.016 A 
ATOM     10  C   UNL A   1      40.621  23.502  27.819  1.00  0.00     0.016 A 
ATOM     11  C   UNL A   1      38.926  25.699  27.942  1.00  0.00     0.010 A 
ATOM     12  C   UNL A   1      40.984  24.589  28.589  1.00  0.00     0.010 A 
ATOM     13  C   UNL A   1      40.177  25.716  28.550  1.00  0.00    -0.014 A 
BRANCH  13  14
ATOM     14  C   UNL A   1      40.640  26.992  29.054  1.00  0.00     0.031 A 
ATOM     15  C   UNL A   1      41.841  27.541  28.385  1.00  0.00     0.074 A 
ATOM     16  C   UNL A   1      39.982  27.599  30.060  1.00  0.00     0.049 A 
ATOM     17  N   UNL A   1      43.016  27.735  28.884  1.00  0.00    -0.248 NA
ATOM     18  C   UNL A   1      41.754  27.773  26.935  1.00  0.00     0.031 C 
ATOM     19  C   UNL A   1      38.666  27.255  30.613  1.00  0.00     0.029 A 
ATOM     20  N   UNL A   1      40.301  28.738  30.724  1.00  0.00    -0.354 N 
ATOM     21  C   UNL A   1      43.763  28.320  27.867  1.00  0.00     0.074 A 
ATOM     22  C   UNL A   1      42.998  28.163  26.656  1.00  0.00     0.031 C 
ATOM     23  C   UNL A   1      38.195  28.305  31.321  1.00  0.00     0.029 A 
ATOM     24  C   UNL A   1      39.231  29.321  31.390  1.00  0.00     0.049 A 
ATOM     25  H   UNL A   1      41.209  29.118  30.733  1.00  0.00     0.167 HD
ATOM     26  C   UNL A   1      44.841  29.112  28.127  1.00  0.00     0.031 A 
ATOM     27  C   UNL A   1      39.175  30.587  31.874  1.00  0.00     0.031 A 
ATOM     28  C   UNL A   1      45.349  28.918  29.456  1.00  0.00     0.049 A 
ATOM     29  C   UNL A   1      40.575  31.067  32.004  1.00  0.00     0.074 A 
ATOM     30  C   UNL A   1      45.873  27.840  30.142  1.00  0.00     0.029 A 
ATOM     31  N   UNL A   1      44.998  29.842  30.413  1.00  0.00    -0.354 N 
ATOM     32  N   UNL A   1      41.430  30.559  32.849  1.00  0.00    -0.248 NA
ATOM     33  C   UNL A   1      41.164  31.778  30.879  1.00  0.00     0.031 C 
ATOM     34  C   UNL A   1      45.363  27.964  31.466  1.00  0.00     0.029 A 
ATOM     35  C   UNL A   1      44.620  29.144  31.534  1.00  0.00     0.049 A 
ATOM     36  H   UNL A   1      45.016  30.820  30.314  1.00  0.00     0.167 HD
ATOM     37  C   UNL A   1      42.634  30.512  32.159  1.00  0.00     0.074 A 
ATOM     38  C   UNL A   1      42.429  31.360  30.986  1.00  0.00     0.031 C 
ATOM     39  C   UNL A   1      43.583  29.574  32.451  1.00  0.00     0.031 A 
BRANCH  26  40
ATOM     40  C   UNL A   1      45.171  30.326  27.297  1.00  0.00    -0.014 A 
ATOM     41  C   UNL A   1      46.517  30.676  27.079  1.00  0.00     0.010 A 
ATOM     42  C   UNL A   1      44.194  31.283  26.947  1.00  0.00     0.010 A 
ATOM     43  C   UNL A   1      46.864  31.939  26.578  1.00  0.00     0.020 A 
ATOM     44  C   UNL A   1      44.525  32.524  26.406  1.00  0.00     0.020 A 
ATOM     45  C   UNL A   1      45.863  32.857  26.253  1.00  0.00     0.054 A 
BRANCH  45  46
ATOM     46  S   UNL A   1      46.317  34.516  25.692  1.00  0.00     0.124 S 
ATOM     47  O   UNL A   1      47.750  34.372  25.458  1.00  0.00    -0.237 OA
ATOM     48  O   UNL A   1      45.489  34.675  24.499  1.00  0.00    -0.237 OA
ATOM     49  O   UNL A   1      45.948  35.370  26.819  1.00  0.00    -0.744 OA
ENDBRANCH  45  46
ENDBRANCH  26  40
BRANCH  27  50
ATOM     50  C   UNL A   1      38.002  31.496  31.844  1.00  0.00    -0.014 A 
ATOM     51  C   UNL A   1      36.692  30.999  31.981  1.00  0.00     0.010 A 
ATOM     52  C   UNL A   1      38.186  32.891  31.949  1.00  0.00     0.010 A 
ATOM     53  C   UNL A   1      35.620  31.862  32.274  1.00  0.00     0.020 A 
ATOM     54  C   UNL A   1      37.123  33.756  32.229  1.00  0.00     0.020 A 
ATOM     55  C   UNL A   1      35.847  33.234  32.416  1.00  0.00     0.054 A 
BRANCH  55  56
ATOM     56  S   UNL A   1      34.497  34.315  32.975  1.00  0.00     0.124 S 
ATOM     57  O   UNL A   1      33.350  33.411  32.960  1.00  0.00    -0.237 OA
ATOM     58  O   UNL A   1      34.954  34.734  34.297  1.00  0.00    -0.237 OA
ATOM     59  O   UNL A   1      34.465  35.376  31.970  1.00  0.00    -0.744 OA
ENDBRANCH  55  56
ENDBRANCH  27  50
BRANCH  39  60
ATOM     60  C   UNL A   1      43.420  28.749  33.709  1.00  0.00    -0.014 A 
ATOM     61  C   UNL A   1      42.678  27.551  33.768  1.00  0.00     0.010 A 
ATOM     62  C   UNL A   1      44.178  29.121  34.833  1.00  0.00     0.010 A 
ATOM     63  C   UNL A   1      42.678  26.764  34.932  1.00  0.00     0.020 A 
ATOM     64  C   UNL A   1      44.197  28.332  35.986  1.00  0.00     0.020 A 
ATOM     65  C   UNL A   1      43.440  27.162  36.034  1.00  0.00     0.054 A 
BRANCH  65  66
ATOM     66  S   UNL A   1      43.477  26.118  37.520  1.00  0.00     0.124 S 
ATOM     67  O   UNL A   1      44.167  24.921  37.049  1.00  0.00    -0.237 OA
ATOM     68  O   UNL A   1      44.220  26.939  38.474  1.00  0.00    -0.237 OA
ATOM     69  O   UNL A   1      42.064  25.929  37.848  1.00  0.00    -0.744 OA
ENDBRANCH  65  66
ENDBRANCH  39  60
ENDBRANCH  13  14
ENDBRANCH   6   8
ENDBRANCH   5   6
ENDBRANCH   4   5
ENDBRANCH   3   4
ENDBRANCH   2   3
ENDBRANCH   1   2
BRANCH   1  70
ATOM     70  C   UNL A   1      33.066  21.358  24.625  1.00  0.00     0.188 C 
BRANCH  70  71
ATOM     71  O   UNL A   1      33.642  22.518  24.034  1.00  0.00    -0.376 OA
BRANCH  71  72
ATOM     72  C   UNL A   1      34.522  23.326  24.779  1.00  0.00     0.202 C 
BRANCH  72  73
ATOM     73  C   UNL A   1      33.841  24.168  25.861  1.00  0.00     0.261 C 
BRANCH  73  74
ATOM     74  O   UNL A   1      32.428  24.393  25.725  1.00  0.00    -0.459 OA
BRANCH  74  75
ATOM     75  C   UNL A   1      31.994  25.636  26.102  1.00  0.00     0.370 C 
ATOM     76  O   UNL A   1      31.134  25.831  26.956  1.00  0.00    -0.245 OA
BRANCH  75  77
ATOM     77  C   UNL A   1      32.634  26.748  25.239  1.00  0.00     0.329 C 
BRANCH  77  78
ATOM     78  N   UNL A   1      31.936  26.946  23.933  1.00  0.00    -0.315 N 
ATOM     79  C   UNL A   1      31.919  25.781  23.016  1.00  0.00     0.292 C 
ATOM     80  C   UNL A   1      32.414  28.121  23.182  1.00  0.00     0.292 C 
ATOM     81  H   UNL A   1      30.976  27.096  24.245  1.00  0.00     0.349 HD
ATOM     82  C   UNL A   1      33.208  25.588  22.181  1.00  0.00     0.221 C 
ATOM     83  C   UNL A   1      33.707  27.882  22.388  1.00  0.00     0.221 C 
ATOM     84  O   UNL A   1      33.562  26.784  21.478  1.00  0.00    -0.370 OA
ENDBRANCH  77  78
BRANCH  77  85
ATOM     85  C   UNL A   1      32.638  28.068  25.987  1.00  0.00     0.059 A 
ATOM     86  C   UNL A   1      31.577  28.622  26.740  1.00  0.00     0.145 A 
ATOM     87  C   UNL A   1      33.665  28.987  26.165  1.00  0.00     0.119 A 
ATOM     88  N   UNL A   1      31.914  29.737  27.383  1.00  0.00    -0.181 NA
ATOM     89  N   UNL A   1      33.170  29.994  26.960  1.00  0.00    -0.268 N 
BRANCH  89  90
ATOM     90  C   UNL A   1      33.886  31.160  27.487  1.00  0.00     0.179 C 
BRANCH  90  91
ATOM     91  C   UNL A   1      35.342  30.880  27.803  1.00  0.00    -0.027 A 
ATOM     92  C   UNL A   1      36.214  31.919  28.158  1.00  0.00     0.005 A 
ATOM     93  C   UNL A   1      35.866  29.581  27.699  1.00  0.00     0.005 A 
ATOM     94  C   UNL A   1      37.559  31.656  28.443  1.00  0.00     0.000 A 
ATOM     95  C   UNL A   1      37.205  29.316  27.994  1.00  0.00     0.000 A 
ATOM     96  C   UNL A   1      38.050  30.353  28.372  1.00  0.00     0.000 A 
ENDBRANCH  90  91
ENDBRANCH  89  90
ENDBRANCH  77  85
ENDBRANCH  75  77
ENDBRANCH  74  75
ENDBRANCH  73  74
ENDBRANCH  72  73
ENDBRANCH  71  72
ENDBRANCH  70  71
ENDBRANCH   1  70
TORSDOF 24
ENDMDL
