MODEL 1
REMARK VINA RESULT:      -8.4      0.000      0.000
REMARK SMILES CCCCCCNC(=O)Oc1cccc(-c2ccc([C@@H](C)C(=O)OCCOCCOCCOC(=O)c3ccc(-c4c5nc(c(-c6ccc(S(=O)(=O)[O-])cc6)c6ccc([nH]6)c(-c6ccc(S(=O)(=O)[O-])cc6)c6nc(c(-c7ccc(S(=O)(=O)[O-])cc7)c7ccc4[nH]7)C=C6)C=C5)cc3)cc2C)c1
REMARK SMILES IDX 25 1 24 2 22 3 23 4 20 5 21 6 19 7 16 8 17 9 97 10 18 11
REMARK SMILES IDX 96 12 98 13 15 14 11 15 12 16 99 17 13 18 14 19 10 20 8 21
REMARK SMILES IDX 7 22 9 24 6 25 5 26 4 27 3 28 2 29 1 30 26 31 27 32 28 33
REMARK SMILES IDX 29 34 30 35 31 36 32 37 33 38 34 39 35 40 36 41 37 42 95 43
REMARK SMILES IDX 38 44 94 45 39 46 40 47 41 48 88 49 42 50 93 51 87 52 89 53
REMARK SMILES IDX 43 54 92 55 86 56 85 57 44 59 74 60 55 61 73 62 56 63 59 64
REMARK SMILES IDX 72 65 90 66 57 67 58 68 71 70 91 71 60 72 45 73 46 74 54 75
REMARK SMILES IDX 47 76 53 77 48 78 49 79 50 80 51 81 52 82 75 83 76 84 84 85
REMARK SMILES IDX 77 86 83 87 78 88 79 89 80 90 81 91 82 92 61 93 62 94 70 95
REMARK SMILES IDX 63 96 69 97 64 98 65 99 66 100 67 101 68 102
REMARK H PARENT 7 23 89 58 59 69
REMARK Flexibility Score: inf
ROOT
ATOM      1  C   UNL A   1      43.367  23.468  26.270  1.00  0.00     0.261 C 
ENDROOT
BRANCH   1   2
ATOM      2  O   UNL A   1      42.154  22.810  25.843  1.00  0.00    -0.463 OA
BRANCH   2   3
ATOM      3  C   UNL A   1      40.989  23.362  26.270  1.00  0.00     0.313 C 
ATOM      4  O   UNL A   1      40.811  24.577  26.339  1.00  0.00    -0.252 OA
BRANCH   3   5
ATOM      5  C   UNL A   1      39.876  22.389  26.668  1.00  0.00     0.126 C 
ATOM      6  C   UNL A   1      40.344  20.969  26.344  1.00  0.00     0.025 C 
BRANCH   5   7
ATOM      7  C   UNL A   1      38.433  22.584  26.203  1.00  0.00    -0.034 A 
ATOM      8  C   UNL A   1      35.730  22.825  25.255  1.00  0.00    -0.015 A 
ATOM      9  C   UNL A   1      36.469  23.938  25.710  1.00  0.00     0.009 A 
ATOM     10  C   UNL A   1      36.374  21.570  25.262  1.00  0.00    -0.043 A 
ATOM     11  C   UNL A   1      37.798  23.827  26.159  1.00  0.00     0.005 A 
ATOM     12  C   UNL A   1      37.701  21.468  25.744  1.00  0.00     0.008 A 
ATOM     13  C   UNL A   1      35.706  20.302  24.788  1.00  0.00     0.045 C 
BRANCH   8  14
ATOM     14  C   UNL A   1      34.361  23.028  24.723  1.00  0.00    -0.014 A 
ATOM     15  C   UNL A   1      32.799  23.939  23.094  1.00  0.00     0.133 A 
ATOM     16  C   UNL A   1      31.711  23.526  23.861  1.00  0.00     0.047 A 
ATOM     17  C   UNL A   1      34.115  23.690  23.505  1.00  0.00     0.056 A 
ATOM     18  C   UNL A   1      31.937  22.841  25.050  1.00  0.00     0.004 A 
ATOM     19  C   UNL A   1      33.249  22.602  25.476  1.00  0.00     0.009 A 
BRANCH  15  20
ATOM     20  O   UNL A   1      32.509  24.761  21.989  1.00  0.00    -0.410 OA
BRANCH  20  21
ATOM     21  C   UNL A   1      32.925  26.081  22.010  1.00  0.00     0.412 C 
ATOM     22  N   UNL A   1      31.992  26.937  22.523  1.00  0.00    -0.321 N 
ATOM     23  H   UNL A   1      32.268  27.878  22.621  1.00  0.00     0.167 HD
ATOM     24  O   UNL A   1      34.005  26.498  21.588  1.00  0.00    -0.224 OA
BRANCH  22  25
ATOM     25  C   UNL A   1      30.638  26.615  22.940  1.00  0.00     0.119 C 
BRANCH  25  26
ATOM     26  C   UNL A   1      30.079  27.605  23.963  1.00  0.00     0.021 C 
BRANCH  26  27
ATOM     27  C   UNL A   1      31.067  28.676  24.444  1.00  0.00     0.002 C 
BRANCH  27  28
ATOM     28  C   UNL A   1      31.671  28.451  25.835  1.00  0.00    -0.000 C 
BRANCH  28  29
ATOM     29  C   UNL A   1      31.802  26.989  26.270  1.00  0.00    -0.003 C 
ATOM     30  C   UNL A   1      33.169  26.388  25.973  1.00  0.00     0.004 C 
ENDBRANCH  28  29
ENDBRANCH  27  28
ENDBRANCH  26  27
ENDBRANCH  25  26
ENDBRANCH  22  25
ENDBRANCH  20  21
ENDBRANCH  15  20
ENDBRANCH   8  14
ENDBRANCH   5   7
ENDBRANCH   3   5
ENDBRANCH   2   3
ENDBRANCH   1   2
BRANCH   1  31
ATOM     31  C   UNL A   1      44.540  22.531  26.594  1.00  0.00     0.202 C 
BRANCH  31  32
ATOM     32  O   UNL A   1      45.769  22.750  25.916  1.00  0.00    -0.376 OA
BRANCH  32  33
ATOM     33  C   UNL A   1      45.917  23.901  25.091  1.00  0.00     0.188 C 
BRANCH  33  34
ATOM     34  C   UNL A   1      47.308  24.285  24.570  1.00  0.00     0.188 C 
BRANCH  34  35
ATOM     35  O   UNL A   1      47.444  25.649  24.217  1.00  0.00    -0.376 OA
BRANCH  35  36
ATOM     36  C   UNL A   1      46.972  26.577  25.175  1.00  0.00     0.202 C 
BRANCH  36  37
ATOM     37  C   UNL A   1      46.608  27.928  24.548  1.00  0.00     0.261 C 
BRANCH  37  38
ATOM     38  O   UNL A   1      45.793  28.786  25.371  1.00  0.00    -0.460 OA
BRANCH  38  39
ATOM     39  C   UNL A   1      44.591  28.304  25.750  1.00  0.00     0.338 C 
ATOM     40  O   UNL A   1      43.890  27.507  25.135  1.00  0.00    -0.246 OA
BRANCH  39  41
ATOM     41  C   UNL A   1      44.335  28.720  27.143  1.00  0.00     0.060 A 
ATOM     42  C   UNL A   1      43.854  27.773  28.057  1.00  0.00     0.016 A 
ATOM     43  C   UNL A   1      44.550  30.040  27.545  1.00  0.00     0.016 A 
ATOM     44  C   UNL A   1      43.539  28.152  29.363  1.00  0.00     0.010 A 
ATOM     45  C   UNL A   1      44.222  30.421  28.850  1.00  0.00     0.010 A 
ATOM     46  C   UNL A   1      43.679  29.490  29.755  1.00  0.00    -0.014 A 
BRANCH  46  47
ATOM     47  C   UNL A   1      43.088  29.960  31.033  1.00  0.00     0.031 A 
ATOM     48  C   UNL A   1      41.713  30.574  31.002  1.00  0.00     0.074 A 
ATOM     49  C   UNL A   1      43.747  29.845  32.201  1.00  0.00     0.049 A 
ATOM     50  N   UNL A   1      41.023  31.115  31.973  1.00  0.00    -0.248 NA
ATOM     51  C   UNL A   1      41.028  30.583  29.699  1.00  0.00     0.031 C 
ATOM     52  C   UNL A   1      45.060  29.228  32.377  1.00  0.00     0.029 A 
ATOM     53  N   UNL A   1      43.396  30.256  33.463  1.00  0.00    -0.354 N 
ATOM     54  C   UNL A   1      39.830  31.539  31.397  1.00  0.00     0.074 A 
ATOM     55  C   UNL A   1      39.903  31.219  29.988  1.00  0.00     0.031 C 
ATOM     56  C   UNL A   1      45.410  29.312  33.672  1.00  0.00     0.029 A 
ATOM     57  C   UNL A   1      44.364  30.020  34.410  1.00  0.00     0.049 A 
ATOM     58  H   UNL A   1      42.531  30.682  33.670  1.00  0.00     0.167 HD
ATOM     59  C   UNL A   1      38.768  32.138  31.985  1.00  0.00     0.031 A 
ATOM     60  C   UNL A   1      44.413  30.358  35.715  1.00  0.00     0.031 A 
ATOM     61  C   UNL A   1      38.702  32.472  33.384  1.00  0.00     0.049 A 
ATOM     62  C   UNL A   1      43.251  31.097  36.333  1.00  0.00     0.074 A 
ATOM     63  C   UNL A   1      37.664  33.070  34.076  1.00  0.00     0.029 A 
ATOM     64  N   UNL A   1      39.716  32.245  34.301  1.00  0.00    -0.354 N 
ATOM     65  N   UNL A   1      42.122  31.474  35.780  1.00  0.00    -0.248 NA
ATOM     66  C   UNL A   1      43.368  31.447  37.756  1.00  0.00     0.031 C 
ATOM     67  C   UNL A   1      38.074  33.260  35.399  1.00  0.00     0.029 A 
ATOM     68  C   UNL A   1      39.340  32.715  35.547  1.00  0.00     0.049 A 
ATOM     69  H   UNL A   1      40.577  31.813  34.096  1.00  0.00     0.167 HD
ATOM     70  C   UNL A   1      41.383  32.075  36.796  1.00  0.00     0.074 A 
ATOM     71  C   UNL A   1      42.187  32.000  37.997  1.00  0.00     0.031 C 
ATOM     72  C   UNL A   1      40.148  32.635  36.740  1.00  0.00     0.031 A 
BRANCH  59  73
ATOM     73  C   UNL A   1      37.603  32.506  31.104  1.00  0.00    -0.014 A 
ATOM     74  C   UNL A   1      36.424  31.739  31.094  1.00  0.00     0.010 A 
ATOM     75  C   UNL A   1      37.676  33.657  30.298  1.00  0.00     0.010 A 
ATOM     76  C   UNL A   1      35.356  32.093  30.263  1.00  0.00     0.020 A 
ATOM     77  C   UNL A   1      36.601  34.031  29.489  1.00  0.00     0.020 A 
ATOM     78  C   UNL A   1      35.453  33.236  29.463  1.00  0.00     0.054 A 
BRANCH  78  79
ATOM     79  S   UNL A   1      34.047  33.680  28.408  1.00  0.00     0.124 S 
ATOM     80  O   UNL A   1      34.648  34.653  27.500  1.00  0.00    -0.237 OA
ATOM     81  O   UNL A   1      33.684  32.400  27.805  1.00  0.00    -0.237 OA
ATOM     82  O   UNL A   1      33.067  34.224  29.345  1.00  0.00    -0.744 OA
ENDBRANCH  78  79
ENDBRANCH  59  73
BRANCH  60  83
ATOM     83  C   UNL A   1      45.613  30.020  36.531  1.00  0.00    -0.014 A 
ATOM     84  C   UNL A   1      45.719  28.772  37.169  1.00  0.00     0.010 A 
ATOM     85  C   UNL A   1      46.655  30.954  36.683  1.00  0.00     0.010 A 
ATOM     86  C   UNL A   1      46.834  28.470  37.958  1.00  0.00     0.020 A 
ATOM     87  C   UNL A   1      47.785  30.644  37.445  1.00  0.00     0.020 A 
ATOM     88  C   UNL A   1      47.862  29.408  38.088  1.00  0.00     0.054 A 
BRANCH  88  89
ATOM     89  S   UNL A   1      49.322  28.976  39.076  1.00  0.00     0.124 S 
ATOM     90  O   UNL A   1      49.433  27.540  38.840  1.00  0.00    -0.237 OA
ATOM     91  O   UNL A   1      50.366  29.800  38.472  1.00  0.00    -0.237 OA
ATOM     92  O   UNL A   1      48.942  29.361  40.434  1.00  0.00    -0.744 OA
ENDBRANCH  88  89
ENDBRANCH  60  83
BRANCH  72  93
ATOM     93  C   UNL A   1      39.561  33.169  38.022  1.00  0.00    -0.014 A 
ATOM     94  C   UNL A   1      39.007  32.314  38.990  1.00  0.00     0.010 A 
ATOM     95  C   UNL A   1      39.615  34.552  38.282  1.00  0.00     0.010 A 
ATOM     96  C   UNL A   1      38.482  32.835  40.177  1.00  0.00     0.020 A 
ATOM     97  C   UNL A   1      39.121  35.074  39.479  1.00  0.00     0.020 A 
ATOM     98  C   UNL A   1      38.542  34.213  40.414  1.00  0.00     0.054 A 
BRANCH  98  99
ATOM     99  S   UNL A   1      37.886  34.862  41.976  1.00  0.00     0.124 S 
ATOM    100  O   UNL A   1      38.515  33.983  42.958  1.00  0.00    -0.237 OA
ATOM    101  O   UNL A   1      38.361  36.244  41.974  1.00  0.00    -0.237 OA
ATOM    102  O   UNL A   1      36.440  34.708  41.837  1.00  0.00    -0.744 OA
ENDBRANCH  98  99
ENDBRANCH  72  93
ENDBRANCH  46  47
ENDBRANCH  39  41
ENDBRANCH  38  39
ENDBRANCH  37  38
ENDBRANCH  36  37
ENDBRANCH  35  36
ENDBRANCH  34  35
ENDBRANCH  33  34
ENDBRANCH  32  33
ENDBRANCH  31  32
ENDBRANCH   1  31
TORSDOF 29
ENDMDL
MODEL 2
REMARK VINA RESULT:      -7.5      3.363      4.187
REMARK SMILES CCCCCCNC(=O)Oc1cccc(-c2ccc([C@@H](C)C(=O)OCCOCCOCCOC(=O)c3ccc(-c4c5nc(c(-c6ccc(S(=O)(=O)[O-])cc6)c6ccc([nH]6)c(-c6ccc(S(=O)(=O)[O-])cc6)c6nc(c(-c7ccc(S(=O)(=O)[O-])cc7)c7ccc4[nH]7)C=C6)C=C5)cc3)cc2C)c1
REMARK SMILES IDX 25 1 24 2 22 3 23 4 20 5 21 6 19 7 16 8 17 9 97 10 18 11
REMARK SMILES IDX 96 12 98 13 15 14 11 15 12 16 99 17 13 18 14 19 10 20 8 21
REMARK SMILES IDX 7 22 9 24 6 25 5 26 4 27 3 28 2 29 1 30 26 31 27 32 28 33
REMARK SMILES IDX 29 34 30 35 31 36 32 37 33 38 34 39 35 40 36 41 37 42 95 43
REMARK SMILES IDX 38 44 94 45 39 46 40 47 41 48 88 49 42 50 93 51 87 52 89 53
REMARK SMILES IDX 43 54 92 55 86 56 85 57 44 59 74 60 55 61 73 62 56 63 59 64
REMARK SMILES IDX 72 65 90 66 57 67 58 68 71 70 91 71 60 72 45 73 46 74 54 75
REMARK SMILES IDX 47 76 53 77 48 78 49 79 50 80 51 81 52 82 75 83 76 84 84 85
REMARK SMILES IDX 77 86 83 87 78 88 79 89 80 90 81 91 82 92 61 93 62 94 70 95
REMARK SMILES IDX 63 96 69 97 64 98 65 99 66 100 67 101 68 102
REMARK H PARENT 7 23 89 58 59 69
REMARK Flexibility Score: inf
ROOT
ATOM      1  C   UNL A   1      42.318  24.070  27.178  1.00  0.00     0.261 C 
ENDROOT
BRANCH   1   2
ATOM      2  O   UNL A   1      41.196  23.521  26.452  1.00  0.00    -0.463 OA
BRANCH   2   3
ATOM      3  C   UNL A   1      39.978  24.047  26.740  1.00  0.00     0.313 C 
ATOM      4  O   UNL A   1      39.807  25.239  26.993  1.00  0.00    -0.252 OA
BRANCH   3   5
ATOM      5  C   UNL A   1      38.795  23.076  26.735  1.00  0.00     0.126 C 
ATOM      6  C   UNL A   1      39.305  21.704  26.292  1.00  0.00     0.025 C 
BRANCH   5   7
ATOM      7  C   UNL A   1      37.487  23.406  26.016  1.00  0.00    -0.034 A 
ATOM      8  C   UNL A   1      35.097  24.008  24.537  1.00  0.00    -0.015 A 
ATOM      9  C   UNL A   1      35.271  24.407  25.880  1.00  0.00     0.009 A 
ATOM     10  C   UNL A   1      36.157  23.308  23.924  1.00  0.00    -0.043 A 
ATOM     11  C   UNL A   1      36.446  24.129  26.602  1.00  0.00     0.005 A 
ATOM     12  C   UNL A   1      37.322  23.009  24.671  1.00  0.00     0.008 A 
ATOM     13  C   UNL A   1      36.109  22.837  22.491  1.00  0.00     0.045 C 
BRANCH   8  14
ATOM     14  C   UNL A   1      33.865  24.404  23.814  1.00  0.00    -0.014 A 
ATOM     15  C   UNL A   1      32.515  26.011  22.581  1.00  0.00     0.133 A 
ATOM     16  C   UNL A   1      31.418  25.152  22.601  1.00  0.00     0.047 A 
ATOM     17  C   UNL A   1      33.734  25.649  23.169  1.00  0.00     0.056 A 
ATOM     18  C   UNL A   1      31.542  23.905  23.205  1.00  0.00     0.004 A 
ATOM     19  C   UNL A   1      32.750  23.541  23.809  1.00  0.00     0.009 A 
BRANCH  15  20
ATOM     20  O   UNL A   1      32.282  27.312  22.098  1.00  0.00    -0.410 OA
BRANCH  20  21
ATOM     21  C   UNL A   1      33.188  28.312  22.405  1.00  0.00     0.412 C 
ATOM     22  N   UNL A   1      32.749  29.166  23.377  1.00  0.00    -0.321 N 
ATOM     23  H   UNL A   1      33.387  29.853  23.677  1.00  0.00     0.167 HD
ATOM     24  O   UNL A   1      34.282  28.480  21.861  1.00  0.00    -0.224 OA
BRANCH  22  25
ATOM     25  C   UNL A   1      31.444  29.172  24.016  1.00  0.00     0.119 C 
BRANCH  25  26
ATOM     26  C   UNL A   1      31.525  29.004  25.534  1.00  0.00     0.021 C 
BRANCH  26  27
ATOM     27  C   UNL A   1      32.610  28.039  26.029  1.00  0.00     0.002 C 
BRANCH  27  28
ATOM     28  C   UNL A   1      33.372  28.478  27.285  1.00  0.00    -0.000 C 
BRANCH  28  29
ATOM     29  C   UNL A   1      34.830  28.889  27.065  1.00  0.00    -0.003 C 
ATOM     30  C   UNL A   1      35.235  30.129  27.848  1.00  0.00     0.004 C 
ENDBRANCH  28  29
ENDBRANCH  27  28
ENDBRANCH  26  27
ENDBRANCH  25  26
ENDBRANCH  22  25
ENDBRANCH  20  21
ENDBRANCH  15  20
ENDBRANCH   8  14
ENDBRANCH   5   7
ENDBRANCH   3   5
ENDBRANCH   2   3
ENDBRANCH   1   2
BRANCH   1  31
ATOM     31  C   UNL A   1      43.240  23.035  27.837  1.00  0.00     0.202 C 
BRANCH  31  32
ATOM     32  O   UNL A   1      44.566  22.916  27.341  1.00  0.00    -0.376 OA
BRANCH  32  33
ATOM     33  C   UNL A   1      45.016  23.813  26.330  1.00  0.00     0.188 C 
BRANCH  33  34
ATOM     34  C   UNL A   1      45.554  23.253  25.006  1.00  0.00     0.188 C 
BRANCH  34  35
ATOM     35  O   UNL A   1      46.399  24.139  24.298  1.00  0.00    -0.376 OA
BRANCH  35  36
ATOM     36  C   UNL A   1      47.245  24.945  25.096  1.00  0.00     0.202 C 
BRANCH  36  37
ATOM     37  C   UNL A   1      48.025  25.971  24.265  1.00  0.00     0.261 C 
BRANCH  37  38
ATOM     38  O   UNL A   1      48.219  27.251  24.899  1.00  0.00    -0.460 OA
BRANCH  38  39
ATOM     39  C   UNL A   1      47.185  28.117  24.851  1.00  0.00     0.338 C 
ATOM     40  O   UNL A   1      46.567  28.472  23.854  1.00  0.00    -0.246 OA
BRANCH  39  41
ATOM     41  C   UNL A   1      46.759  28.416  26.233  1.00  0.00     0.060 A 
ATOM     42  C   UNL A   1      45.446  28.111  26.620  1.00  0.00     0.016 A 
ATOM     43  C   UNL A   1      47.638  29.011  27.139  1.00  0.00     0.016 A 
ATOM     44  C   UNL A   1      44.994  28.443  27.898  1.00  0.00     0.010 A 
ATOM     45  C   UNL A   1      47.180  29.356  28.414  1.00  0.00     0.010 A 
ATOM     46  C   UNL A   1      45.846  29.109  28.788  1.00  0.00    -0.014 A 
BRANCH  46  47
ATOM     47  C   UNL A   1      45.303  29.716  30.029  1.00  0.00     0.031 A 
ATOM     48  C   UNL A   1      44.800  31.135  29.971  1.00  0.00     0.074 A 
ATOM     49  C   UNL A   1      45.249  29.031  31.186  1.00  0.00     0.049 A 
ATOM     50  N   UNL A   1      44.347  31.896  30.933  1.00  0.00    -0.248 NA
ATOM     51  C   UNL A   1      44.816  31.782  28.648  1.00  0.00     0.031 C 
ATOM     52  C   UNL A   1      45.656  27.639  31.368  1.00  0.00     0.029 A 
ATOM     53  N   UNL A   1      44.832  29.426  32.434  1.00  0.00    -0.354 N 
ATOM     54  C   UNL A   1      44.036  33.114  30.337  1.00  0.00     0.074 A 
ATOM     55  C   UNL A   1      44.380  32.999  28.936  1.00  0.00     0.031 C 
ATOM     56  C   UNL A   1      45.480  27.299  32.657  1.00  0.00     0.029 A 
ATOM     57  C   UNL A   1      44.983  28.458  33.398  1.00  0.00     0.049 A 
ATOM     58  H   UNL A   1      44.460  30.319  32.620  1.00  0.00     0.167 HD
ATOM     59  C   UNL A   1      43.510  34.227  30.900  1.00  0.00     0.031 A 
ATOM     60  C   UNL A   1      44.770  28.509  34.729  1.00  0.00     0.031 A 
ATOM     61  C   UNL A   1      43.184  34.347  32.297  1.00  0.00     0.049 A 
ATOM     62  C   UNL A   1      44.258  29.785  35.350  1.00  0.00     0.074 A 
ATOM     63  C   UNL A   1      42.637  35.430  32.961  1.00  0.00     0.029 A 
ATOM     64  N   UNL A   1      43.383  33.355  33.245  1.00  0.00    -0.354 N 
ATOM     65  N   UNL A   1      43.951  30.922  34.771  1.00  0.00    -0.248 NA
ATOM     66  C   UNL A   1      44.056  29.781  36.807  1.00  0.00     0.031 C 
ATOM     67  C   UNL A   1      42.561  35.115  34.322  1.00  0.00     0.029 A 
ATOM     68  C   UNL A   1      42.994  33.810  34.493  1.00  0.00     0.049 A 
ATOM     69  H   UNL A   1      43.747  32.459  33.058  1.00  0.00     0.167 HD
ATOM     70  C   UNL A   1      43.489  31.755  35.787  1.00  0.00     0.074 A 
ATOM     71  C   UNL A   1      43.545  30.987  37.013  1.00  0.00     0.031 C 
ATOM     72  C   UNL A   1      43.053  33.037  35.710  1.00  0.00     0.031 A 
BRANCH  59  73
ATOM     73  C   UNL A   1      43.291  35.420  30.008  1.00  0.00    -0.014 A 
ATOM     74  C   UNL A   1      44.243  36.451  29.919  1.00  0.00     0.010 A 
ATOM     75  C   UNL A   1      42.126  35.495  29.221  1.00  0.00     0.010 A 
ATOM     76  C   UNL A   1      44.016  37.554  29.091  1.00  0.00     0.020 A 
ATOM     77  C   UNL A   1      41.910  36.582  28.369  1.00  0.00     0.020 A 
ATOM     78  C   UNL A   1      42.849  37.614  28.323  1.00  0.00     0.054 A 
BRANCH  78  79
ATOM     79  S   UNL A   1      42.590  39.049  27.246  1.00  0.00     0.124 S 
ATOM     80  O   UNL A   1      43.880  39.152  26.567  1.00  0.00    -0.237 OA
ATOM     81  O   UNL A   1      41.473  38.621  26.407  1.00  0.00    -0.237 OA
ATOM     82  O   UNL A   1      42.287  40.133  28.177  1.00  0.00    -0.744 OA
ENDBRANCH  78  79
ENDBRANCH  59  73
BRANCH  60  83
ATOM     83  C   UNL A   1      45.055  27.318  35.578  1.00  0.00    -0.014 A 
ATOM     84  C   UNL A   1      44.019  26.457  35.981  1.00  0.00     0.010 A 
ATOM     85  C   UNL A   1      46.370  27.044  35.999  1.00  0.00     0.010 A 
ATOM     86  C   UNL A   1      44.288  25.357  36.801  1.00  0.00     0.020 A 
ATOM     87  C   UNL A   1      46.648  25.928  36.794  1.00  0.00     0.020 A 
ATOM     88  C   UNL A   1      45.603  25.098  37.200  1.00  0.00     0.054 A 
BRANCH  88  89
ATOM     89  S   UNL A   1      45.934  23.637  38.225  1.00  0.00     0.124 S 
ATOM     90  O   UNL A   1      45.513  22.550  37.348  1.00  0.00    -0.237 OA
ATOM     91  O   UNL A   1      47.373  23.739  38.460  1.00  0.00    -0.237 OA
ATOM     92  O   UNL A   1      45.101  23.850  39.405  1.00  0.00    -0.744 OA
ENDBRANCH  88  89
ENDBRANCH  60  83
BRANCH  72  93
ATOM     93  C   UNL A   1      42.553  33.685  36.977  1.00  0.00    -0.014 A 
ATOM     94  C   UNL A   1      43.384  34.503  37.763  1.00  0.00     0.010 A 
ATOM     95  C   UNL A   1      41.209  33.511  37.358  1.00  0.00     0.010 A 
ATOM     96  C   UNL A   1      42.890  35.102  38.926  1.00  0.00     0.020 A 
ATOM     97  C   UNL A   1      40.703  34.133  38.501  1.00  0.00     0.020 A 
ATOM     98  C   UNL A   1      41.553  34.913  39.288  1.00  0.00     0.054 A 
BRANCH  98  99
ATOM     99  S   UNL A   1      40.926  35.729  40.782  1.00  0.00     0.124 S 
ATOM    100  O   UNL A   1      42.094  35.696  41.659  1.00  0.00    -0.237 OA
ATOM    101  O   UNL A   1      40.547  37.052  40.291  1.00  0.00    -0.237 OA
ATOM    102  O   UNL A   1      39.810  34.884  41.199  1.00  0.00    -0.744 OA
ENDBRANCH  98  99
ENDBRANCH  72  93
ENDBRANCH  46  47
ENDBRANCH  39  41
ENDBRANCH  38  39
ENDBRANCH  37  38
ENDBRANCH  36  37
ENDBRANCH  35  36
ENDBRANCH  34  35
ENDBRANCH  33  34
ENDBRANCH  32  33
ENDBRANCH  31  32
ENDBRANCH   1  31
TORSDOF 29
ENDMDL
MODEL 3
REMARK VINA RESULT:      -7.1      4.117     12.949
REMARK SMILES CCCCCCNC(=O)Oc1cccc(-c2ccc([C@@H](C)C(=O)OCCOCCOCCOC(=O)c3ccc(-c4c5nc(c(-c6ccc(S(=O)(=O)[O-])cc6)c6ccc([nH]6)c(-c6ccc(S(=O)(=O)[O-])cc6)c6nc(c(-c7ccc(S(=O)(=O)[O-])cc7)c7ccc4[nH]7)C=C6)C=C5)cc3)cc2C)c1
REMARK SMILES IDX 25 1 24 2 22 3 23 4 20 5 21 6 19 7 16 8 17 9 97 10 18 11
REMARK SMILES IDX 96 12 98 13 15 14 11 15 12 16 99 17 13 18 14 19 10 20 8 21
REMARK SMILES IDX 7 22 9 24 6 25 5 26 4 27 3 28 2 29 1 30 26 31 27 32 28 33
REMARK SMILES IDX 29 34 30 35 31 36 32 37 33 38 34 39 35 40 36 41 37 42 95 43
REMARK SMILES IDX 38 44 94 45 39 46 40 47 41 48 88 49 42 50 93 51 87 52 89 53
REMARK SMILES IDX 43 54 92 55 86 56 85 57 44 59 74 60 55 61 73 62 56 63 59 64
REMARK SMILES IDX 72 65 90 66 57 67 58 68 71 70 91 71 60 72 45 73 46 74 54 75
REMARK SMILES IDX 47 76 53 77 48 78 49 79 50 80 51 81 52 82 75 83 76 84 84 85
REMARK SMILES IDX 77 86 83 87 78 88 79 89 80 90 81 91 82 92 61 93 62 94 70 95
REMARK SMILES IDX 63 96 69 97 64 98 65 99 66 100 67 101 68 102
REMARK H PARENT 7 23 89 58 59 69
REMARK Flexibility Score: inf
ROOT
ATOM      1  C   UNL A   1      32.136  31.435  27.419  1.00  0.00     0.261 C 
ENDROOT
BRANCH   1   2
ATOM      2  O   UNL A   1      33.254  32.282  27.767  1.00  0.00    -0.463 OA
BRANCH   2   3
ATOM      3  C   UNL A   1      32.976  33.599  27.949  1.00  0.00     0.313 C 
ATOM      4  O   UNL A   1      31.997  34.151  27.450  1.00  0.00    -0.252 OA
BRANCH   3   5
ATOM      5  C   UNL A   1      33.951  34.388  28.825  1.00  0.00     0.126 C 
ATOM      6  C   UNL A   1      34.923  35.133  27.908  1.00  0.00     0.025 C 
BRANCH   5   7
ATOM      7  C   UNL A   1      34.716  33.730  29.973  1.00  0.00    -0.034 A 
ATOM      8  C   UNL A   1      36.081  32.578  32.226  1.00  0.00    -0.015 A 
ATOM      9  C   UNL A   1      36.599  32.504  30.914  1.00  0.00     0.009 A 
ATOM     10  C   UNL A   1      34.861  33.263  32.405  1.00  0.00    -0.043 A 
ATOM     11  C   UNL A   1      35.942  33.081  29.812  1.00  0.00     0.005 A 
ATOM     12  C   UNL A   1      34.196  33.813  31.284  1.00  0.00     0.008 A 
ATOM     13  C   UNL A   1      34.205  33.430  33.755  1.00  0.00     0.045 C 
BRANCH   8  14
ATOM     14  C   UNL A   1      36.866  32.016  33.351  1.00  0.00    -0.014 A 
ATOM     15  C   UNL A   1      37.866  32.167  35.565  1.00  0.00     0.133 A 
ATOM     16  C   UNL A   1      38.520  30.950  35.386  1.00  0.00     0.047 A 
ATOM     17  C   UNL A   1      37.037  32.701  34.569  1.00  0.00     0.056 A 
ATOM     18  C   UNL A   1      38.334  30.245  34.202  1.00  0.00     0.004 A 
ATOM     19  C   UNL A   1      37.522  30.777  33.195  1.00  0.00     0.009 A 
BRANCH  15  20
ATOM     20  O   UNL A   1      38.217  32.903  36.711  1.00  0.00    -0.410 OA
BRANCH  20  21
ATOM     21  C   UNL A   1      37.643  32.566  37.925  1.00  0.00     0.412 C 
ATOM     22  N   UNL A   1      37.988  33.408  38.943  1.00  0.00    -0.321 N 
ATOM     23  H   UNL A   1      37.551  33.248  39.811  1.00  0.00     0.167 HD
ATOM     24  O   UNL A   1      36.914  31.592  38.126  1.00  0.00    -0.224 OA
BRANCH  22  25
ATOM     25  C   UNL A   1      38.929  34.514  38.889  1.00  0.00     0.119 C 
BRANCH  25  26
ATOM     26  C   UNL A   1      39.026  35.278  40.210  1.00  0.00     0.021 C 
BRANCH  26  27
ATOM     27  C   UNL A   1      38.805  36.792  40.109  1.00  0.00     0.002 C 
BRANCH  27  28
ATOM     28  C   UNL A   1      39.838  37.564  39.279  1.00  0.00    -0.000 C 
BRANCH  28  29
ATOM     29  C   UNL A   1      40.738  38.520  40.067  1.00  0.00    -0.003 C 
ATOM     30  C   UNL A   1      42.221  38.206  39.933  1.00  0.00     0.004 C 
ENDBRANCH  28  29
ENDBRANCH  27  28
ENDBRANCH  26  27
ENDBRANCH  25  26
ENDBRANCH  22  25
ENDBRANCH  20  21
ENDBRANCH  15  20
ENDBRANCH   8  14
ENDBRANCH   5   7
ENDBRANCH   3   5
ENDBRANCH   2   3
ENDBRANCH   1   2
BRANCH   1  31
ATOM     31  C   UNL A   1      31.789  31.391  25.924  1.00  0.00     0.202 C 
BRANCH  31  32
ATOM     32  O   UNL A   1      30.935  30.349  25.473  1.00  0.00    -0.376 OA
BRANCH  32  33
ATOM     33  C   UNL A   1      31.498  29.226  24.801  1.00  0.00     0.188 C 
BRANCH  33  34
ATOM     34  C   UNL A   1      32.986  29.237  24.427  1.00  0.00     0.188 C 
BRANCH  34  35
ATOM     35  O   UNL A   1      33.753  28.227  25.055  1.00  0.00    -0.376 OA
BRANCH  35  36
ATOM     36  C   UNL A   1      33.353  27.884  26.368  1.00  0.00     0.202 C 
BRANCH  36  37
ATOM     37  C   UNL A   1      33.992  28.789  27.427  1.00  0.00     0.261 C 
BRANCH  37  38
ATOM     38  O   UNL A   1      35.431  28.861  27.383  1.00  0.00    -0.460 OA
BRANCH  38  39
ATOM     39  C   UNL A   1      35.990  30.053  27.679  1.00  0.00     0.338 C 
ATOM     40  O   UNL A   1      35.486  31.160  27.531  1.00  0.00    -0.246 OA
BRANCH  39  41
ATOM     41  C   UNL A   1      37.244  29.813  28.422  1.00  0.00     0.060 A 
ATOM     42  C   UNL A   1      38.301  30.723  28.280  1.00  0.00     0.016 A 
ATOM     43  C   UNL A   1      37.386  28.691  29.239  1.00  0.00     0.016 A 
ATOM     44  C   UNL A   1      39.521  30.488  28.917  1.00  0.00     0.010 A 
ATOM     45  C   UNL A   1      38.613  28.449  29.865  1.00  0.00     0.010 A 
ATOM     46  C   UNL A   1      39.698  29.325  29.678  1.00  0.00    -0.014 A 
BRANCH  46  47
ATOM     47  C   UNL A   1      41.057  28.922  30.120  1.00  0.00     0.031 A 
ATOM     48  C   UNL A   1      41.690  29.671  31.264  1.00  0.00     0.074 A 
ATOM     49  C   UNL A   1      41.721  27.911  29.530  1.00  0.00     0.049 A 
ATOM     50  N   UNL A   1      42.886  29.546  31.778  1.00  0.00    -0.248 NA
ATOM     51  C   UNL A   1      40.862  30.704  31.908  1.00  0.00     0.031 C 
ATOM     52  C   UNL A   1      41.205  27.074  28.448  1.00  0.00     0.029 A 
ATOM     53  N   UNL A   1      42.985  27.424  29.759  1.00  0.00    -0.354 N 
ATOM     54  C   UNL A   1      42.959  30.491  32.796  1.00  0.00     0.074 A 
ATOM     55  C   UNL A   1      41.698  31.200  32.807  1.00  0.00     0.031 C 
ATOM     56  C   UNL A   1      42.150  26.184  28.098  1.00  0.00     0.029 A 
ATOM     57  C   UNL A   1      43.349  26.411  28.905  1.00  0.00     0.049 A 
ATOM     58  H   UNL A   1      43.575  27.770  30.468  1.00  0.00     0.167 HD
ATOM     59  C   UNL A   1      43.980  30.745  33.649  1.00  0.00     0.031 A 
ATOM     60  C   UNL A   1      44.522  25.758  28.771  1.00  0.00     0.031 A 
ATOM     61  C   UNL A   1      45.241  30.050  33.627  1.00  0.00     0.049 A 
ATOM     62  C   UNL A   1      45.674  26.112  29.680  1.00  0.00     0.074 A 
ATOM     63  C   UNL A   1      46.334  30.228  34.457  1.00  0.00     0.029 A 
ATOM     64  N   UNL A   1      45.581  29.054  32.726  1.00  0.00    -0.354 N 
ATOM     65  N   UNL A   1      45.723  26.994  30.650  1.00  0.00    -0.248 NA
ATOM     66  C   UNL A   1      46.930  25.373  29.477  1.00  0.00     0.031 C 
ATOM     67  C   UNL A   1      47.357  29.382  34.019  1.00  0.00     0.029 A 
ATOM     68  C   UNL A   1      46.876  28.625  32.962  1.00  0.00     0.049 A 
ATOM     69  H   UNL A   1      44.988  28.702  32.022  1.00  0.00     0.167 HD
ATOM     70  C   UNL A   1      47.000  26.892  31.195  1.00  0.00     0.074 A 
ATOM     71  C   UNL A   1      47.688  25.855  30.454  1.00  0.00     0.031 C 
ATOM     72  C   UNL A   1      47.552  27.590  32.219  1.00  0.00     0.031 A 
BRANCH  59  73
ATOM     73  C   UNL A   1      43.787  31.849  34.654  1.00  0.00    -0.014 A 
ATOM     74  C   UNL A   1      44.169  33.173  34.368  1.00  0.00     0.010 A 
ATOM     75  C   UNL A   1      43.184  31.564  35.894  1.00  0.00     0.010 A 
ATOM     76  C   UNL A   1      43.989  34.182  35.319  1.00  0.00     0.020 A 
ATOM     77  C   UNL A   1      42.976  32.576  36.834  1.00  0.00     0.020 A 
ATOM     78  C   UNL A   1      43.396  33.876  36.548  1.00  0.00     0.054 A 
BRANCH  78  79
ATOM     79  S   UNL A   1      43.161  35.209  37.754  1.00  0.00     0.124 S 
ATOM     80  O   UNL A   1      42.160  36.042  37.091  1.00  0.00    -0.237 OA
ATOM     81  O   UNL A   1      42.694  34.491  38.937  1.00  0.00    -0.237 OA
ATOM     82  O   UNL A   1      44.488  35.807  37.875  1.00  0.00    -0.744 OA
ENDBRANCH  78  79
ENDBRANCH  59  73
BRANCH  60  83
ATOM     83  C   UNL A   1      44.681  24.711  27.723  1.00  0.00    -0.014 A 
ATOM     84  C   UNL A   1      45.193  25.035  26.455  1.00  0.00     0.010 A 
ATOM     85  C   UNL A   1      44.307  23.380  27.988  1.00  0.00     0.010 A 
ATOM     86  C   UNL A   1      45.312  24.054  25.465  1.00  0.00     0.020 A 
ATOM     87  C   UNL A   1      44.454  22.390  27.011  1.00  0.00     0.020 A 
ATOM     88  C   UNL A   1      44.944  22.736  25.752  1.00  0.00     0.054 A 
BRANCH  88  89
ATOM     89  S   UNL A   1      45.154  21.471  24.467  1.00  0.00     0.124 S 
ATOM     90  O   UNL A   1      44.280  20.405  24.945  1.00  0.00    -0.237 OA
ATOM     91  O   UNL A   1      44.704  22.167  23.264  1.00  0.00    -0.237 OA
ATOM     92  O   UNL A   1      46.584  21.174  24.509  1.00  0.00    -0.744 OA
ENDBRANCH  88  89
ENDBRANCH  60  83
BRANCH  72  93
ATOM     93  C   UNL A   1      48.955  27.228  32.638  1.00  0.00    -0.014 A 
ATOM     94  C   UNL A   1      49.202  26.222  33.589  1.00  0.00     0.010 A 
ATOM     95  C   UNL A   1      50.046  27.874  32.029  1.00  0.00     0.010 A 
ATOM     96  C   UNL A   1      50.514  25.897  33.950  1.00  0.00     0.020 A 
ATOM     97  C   UNL A   1      51.359  27.531  32.362  1.00  0.00     0.020 A 
ATOM     98  C   UNL A   1      51.584  26.554  33.334  1.00  0.00     0.054 A 
BRANCH  98  99
ATOM     99  S   UNL A   1      53.277  26.091  33.793  1.00  0.00     0.124 S 
ATOM    100  O   UNL A   1      53.736  27.282  34.504  1.00  0.00    -0.237 OA
ATOM    101  O   UNL A   1      53.071  24.905  34.622  1.00  0.00    -0.237 OA
ATOM    102  O   UNL A   1      53.930  25.840  32.511  1.00  0.00    -0.744 OA
ENDBRANCH  98  99
ENDBRANCH  72  93
ENDBRANCH  46  47
ENDBRANCH  39  41
ENDBRANCH  38  39
ENDBRANCH  37  38
ENDBRANCH  36  37
ENDBRANCH  35  36
ENDBRANCH  34  35
ENDBRANCH  33  34
ENDBRANCH  32  33
ENDBRANCH  31  32
ENDBRANCH   1  31
TORSDOF 29
ENDMDL
