MODEL 1
REMARK VINA RESULT:     -10.3      0.000      0.000
REMARK SMILES CN1C(=O)[C@@H]2CC=CC[C@]2(C(=O)OCCOCCOCCOC(=O)c2ccc(-c3c4nc(c(-c5ccc(S(=O)(=O)[O-])cc5)c5ccc([nH]5)c(-c5ccc(S(=O)(=O)[O-])cc5)c5nc(c(-c6ccc(S(=O)(=O)[O-])cc6)c6ccc3[nH]6)C=C5)C=C4)cc2)[C@H]1c1ccccc1
REMARK SMILES IDX 18 1 17 2 16 3 15 4 14 5 13 6 11 7 12 8 10 9 1 10 2 11 3 12
REMARK SMILES IDX 85 13 4 14 5 15 6 16 9 17 7 18 8 19 86 20 87 21 91 22 88 23
REMARK SMILES IDX 90 24 89 25 19 26 20 27 21 28 22 29 23 30 24 31 25 32 26 33
REMARK SMILES IDX 84 34 27 35 83 36 28 37 29 38 30 39 77 40 31 41 82 42 76 43
REMARK SMILES IDX 78 44 32 45 81 46 75 47 74 48 33 50 63 51 44 52 62 53 45 54
REMARK SMILES IDX 48 55 61 56 79 57 46 58 47 59 60 61 80 62 49 63 34 64 35 65
REMARK SMILES IDX 43 66 36 67 42 68 37 69 38 70 39 71 40 72 41 73 64 74 65 75
REMARK SMILES IDX 73 76 66 77 72 78 67 79 68 80 69 81 70 82 71 83 50 84 51 85
REMARK SMILES IDX 59 86 52 87 58 88 53 89 54 90 55 91 56 92 57 93
REMARK H PARENT 78 49 48 60
REMARK Flexibility Score: inf
ROOT
ATOM      1  C   UNL A   1      33.645  31.649  27.851  1.00  0.00     0.188 C 
ENDROOT
BRANCH   1   2
ATOM      2  C   UNL A   1      32.950  30.401  27.248  1.00  0.00     0.188 C 
BRANCH   2   3
ATOM      3  O   UNL A   1      33.241  30.117  25.873  1.00  0.00    -0.376 OA
BRANCH   3   4
ATOM      4  C   UNL A   1      32.950  28.792  25.445  1.00  0.00     0.202 C 
BRANCH   4   5
ATOM      5  C   UNL A   1      33.784  28.414  24.208  1.00  0.00     0.261 C 
BRANCH   5   6
ATOM      6  O   UNL A   1      34.002  26.996  24.201  1.00  0.00    -0.463 OA
BRANCH   6   7
ATOM      7  C   UNL A   1      33.438  26.125  23.279  1.00  0.00     0.315 C 
ATOM      8  O   UNL A   1      33.855  25.905  22.156  1.00  0.00    -0.251 OA
BRANCH   7   9
ATOM      9  C   UNL A   1      32.287  25.391  24.039  1.00  0.00     0.108 C 
ATOM     10  C   UNL A   1      32.639  21.825  25.444  1.00  0.00     0.147 C 
ATOM     11  N   UNL A   1      32.317  23.212  25.151  1.00  0.00    -0.337 N 
ATOM     12  C   UNL A   1      31.911  24.095  26.117  1.00  0.00     0.227 C 
ATOM     13  C   UNL A   1      32.867  23.898  24.016  1.00  0.00     0.133 C 
ATOM     14  O   UNL A   1      31.658  23.788  27.274  1.00  0.00    -0.275 OA
ATOM     15  C   UNL A   1      31.834  25.512  25.538  1.00  0.00     0.102 C 
ATOM     16  C   UNL A   1      30.355  25.925  25.876  1.00  0.00     0.041 C 
ATOM     17  C   UNL A   1      31.195  26.112  23.196  1.00  0.00     0.049 C 
ATOM     18  C   UNL A   1      29.364  26.012  24.762  1.00  0.00    -0.030 C 
ATOM     19  C   UNL A   1      29.758  26.044  23.496  1.00  0.00    -0.030 C 
BRANCH  13  20
ATOM     20  C   UNL A   1      34.431  23.864  24.174  1.00  0.00    -0.024 A 
ATOM     21  C   UNL A   1      35.233  23.206  23.216  1.00  0.00     0.006 A 
ATOM     22  C   UNL A   1      35.029  24.254  25.383  1.00  0.00     0.006 A 
ATOM     23  C   UNL A   1      36.512  22.758  23.542  1.00  0.00     0.000 A 
ATOM     24  C   UNL A   1      36.326  23.828  25.693  1.00  0.00     0.000 A 
ATOM     25  C   UNL A   1      37.045  23.039  24.795  1.00  0.00     0.000 A 
ENDBRANCH  13  20
ENDBRANCH   7   9
ENDBRANCH   6   7
ENDBRANCH   5   6
ENDBRANCH   4   5
ENDBRANCH   3   4
ENDBRANCH   2   3
ENDBRANCH   1   2
BRANCH   1  26
ATOM     26  O   UNL A   1      34.874  32.088  27.293  1.00  0.00    -0.376 OA
BRANCH  26  27
ATOM     27  C   UNL A   1      35.823  32.669  28.167  1.00  0.00     0.202 C 
BRANCH  27  28
ATOM     28  C   UNL A   1      36.760  31.763  28.989  1.00  0.00     0.261 C 
BRANCH  28  29
ATOM     29  O   UNL A   1      36.772  30.373  28.611  1.00  0.00    -0.460 OA
BRANCH  29  30
ATOM     30  C   UNL A   1      37.379  29.537  29.503  1.00  0.00     0.338 C 
ATOM     31  O   UNL A   1      36.865  29.035  30.478  1.00  0.00    -0.246 OA
BRANCH  30  32
ATOM     32  C   UNL A   1      38.729  29.144  29.013  1.00  0.00     0.060 A 
ATOM     33  C   UNL A   1      39.659  28.694  29.962  1.00  0.00     0.016 A 
ATOM     34  C   UNL A   1      39.107  29.259  27.674  1.00  0.00     0.016 A 
ATOM     35  C   UNL A   1      40.978  28.417  29.588  1.00  0.00     0.010 A 
ATOM     36  C   UNL A   1      40.434  28.988  27.302  1.00  0.00     0.010 A 
ATOM     37  C   UNL A   1      41.389  28.604  28.263  1.00  0.00    -0.014 A 
BRANCH  37  38
ATOM     38  C   UNL A   1      42.845  28.626  27.947  1.00  0.00     0.031 A 
ATOM     39  C   UNL A   1      43.461  27.382  27.353  1.00  0.00     0.074 A 
ATOM     40  C   UNL A   1      43.608  29.722  28.121  1.00  0.00     0.049 A 
ATOM     41  N   UNL A   1      44.696  27.160  26.980  1.00  0.00    -0.248 NA
ATOM     42  C   UNL A   1      42.557  26.237  27.153  1.00  0.00     0.031 C 
ATOM     43  C   UNL A   1      43.147  31.010  28.634  1.00  0.00     0.029 A 
ATOM     44  N   UNL A   1      44.949  29.920  27.878  1.00  0.00    -0.354 N 
ATOM     45  C   UNL A   1      44.717  25.854  26.504  1.00  0.00     0.074 A 
ATOM     46  C   UNL A   1      43.382  25.322  26.668  1.00  0.00     0.031 C 
ATOM     47  C   UNL A   1      44.187  31.864  28.669  1.00  0.00     0.029 A 
ATOM     48  C   UNL A   1      45.395  31.179  28.210  1.00  0.00     0.049 A 
ATOM     49  H   UNL A   1      45.534  29.225  27.499  1.00  0.00     0.167 HD
ATOM     50  C   UNL A   1      45.747  25.157  25.968  1.00  0.00     0.031 A 
ATOM     51  C   UNL A   1      46.635  31.713  28.163  1.00  0.00     0.031 A 
ATOM     52  C   UNL A   1      47.085  25.667  25.821  1.00  0.00     0.049 A 
ATOM     53  C   UNL A   1      47.789  30.886  27.643  1.00  0.00     0.074 A 
ATOM     54  C   UNL A   1      48.193  25.029  25.288  1.00  0.00     0.029 A 
ATOM     55  N   UNL A   1      47.502  26.928  26.214  1.00  0.00    -0.354 N 
ATOM     56  N   UNL A   1      47.786  29.661  27.175  1.00  0.00    -0.248 NA
ATOM     57  C   UNL A   1      49.114  31.527  27.633  1.00  0.00     0.031 C 
ATOM     58  C   UNL A   1      49.294  25.881  25.418  1.00  0.00     0.029 A 
ATOM     59  C   UNL A   1      48.855  27.078  25.961  1.00  0.00     0.049 A 
ATOM     60  H   UNL A   1      46.923  27.615  26.615  1.00  0.00     0.167 HD
ATOM     61  C   UNL A   1      49.096  29.401  26.777  1.00  0.00     0.074 A 
ATOM     62  C   UNL A   1      49.861  30.599  27.049  1.00  0.00     0.031 C 
ATOM     63  C   UNL A   1      49.616  28.274  26.227  1.00  0.00     0.031 A 
BRANCH  50  64
ATOM     64  C   UNL A   1      45.473  23.740  25.534  1.00  0.00    -0.014 A 
ATOM     65  C   UNL A   1      45.601  22.663  26.431  1.00  0.00     0.010 A 
ATOM     66  C   UNL A   1      45.048  23.487  24.217  1.00  0.00     0.010 A 
ATOM     67  C   UNL A   1      45.349  21.356  26.005  1.00  0.00     0.020 A 
ATOM     68  C   UNL A   1      44.764  22.186  23.797  1.00  0.00     0.020 A 
ATOM     69  C   UNL A   1      44.933  21.126  24.691  1.00  0.00     0.054 A 
BRANCH  69  70
ATOM     70  S   UNL A   1      44.593  19.421  24.172  1.00  0.00     0.124 S 
ATOM     71  O   UNL A   1      44.630  19.536  22.716  1.00  0.00    -0.237 OA
ATOM     72  O   UNL A   1      45.699  18.679  24.772  1.00  0.00    -0.237 OA
ATOM     73  O   UNL A   1      43.277  19.141  24.740  1.00  0.00    -0.744 OA
ENDBRANCH  69  70
ENDBRANCH  50  64
BRANCH  51  74
ATOM     74  C   UNL A   1      46.871  33.109  28.635  1.00  0.00    -0.014 A 
ATOM     75  C   UNL A   1      47.130  34.148  27.723  1.00  0.00     0.010 A 
ATOM     76  C   UNL A   1      46.876  33.399  30.012  1.00  0.00     0.010 A 
ATOM     77  C   UNL A   1      47.414  35.441  28.178  1.00  0.00     0.020 A 
ATOM     78  C   UNL A   1      47.128  34.696  30.470  1.00  0.00     0.020 A 
ATOM     79  C   UNL A   1      47.409  35.707  29.549  1.00  0.00     0.054 A 
BRANCH  79  80
ATOM     80  S   UNL A   1      47.740  37.400  30.116  1.00  0.00     0.124 S 
ATOM     81  O   UNL A   1      48.989  37.712  29.428  1.00  0.00    -0.237 OA
ATOM     82  O   UNL A   1      46.561  38.123  29.649  1.00  0.00    -0.237 OA
ATOM     83  O   UNL A   1      47.844  37.260  31.566  1.00  0.00    -0.744 OA
ENDBRANCH  79  80
ENDBRANCH  51  74
BRANCH  63  84
ATOM     84  C   UNL A   1      51.070  28.292  25.820  1.00  0.00    -0.014 A 
ATOM     85  C   UNL A   1      51.479  28.711  24.542  1.00  0.00     0.010 A 
ATOM     86  C   UNL A   1      52.052  27.921  26.759  1.00  0.00     0.010 A 
ATOM     87  C   UNL A   1      52.834  28.715  24.196  1.00  0.00     0.020 A 
ATOM     88  C   UNL A   1      53.410  27.955  26.429  1.00  0.00     0.020 A 
ATOM     89  C   UNL A   1      53.792  28.334  25.141  1.00  0.00     0.054 A 
BRANCH  89  90
ATOM     90  S   UNL A   1      55.546  28.368  24.676  1.00  0.00     0.124 S 
ATOM     91  O   UNL A   1      55.600  27.357  23.624  1.00  0.00    -0.237 OA
ATOM     92  O   UNL A   1      55.733  29.747  24.233  1.00  0.00    -0.237 OA
ATOM     93  O   UNL A   1      56.240  28.017  25.913  1.00  0.00    -0.744 OA
ENDBRANCH  89  90
ENDBRANCH  63  84
ENDBRANCH  37  38
ENDBRANCH  30  32
ENDBRANCH  29  30
ENDBRANCH  28  29
ENDBRANCH  27  28
ENDBRANCH  26  27
ENDBRANCH   1  26
TORSDOF 21
ENDMDL
MODEL 2
REMARK VINA RESULT:     -10.2      4.370      9.365
REMARK SMILES CN1C(=O)[C@@H]2CC=CC[C@]2(C(=O)OCCOCCOCCOC(=O)c2ccc(-c3c4nc(c(-c5ccc(S(=O)(=O)[O-])cc5)c5ccc([nH]5)c(-c5ccc(S(=O)(=O)[O-])cc5)c5nc(c(-c6ccc(S(=O)(=O)[O-])cc6)c6ccc3[nH]6)C=C5)C=C4)cc2)[C@H]1c1ccccc1
REMARK SMILES IDX 18 1 17 2 16 3 15 4 14 5 13 6 11 7 12 8 10 9 1 10 2 11 3 12
REMARK SMILES IDX 85 13 4 14 5 15 6 16 9 17 7 18 8 19 86 20 87 21 91 22 88 23
REMARK SMILES IDX 90 24 89 25 19 26 20 27 21 28 22 29 23 30 24 31 25 32 26 33
REMARK SMILES IDX 84 34 27 35 83 36 28 37 29 38 30 39 77 40 31 41 82 42 76 43
REMARK SMILES IDX 78 44 32 45 81 46 75 47 74 48 33 50 63 51 44 52 62 53 45 54
REMARK SMILES IDX 48 55 61 56 79 57 46 58 47 59 60 61 80 62 49 63 34 64 35 65
REMARK SMILES IDX 43 66 36 67 42 68 37 69 38 70 39 71 40 72 41 73 64 74 65 75
REMARK SMILES IDX 73 76 66 77 72 78 67 79 68 80 69 81 70 82 71 83 50 84 51 85
REMARK SMILES IDX 59 86 52 87 58 88 53 89 54 90 55 91 56 92 57 93
REMARK H PARENT 78 49 48 60
REMARK Flexibility Score: inf
ROOT
ATOM      1  C   UNL A   1      35.327  20.676  25.278  1.00  0.00     0.188 C 
ENDROOT
BRANCH   1   2
ATOM      2  C   UNL A   1      33.838  20.325  25.525  1.00  0.00     0.188 C 
BRANCH   2   3
ATOM      3  O   UNL A   1      33.358  20.507  26.865  1.00  0.00    -0.376 OA
BRANCH   3   4
ATOM      4  C   UNL A   1      33.638  21.772  27.451  1.00  0.00     0.202 C 
BRANCH   4   5
ATOM      5  C   UNL A   1      32.357  22.614  27.588  1.00  0.00     0.261 C 
BRANCH   5   6
ATOM      6  O   UNL A   1      32.215  23.449  26.430  1.00  0.00    -0.463 OA
BRANCH   6   7
ATOM      7  C   UNL A   1      33.269  24.106  25.809  1.00  0.00     0.315 C 
ATOM      8  O   UNL A   1      34.352  24.352  26.309  1.00  0.00    -0.251 OA
BRANCH   7   9
ATOM      9  C   UNL A   1      32.829  24.300  24.322  1.00  0.00     0.108 C 
ATOM     10  C   UNL A   1      31.393  27.606  22.971  1.00  0.00     0.147 C 
ATOM     11  N   UNL A   1      32.045  26.327  23.198  1.00  0.00    -0.337 N 
ATOM     12  C   UNL A   1      33.115  25.901  22.454  1.00  0.00     0.227 C 
ATOM     13  C   UNL A   1      31.998  25.662  24.470  1.00  0.00     0.133 C 
ATOM     14  O   UNL A   1      33.543  26.479  21.464  1.00  0.00    -0.275 OA
ATOM     15  C   UNL A   1      33.695  24.615  23.050  1.00  0.00     0.102 C 
ATOM     16  C   UNL A   1      33.658  23.636  21.820  1.00  0.00     0.041 C 
ATOM     17  C   UNL A   1      32.398  22.809  24.197  1.00  0.00     0.049 C 
ATOM     18  C   UNL A   1      32.658  22.528  21.816  1.00  0.00    -0.030 C 
ATOM     19  C   UNL A   1      32.023  22.175  22.925  1.00  0.00    -0.030 C 
BRANCH  13  20
ATOM     20  C   UNL A   1      32.638  26.640  25.520  1.00  0.00    -0.024 A 
ATOM     21  C   UNL A   1      31.924  27.012  26.681  1.00  0.00     0.006 A 
ATOM     22  C   UNL A   1      33.805  27.354  25.204  1.00  0.00     0.006 A 
ATOM     23  C   UNL A   1      32.236  28.185  27.366  1.00  0.00     0.000 A 
ATOM     24  C   UNL A   1      34.131  28.515  25.916  1.00  0.00     0.000 A 
ATOM     25  C   UNL A   1      33.319  28.955  26.961  1.00  0.00     0.000 A 
ENDBRANCH  13  20
ENDBRANCH   7   9
ENDBRANCH   6   7
ENDBRANCH   5   6
ENDBRANCH   4   5
ENDBRANCH   3   4
ENDBRANCH   2   3
ENDBRANCH   1   2
BRANCH   1  26
ATOM     26  O   UNL A   1      35.646  21.690  24.336  1.00  0.00    -0.376 OA
BRANCH  26  27
ATOM     27  C   UNL A   1      36.966  22.203  24.344  1.00  0.00     0.202 C 
BRANCH  27  28
ATOM     28  C   UNL A   1      38.079  21.438  25.086  1.00  0.00     0.261 C 
BRANCH  28  29
ATOM     29  O   UNL A   1      38.506  22.015  26.336  1.00  0.00    -0.460 OA
BRANCH  29  30
ATOM     30  C   UNL A   1      39.776  22.512  26.338  1.00  0.00     0.338 C 
ATOM     31  O   UNL A   1      40.745  22.004  25.820  1.00  0.00    -0.246 OA
BRANCH  30  32
ATOM     32  C   UNL A   1      39.794  23.893  26.899  1.00  0.00     0.060 A 
ATOM     33  C   UNL A   1      40.599  24.844  26.255  1.00  0.00     0.016 A 
ATOM     34  C   UNL A   1      39.091  24.245  28.052  1.00  0.00     0.016 A 
ATOM     35  C   UNL A   1      40.750  26.127  26.793  1.00  0.00     0.010 A 
ATOM     36  C   UNL A   1      39.250  25.531  28.595  1.00  0.00     0.010 A 
ATOM     37  C   UNL A   1      40.112  26.468  27.992  1.00  0.00    -0.014 A 
BRANCH  37  38
ATOM     38  C   UNL A   1      40.534  27.698  28.718  1.00  0.00     0.031 A 
ATOM     39  C   UNL A   1      41.936  27.748  29.274  1.00  0.00     0.074 A 
ATOM     40  C   UNL A   1      39.734  28.774  28.848  1.00  0.00     0.049 A 
ATOM     41  N   UNL A   1      42.540  28.708  29.928  1.00  0.00    -0.248 NA
ATOM     42  C   UNL A   1      42.768  26.552  29.060  1.00  0.00     0.031 C 
ATOM     43  C   UNL A   1      38.376  28.895  28.321  1.00  0.00     0.029 A 
ATOM     44  N   UNL A   1      39.960  29.981  29.470  1.00  0.00    -0.354 N 
ATOM     45  C   UNL A   1      43.817  28.232  30.202  1.00  0.00     0.074 A 
ATOM     46  C   UNL A   1      43.889  26.887  29.677  1.00  0.00     0.031 C 
ATOM     47  C   UNL A   1      37.890  30.109  28.644  1.00  0.00     0.029 A 
ATOM     48  C   UNL A   1      38.886  30.841  29.426  1.00  0.00     0.049 A 
ATOM     49  H   UNL A   1      40.812  30.209  29.907  1.00  0.00     0.167 HD
ATOM     50  C   UNL A   1      44.845  28.856  30.826  1.00  0.00     0.031 A 
ATOM     51  C   UNL A   1      38.720  32.069  29.963  1.00  0.00     0.031 A 
ATOM     52  C   UNL A   1      44.779  30.185  31.373  1.00  0.00     0.049 A 
ATOM     53  C   UNL A   1      39.852  32.710  30.732  1.00  0.00     0.074 A 
ATOM     54  C   UNL A   1      45.773  30.897  32.022  1.00  0.00     0.029 A 
ATOM     55  N   UNL A   1      43.659  31.000  31.348  1.00  0.00    -0.354 N 
ATOM     56  N   UNL A   1      41.061  32.255  30.962  1.00  0.00    -0.248 NA
ATOM     57  C   UNL A   1      39.597  34.043  31.302  1.00  0.00     0.031 C 
ATOM     58  C   UNL A   1      45.235  32.116  32.447  1.00  0.00     0.029 A 
ATOM     59  C   UNL A   1      43.929  32.195  31.993  1.00  0.00     0.049 A 
ATOM     60  H   UNL A   1      42.798  30.763  30.933  1.00  0.00     0.167 HD
ATOM     61  C   UNL A   1      41.721  33.263  31.664  1.00  0.00     0.074 A 
ATOM     62  C   UNL A   1      40.781  34.353  31.812  1.00  0.00     0.031 C 
ATOM     63  C   UNL A   1      42.994  33.284  32.136  1.00  0.00     0.031 A 
BRANCH  50  64
ATOM     64  C   UNL A   1      46.130  28.083  30.985  1.00  0.00    -0.014 A 
ATOM     65  C   UNL A   1      46.341  27.235  32.088  1.00  0.00     0.010 A 
ATOM     66  C   UNL A   1      47.126  28.183  29.997  1.00  0.00     0.010 A 
ATOM     67  C   UNL A   1      47.543  26.534  32.219  1.00  0.00     0.020 A 
ATOM     68  C   UNL A   1      48.315  27.458  30.109  1.00  0.00     0.020 A 
ATOM     69  C   UNL A   1      48.522  26.651  31.229  1.00  0.00     0.054 A 
BRANCH  69  70
ATOM     70  S   UNL A   1      50.064  25.713  31.416  1.00  0.00     0.124 S 
ATOM     71  O   UNL A   1      51.024  26.770  31.726  1.00  0.00    -0.237 OA
ATOM     72  O   UNL A   1      49.752  24.804  32.516  1.00  0.00    -0.237 OA
ATOM     73  O   UNL A   1      50.242  25.074  30.115  1.00  0.00    -0.744 OA
ENDBRANCH  69  70
ENDBRANCH  50  64
BRANCH  51  74
ATOM     74  C   UNL A   1      37.420  32.786  29.813  1.00  0.00    -0.014 A 
ATOM     75  C   UNL A   1      36.392  32.626  30.760  1.00  0.00     0.010 A 
ATOM     76  C   UNL A   1      37.189  33.606  28.695  1.00  0.00     0.010 A 
ATOM     77  C   UNL A   1      35.153  33.252  30.578  1.00  0.00     0.020 A 
ATOM     78  C   UNL A   1      35.964  34.259  28.525  1.00  0.00     0.020 A 
ATOM     79  C   UNL A   1      34.948  34.067  29.462  1.00  0.00     0.054 A 
BRANCH  79  80
ATOM     80  S   UNL A   1      33.347  34.900  29.267  1.00  0.00     0.124 S 
ATOM     81  O   UNL A   1      32.664  34.027  28.317  1.00  0.00    -0.237 OA
ATOM     82  O   UNL A   1      32.820  34.891  30.628  1.00  0.00    -0.237 OA
ATOM     83  O   UNL A   1      33.709  36.220  28.755  1.00  0.00    -0.744 OA
ENDBRANCH  79  80
ENDBRANCH  51  74
BRANCH  63  84
ATOM     84  C   UNL A   1      43.479  34.548  32.805  1.00  0.00    -0.014 A 
ATOM     85  C   UNL A   1      43.345  34.753  34.190  1.00  0.00     0.010 A 
ATOM     86  C   UNL A   1      44.125  35.531  32.032  1.00  0.00     0.010 A 
ATOM     87  C   UNL A   1      43.805  35.936  34.778  1.00  0.00     0.020 A 
ATOM     88  C   UNL A   1      44.617  36.700  32.621  1.00  0.00     0.020 A 
ATOM     89  C   UNL A   1      44.436  36.904  33.990  1.00  0.00     0.054 A 
BRANCH  89  90
ATOM     90  S   UNL A   1      45.044  38.420  34.780  1.00  0.00     0.124 S 
ATOM     91  O   UNL A   1      46.099  37.907  35.649  1.00  0.00    -0.237 OA
ATOM     92  O   UNL A   1      45.497  39.214  33.642  1.00  0.00    -0.237 OA
ATOM     93  O   UNL A   1      43.869  38.946  35.472  1.00  0.00    -0.744 OA
ENDBRANCH  89  90
ENDBRANCH  63  84
ENDBRANCH  37  38
ENDBRANCH  30  32
ENDBRANCH  29  30
ENDBRANCH  28  29
ENDBRANCH  27  28
ENDBRANCH  26  27
ENDBRANCH   1  26
TORSDOF 21
ENDMDL
MODEL 3
REMARK VINA RESULT:     -10.1      6.077     11.144
REMARK SMILES CN1C(=O)[C@@H]2CC=CC[C@]2(C(=O)OCCOCCOCCOC(=O)c2ccc(-c3c4nc(c(-c5ccc(S(=O)(=O)[O-])cc5)c5ccc([nH]5)c(-c5ccc(S(=O)(=O)[O-])cc5)c5nc(c(-c6ccc(S(=O)(=O)[O-])cc6)c6ccc3[nH]6)C=C5)C=C4)cc2)[C@H]1c1ccccc1
REMARK SMILES IDX 18 1 17 2 16 3 15 4 14 5 13 6 11 7 12 8 10 9 1 10 2 11 3 12
REMARK SMILES IDX 85 13 4 14 5 15 6 16 9 17 7 18 8 19 86 20 87 21 91 22 88 23
REMARK SMILES IDX 90 24 89 25 19 26 20 27 21 28 22 29 23 30 24 31 25 32 26 33
REMARK SMILES IDX 84 34 27 35 83 36 28 37 29 38 30 39 77 40 31 41 82 42 76 43
REMARK SMILES IDX 78 44 32 45 81 46 75 47 74 48 33 50 63 51 44 52 62 53 45 54
REMARK SMILES IDX 48 55 61 56 79 57 46 58 47 59 60 61 80 62 49 63 34 64 35 65
REMARK SMILES IDX 43 66 36 67 42 68 37 69 38 70 39 71 40 72 41 73 64 74 65 75
REMARK SMILES IDX 73 76 66 77 72 78 67 79 68 80 69 81 70 82 71 83 50 84 51 85
REMARK SMILES IDX 59 86 52 87 58 88 53 89 54 90 55 91 56 92 57 93
REMARK H PARENT 78 49 48 60
REMARK Flexibility Score: inf
ROOT
ATOM      1  C   UNL A   1      40.301  20.785  26.512  1.00  0.00     0.188 C 
ENDROOT
BRANCH   1   2
ATOM      2  C   UNL A   1      38.883  20.646  25.900  1.00  0.00     0.188 C 
BRANCH   2   3
ATOM      3  O   UNL A   1      38.450  21.721  25.054  1.00  0.00    -0.376 OA
BRANCH   3   4
ATOM      4  C   UNL A   1      37.048  21.803  24.835  1.00  0.00     0.202 C 
BRANCH   4   5
ATOM      5  C   UNL A   1      36.715  22.863  23.770  1.00  0.00     0.261 C 
BRANCH   5   6
ATOM      6  O   UNL A   1      35.525  23.564  24.157  1.00  0.00    -0.463 OA
BRANCH   6   7
ATOM      7  C   UNL A   1      34.464  23.832  23.303  1.00  0.00     0.315 C 
ATOM      8  O   UNL A   1      34.338  23.411  22.167  1.00  0.00    -0.251 OA
BRANCH   7   9
ATOM      9  C   UNL A   1      33.424  24.628  24.155  1.00  0.00     0.108 C 
ATOM     10  C   UNL A   1      30.328  22.992  25.755  1.00  0.00     0.147 C 
ATOM     11  N   UNL A   1      31.485  23.795  25.393  1.00  0.00    -0.337 N 
ATOM     12  C   UNL A   1      32.231  24.474  26.321  1.00  0.00     0.227 C 
ATOM     13  C   UNL A   1      32.239  23.550  24.196  1.00  0.00     0.133 C 
ATOM     14  O   UNL A   1      31.938  24.577  27.505  1.00  0.00    -0.275 OA
ATOM     15  C   UNL A   1      33.482  25.065  25.663  1.00  0.00     0.102 C 
ATOM     16  C   UNL A   1      33.363  26.587  26.038  1.00  0.00     0.041 C 
ATOM     17  C   UNL A   1      33.645  25.922  23.318  1.00  0.00     0.049 C 
ATOM     18  C   UNL A   1      33.011  27.564  24.965  1.00  0.00    -0.030 C 
ATOM     19  C   UNL A   1      33.091  27.232  23.684  1.00  0.00    -0.030 C 
BRANCH  13  20
ATOM     20  C   UNL A   1      32.776  22.076  24.288  1.00  0.00    -0.024 A 
ATOM     21  C   UNL A   1      32.416  21.120  23.313  1.00  0.00     0.006 A 
ATOM     22  C   UNL A   1      33.401  21.622  25.461  1.00  0.00     0.006 A 
ATOM     23  C   UNL A   1      32.472  19.756  23.595  1.00  0.00     0.000 A 
ATOM     24  C   UNL A   1      33.484  20.250  25.725  1.00  0.00     0.000 A 
ATOM     25  C   UNL A   1      32.974  19.323  24.816  1.00  0.00     0.000 A 
ENDBRANCH  13  20
ENDBRANCH   7   9
ENDBRANCH   6   7
ENDBRANCH   5   6
ENDBRANCH   4   5
ENDBRANCH   3   4
ENDBRANCH   2   3
ENDBRANCH   1   2
BRANCH   1  26
ATOM     26  O   UNL A   1      41.416  20.907  25.641  1.00  0.00    -0.376 OA
BRANCH  26  27
ATOM     27  C   UNL A   1      42.677  21.181  26.222  1.00  0.00     0.202 C 
BRANCH  27  28
ATOM     28  C   UNL A   1      43.513  22.369  25.708  1.00  0.00     0.261 C 
BRANCH  28  29
ATOM     29  O   UNL A   1      42.767  23.551  25.356  1.00  0.00    -0.460 OA
BRANCH  29  30
ATOM     30  C   UNL A   1      43.443  24.727  25.504  1.00  0.00     0.338 C 
ATOM     31  O   UNL A   1      44.386  25.100  24.843  1.00  0.00    -0.246 OA
BRANCH  30  32
ATOM     32  C   UNL A   1      42.739  25.613  26.474  1.00  0.00     0.060 A 
ATOM     33  C   UNL A   1      43.131  26.958  26.527  1.00  0.00     0.016 A 
ATOM     34  C   UNL A   1      41.759  25.141  27.349  1.00  0.00     0.016 A 
ATOM     35  C   UNL A   1      42.592  27.817  27.491  1.00  0.00     0.010 A 
ATOM     36  C   UNL A   1      41.225  26.004  28.322  1.00  0.00     0.010 A 
ATOM     37  C   UNL A   1      41.667  27.337  28.425  1.00  0.00    -0.014 A 
BRANCH  37  38
ATOM     38  C   UNL A   1      41.355  28.155  29.630  1.00  0.00     0.031 A 
ATOM     39  C   UNL A   1      42.212  27.964  30.858  1.00  0.00     0.074 A 
ATOM     40  C   UNL A   1      40.381  29.085  29.642  1.00  0.00     0.049 A 
ATOM     41  N   UNL A   1      42.149  28.566  32.019  1.00  0.00    -0.248 NA
ATOM     42  C   UNL A   1      43.283  26.959  30.759  1.00  0.00     0.031 C 
ATOM     43  C   UNL A   1      39.508  29.420  28.520  1.00  0.00     0.029 A 
ATOM     44  N   UNL A   1      39.967  29.926  30.651  1.00  0.00    -0.354 N 
ATOM     45  C   UNL A   1      43.169  28.013  32.786  1.00  0.00     0.074 A 
ATOM     46  C   UNL A   1      43.811  27.004  31.972  1.00  0.00     0.031 C 
ATOM     47  C   UNL A   1      38.660  30.394  28.902  1.00  0.00     0.029 A 
ATOM     48  C   UNL A   1      38.907  30.733  30.304  1.00  0.00     0.049 A 
ATOM     49  H   UNL A   1      40.391  29.949  31.539  1.00  0.00     0.167 HD
ATOM     50  C   UNL A   1      43.550  28.319  34.049  1.00  0.00     0.031 A 
ATOM     51  C   UNL A   1      38.209  31.630  31.033  1.00  0.00     0.031 A 
ATOM     52  C   UNL A   1      42.906  29.304  34.877  1.00  0.00     0.049 A 
ATOM     53  C   UNL A   1      38.596  31.891  32.471  1.00  0.00     0.074 A 
ATOM     54  C   UNL A   1      43.225  29.679  36.171  1.00  0.00     0.029 A 
ATOM     55  N   UNL A   1      41.808  30.061  34.502  1.00  0.00    -0.354 N 
ATOM     56  N   UNL A   1      39.578  31.377  33.172  1.00  0.00    -0.248 NA
ATOM     57  C   UNL A   1      37.784  32.871  33.210  1.00  0.00     0.031 C 
ATOM     58  C   UNL A   1      42.281  30.616  36.601  1.00  0.00     0.029 A 
ATOM     59  C   UNL A   1      41.421  30.882  35.548  1.00  0.00     0.049 A 
ATOM     60  H   UNL A   1      41.368  30.022  33.623  1.00  0.00     0.167 HD
ATOM     61  C   UNL A   1      39.526  32.001  34.417  1.00  0.00     0.074 A 
ATOM     62  C   UNL A   1      38.424  32.937  34.369  1.00  0.00     0.031 C 
ATOM     63  C   UNL A   1      40.326  31.819  35.499  1.00  0.00     0.031 A 
BRANCH  50  64
ATOM     64  C   UNL A   1      44.704  27.543  34.631  1.00  0.00    -0.014 A 
ATOM     65  C   UNL A   1      46.021  28.034  34.566  1.00  0.00     0.010 A 
ATOM     66  C   UNL A   1      44.460  26.320  35.283  1.00  0.00     0.010 A 
ATOM     67  C   UNL A   1      47.077  27.295  35.105  1.00  0.00     0.020 A 
ATOM     68  C   UNL A   1      45.510  25.595  35.852  1.00  0.00     0.020 A 
ATOM     69  C   UNL A   1      46.814  26.080  35.744  1.00  0.00     0.054 A 
BRANCH  69  70
ATOM     70  S   UNL A   1      48.203  25.152  36.453  1.00  0.00     0.124 S 
ATOM     71  O   UNL A   1      48.098  23.873  35.756  1.00  0.00    -0.237 OA
ATOM     72  O   UNL A   1      49.354  25.974  36.090  1.00  0.00    -0.237 OA
ATOM     73  O   UNL A   1      47.898  25.108  37.882  1.00  0.00    -0.744 OA
ENDBRANCH  69  70
ENDBRANCH  50  64
BRANCH  51  74
ATOM     74  C   UNL A   1      37.050  32.351  30.430  1.00  0.00    -0.014 A 
ATOM     75  C   UNL A   1      37.237  33.542  29.703  1.00  0.00     0.010 A 
ATOM     76  C   UNL A   1      35.742  31.868  30.614  1.00  0.00     0.010 A 
ATOM     77  C   UNL A   1      36.139  34.246  29.196  1.00  0.00     0.020 A 
ATOM     78  C   UNL A   1      34.644  32.551  30.081  1.00  0.00     0.020 A 
ATOM     79  C   UNL A   1      34.849  33.745  29.386  1.00  0.00     0.054 A 
BRANCH  79  80
ATOM     80  S   UNL A   1      33.442  34.653  28.685  1.00  0.00     0.124 S 
ATOM     81  O   UNL A   1      34.099  35.797  28.061  1.00  0.00    -0.237 OA
ATOM     82  O   UNL A   1      32.864  33.676  27.767  1.00  0.00    -0.237 OA
ATOM     83  O   UNL A   1      32.621  34.964  29.853  1.00  0.00    -0.744 OA
ENDBRANCH  79  80
ENDBRANCH  51  74
BRANCH  63  84
ATOM     84  C   UNL A   1      40.088  32.691  36.709  1.00  0.00    -0.014 A 
ATOM     85  C   UNL A   1      40.874  33.826  36.973  1.00  0.00     0.010 A 
ATOM     86  C   UNL A   1      39.019  32.389  37.574  1.00  0.00     0.010 A 
ATOM     87  C   UNL A   1      40.628  34.612  38.103  1.00  0.00     0.020 A 
ATOM     88  C   UNL A   1      38.747  33.192  38.687  1.00  0.00     0.020 A 
ATOM     89  C   UNL A   1      39.567  34.289  38.955  1.00  0.00     0.054 A 
BRANCH  89  90
ATOM     90  S   UNL A   1      39.253  35.337  40.403  1.00  0.00     0.124 S 
ATOM     91  O   UNL A   1      40.503  35.212  41.145  1.00  0.00    -0.237 OA
ATOM     92  O   UNL A   1      39.007  36.646  39.803  1.00  0.00    -0.237 OA
ATOM     93  O   UNL A   1      38.089  34.719  41.034  1.00  0.00    -0.744 OA
ENDBRANCH  89  90
ENDBRANCH  63  84
ENDBRANCH  37  38
ENDBRANCH  30  32
ENDBRANCH  29  30
ENDBRANCH  28  29
ENDBRANCH  27  28
ENDBRANCH  26  27
ENDBRANCH   1  26
TORSDOF 21
ENDMDL
