MODEL 1
REMARK VINA RESULT:      -8.9      0.000      0.000
REMARK SMILES O=C(OCCOCCOCCOC(=O)c1ccccc1C(=O)N1CCS[C@H]1c1ccccc1)c1ccc(-c2c3nc(c(-c4ccc(S(=O)(=O)[O-])cc4)c4ccc([nH]4)c(-c4ccc(S(=O)(=O)[O-])cc4)c4nc(c(-c5ccc(S(=O)(=O)[O-])cc5)c5ccc2[nH]5)C=C4)C=C3)cc1
REMARK SMILES IDX 7 1 6 2 5 3 4 4 3 5 2 6 1 7 34 8 35 9 93 10 36 11 92 12
REMARK SMILES IDX 37 13 38 14 39 15 86 16 40 17 91 18 85 19 87 20 41 21 90 22
REMARK SMILES IDX 84 23 83 24 42 26 72 27 53 28 71 29 54 30 57 31 70 32 88 33
REMARK SMILES IDX 55 34 56 35 69 37 89 38 58 39 43 40 44 41 52 42 45 43 51 44
REMARK SMILES IDX 46 45 47 46 48 47 49 48 50 49 73 50 74 51 82 52 75 53 81 54
REMARK SMILES IDX 76 55 77 56 78 57 79 58 80 59 59 60 60 61 68 62 61 63 67 64
REMARK SMILES IDX 62 65 63 66 64 67 65 68 66 69 8 70 9 71 10 72 11 73 12 74
REMARK SMILES IDX 13 75 14 76 15 77 16 78 20 79 17 80 19 81 18 82 21 83 22 84
REMARK SMILES IDX 23 85 24 86 27 87 25 88 26 89 28 90 29 91 33 92 30 93 32 94
REMARK SMILES IDX 31 95
REMARK H PARENT 87 25 57 36
REMARK Flexibility Score: inf
ROOT
ATOM      1  C   UNL A   1      40.472  22.534  26.234  1.00  0.00     0.188 C 
ENDROOT
BRANCH   1   2
ATOM      2  O   UNL A   1      41.597  23.399  26.211  1.00  0.00    -0.376 OA
BRANCH   2   3
ATOM      3  C   UNL A   1      41.430  24.655  26.881  1.00  0.00     0.202 C 
BRANCH   3   4
ATOM      4  C   UNL A   1      41.285  25.837  25.920  1.00  0.00     0.261 C 
BRANCH   4   5
ATOM      5  O   UNL A   1      40.744  26.950  26.642  1.00  0.00    -0.460 OA
BRANCH   5   6
ATOM      6  C   UNL A   1      41.357  28.144  26.445  1.00  0.00     0.338 C 
ATOM      7  O   UNL A   1      41.712  28.646  25.392  1.00  0.00    -0.246 OA
BRANCH   6   8
ATOM      8  C   UNL A   1      41.600  28.664  27.797  1.00  0.00     0.060 A 
ATOM      9  C   UNL A   1      40.831  28.128  28.834  1.00  0.00     0.016 A 
ATOM     10  C   UNL A   1      42.435  29.754  28.018  1.00  0.00     0.016 A 
ATOM     11  C   UNL A   1      40.770  28.755  30.055  1.00  0.00     0.010 A 
ATOM     12  C   UNL A   1      42.428  30.349  29.283  1.00  0.00     0.010 A 
ATOM     13  C   UNL A   1      41.564  29.873  30.290  1.00  0.00    -0.014 A 
BRANCH  13  14
ATOM     14  C   UNL A   1      41.383  30.590  31.566  1.00  0.00     0.031 A 
ATOM     15  C   UNL A   1      42.392  30.405  32.649  1.00  0.00     0.074 A 
ATOM     16  C   UNL A   1      40.396  31.493  31.706  1.00  0.00     0.049 A 
ATOM     17  N   UNL A   1      42.337  30.805  33.887  1.00  0.00    -0.248 NA
ATOM     18  C   UNL A   1      43.640  29.707  32.289  1.00  0.00     0.031 C 
ATOM     19  C   UNL A   1      39.505  31.927  30.635  1.00  0.00     0.029 A 
ATOM     20  N   UNL A   1      39.978  32.219  32.790  1.00  0.00    -0.354 N 
ATOM     21  C   UNL A   1      43.524  30.386  34.466  1.00  0.00     0.074 A 
ATOM     22  C   UNL A   1      44.285  29.698  33.447  1.00  0.00     0.031 C 
ATOM     23  C   UNL A   1      38.632  32.818  31.119  1.00  0.00     0.029 A 
ATOM     24  C   UNL A   1      38.821  32.921  32.546  1.00  0.00     0.049 A 
ATOM     25  H   UNL A   1      40.455  32.237  33.652  1.00  0.00     0.167 HD
ATOM     26  C   UNL A   1      43.919  30.564  35.744  1.00  0.00     0.031 A 
ATOM     27  C   UNL A   1      37.944  33.504  33.379  1.00  0.00     0.031 A 
ATOM     28  C   UNL A   1      43.132  31.265  36.720  1.00  0.00     0.049 A 
ATOM     29  C   UNL A   1      38.293  33.502  34.830  1.00  0.00     0.074 A 
ATOM     30  C   UNL A   1      43.416  31.490  38.054  1.00  0.00     0.029 A 
ATOM     31  N   UNL A   1      41.897  31.848  36.466  1.00  0.00    -0.354 N 
ATOM     32  N   UNL A   1      39.384  33.045  35.395  1.00  0.00    -0.248 NA
ATOM     33  C   UNL A   1      37.318  34.087  35.752  1.00  0.00     0.031 C 
ATOM     34  C   UNL A   1      42.321  32.149  38.622  1.00  0.00     0.029 A 
ATOM     35  C   UNL A   1      41.380  32.385  37.630  1.00  0.00     0.049 A 
ATOM     36  H   UNL A   1      41.455  31.874  35.587  1.00  0.00     0.167 HD
ATOM     37  C   UNL A   1      39.243  33.310  36.744  1.00  0.00     0.074 A 
ATOM     38  C   UNL A   1      37.963  33.977  36.905  1.00  0.00     0.031 C 
ATOM     39  C   UNL A   1      40.099  33.033  37.754  1.00  0.00     0.031 A 
BRANCH  26  40
ATOM     40  C   UNL A   1      45.203  29.915  36.169  1.00  0.00    -0.014 A 
ATOM     41  C   UNL A   1      46.439  30.576  36.067  1.00  0.00     0.010 A 
ATOM     42  C   UNL A   1      45.156  28.619  36.711  1.00  0.00     0.010 A 
ATOM     43  C   UNL A   1      47.610  29.943  36.496  1.00  0.00     0.020 A 
ATOM     44  C   UNL A   1      46.319  27.992  37.158  1.00  0.00     0.020 A 
ATOM     45  C   UNL A   1      47.541  28.656  37.041  1.00  0.00     0.054 A 
BRANCH  45  46
ATOM     46  S   UNL A   1      49.067  27.880  37.641  1.00  0.00     0.124 S 
ATOM     47  O   UNL A   1      48.865  26.484  37.262  1.00  0.00    -0.237 OA
ATOM     48  O   UNL A   1      50.102  28.591  36.894  1.00  0.00    -0.237 OA
ATOM     49  O   UNL A   1      49.049  28.144  39.078  1.00  0.00    -0.744 OA
ENDBRANCH  45  46
ENDBRANCH  26  40
BRANCH  27  50
ATOM     50  C   UNL A   1      36.624  33.978  32.878  1.00  0.00    -0.014 A 
ATOM     51  C   UNL A   1      35.706  33.105  32.274  1.00  0.00     0.010 A 
ATOM     52  C   UNL A   1      36.286  35.343  32.997  1.00  0.00     0.010 A 
ATOM     53  C   UNL A   1      34.496  33.593  31.766  1.00  0.00     0.020 A 
ATOM     54  C   UNL A   1      35.069  35.829  32.517  1.00  0.00     0.020 A 
ATOM     55  C   UNL A   1      34.188  34.952  31.883  1.00  0.00     0.054 A 
BRANCH  55  56
ATOM     56  S   UNL A   1      32.617  35.567  31.214  1.00  0.00     0.124 S 
ATOM     57  O   UNL A   1      32.549  34.885  29.926  1.00  0.00    -0.237 OA
ATOM     58  O   UNL A   1      31.650  35.128  32.218  1.00  0.00    -0.237 OA
ATOM     59  O   UNL A   1      32.819  37.013  31.149  1.00  0.00    -0.744 OA
ENDBRANCH  55  56
ENDBRANCH  27  50
BRANCH  39  60
ATOM     60  C   UNL A   1      39.676  33.475  39.120  1.00  0.00    -0.014 A 
ATOM     61  C   UNL A   1      39.856  34.806  39.531  1.00  0.00     0.010 A 
ATOM     62  C   UNL A   1      39.048  32.555  39.976  1.00  0.00     0.010 A 
ATOM     63  C   UNL A   1      39.423  35.209  40.792  1.00  0.00     0.020 A 
ATOM     64  C   UNL A   1      38.586  32.963  41.225  1.00  0.00     0.020 A 
ATOM     65  C   UNL A   1      38.784  34.286  41.628  1.00  0.00     0.054 A 
BRANCH  65  66
ATOM     66  S   UNL A   1      38.162  34.856  43.230  1.00  0.00     0.124 S 
ATOM     67  O   UNL A   1      38.829  36.147  43.372  1.00  0.00    -0.237 OA
ATOM     68  O   UNL A   1      36.719  34.913  43.009  1.00  0.00    -0.237 OA
ATOM     69  O   UNL A   1      38.604  33.819  44.161  1.00  0.00    -0.744 OA
ENDBRANCH  65  66
ENDBRANCH  39  60
ENDBRANCH  13  14
ENDBRANCH   6   8
ENDBRANCH   5   6
ENDBRANCH   4   5
ENDBRANCH   3   4
ENDBRANCH   2   3
ENDBRANCH   1   2
BRANCH   1  70
ATOM     70  C   UNL A   1      39.237  23.152  26.887  1.00  0.00     0.188 C 
BRANCH  70  71
ATOM     71  O   UNL A   1      38.253  23.677  26.012  1.00  0.00    -0.376 OA
BRANCH  71  72
ATOM     72  C   UNL A   1      37.249  22.784  25.526  1.00  0.00     0.202 C 
BRANCH  72  73
ATOM     73  C   UNL A   1      35.802  23.264  25.331  1.00  0.00     0.261 C 
BRANCH  73  74
ATOM     74  O   UNL A   1      35.465  24.397  24.499  1.00  0.00    -0.460 OA
BRANCH  74  75
ATOM     75  C   UNL A   1      34.368  25.079  24.899  1.00  0.00     0.339 C 
ATOM     76  O   UNL A   1      34.106  25.366  26.059  1.00  0.00    -0.246 OA
BRANCH  75  77
ATOM     77  C   UNL A   1      33.416  25.519  23.865  1.00  0.00     0.072 A 
ATOM     78  C   UNL A   1      32.662  24.473  23.288  1.00  0.00     0.016 A 
ATOM     79  C   UNL A   1      33.401  26.785  23.263  1.00  0.00     0.054 A 
ATOM     80  C   UNL A   1      31.922  24.671  22.121  1.00  0.00     0.001 A 
ATOM     81  C   UNL A   1      32.688  26.954  22.055  1.00  0.00     0.015 A 
ATOM     82  C   UNL A   1      31.962  25.905  21.485  1.00  0.00     0.001 A 
BRANCH  79  83
ATOM     83  C   UNL A   1      33.882  28.038  23.889  1.00  0.00     0.255 C 
ATOM     84  O   UNL A   1      34.697  28.700  23.244  1.00  0.00    -0.269 OA
BRANCH  83  85
ATOM     85  N   UNL A   1      33.392  28.497  25.107  1.00  0.00    -0.322 N 
ATOM     86  C   UNL A   1      34.407  28.638  26.146  1.00  0.00     0.132 C 
ATOM     87  C   UNL A   1      32.152  27.976  25.670  1.00  0.00     0.174 C 
ATOM     88  C   UNL A   1      33.781  29.163  27.425  1.00  0.00     0.093 C 
ATOM     89  S   UNL A   1      32.018  28.749  27.321  1.00  0.00    -0.130 SA
BRANCH  87  90
ATOM     90  C   UNL A   1      30.922  28.075  24.799  1.00  0.00    -0.015 A 
ATOM     91  C   UNL A   1      30.584  29.203  24.040  1.00  0.00     0.007 A 
ATOM     92  C   UNL A   1      30.120  26.926  24.656  1.00  0.00     0.007 A 
ATOM     93  C   UNL A   1      29.547  29.153  23.102  1.00  0.00     0.000 A 
ATOM     94  C   UNL A   1      29.083  26.877  23.725  1.00  0.00     0.000 A 
ATOM     95  C   UNL A   1      28.811  27.985  22.931  1.00  0.00     0.000 A 
ENDBRANCH  87  90
ENDBRANCH  83  85
ENDBRANCH  79  83
ENDBRANCH  75  77
ENDBRANCH  74  75
ENDBRANCH  73  74
ENDBRANCH  72  73
ENDBRANCH  71  72
ENDBRANCH  70  71
ENDBRANCH   1  70
TORSDOF 23
ENDMDL
MODEL 2
REMARK VINA RESULT:      -8.8      2.159      8.371
REMARK SMILES O=C(OCCOCCOCCOC(=O)c1ccccc1C(=O)N1CCS[C@H]1c1ccccc1)c1ccc(-c2c3nc(c(-c4ccc(S(=O)(=O)[O-])cc4)c4ccc([nH]4)c(-c4ccc(S(=O)(=O)[O-])cc4)c4nc(c(-c5ccc(S(=O)(=O)[O-])cc5)c5ccc2[nH]5)C=C4)C=C3)cc1
REMARK SMILES IDX 7 1 6 2 5 3 4 4 3 5 2 6 1 7 34 8 35 9 93 10 36 11 92 12
REMARK SMILES IDX 37 13 38 14 39 15 86 16 40 17 91 18 85 19 87 20 41 21 90 22
REMARK SMILES IDX 84 23 83 24 42 26 72 27 53 28 71 29 54 30 57 31 70 32 88 33
REMARK SMILES IDX 55 34 56 35 69 37 89 38 58 39 43 40 44 41 52 42 45 43 51 44
REMARK SMILES IDX 46 45 47 46 48 47 49 48 50 49 73 50 74 51 82 52 75 53 81 54
REMARK SMILES IDX 76 55 77 56 78 57 79 58 80 59 59 60 60 61 68 62 61 63 67 64
REMARK SMILES IDX 62 65 63 66 64 67 65 68 66 69 8 70 9 71 10 72 11 73 12 74
REMARK SMILES IDX 13 75 14 76 15 77 16 78 20 79 17 80 19 81 18 82 21 83 22 84
REMARK SMILES IDX 23 85 24 86 27 87 25 88 26 89 28 90 29 91 33 92 30 93 32 94
REMARK SMILES IDX 31 95
REMARK H PARENT 87 25 57 36
REMARK Flexibility Score: inf
ROOT
ATOM      1  C   UNL A   1      41.067  21.930  26.114  1.00  0.00     0.188 C 
ENDROOT
BRANCH   1   2
ATOM      2  O   UNL A   1      42.139  22.821  25.843  1.00  0.00    -0.376 OA
BRANCH   2   3
ATOM      3  C   UNL A   1      42.006  24.138  26.390  1.00  0.00     0.202 C 
BRANCH   3   4
ATOM      4  C   UNL A   1      42.350  25.245  25.391  1.00  0.00     0.261 C 
BRANCH   4   5
ATOM      5  O   UNL A   1      42.695  26.429  26.120  1.00  0.00    -0.460 OA
BRANCH   5   6
ATOM      6  C   UNL A   1      43.976  26.507  26.558  1.00  0.00     0.338 C 
ATOM      7  O   UNL A   1      44.985  26.075  26.026  1.00  0.00    -0.246 OA
BRANCH   6   8
ATOM      8  C   UNL A   1      43.878  27.141  27.880  1.00  0.00     0.060 A 
ATOM      9  C   UNL A   1      43.192  26.439  28.875  1.00  0.00     0.016 A 
ATOM     10  C   UNL A   1      44.301  28.450  28.092  1.00  0.00     0.016 A 
ATOM     11  C   UNL A   1      42.792  27.072  30.026  1.00  0.00     0.010 A 
ATOM     12  C   UNL A   1      43.956  29.071  29.296  1.00  0.00     0.010 A 
ATOM     13  C   UNL A   1      43.165  28.394  30.246  1.00  0.00    -0.014 A 
BRANCH  13  14
ATOM     14  C   UNL A   1      42.616  29.076  31.433  1.00  0.00     0.031 A 
ATOM     15  C   UNL A   1      41.346  29.845  31.302  1.00  0.00     0.074 A 
ATOM     16  C   UNL A   1      43.183  28.903  32.641  1.00  0.00     0.049 A 
ATOM     17  N   UNL A   1      40.786  30.643  32.167  1.00  0.00    -0.248 NA
ATOM     18  C   UNL A   1      40.585  29.674  30.051  1.00  0.00     0.031 C 
ATOM     19  C   UNL A   1      44.280  27.982  32.923  1.00  0.00     0.029 A 
ATOM     20  N   UNL A   1      42.917  29.472  33.858  1.00  0.00    -0.354 N 
ATOM     21  C   UNL A   1      39.625  31.094  31.560  1.00  0.00     0.074 A 
ATOM     22  C   UNL A   1      39.555  30.485  30.251  1.00  0.00     0.031 C 
ATOM     23  C   UNL A   1      44.610  28.070  34.216  1.00  0.00     0.029 A 
ATOM     24  C   UNL A   1      43.841  29.132  34.818  1.00  0.00     0.049 A 
ATOM     25  H   UNL A   1      42.147  30.063  34.028  1.00  0.00     0.167 HD
ATOM     26  C   UNL A   1      38.716  31.952  32.068  1.00  0.00     0.031 A 
ATOM     27  C   UNL A   1      44.115  29.672  36.016  1.00  0.00     0.031 A 
ATOM     28  C   UNL A   1      38.823  32.526  33.381  1.00  0.00     0.049 A 
ATOM     29  C   UNL A   1      43.224  30.778  36.474  1.00  0.00     0.074 A 
ATOM     30  C   UNL A   1      37.976  33.426  33.999  1.00  0.00     0.029 A 
ATOM     31  N   UNL A   1      39.851  32.258  34.276  1.00  0.00    -0.354 N 
ATOM     32  N   UNL A   1      42.163  31.259  35.874  1.00  0.00    -0.248 NA
ATOM     33  C   UNL A   1      43.549  31.410  37.754  1.00  0.00     0.031 C 
ATOM     34  C   UNL A   1      38.529  33.755  35.240  1.00  0.00     0.029 A 
ATOM     35  C   UNL A   1      39.690  33.017  35.420  1.00  0.00     0.049 A 
ATOM     36  H   UNL A   1      40.585  31.623  34.120  1.00  0.00     0.167 HD
ATOM     37  C   UNL A   1      41.671  32.238  36.715  1.00  0.00     0.074 A 
ATOM     38  C   UNL A   1      42.548  32.272  37.872  1.00  0.00     0.031 C 
ATOM     39  C   UNL A   1      40.587  33.031  36.547  1.00  0.00     0.031 A 
BRANCH  26  40
ATOM     40  C   UNL A   1      37.594  32.383  31.171  1.00  0.00    -0.014 A 
ATOM     41  C   UNL A   1      37.717  33.480  30.301  1.00  0.00     0.010 A 
ATOM     42  C   UNL A   1      36.398  31.644  31.186  1.00  0.00     0.010 A 
ATOM     43  C   UNL A   1      36.654  33.834  29.464  1.00  0.00     0.020 A 
ATOM     44  C   UNL A   1      35.342  31.983  30.339  1.00  0.00     0.020 A 
ATOM     45  C   UNL A   1      35.474  33.081  29.487  1.00  0.00     0.054 A 
BRANCH  45  46
ATOM     46  S   UNL A   1      34.132  33.528  28.353  1.00  0.00     0.124 S 
ATOM     47  O   UNL A   1      33.201  34.216  29.242  1.00  0.00    -0.237 OA
ATOM     48  O   UNL A   1      34.810  34.376  27.375  1.00  0.00    -0.237 OA
ATOM     49  O   UNL A   1      33.667  32.241  27.841  1.00  0.00    -0.744 OA
ENDBRANCH  45  46
ENDBRANCH  26  40
BRANCH  27  50
ATOM     50  C   UNL A   1      45.347  29.282  36.758  1.00  0.00    -0.014 A 
ATOM     51  C   UNL A   1      46.579  29.911  36.527  1.00  0.00     0.010 A 
ATOM     52  C   UNL A   1      45.282  28.242  37.710  1.00  0.00     0.010 A 
ATOM     53  C   UNL A   1      47.729  29.485  37.204  1.00  0.00     0.020 A 
ATOM     54  C   UNL A   1      46.420  27.831  38.406  1.00  0.00     0.020 A 
ATOM     55  C   UNL A   1      47.644  28.443  38.133  1.00  0.00     0.054 A 
BRANCH  55  56
ATOM     56  S   UNL A   1      49.145  27.899  38.995  1.00  0.00     0.124 S 
ATOM     57  O   UNL A   1      48.991  26.448  38.989  1.00  0.00    -0.237 OA
ATOM     58  O   UNL A   1      50.209  28.429  38.146  1.00  0.00    -0.237 OA
ATOM     59  O   UNL A   1      49.033  28.536  40.306  1.00  0.00    -0.744 OA
ENDBRANCH  55  56
ENDBRANCH  27  50
BRANCH  39  60
ATOM     60  C   UNL A   1      40.288  33.986  37.660  1.00  0.00    -0.014 A 
ATOM     61  C   UNL A   1      40.703  35.325  37.585  1.00  0.00     0.010 A 
ATOM     62  C   UNL A   1      39.542  33.543  38.764  1.00  0.00     0.010 A 
ATOM     63  C   UNL A   1      40.385  36.210  38.612  1.00  0.00     0.020 A 
ATOM     64  C   UNL A   1      39.196  34.434  39.778  1.00  0.00     0.020 A 
ATOM     65  C   UNL A   1      39.627  35.760  39.699  1.00  0.00     0.054 A 
BRANCH  65  66
ATOM     66  S   UNL A   1      39.162  36.950  40.982  1.00  0.00     0.124 S 
ATOM     67  O   UNL A   1      40.463  37.454  41.414  1.00  0.00    -0.237 OA
ATOM     68  O   UNL A   1      38.330  37.901  40.249  1.00  0.00    -0.237 OA
ATOM     69  O   UNL A   1      38.450  36.136  41.966  1.00  0.00    -0.744 OA
ENDBRANCH  65  66
ENDBRANCH  39  60
ENDBRANCH  13  14
ENDBRANCH   6   8
ENDBRANCH   5   6
ENDBRANCH   4   5
ENDBRANCH   3   4
ENDBRANCH   2   3
ENDBRANCH   1   2
BRANCH   1  70
ATOM     70  C   UNL A   1      39.929  22.565  26.910  1.00  0.00     0.188 C 
BRANCH  70  71
ATOM     71  O   UNL A   1      38.618  22.377  26.403  1.00  0.00    -0.376 OA
BRANCH  71  72
ATOM     72  C   UNL A   1      38.424  21.360  25.417  1.00  0.00     0.202 C 
BRANCH  72  73
ATOM     73  C   UNL A   1      37.019  20.811  25.125  1.00  0.00     0.261 C 
BRANCH  73  74
ATOM     74  O   UNL A   1      36.160  21.375  24.108  1.00  0.00    -0.460 OA
BRANCH  74  75
ATOM     75  C   UNL A   1      35.727  22.628  24.373  1.00  0.00     0.339 C 
ATOM     76  O   UNL A   1      36.208  23.650  23.902  1.00  0.00    -0.246 OA
BRANCH  75  77
ATOM     77  C   UNL A   1      34.586  22.782  25.291  1.00  0.00     0.072 A 
ATOM     78  C   UNL A   1      34.951  23.045  26.631  1.00  0.00     0.016 A 
ATOM     79  C   UNL A   1      33.259  22.439  25.000  1.00  0.00     0.054 A 
ATOM     80  C   UNL A   1      34.022  22.949  27.668  1.00  0.00     0.001 A 
ATOM     81  C   UNL A   1      32.344  22.297  26.067  1.00  0.00     0.015 A 
ATOM     82  C   UNL A   1      32.723  22.541  27.389  1.00  0.00     0.001 A 
BRANCH  79  83
ATOM     83  C   UNL A   1      32.654  22.426  23.647  1.00  0.00     0.255 C 
ATOM     84  O   UNL A   1      32.103  21.379  23.300  1.00  0.00    -0.269 OA
BRANCH  83  85
ATOM     85  N   UNL A   1      32.634  23.550  22.830  1.00  0.00    -0.322 N 
ATOM     86  C   UNL A   1      33.214  23.340  21.507  1.00  0.00     0.132 C 
ATOM     87  C   UNL A   1      32.992  24.867  23.344  1.00  0.00     0.174 C 
ATOM     88  C   UNL A   1      33.125  24.614  20.686  1.00  0.00     0.093 C 
ATOM     89  S   UNL A   1      32.973  25.967  21.884  1.00  0.00    -0.130 SA
BRANCH  87  90
ATOM     90  C   UNL A   1      32.216  25.357  24.543  1.00  0.00    -0.015 A 
ATOM     91  C   UNL A   1      32.793  25.997  25.647  1.00  0.00     0.007 A 
ATOM     92  C   UNL A   1      30.811  25.260  24.504  1.00  0.00     0.007 A 
ATOM     93  C   UNL A   1      31.996  26.605  26.623  1.00  0.00     0.000 A 
ATOM     94  C   UNL A   1      30.016  25.862  25.479  1.00  0.00     0.000 A 
ATOM     95  C   UNL A   1      30.609  26.554  26.528  1.00  0.00     0.000 A 
ENDBRANCH  87  90
ENDBRANCH  83  85
ENDBRANCH  79  83
ENDBRANCH  75  77
ENDBRANCH  74  75
ENDBRANCH  73  74
ENDBRANCH  72  73
ENDBRANCH  71  72
ENDBRANCH  70  71
ENDBRANCH   1  70
TORSDOF 23
ENDMDL
MODEL 3
REMARK VINA RESULT:      -8.7      2.496      8.683
REMARK SMILES O=C(OCCOCCOCCOC(=O)c1ccccc1C(=O)N1CCS[C@H]1c1ccccc1)c1ccc(-c2c3nc(c(-c4ccc(S(=O)(=O)[O-])cc4)c4ccc([nH]4)c(-c4ccc(S(=O)(=O)[O-])cc4)c4nc(c(-c5ccc(S(=O)(=O)[O-])cc5)c5ccc2[nH]5)C=C4)C=C3)cc1
REMARK SMILES IDX 7 1 6 2 5 3 4 4 3 5 2 6 1 7 34 8 35 9 93 10 36 11 92 12
REMARK SMILES IDX 37 13 38 14 39 15 86 16 40 17 91 18 85 19 87 20 41 21 90 22
REMARK SMILES IDX 84 23 83 24 42 26 72 27 53 28 71 29 54 30 57 31 70 32 88 33
REMARK SMILES IDX 55 34 56 35 69 37 89 38 58 39 43 40 44 41 52 42 45 43 51 44
REMARK SMILES IDX 46 45 47 46 48 47 49 48 50 49 73 50 74 51 82 52 75 53 81 54
REMARK SMILES IDX 76 55 77 56 78 57 79 58 80 59 59 60 60 61 68 62 61 63 67 64
REMARK SMILES IDX 62 65 63 66 64 67 65 68 66 69 8 70 9 71 10 72 11 73 12 74
REMARK SMILES IDX 13 75 14 76 15 77 16 78 20 79 17 80 19 81 18 82 21 83 22 84
REMARK SMILES IDX 23 85 24 86 27 87 25 88 26 89 28 90 29 91 33 92 30 93 32 94
REMARK SMILES IDX 31 95
REMARK H PARENT 87 25 57 36
REMARK Flexibility Score: inf
ROOT
ATOM      1  C   UNL A   1      40.142  20.395  26.448  1.00  0.00     0.188 C 
ENDROOT
BRANCH   1   2
ATOM      2  O   UNL A   1      40.361  21.552  27.242  1.00  0.00    -0.376 OA
BRANCH   2   3
ATOM      3  C   UNL A   1      40.344  22.801  26.539  1.00  0.00     0.202 C 
BRANCH   3   4
ATOM      4  C   UNL A   1      41.717  23.210  26.001  1.00  0.00     0.261 C 
BRANCH   4   5
ATOM      5  O   UNL A   1      42.229  24.272  26.814  1.00  0.00    -0.460 OA
BRANCH   5   6
ATOM      6  C   UNL A   1      41.889  25.530  26.437  1.00  0.00     0.338 C 
ATOM      7  O   UNL A   1      41.622  25.937  25.319  1.00  0.00    -0.246 OA
BRANCH   6   8
ATOM      8  C   UNL A   1      42.014  26.332  27.661  1.00  0.00     0.060 A 
ATOM      9  C   UNL A   1      41.551  25.759  28.849  1.00  0.00     0.016 A 
ATOM     10  C   UNL A   1      42.421  27.661  27.622  1.00  0.00     0.016 A 
ATOM     11  C   UNL A   1      41.347  26.534  29.965  1.00  0.00     0.010 A 
ATOM     12  C   UNL A   1      42.282  28.432  28.779  1.00  0.00     0.010 A 
ATOM     13  C   UNL A   1      41.706  27.878  29.940  1.00  0.00    -0.014 A 
BRANCH  13  14
ATOM     14  C   UNL A   1      41.361  28.704  31.112  1.00  0.00     0.031 A 
ATOM     15  C   UNL A   1      40.200  29.635  31.024  1.00  0.00     0.074 A 
ATOM     16  C   UNL A   1      42.004  28.529  32.281  1.00  0.00     0.049 A 
ATOM     17  N   UNL A   1      39.832  30.556  31.868  1.00  0.00    -0.248 NA
ATOM     18  C   UNL A   1      39.316  29.494  29.853  1.00  0.00     0.031 C 
ATOM     19  C   UNL A   1      42.986  27.481  32.544  1.00  0.00     0.029 A 
ATOM     20  N   UNL A   1      41.925  29.206  33.469  1.00  0.00    -0.354 N 
ATOM     21  C   UNL A   1      38.694  31.128  31.322  1.00  0.00     0.074 A 
ATOM     22  C   UNL A   1      38.427  30.453  30.072  1.00  0.00     0.031 C 
ATOM     23  C   UNL A   1      43.438  27.604  33.797  1.00  0.00     0.029 A 
ATOM     24  C   UNL A   1      42.876  28.800  34.376  1.00  0.00     0.049 A 
ATOM     25  H   UNL A   1      41.260  29.909  33.654  1.00  0.00     0.167 HD
ATOM     26  C   UNL A   1      37.958  32.136  31.835  1.00  0.00     0.031 A 
ATOM     27  C   UNL A   1      43.326  29.370  35.506  1.00  0.00     0.031 A 
ATOM     28  C   UNL A   1      38.257  32.770  33.089  1.00  0.00     0.049 A 
ATOM     29  C   UNL A   1      42.637  30.617  35.948  1.00  0.00     0.074 A 
ATOM     30  C   UNL A   1      37.597  33.818  33.702  1.00  0.00     0.029 A 
ATOM     31  N   UNL A   1      39.314  32.417  33.918  1.00  0.00    -0.354 N 
ATOM     32  N   UNL A   1      41.602  31.205  35.399  1.00  0.00    -0.248 NA
ATOM     33  C   UNL A   1      43.155  31.277  37.148  1.00  0.00     0.031 C 
ATOM     34  C   UNL A   1      38.297  34.144  34.868  1.00  0.00     0.029 A 
ATOM     35  C   UNL A   1      39.359  33.262  35.011  1.00  0.00     0.049 A 
ATOM     36  H   UNL A   1      39.939  31.676  33.752  1.00  0.00     0.167 HD
ATOM     37  C   UNL A   1      41.323  32.295  36.201  1.00  0.00     0.074 A 
ATOM     38  C   UNL A   1      42.295  32.277  37.279  1.00  0.00     0.031 C 
ATOM     39  C   UNL A   1      40.346  33.220  36.060  1.00  0.00     0.031 A 
BRANCH  26  40
ATOM     40  C   UNL A   1      36.830  32.664  30.999  1.00  0.00    -0.014 A 
ATOM     41  C   UNL A   1      35.489  32.343  31.272  1.00  0.00     0.010 A 
ATOM     42  C   UNL A   1      37.130  33.528  29.931  1.00  0.00     0.010 A 
ATOM     43  C   UNL A   1      34.466  32.876  30.481  1.00  0.00     0.020 A 
ATOM     44  C   UNL A   1      36.110  34.076  29.152  1.00  0.00     0.020 A 
ATOM     45  C   UNL A   1      34.784  33.741  29.428  1.00  0.00     0.054 A 
BRANCH  45  46
ATOM     46  S   UNL A   1      33.435  34.461  28.454  1.00  0.00     0.124 S 
ATOM     47  O   UNL A   1      34.132  35.490  27.686  1.00  0.00    -0.237 OA
ATOM     48  O   UNL A   1      32.954  33.318  27.681  1.00  0.00    -0.237 OA
ATOM     49  O   UNL A   1      32.505  34.962  29.463  1.00  0.00    -0.744 OA
ENDBRANCH  45  46
ENDBRANCH  26  40
BRANCH  27  50
ATOM     50  C   UNL A   1      44.554  28.857  36.176  1.00  0.00    -0.014 A 
ATOM     51  C   UNL A   1      45.838  29.221  35.743  1.00  0.00     0.010 A 
ATOM     52  C   UNL A   1      44.429  27.971  37.266  1.00  0.00     0.010 A 
ATOM     53  C   UNL A   1      46.972  28.680  36.361  1.00  0.00     0.020 A 
ATOM     54  C   UNL A   1      45.557  27.450  37.903  1.00  0.00     0.020 A 
ATOM     55  C   UNL A   1      46.824  27.792  37.432  1.00  0.00     0.054 A 
BRANCH  55  56
ATOM     56  S   UNL A   1      48.305  27.095  38.217  1.00  0.00     0.124 S 
ATOM     57  O   UNL A   1      48.238  27.671  39.556  1.00  0.00    -0.237 OA
ATOM     58  O   UNL A   1      48.064  25.657  38.129  1.00  0.00    -0.237 OA
ATOM     59  O   UNL A   1      49.397  27.585  37.377  1.00  0.00    -0.744 OA
ENDBRANCH  55  56
ENDBRANCH  27  50
BRANCH  39  60
ATOM     60  C   UNL A   1      40.278  34.276  37.118  1.00  0.00    -0.014 A 
ATOM     61  C   UNL A   1      41.035  35.454  37.004  1.00  0.00     0.010 A 
ATOM     62  C   UNL A   1      39.410  34.103  38.208  1.00  0.00     0.010 A 
ATOM     63  C   UNL A   1      40.933  36.443  37.979  1.00  0.00     0.020 A 
ATOM     64  C   UNL A   1      39.283  35.104  39.168  1.00  0.00     0.020 A 
ATOM     65  C   UNL A   1      40.052  36.264  39.051  1.00  0.00     0.054 A 
BRANCH  65  66
ATOM     66  S   UNL A   1      39.881  37.599  40.263  1.00  0.00     0.124 S 
ATOM     67  O   UNL A   1      39.036  38.552  39.547  1.00  0.00    -0.237 OA
ATOM     68  O   UNL A   1      39.249  36.924  41.394  1.00  0.00    -0.237 OA
ATOM     69  O   UNL A   1      41.256  38.035  40.493  1.00  0.00    -0.744 OA
ENDBRANCH  65  66
ENDBRANCH  39  60
ENDBRANCH  13  14
ENDBRANCH   6   8
ENDBRANCH   5   6
ENDBRANCH   4   5
ENDBRANCH   3   4
ENDBRANCH   2   3
ENDBRANCH   1   2
BRANCH   1  70
ATOM     70  C   UNL A   1      39.159  20.617  25.300  1.00  0.00     0.188 C 
BRANCH  70  71
ATOM     71  O   UNL A   1      37.797  20.789  25.656  1.00  0.00    -0.376 OA
BRANCH  71  72
ATOM     72  C   UNL A   1      36.842  19.885  25.095  1.00  0.00     0.202 C 
BRANCH  72  73
ATOM     73  C   UNL A   1      35.425  20.363  24.743  1.00  0.00     0.261 C 
BRANCH  73  74
ATOM     74  O   UNL A   1      34.370  20.459  25.727  1.00  0.00    -0.460 OA
BRANCH  74  75
ATOM     75  C   UNL A   1      33.290  19.688  25.468  1.00  0.00     0.339 C 
ATOM     76  O   UNL A   1      32.858  18.816  26.209  1.00  0.00    -0.246 OA
BRANCH  75  77
ATOM     77  C   UNL A   1      32.572  19.913  24.202  1.00  0.00     0.072 A 
ATOM     78  C   UNL A   1      32.594  18.811  23.318  1.00  0.00     0.016 A 
ATOM     79  C   UNL A   1      32.130  21.157  23.731  1.00  0.00     0.054 A 
ATOM     80  C   UNL A   1      32.205  18.943  21.984  1.00  0.00     0.001 A 
ATOM     81  C   UNL A   1      31.788  21.284  22.366  1.00  0.00     0.015 A 
ATOM     82  C   UNL A   1      31.833  20.190  21.499  1.00  0.00     0.001 A 
BRANCH  79  83
ATOM     83  C   UNL A   1      31.767  22.316  24.581  1.00  0.00     0.255 C 
ATOM     84  O   UNL A   1      31.417  22.064  25.735  1.00  0.00    -0.269 OA
BRANCH  83  85
ATOM     85  N   UNL A   1      31.883  23.629  24.138  1.00  0.00    -0.322 N 
ATOM     86  C   UNL A   1      30.626  24.226  23.700  1.00  0.00     0.132 C 
ATOM     87  C   UNL A   1      32.977  24.040  23.266  1.00  0.00     0.174 C 
ATOM     88  C   UNL A   1      30.851  25.661  23.258  1.00  0.00     0.093 C 
ATOM     89  S   UNL A   1      32.611  25.779  22.834  1.00  0.00    -0.130 SA
BRANCH  87  90
ATOM     90  C   UNL A   1      34.376  23.771  23.767  1.00  0.00    -0.015 A 
ATOM     91  C   UNL A   1      35.421  23.293  22.965  1.00  0.00     0.007 A 
ATOM     92  C   UNL A   1      34.680  24.122  25.097  1.00  0.00     0.007 A 
ATOM     93  C   UNL A   1      36.736  23.262  23.443  1.00  0.00     0.000 A 
ATOM     94  C   UNL A   1      35.989  24.086  25.575  1.00  0.00     0.000 A 
ATOM     95  C   UNL A   1      37.022  23.676  24.739  1.00  0.00     0.000 A 
ENDBRANCH  87  90
ENDBRANCH  83  85
ENDBRANCH  79  83
ENDBRANCH  75  77
ENDBRANCH  74  75
ENDBRANCH  73  74
ENDBRANCH  72  73
ENDBRANCH  71  72
ENDBRANCH  70  71
ENDBRANCH   1  70
TORSDOF 23
ENDMDL
