MODEL 1
REMARK VINA RESULT:      -8.9      0.000      0.000
REMARK SMILES O=C(CCC1CC[NH+]([C@H]2CCO[C@]3(CCSC3)C2)CC1)OCCOCCOCCOC(=O)c1ccc(-c2c3nc(c(-c4ccc(S(=O)(=O)[O-])cc4)c4ccc([nH]4)c(-c4ccc(S(=O)(=O)[O-])cc4)c4nc(c(-c5ccc(S(=O)(=O)[O-])cc5)c5ccc2[nH]5)C=C4)C=C3)cc1
REMARK SMILES IDX 25 1 24 2 23 3 22 4 21 5 2 6 1 7 3 8 4 9 5 10 6 11 20 12
REMARK SMILES IDX 7 13 19 14 8 15 9 17 10 18 18 19 11 20 13 21 12 22 14 23
REMARK SMILES IDX 17 24 15 25 16 26 26 27 27 28 28 29 29 30 30 31 31 32 32 33
REMARK SMILES IDX 33 34 34 35 92 36 35 37 91 38 36 39 37 40 38 41 85 42 39 43
REMARK SMILES IDX 90 44 84 45 86 46 40 47 89 48 83 49 82 50 41 52 71 53 52 54
REMARK SMILES IDX 70 55 53 56 56 57 69 58 87 59 54 60 55 61 68 63 88 64 57 65
REMARK SMILES IDX 42 66 43 67 51 68 44 69 50 70 45 71 46 72 47 73 48 74 49 75
REMARK SMILES IDX 72 76 73 77 81 78 74 79 80 80 75 81 76 82 77 83 78 84 79 85
REMARK SMILES IDX 58 86 59 87 67 88 60 89 66 90 61 91 62 92 63 93 64 94 65 95
REMARK H PARENT 8 16 86 51 56 62
REMARK Flexibility Score: inf
ROOT
ATOM      1  C   UNL A   1      34.790  30.421  27.298  1.00  0.00     0.188 C 
ENDROOT
BRANCH   1   2
ATOM      2  O   UNL A   1      33.908  29.410  27.711  1.00  0.00    -0.376 OA
BRANCH   2   3
ATOM      3  C   UNL A   1      32.641  29.310  27.104  1.00  0.00     0.202 C 
BRANCH   3   4
ATOM      4  C   UNL A   1      32.341  30.102  25.830  1.00  0.00     0.261 C 
BRANCH   4   5
ATOM      5  O   UNL A   1      31.687  29.554  24.633  1.00  0.00    -0.463 OA
BRANCH   5   6
ATOM      6  C   UNL A   1      30.521  29.342  24.007  1.00  0.00     0.305 C 
ATOM      7  O   UNL A   1      29.761  30.301  23.859  1.00  0.00    -0.252 OA
BRANCH   6   8
ATOM      8  C   UNL A   1      30.089  27.978  23.519  1.00  0.00     0.123 C 
BRANCH   8   9
ATOM      9  C   UNL A   1      30.865  27.455  22.311  1.00  0.00     0.016 C 
BRANCH   9  10
ATOM     10  C   UNL A   1      31.859  26.388  22.772  1.00  0.00     0.001 C 
ATOM     11  C   UNL A   1      31.301  25.499  23.881  1.00  0.00     0.065 C 
ATOM     12  C   UNL A   1      33.307  26.877  22.907  1.00  0.00     0.065 C 
ATOM     13  C   UNL A   1      31.968  25.694  25.230  1.00  0.00     0.262 C 
ATOM     14  C   UNL A   1      33.776  27.002  24.342  1.00  0.00     0.262 C 
ATOM     15  N   UNL A   1      33.419  25.851  25.167  1.00  0.00    -0.332 N 
ATOM     16  H   UNL A   1      33.761  26.111  26.092  1.00  0.00     0.348 HD
BRANCH  15  17
ATOM     17  C   UNL A   1      34.211  24.611  25.094  1.00  0.00     0.189 C 
ATOM     18  C   UNL A   1      35.658  24.616  25.618  1.00  0.00     0.093 C 
ATOM     19  C   UNL A   1      33.470  23.406  25.711  1.00  0.00     0.101 C 
ATOM     20  C   UNL A   1      36.321  23.262  25.402  1.00  0.00     0.167 C 
ATOM     21  C   UNL A   1      34.229  22.080  25.495  1.00  0.00     0.084 C 
ATOM     22  O   UNL A   1      35.571  22.213  25.996  1.00  0.00    -0.374 OA
ATOM     23  C   UNL A   1      34.249  21.583  24.038  1.00  0.00     0.047 C 
ATOM     24  C   UNL A   1      33.578  20.933  26.287  1.00  0.00     0.105 C 
ATOM     25  C   UNL A   1      32.898  20.979  23.699  1.00  0.00     0.072 C 
ATOM     26  S   UNL A   1      32.302  20.208  25.221  1.00  0.00    -0.159 SA
ENDBRANCH  15  17
ENDBRANCH   9  10
ENDBRANCH   8   9
ENDBRANCH   6   8
ENDBRANCH   5   6
ENDBRANCH   4   5
ENDBRANCH   3   4
ENDBRANCH   2   3
ENDBRANCH   1   2
BRANCH   1  27
ATOM     27  C   UNL A   1      34.860  31.635  28.223  1.00  0.00     0.188 C 
BRANCH  27  28
ATOM     28  O   UNL A   1      33.989  32.738  28.032  1.00  0.00    -0.376 OA
BRANCH  28  29
ATOM     29  C   UNL A   1      34.470  34.068  28.175  1.00  0.00     0.202 C 
BRANCH  29  30
ATOM     30  C   UNL A   1      33.716  35.056  29.076  1.00  0.00     0.261 C 
BRANCH  30  31
ATOM     31  O   UNL A   1      33.198  34.515  30.303  1.00  0.00    -0.460 OA
BRANCH  31  32
ATOM     32  C   UNL A   1      33.361  35.294  31.398  1.00  0.00     0.338 C 
ATOM     33  O   UNL A   1      32.692  36.272  31.712  1.00  0.00    -0.246 OA
BRANCH  32  34
ATOM     34  C   UNL A   1      34.409  34.742  32.278  1.00  0.00     0.060 A 
ATOM     35  C   UNL A   1      35.715  35.246  32.173  1.00  0.00     0.016 A 
ATOM     36  C   UNL A   1      34.133  33.662  33.115  1.00  0.00     0.016 A 
ATOM     37  C   UNL A   1      36.760  34.643  32.876  1.00  0.00     0.010 A 
ATOM     38  C   UNL A   1      35.184  33.045  33.799  1.00  0.00     0.010 A 
ATOM     39  C   UNL A   1      36.506  33.506  33.653  1.00  0.00    -0.014 A 
BRANCH  39  40
ATOM     40  C   UNL A   1      37.618  32.659  34.149  1.00  0.00     0.031 A 
ATOM     41  C   UNL A   1      38.288  33.046  35.440  1.00  0.00     0.074 A 
ATOM     42  C   UNL A   1      38.071  31.606  33.448  1.00  0.00     0.049 A 
ATOM     43  N   UNL A   1      39.384  32.581  35.979  1.00  0.00    -0.248 NA
ATOM     44  C   UNL A   1      37.636  34.114  36.215  1.00  0.00     0.031 C 
ATOM     45  C   UNL A   1      37.482  31.092  32.214  1.00  0.00     0.029 A 
ATOM     46  N   UNL A   1      39.163  30.802  33.665  1.00  0.00    -0.354 N 
ATOM     47  C   UNL A   1      39.573  33.322  37.140  1.00  0.00     0.074 A 
ATOM     48  C   UNL A   1      38.483  34.271  37.220  1.00  0.00     0.031 C 
ATOM     49  C   UNL A   1      38.244  30.082  31.760  1.00  0.00     0.029 A 
ATOM     50  C   UNL A   1      39.396  29.910  32.646  1.00  0.00     0.049 A 
ATOM     51  H   UNL A   1      39.724  30.857  34.472  1.00  0.00     0.167 HD
ATOM     52  C   UNL A   1      40.571  33.231  38.052  1.00  0.00     0.031 A 
ATOM     53  C   UNL A   1      40.439  29.085  32.424  1.00  0.00     0.031 A 
ATOM     54  C   UNL A   1      41.667  32.304  37.956  1.00  0.00     0.049 A 
ATOM     55  C   UNL A   1      41.577  29.039  33.411  1.00  0.00     0.074 A 
ATOM     56  C   UNL A   1      42.717  32.120  38.837  1.00  0.00     0.029 A 
ATOM     57  N   UNL A   1      41.862  31.416  36.909  1.00  0.00    -0.354 N 
ATOM     58  N   UNL A   1      41.739  29.731  34.514  1.00  0.00    -0.248 NA
ATOM     59  C   UNL A   1      42.670  28.098  33.126  1.00  0.00     0.031 C 
ATOM     60  C   UNL A   1      43.580  31.164  38.292  1.00  0.00     0.029 A 
ATOM     61  C   UNL A   1      43.031  30.702  37.106  1.00  0.00     0.049 A 
ATOM     62  H   UNL A   1      41.258  31.310  36.139  1.00  0.00     0.167 HD
ATOM     63  C   UNL A   1      42.936  29.289  35.070  1.00  0.00     0.074 A 
ATOM     64  C   UNL A   1      43.457  28.269  34.182  1.00  0.00     0.031 C 
ATOM     65  C   UNL A   1      43.541  29.686  36.217  1.00  0.00     0.031 A 
BRANCH  52  66
ATOM     66  C   UNL A   1      40.550  34.214  39.193  1.00  0.00    -0.014 A 
ATOM     67  C   UNL A   1      41.109  35.500  39.069  1.00  0.00     0.010 A 
ATOM     68  C   UNL A   1      39.975  33.834  40.420  1.00  0.00     0.010 A 
ATOM     69  C   UNL A   1      41.152  36.359  40.170  1.00  0.00     0.020 A 
ATOM     70  C   UNL A   1      39.988  34.702  41.514  1.00  0.00     0.020 A 
ATOM     71  C   UNL A   1      40.603  35.950  41.389  1.00  0.00     0.054 A 
BRANCH  71  72
ATOM     72  S   UNL A   1      40.700  37.070  42.812  1.00  0.00     0.124 S 
ATOM     73  O   UNL A   1      41.655  36.377  43.674  1.00  0.00    -0.237 OA
ATOM     74  O   UNL A   1      41.184  38.311  42.211  1.00  0.00    -0.237 OA
ATOM     75  O   UNL A   1      39.329  37.116  43.313  1.00  0.00    -0.744 OA
ENDBRANCH  71  72
ENDBRANCH  52  66
BRANCH  53  76
ATOM     76  C   UNL A   1      40.460  28.259  31.187  1.00  0.00    -0.014 A 
ATOM     77  C   UNL A   1      39.370  27.439  30.854  1.00  0.00     0.010 A 
ATOM     78  C   UNL A   1      41.553  28.341  30.302  1.00  0.00     0.010 A 
ATOM     79  C   UNL A   1      39.364  26.728  29.649  1.00  0.00     0.020 A 
ATOM     80  C   UNL A   1      41.539  27.652  29.087  1.00  0.00     0.020 A 
ATOM     81  C   UNL A   1      40.441  26.850  28.768  1.00  0.00     0.054 A 
BRANCH  81  82
ATOM     82  S   UNL A   1      40.355  26.012  27.160  1.00  0.00     0.124 S 
ATOM     83  O   UNL A   1      41.442  25.044  27.262  1.00  0.00    -0.237 OA
ATOM     84  O   UNL A   1      39.005  25.454  27.170  1.00  0.00    -0.237 OA
ATOM     85  O   UNL A   1      40.564  27.094  26.200  1.00  0.00    -0.744 OA
ENDBRANCH  81  82
ENDBRANCH  53  76
BRANCH  65  86
ATOM     86  C   UNL A   1      44.816  28.991  36.623  1.00  0.00    -0.014 A 
ATOM     87  C   UNL A   1      44.800  27.814  37.390  1.00  0.00     0.010 A 
ATOM     88  C   UNL A   1      46.045  29.477  36.140  1.00  0.00     0.010 A 
ATOM     89  C   UNL A   1      45.994  27.142  37.676  1.00  0.00     0.020 A 
ATOM     90  C   UNL A   1      47.237  28.796  36.402  1.00  0.00     0.020 A 
ATOM     91  C   UNL A   1      47.203  27.634  37.176  1.00  0.00     0.054 A 
BRANCH  91  92
ATOM     92  S   UNL A   1      48.728  26.704  37.497  1.00  0.00     0.124 S 
ATOM     93  O   UNL A   1      48.374  25.368  37.027  1.00  0.00    -0.237 OA
ATOM     94  O   UNL A   1      49.714  27.415  36.687  1.00  0.00    -0.237 OA
ATOM     95  O   UNL A   1      48.913  26.828  38.941  1.00  0.00    -0.744 OA
ENDBRANCH  91  92
ENDBRANCH  65  86
ENDBRANCH  39  40
ENDBRANCH  32  34
ENDBRANCH  31  32
ENDBRANCH  30  31
ENDBRANCH  29  30
ENDBRANCH  28  29
ENDBRANCH  27  28
ENDBRANCH   1  27
TORSDOF 23
ENDMDL
MODEL 2
REMARK VINA RESULT:      -8.8      6.306     10.734
REMARK SMILES O=C(CCC1CC[NH+]([C@H]2CCO[C@]3(CCSC3)C2)CC1)OCCOCCOCCOC(=O)c1ccc(-c2c3nc(c(-c4ccc(S(=O)(=O)[O-])cc4)c4ccc([nH]4)c(-c4ccc(S(=O)(=O)[O-])cc4)c4nc(c(-c5ccc(S(=O)(=O)[O-])cc5)c5ccc2[nH]5)C=C4)C=C3)cc1
REMARK SMILES IDX 25 1 24 2 23 3 22 4 21 5 2 6 1 7 3 8 4 9 5 10 6 11 20 12
REMARK SMILES IDX 7 13 19 14 8 15 9 17 10 18 18 19 11 20 13 21 12 22 14 23
REMARK SMILES IDX 17 24 15 25 16 26 26 27 27 28 28 29 29 30 30 31 31 32 32 33
REMARK SMILES IDX 33 34 34 35 92 36 35 37 91 38 36 39 37 40 38 41 85 42 39 43
REMARK SMILES IDX 90 44 84 45 86 46 40 47 89 48 83 49 82 50 41 52 71 53 52 54
REMARK SMILES IDX 70 55 53 56 56 57 69 58 87 59 54 60 55 61 68 63 88 64 57 65
REMARK SMILES IDX 42 66 43 67 51 68 44 69 50 70 45 71 46 72 47 73 48 74 49 75
REMARK SMILES IDX 72 76 73 77 81 78 74 79 80 80 75 81 76 82 77 83 78 84 79 85
REMARK SMILES IDX 58 86 59 87 67 88 60 89 66 90 61 91 62 92 63 93 64 94 65 95
REMARK H PARENT 8 16 86 51 56 62
REMARK Flexibility Score: inf
ROOT
ATOM      1  C   UNL A   1      33.399  31.144  26.916  1.00  0.00     0.188 C 
ENDROOT
BRANCH   1   2
ATOM      2  O   UNL A   1      33.364  30.023  27.758  1.00  0.00    -0.376 OA
BRANCH   2   3
ATOM      3  C   UNL A   1      33.072  28.758  27.210  1.00  0.00     0.202 C 
BRANCH   3   4
ATOM      4  C   UNL A   1      31.737  28.523  26.503  1.00  0.00     0.261 C 
BRANCH   4   5
ATOM      5  O   UNL A   1      31.389  29.036  25.171  1.00  0.00    -0.463 OA
BRANCH   5   6
ATOM      6  C   UNL A   1      30.446  29.102  24.220  1.00  0.00     0.305 C 
ATOM      7  O   UNL A   1      29.933  30.198  23.987  1.00  0.00    -0.252 OA
BRANCH   6   8
ATOM      8  C   UNL A   1      29.961  27.887  23.461  1.00  0.00     0.123 C 
BRANCH   8   9
ATOM      9  C   UNL A   1      30.709  27.605  22.159  1.00  0.00     0.016 C 
BRANCH   9  10
ATOM     10  C   UNL A   1      31.665  26.429  22.369  1.00  0.00     0.001 C 
ATOM     11  C   UNL A   1      31.100  25.370  23.314  1.00  0.00     0.065 C 
ATOM     12  C   UNL A   1      33.139  26.824  22.535  1.00  0.00     0.065 C 
ATOM     13  C   UNL A   1      31.820  25.277  24.646  1.00  0.00     0.262 C 
ATOM     14  C   UNL A   1      33.660  26.653  23.946  1.00  0.00     0.262 C 
ATOM     15  N   UNL A   1      33.274  25.382  24.554  1.00  0.00    -0.332 N 
ATOM     16  H   UNL A   1      33.658  25.448  25.497  1.00  0.00     0.348 HD
BRANCH  15  17
ATOM     17  C   UNL A   1      34.002  24.147  24.216  1.00  0.00     0.189 C 
ATOM     18  C   UNL A   1      35.518  24.219  23.959  1.00  0.00     0.093 C 
ATOM     19  C   UNL A   1      33.728  23.013  25.225  1.00  0.00     0.101 C 
ATOM     20  C   UNL A   1      36.071  22.854  23.572  1.00  0.00     0.167 C 
ATOM     21  C   UNL A   1      34.364  21.676  24.788  1.00  0.00     0.084 C 
ATOM     22  O   UNL A   1      35.769  21.871  24.551  1.00  0.00    -0.374 OA
ATOM     23  C   UNL A   1      33.700  21.023  23.561  1.00  0.00     0.047 C 
ATOM     24  C   UNL A   1      34.249  20.617  25.899  1.00  0.00     0.105 C 
ATOM     25  C   UNL A   1      32.393  20.376  23.986  1.00  0.00     0.072 C 
ATOM     26  S   UNL A   1      32.661  19.772  25.668  1.00  0.00    -0.159 SA
ENDBRANCH  15  17
ENDBRANCH   9  10
ENDBRANCH   8   9
ENDBRANCH   6   8
ENDBRANCH   5   6
ENDBRANCH   4   5
ENDBRANCH   3   4
ENDBRANCH   2   3
ENDBRANCH   1   2
BRANCH   1  27
ATOM     27  C   UNL A   1      32.877  32.438  27.540  1.00  0.00     0.188 C 
BRANCH  27  28
ATOM     28  O   UNL A   1      33.665  33.156  28.475  1.00  0.00    -0.376 OA
BRANCH  28  29
ATOM     29  C   UNL A   1      35.042  32.844  28.646  1.00  0.00     0.202 C 
BRANCH  29  30
ATOM     30  C   UNL A   1      35.723  33.128  29.992  1.00  0.00     0.261 C 
BRANCH  30  31
ATOM     31  O   UNL A   1      37.055  32.605  30.142  1.00  0.00    -0.460 OA
BRANCH  31  32
ATOM     32  C   UNL A   1      37.140  31.386  30.723  1.00  0.00     0.338 C 
ATOM     33  O   UNL A   1      36.337  30.884  31.501  1.00  0.00    -0.246 OA
BRANCH  32  34
ATOM     34  C   UNL A   1      38.302  30.641  30.203  1.00  0.00     0.060 A 
ATOM     35  C   UNL A   1      39.328  30.281  31.092  1.00  0.00     0.016 A 
ATOM     36  C   UNL A   1      38.436  30.402  28.836  1.00  0.00     0.016 A 
ATOM     37  C   UNL A   1      40.510  29.714  30.609  1.00  0.00     0.010 A 
ATOM     38  C   UNL A   1      39.629  29.859  28.353  1.00  0.00     0.010 A 
ATOM     39  C   UNL A   1      40.685  29.549  29.230  1.00  0.00    -0.014 A 
BRANCH  39  40
ATOM     40  C   UNL A   1      42.024  29.257  28.663  1.00  0.00     0.031 A 
ATOM     41  C   UNL A   1      42.307  27.858  28.186  1.00  0.00     0.074 A 
ATOM     42  C   UNL A   1      42.994  30.186  28.624  1.00  0.00     0.049 A 
ATOM     43  N   UNL A   1      43.440  27.315  27.826  1.00  0.00    -0.248 NA
ATOM     44  C   UNL A   1      41.151  26.948  28.122  1.00  0.00     0.031 C 
ATOM     45  C   UNL A   1      42.838  31.589  29.005  1.00  0.00     0.029 A 
ATOM     46  N   UNL A   1      44.317  30.072  28.278  1.00  0.00    -0.354 N 
ATOM     47  C   UNL A   1      43.143  25.991  27.525  1.00  0.00     0.074 A 
ATOM     48  C   UNL A   1      41.724  25.813  27.753  1.00  0.00     0.031 C 
ATOM     49  C   UNL A   1      44.033  32.196  28.908  1.00  0.00     0.029 A 
ATOM     50  C   UNL A   1      45.042  31.217  28.505  1.00  0.00     0.049 A 
ATOM     51  H   UNL A   1      44.709  29.250  27.902  1.00  0.00     0.167 HD
ATOM     52  C   UNL A   1      43.976  25.007  27.110  1.00  0.00     0.031 A 
ATOM     53  C   UNL A   1      46.371  31.439  28.443  1.00  0.00     0.031 A 
ATOM     54  C   UNL A   1      45.390  25.181  26.908  1.00  0.00     0.049 A 
ATOM     55  C   UNL A   1      47.298  30.319  28.044  1.00  0.00     0.074 A 
ATOM     56  C   UNL A   1      46.317  24.253  26.471  1.00  0.00     0.029 A 
ATOM     57  N   UNL A   1      46.083  26.358  27.147  1.00  0.00    -0.354 N 
ATOM     58  N   UNL A   1      47.005  29.076  27.746  1.00  0.00    -0.248 NA
ATOM     59  C   UNL A   1      48.732  30.635  27.967  1.00  0.00     0.031 C 
ATOM     60  C   UNL A   1      47.581  24.852  26.503  1.00  0.00     0.029 A 
ATOM     61  C   UNL A   1      47.431  26.173  26.894  1.00  0.00     0.049 A 
ATOM     62  H   UNL A   1      45.676  27.202  27.451  1.00  0.00     0.167 HD
ATOM     63  C   UNL A   1      48.214  28.467  27.418  1.00  0.00     0.074 A 
ATOM     64  C   UNL A   1      49.241  29.481  27.554  1.00  0.00     0.031 C 
ATOM     65  C   UNL A   1      48.447  27.189  27.030  1.00  0.00     0.031 A 
BRANCH  52  66
ATOM     66  C   UNL A   1      43.379  23.638  26.916  1.00  0.00    -0.014 A 
ATOM     67  C   UNL A   1      42.844  22.908  27.993  1.00  0.00     0.010 A 
ATOM     68  C   UNL A   1      43.372  23.065  25.630  1.00  0.00     0.010 A 
ATOM     69  C   UNL A   1      42.375  21.606  27.800  1.00  0.00     0.020 A 
ATOM     70  C   UNL A   1      42.875  21.775  25.428  1.00  0.00     0.020 A 
ATOM     71  C   UNL A   1      42.406  21.043  26.520  1.00  0.00     0.054 A 
BRANCH  71  72
ATOM     72  S   UNL A   1      41.822  19.340  26.300  1.00  0.00     0.124 S 
ATOM     73  O   UNL A   1      42.523  18.939  25.082  1.00  0.00    -0.237 OA
ATOM     74  O   UNL A   1      42.271  18.685  27.527  1.00  0.00    -0.237 OA
ATOM     75  O   UNL A   1      40.374  19.483  26.168  1.00  0.00    -0.744 OA
ENDBRANCH  71  72
ENDBRANCH  52  66
BRANCH  53  76
ATOM     76  C   UNL A   1      46.899  32.782  28.805  1.00  0.00    -0.014 A 
ATOM     77  C   UNL A   1      46.999  33.798  27.840  1.00  0.00     0.010 A 
ATOM     78  C   UNL A   1      47.245  33.067  30.140  1.00  0.00     0.010 A 
ATOM     79  C   UNL A   1      47.420  35.080  28.206  1.00  0.00     0.020 A 
ATOM     80  C   UNL A   1      47.643  34.354  30.514  1.00  0.00     0.020 A 
ATOM     81  C   UNL A   1      47.726  35.353  29.542  1.00  0.00     0.054 A 
BRANCH  81  82
ATOM     82  S   UNL A   1      48.154  37.054  30.011  1.00  0.00     0.124 S 
ATOM     83  O   UNL A   1      48.563  37.629  28.735  1.00  0.00    -0.237 OA
ATOM     84  O   UNL A   1      46.896  37.554  30.559  1.00  0.00    -0.237 OA
ATOM     85  O   UNL A   1      49.223  36.877  30.993  1.00  0.00    -0.744 OA
ENDBRANCH  81  82
ENDBRANCH  53  76
BRANCH  65  86
ATOM     86  C   UNL A   1      49.860  26.804  26.671  1.00  0.00    -0.014 A 
ATOM     87  C   UNL A   1      50.760  26.327  27.639  1.00  0.00     0.010 A 
ATOM     88  C   UNL A   1      50.255  26.829  25.320  1.00  0.00     0.010 A 
ATOM     89  C   UNL A   1      52.036  25.892  27.262  1.00  0.00     0.020 A 
ATOM     90  C   UNL A   1      51.519  26.372  24.937  1.00  0.00     0.020 A 
ATOM     91  C   UNL A   1      52.405  25.913  25.913  1.00  0.00     0.054 A 
BRANCH  91  92
ATOM     92  S   UNL A   1      54.037  25.274  25.441  1.00  0.00     0.124 S 
ATOM     93  O   UNL A   1      54.514  26.306  24.525  1.00  0.00    -0.237 OA
ATOM     94  O   UNL A   1      54.735  25.199  26.722  1.00  0.00    -0.237 OA
ATOM     95  O   UNL A   1      53.739  23.983  24.825  1.00  0.00    -0.744 OA
ENDBRANCH  91  92
ENDBRANCH  65  86
ENDBRANCH  39  40
ENDBRANCH  32  34
ENDBRANCH  31  32
ENDBRANCH  30  31
ENDBRANCH  29  30
ENDBRANCH  28  29
ENDBRANCH  27  28
ENDBRANCH   1  27
TORSDOF 23
ENDMDL
MODEL 3
REMARK VINA RESULT:      -8.8      2.721      3.498
REMARK SMILES O=C(CCC1CC[NH+]([C@H]2CCO[C@]3(CCSC3)C2)CC1)OCCOCCOCCOC(=O)c1ccc(-c2c3nc(c(-c4ccc(S(=O)(=O)[O-])cc4)c4ccc([nH]4)c(-c4ccc(S(=O)(=O)[O-])cc4)c4nc(c(-c5ccc(S(=O)(=O)[O-])cc5)c5ccc2[nH]5)C=C4)C=C3)cc1
REMARK SMILES IDX 25 1 24 2 23 3 22 4 21 5 2 6 1 7 3 8 4 9 5 10 6 11 20 12
REMARK SMILES IDX 7 13 19 14 8 15 9 17 10 18 18 19 11 20 13 21 12 22 14 23
REMARK SMILES IDX 17 24 15 25 16 26 26 27 27 28 28 29 29 30 30 31 31 32 32 33
REMARK SMILES IDX 33 34 34 35 92 36 35 37 91 38 36 39 37 40 38 41 85 42 39 43
REMARK SMILES IDX 90 44 84 45 86 46 40 47 89 48 83 49 82 50 41 52 71 53 52 54
REMARK SMILES IDX 70 55 53 56 56 57 69 58 87 59 54 60 55 61 68 63 88 64 57 65
REMARK SMILES IDX 42 66 43 67 51 68 44 69 50 70 45 71 46 72 47 73 48 74 49 75
REMARK SMILES IDX 72 76 73 77 81 78 74 79 80 80 75 81 76 82 77 83 78 84 79 85
REMARK SMILES IDX 58 86 59 87 67 88 60 89 66 90 61 91 62 92 63 93 64 94 65 95
REMARK H PARENT 8 16 86 51 56 62
REMARK Flexibility Score: inf
ROOT
ATOM      1  C   UNL A   1      32.348  30.910  26.797  1.00  0.00     0.188 C 
ENDROOT
BRANCH   1   2
ATOM      2  O   UNL A   1      31.813  29.729  27.333  1.00  0.00    -0.376 OA
BRANCH   2   3
ATOM      3  C   UNL A   1      32.538  28.528  27.214  1.00  0.00     0.202 C 
BRANCH   3   4
ATOM      4  C   UNL A   1      32.903  27.991  25.830  1.00  0.00     0.261 C 
BRANCH   4   5
ATOM      5  O   UNL A   1      32.308  28.450  24.566  1.00  0.00    -0.463 OA
BRANCH   5   6
ATOM      6  C   UNL A   1      31.179  28.577  23.855  1.00  0.00     0.305 C 
ATOM      7  O   UNL A   1      30.511  29.602  24.008  1.00  0.00    -0.252 OA
BRANCH   6   8
ATOM      8  C   UNL A   1      30.676  27.504  22.916  1.00  0.00     0.123 C 
BRANCH   8   9
ATOM      9  C   UNL A   1      31.770  26.748  22.164  1.00  0.00     0.016 C 
BRANCH   9  10
ATOM     10  C   UNL A   1      32.240  25.564  23.012  1.00  0.00     0.001 C 
ATOM     11  C   UNL A   1      33.313  24.729  22.317  1.00  0.00     0.065 C 
ATOM     12  C   UNL A   1      31.119  24.819  23.749  1.00  0.00     0.065 C 
ATOM     13  C   UNL A   1      32.854  23.342  21.907  1.00  0.00     0.262 C 
ATOM     14  C   UNL A   1      30.819  23.450  23.177  1.00  0.00     0.262 C 
ATOM     15  N   UNL A   1      32.019  22.667  22.896  1.00  0.00    -0.332 N 
ATOM     16  H   UNL A   1      31.648  21.811  22.483  1.00  0.00     0.348 HD
BRANCH  15  17
ATOM     17  C   UNL A   1      32.725  21.973  23.988  1.00  0.00     0.189 C 
ATOM     18  C   UNL A   1      32.317  20.533  24.346  1.00  0.00     0.093 C 
ATOM     19  C   UNL A   1      34.257  22.022  23.817  1.00  0.00     0.101 C 
ATOM     20  C   UNL A   1      33.122  20.017  25.530  1.00  0.00     0.167 C 
ATOM     21  C   UNL A   1      35.000  21.434  25.036  1.00  0.00     0.084 C 
ATOM     22  O   UNL A   1      34.519  20.103  25.291  1.00  0.00    -0.374 OA
ATOM     23  C   UNL A   1      34.910  22.290  26.313  1.00  0.00     0.047 C 
ATOM     24  C   UNL A   1      36.508  21.310  24.759  1.00  0.00     0.105 C 
ATOM     25  C   UNL A   1      35.850  23.476  26.187  1.00  0.00     0.072 C 
ATOM     26  S   UNL A   1      37.269  22.886  25.236  1.00  0.00    -0.159 SA
ENDBRANCH  15  17
ENDBRANCH   9  10
ENDBRANCH   8   9
ENDBRANCH   6   8
ENDBRANCH   5   6
ENDBRANCH   4   5
ENDBRANCH   3   4
ENDBRANCH   2   3
ENDBRANCH   1   2
BRANCH   1  27
ATOM     27  C   UNL A   1      31.403  32.111  26.805  1.00  0.00     0.188 C 
BRANCH  27  28
ATOM     28  O   UNL A   1      31.892  33.411  27.089  1.00  0.00    -0.376 OA
BRANCH  28  29
ATOM     29  C   UNL A   1      33.068  33.583  27.870  1.00  0.00     0.202 C 
BRANCH  29  30
ATOM     30  C   UNL A   1      33.190  34.796  28.803  1.00  0.00     0.261 C 
BRANCH  30  31
ATOM     31  O   UNL A   1      34.149  34.674  29.867  1.00  0.00    -0.460 OA
BRANCH  31  32
ATOM     32  C   UNL A   1      33.653  34.822  31.118  1.00  0.00     0.338 C 
ATOM     33  O   UNL A   1      32.527  35.200  31.423  1.00  0.00    -0.246 OA
BRANCH  32  34
ATOM     34  C   UNL A   1      34.622  34.346  32.122  1.00  0.00     0.060 A 
ATOM     35  C   UNL A   1      35.484  35.276  32.726  1.00  0.00     0.016 A 
ATOM     36  C   UNL A   1      34.759  32.983  32.383  1.00  0.00     0.016 A 
ATOM     37  C   UNL A   1      36.514  34.840  33.563  1.00  0.00     0.010 A 
ATOM     38  C   UNL A   1      35.806  32.548  33.200  1.00  0.00     0.010 A 
ATOM     39  C   UNL A   1      36.710  33.469  33.762  1.00  0.00    -0.014 A 
BRANCH  39  40
ATOM     40  C   UNL A   1      37.964  32.960  34.370  1.00  0.00     0.031 A 
ATOM     41  C   UNL A   1      38.099  33.007  35.868  1.00  0.00     0.074 A 
ATOM     42  C   UNL A   1      38.989  32.523  33.618  1.00  0.00     0.049 A 
ATOM     43  N   UNL A   1      39.151  32.796  36.615  1.00  0.00    -0.248 NA
ATOM     44  C   UNL A   1      36.881  33.353  36.619  1.00  0.00     0.031 C 
ATOM     45  C   UNL A   1      38.970  32.377  32.165  1.00  0.00     0.029 A 
ATOM     46  N   UNL A   1      40.261  32.157  33.982  1.00  0.00    -0.354 N 
ATOM     47  C   UNL A   1      38.733  33.016  37.922  1.00  0.00     0.074 A 
ATOM     48  C   UNL A   1      37.334  33.385  37.863  1.00  0.00     0.031 C 
ATOM     49  C   UNL A   1      40.190  31.989  31.755  1.00  0.00     0.029 A 
ATOM     50  C   UNL A   1      41.083  31.904  32.911  1.00  0.00     0.049 A 
ATOM     51  H   UNL A   1      40.555  32.080  34.919  1.00  0.00     0.167 HD
ATOM     52  C   UNL A   1      39.450  32.933  39.069  1.00  0.00     0.031 A 
ATOM     53  C   UNL A   1      42.412  31.679  32.861  1.00  0.00     0.031 A 
ATOM     54  C   UNL A   1      40.846  32.591  39.121  1.00  0.00     0.049 A 
ATOM     55  C   UNL A   1      43.214  31.654  34.137  1.00  0.00     0.074 A 
ATOM     56  C   UNL A   1      41.658  32.461  40.233  1.00  0.00     0.029 A 
ATOM     57  N   UNL A   1      41.641  32.339  38.013  1.00  0.00    -0.354 N 
ATOM     58  N   UNL A   1      42.807  31.848  35.369  1.00  0.00    -0.248 NA
ATOM     59  C   UNL A   1      44.652  31.375  34.016  1.00  0.00     0.031 C 
ATOM     60  C   UNL A   1      42.958  32.191  39.793  1.00  0.00     0.029 A 
ATOM     61  C   UNL A   1      42.941  32.083  38.412  1.00  0.00     0.049 A 
ATOM     62  H   UNL A   1      41.326  32.343  37.080  1.00  0.00     0.167 HD
ATOM     63  C   UNL A   1      43.932  31.686  36.173  1.00  0.00     0.074 A 
ATOM     64  C   UNL A   1      45.036  31.377  35.287  1.00  0.00     0.031 C 
ATOM     65  C   UNL A   1      44.035  31.774  37.522  1.00  0.00     0.031 A 
BRANCH  52  66
ATOM     66  C   UNL A   1      38.741  33.290  40.349  1.00  0.00    -0.014 A 
ATOM     67  C   UNL A   1      38.704  34.612  40.827  1.00  0.00     0.010 A 
ATOM     68  C   UNL A   1      38.117  32.274  41.097  1.00  0.00     0.010 A 
ATOM     69  C   UNL A   1      38.114  34.900  42.061  1.00  0.00     0.020 A 
ATOM     70  C   UNL A   1      37.499  32.563  42.316  1.00  0.00     0.020 A 
ATOM     71  C   UNL A   1      37.527  33.872  42.803  1.00  0.00     0.054 A 
BRANCH  71  72
ATOM     72  S   UNL A   1      36.796  34.265  44.416  1.00  0.00     0.124 S 
ATOM     73  O   UNL A   1      37.671  33.529  45.328  1.00  0.00    -0.237 OA
ATOM     74  O   UNL A   1      36.910  35.720  44.475  1.00  0.00    -0.237 OA
ATOM     75  O   UNL A   1      35.432  33.752  44.314  1.00  0.00    -0.744 OA
ENDBRANCH  71  72
ENDBRANCH  52  66
BRANCH  53  76
ATOM     76  C   UNL A   1      43.066  31.493  31.537  1.00  0.00    -0.014 A 
ATOM     77  C   UNL A   1      43.148  30.221  30.950  1.00  0.00     0.010 A 
ATOM     78  C   UNL A   1      43.557  32.608  30.830  1.00  0.00     0.010 A 
ATOM     79  C   UNL A   1      43.692  30.067  29.671  1.00  0.00     0.020 A 
ATOM     80  C   UNL A   1      44.079  32.462  29.542  1.00  0.00     0.020 A 
ATOM     81  C   UNL A   1      44.141  31.189  28.970  1.00  0.00     0.054 A 
BRANCH  81  82
ATOM     82  S   UNL A   1      44.732  30.979  27.267  1.00  0.00     0.124 S 
ATOM     83  O   UNL A   1      45.217  32.317  26.945  1.00  0.00    -0.237 OA
ATOM     84  O   UNL A   1      45.758  29.951  27.417  1.00  0.00    -0.237 OA
ATOM     85  O   UNL A   1      43.537  30.552  26.542  1.00  0.00    -0.744 OA
ENDBRANCH  81  82
ENDBRANCH  53  76
BRANCH  65  86
ATOM     86  C   UNL A   1      45.375  31.489  38.150  1.00  0.00    -0.014 A 
ATOM     87  C   UNL A   1      46.271  32.522  38.473  1.00  0.00     0.010 A 
ATOM     88  C   UNL A   1      45.695  30.166  38.512  1.00  0.00     0.010 A 
ATOM     89  C   UNL A   1      47.469  32.235  39.137  1.00  0.00     0.020 A 
ATOM     90  C   UNL A   1      46.878  29.879  39.198  1.00  0.00     0.020 A 
ATOM     91  C   UNL A   1      47.763  30.917  39.500  1.00  0.00     0.054 A 
BRANCH  91  92
ATOM     92  S   UNL A   1      49.286  30.580  40.427  1.00  0.00     0.124 S 
ATOM     93  O   UNL A   1      50.299  31.215  39.588  1.00  0.00    -0.237 OA
ATOM     94  O   UNL A   1      49.033  31.233  41.709  1.00  0.00    -0.237 OA
ATOM     95  O   UNL A   1      49.346  29.121  40.479  1.00  0.00    -0.744 OA
ENDBRANCH  91  92
ENDBRANCH  65  86
ENDBRANCH  39  40
ENDBRANCH  32  34
ENDBRANCH  31  32
ENDBRANCH  30  31
ENDBRANCH  29  30
ENDBRANCH  28  29
ENDBRANCH  27  28
ENDBRANCH   1  27
TORSDOF 23
ENDMDL
