MODEL 1
REMARK VINA RESULT:     -11.6      0.000      0.000
REMARK SMILES COc1ccc(NC(=O)N[C@@H]2C=C[C@H](C(=O)OCCOCCOCCOC(=O)c3ccc(-c4c5nc(c(-c6ccc(S(=O)(=O)[O-])cc6)c6ccc([nH]6)c(-c6ccc(S(=O)(=O)[O-])cc6)c6nc(c(-c7ccc(S(=O)(=O)[O-])cc7)c7ccc4[nH]7)C=C6)C=C5)cc3)C2)c(C)c1
REMARK SMILES IDX 21 1 20 2 19 3 18 4 17 5 15 6 16 7 14 8 11 9 12 10 89 11
REMARK SMILES IDX 13 12 10 13 7 14 8 15 9 17 6 19 3 20 4 21 92 22 5 23 90 24
REMARK SMILES IDX 91 25 2 26 1 27 22 28 23 29 24 30 25 31 26 32 27 33 28 34
REMARK SMILES IDX 29 35 30 36 88 37 31 38 87 39 32 40 33 41 34 42 81 43 35 44
REMARK SMILES IDX 86 45 80 46 82 47 36 48 85 49 79 50 78 51 37 53 67 54 48 55
REMARK SMILES IDX 66 56 49 57 52 58 65 59 83 60 50 61 51 62 64 64 84 65 53 66
REMARK SMILES IDX 38 67 39 68 47 69 40 70 46 71 41 72 42 73 43 74 44 75 45 76
REMARK SMILES IDX 68 77 69 78 77 79 70 80 76 81 71 82 72 83 73 84 74 85 75 86
REMARK SMILES IDX 54 87 55 88 63 89 56 90 62 91 57 92 58 93 59 94 60 95 61 96
REMARK H PARENT 7 16 10 18 82 52 52 63
REMARK Flexibility Score: inf
ROOT
ATOM      1  C   UNL A   1      38.748  22.633  26.283  1.00  0.00     0.188 C 
ENDROOT
BRANCH   1   2
ATOM      2  O   UNL A   1      38.474  21.845  25.112  1.00  0.00    -0.376 OA
BRANCH   2   3
ATOM      3  C   UNL A   1      37.175  21.478  24.624  1.00  0.00     0.202 C 
BRANCH   3   4
ATOM      4  C   UNL A   1      36.164  20.132  24.944  1.00  0.00     0.261 C 
BRANCH   4   5
ATOM      5  O   UNL A   1      34.372  19.932  25.116  1.00  0.00    -0.463 OA
BRANCH   5   6
ATOM      6  C   UNL A   1      33.103  20.431  24.621  1.00  0.00     0.312 C 
ATOM      7  O   UNL A   1      31.950  20.034  24.862  1.00  0.00    -0.252 OA
BRANCH   6   8
ATOM      8  C   UNL A   1      32.970  21.621  23.721  1.00  0.00     0.124 C 
ATOM      9  C   UNL A   1      31.862  23.558  24.655  1.00  0.00     0.107 C 
ATOM     10  C   UNL A   1      31.201  23.064  23.406  1.00  0.00    -0.006 C 
ATOM     11  C   UNL A   1      33.172  22.797  24.659  1.00  0.00     0.048 C 
ATOM     12  C   UNL A   1      31.831  22.009  22.890  1.00  0.00    -0.014 C 
BRANCH   9  13
ATOM     13  N   UNL A   1      31.082  23.176  25.804  1.00  0.00    -0.332 N 
ATOM     14  N   UNL A   1      29.705  25.082  26.273  1.00  0.00    -0.308 N 
ATOM     15  C   UNL A   1      30.174  23.836  26.545  1.00  0.00     0.319 C 
ATOM     16  H   UNL A   1      28.937  25.347  26.829  1.00  0.00     0.171 HD
ATOM     17  O   UNL A   1      29.653  23.204  27.470  1.00  0.00    -0.248 OA
ATOM     18  H   UNL A   1      31.245  22.252  26.105  1.00  0.00     0.165 HD
BRANCH  14  19
ATOM     19  C   UNL A   1      30.105  26.065  25.353  1.00  0.00     0.046 A 
ATOM     20  C   UNL A   1      30.282  28.460  23.961  1.00  0.00     0.119 A 
ATOM     21  C   UNL A   1      29.568  27.405  23.416  1.00  0.00     0.048 A 
ATOM     22  C   UNL A   1      31.168  28.196  25.001  1.00  0.00     0.052 A 
ATOM     23  C   UNL A   1      29.497  26.199  24.114  1.00  0.00     0.030 A 
ATOM     24  C   UNL A   1      31.139  26.952  25.661  1.00  0.00    -0.024 A 
ATOM     25  C   UNL A   1      32.295  26.554  26.529  1.00  0.00     0.047 C 
BRANCH  20  26
ATOM     26  O   UNL A   1      30.224  29.723  23.441  1.00  0.00    -0.497 OA
ATOM     27  C   UNL A   1      30.171  29.704  22.006  1.00  0.00     0.278 C 
ENDBRANCH  20  26
ENDBRANCH  14  19
ENDBRANCH   9  13
ENDBRANCH   6   8
ENDBRANCH   5   6
ENDBRANCH   4   5
ENDBRANCH   3   4
ENDBRANCH   2   3
ENDBRANCH   1   2
BRANCH   1  28
ATOM     28  C   UNL A   1      40.107  22.599  26.976  1.00  0.00     0.188 C 
BRANCH  28  29
ATOM     29  O   UNL A   1      40.976  21.761  26.252  1.00  0.00    -0.376 OA
BRANCH  29  30
ATOM     30  C   UNL A   1      42.361  21.950  26.391  1.00  0.00     0.202 C 
BRANCH  30  31
ATOM     31  C   UNL A   1      43.006  22.701  25.218  1.00  0.00     0.261 C 
BRANCH  31  32
ATOM     32  O   UNL A   1      44.019  23.677  25.586  1.00  0.00    -0.460 OA
BRANCH  32  33
ATOM     33  C   UNL A   1      44.949  23.385  26.582  1.00  0.00     0.338 C 
ATOM     34  O   UNL A   1      45.723  22.469  26.484  1.00  0.00    -0.246 OA
BRANCH  33  35
ATOM     35  C   UNL A   1      45.041  24.502  27.582  1.00  0.00     0.060 A 
ATOM     36  C   UNL A   1      44.858  24.549  28.974  1.00  0.00     0.016 A 
ATOM     37  C   UNL A   1      45.256  25.692  27.017  1.00  0.00     0.016 A 
ATOM     38  C   UNL A   1      44.661  25.811  29.743  1.00  0.00     0.010 A 
ATOM     39  C   UNL A   1      44.798  26.791  27.722  1.00  0.00     0.010 A 
ATOM     40  C   UNL A   1      44.537  27.060  29.122  1.00  0.00    -0.014 A 
BRANCH  40  41
ATOM     41  C   UNL A   1      44.105  28.635  29.849  1.00  0.00     0.031 A 
ATOM     42  C   UNL A   1      42.532  29.530  30.087  1.00  0.00     0.074 A 
ATOM     43  C   UNL A   1      45.123  29.397  30.300  1.00  0.00     0.049 A 
ATOM     44  N   UNL A   1      42.375  30.845  30.033  1.00  0.00    -0.248 NA
ATOM     45  C   UNL A   1      41.076  28.992  30.121  1.00  0.00     0.031 C 
ATOM     46  C   UNL A   1      45.032  30.558  31.183  1.00  0.00     0.029 A 
ATOM     47  N   UNL A   1      46.483  29.284  30.026  1.00  0.00    -0.354 N 
ATOM     48  C   UNL A   1      40.988  31.154  30.109  1.00  0.00     0.074 A 
ATOM     49  C   UNL A   1      40.257  29.985  29.891  1.00  0.00     0.031 C 
ATOM     50  C   UNL A   1      46.216  31.192  31.190  1.00  0.00     0.029 A 
ATOM     51  C   UNL A   1      47.036  30.561  30.174  1.00  0.00     0.049 A 
ATOM     52  H   UNL A   1      46.965  28.462  29.775  1.00  0.00     0.167 HD
ATOM     53  C   UNL A   1      40.449  32.308  30.584  1.00  0.00     0.031 A 
ATOM     54  C   UNL A   1      47.601  31.198  29.110  1.00  0.00     0.031 A 
ATOM     55  C   UNL A   1      41.518  33.224  30.828  1.00  0.00     0.049 A 
ATOM     56  C   UNL A   1      46.942  32.527  28.817  1.00  0.00     0.074 A 
ATOM     57  C   UNL A   1      42.324  33.429  31.931  1.00  0.00     0.029 A 
ATOM     58  N   UNL A   1      42.193  33.691  29.721  1.00  0.00    -0.354 N 
ATOM     59  N   UNL A   1      45.742  32.862  29.211  1.00  0.00    -0.248 NA
ATOM     60  C   UNL A   1      47.607  33.605  28.093  1.00  0.00     0.031 C 
ATOM     61  C   UNL A   1      43.547  33.971  31.454  1.00  0.00     0.029 A 
ATOM     62  C   UNL A   1      43.438  34.147  30.085  1.00  0.00     0.049 A 
ATOM     63  H   UNL A   1      41.835  33.698  28.804  1.00  0.00     0.167 HD
ATOM     64  C   UNL A   1      45.463  34.143  28.809  1.00  0.00     0.074 A 
ATOM     65  C   UNL A   1      46.669  34.568  28.126  1.00  0.00     0.031 C 
ATOM     66  C   UNL A   1      44.270  34.754  29.063  1.00  0.00     0.031 A 
BRANCH  53  67
ATOM     67  C   UNL A   1      39.025  32.388  31.151  1.00  0.00    -0.014 A 
ATOM     68  C   UNL A   1      38.035  33.039  30.394  1.00  0.00     0.010 A 
ATOM     69  C   UNL A   1      38.611  31.956  32.438  1.00  0.00     0.010 A 
ATOM     70  C   UNL A   1      36.763  33.343  30.919  1.00  0.00     0.020 A 
ATOM     71  C   UNL A   1      37.371  32.316  33.005  1.00  0.00     0.020 A 
ATOM     72  C   UNL A   1      36.449  33.014  32.236  1.00  0.00     0.054 A 
BRANCH  72  73
ATOM     73  S   UNL A   1      34.835  33.497  32.914  1.00  0.00     0.124 S 
ATOM     74  O   UNL A   1      33.905  32.665  32.153  1.00  0.00    -0.237 OA
ATOM     75  O   UNL A   1      34.974  33.152  34.326  1.00  0.00    -0.237 OA
ATOM     76  O   UNL A   1      34.748  34.929  32.632  1.00  0.00    -0.744 OA
ENDBRANCH  72  73
ENDBRANCH  53  67
BRANCH  54  77
ATOM     77  C   UNL A   1      48.257  30.268  28.136  1.00  0.00    -0.014 A 
ATOM     78  C   UNL A   1      49.398  29.563  28.595  1.00  0.00     0.010 A 
ATOM     79  C   UNL A   1      47.594  29.782  26.996  1.00  0.00     0.010 A 
ATOM     80  C   UNL A   1      49.778  28.344  28.025  1.00  0.00     0.020 A 
ATOM     81  C   UNL A   1      47.997  28.568  26.395  1.00  0.00     0.020 A 
ATOM     82  C   UNL A   1      49.058  27.836  26.946  1.00  0.00     0.054 A 
BRANCH  82  83
ATOM     83  S   UNL A   1      49.397  26.115  26.454  1.00  0.00     0.124 S 
ATOM     84  O   UNL A   1      50.850  26.094  26.344  1.00  0.00    -0.237 OA
ATOM     85  O   UNL A   1      48.848  25.361  27.583  1.00  0.00    -0.237 OA
ATOM     86  O   UNL A   1      48.666  25.969  25.198  1.00  0.00    -0.744 OA
ENDBRANCH  82  83
ENDBRANCH  54  77
BRANCH  66  87
ATOM     87  C   UNL A   1      43.732  36.008  28.401  1.00  0.00    -0.014 A 
ATOM     88  C   UNL A   1      43.053  36.021  27.179  1.00  0.00     0.010 A 
ATOM     89  C   UNL A   1      43.777  37.238  29.114  1.00  0.00     0.010 A 
ATOM     90  C   UNL A   1      42.520  37.207  26.657  1.00  0.00     0.020 A 
ATOM     91  C   UNL A   1      43.185  38.408  28.642  1.00  0.00     0.020 A 
ATOM     92  C   UNL A   1      42.594  38.393  27.388  1.00  0.00     0.054 A 
BRANCH  92  93
ATOM     93  S   UNL A   1      41.891  39.912  26.709  1.00  0.00     0.124 S 
ATOM     94  O   UNL A   1      41.488  40.619  27.921  1.00  0.00    -0.237 OA
ATOM     95  O   UNL A   1      43.017  40.499  25.987  1.00  0.00    -0.237 OA
ATOM     96  O   UNL A   1      40.798  39.438  25.864  1.00  0.00    -0.744 OA
ENDBRANCH  92  93
ENDBRANCH  66  87
ENDBRANCH  40  41
ENDBRANCH  33  35
ENDBRANCH  32  33
ENDBRANCH  31  32
ENDBRANCH  30  31
ENDBRANCH  29  30
ENDBRANCH  28  29
ENDBRANCH   1  28
TORSDOF 23
ENDMDL
MODEL 2
REMARK VINA RESULT:     -11.0      4.718     10.099
REMARK SMILES COc1ccc(NC(=O)N[C@@H]2C=C[C@H](C(=O)OCCOCCOCCOC(=O)c3ccc(-c4c5nc(c(-c6ccc(S(=O)(=O)[O-])cc6)c6ccc([nH]6)c(-c6ccc(S(=O)(=O)[O-])cc6)c6nc(c(-c7ccc(S(=O)(=O)[O-])cc7)c7ccc4[nH]7)C=C6)C=C5)cc3)C2)c(C)c1
REMARK SMILES IDX 21 1 20 2 19 3 18 4 17 5 15 6 16 7 14 8 11 9 12 10 89 11
REMARK SMILES IDX 13 12 10 13 7 14 8 15 9 17 6 19 3 20 4 21 92 22 5 23 90 24
REMARK SMILES IDX 91 25 2 26 1 27 22 28 23 29 24 30 25 31 26 32 27 33 28 34
REMARK SMILES IDX 29 35 30 36 88 37 31 38 87 39 32 40 33 41 34 42 81 43 35 44
REMARK SMILES IDX 86 45 80 46 82 47 36 48 85 49 79 50 78 51 37 53 67 54 48 55
REMARK SMILES IDX 66 56 49 57 52 58 65 59 83 60 50 61 51 62 64 64 84 65 53 66
REMARK SMILES IDX 38 67 39 68 47 69 40 70 46 71 41 72 42 73 43 74 44 75 45 76
REMARK SMILES IDX 68 77 69 78 77 79 70 80 76 81 71 82 72 83 73 84 74 85 75 86
REMARK SMILES IDX 54 87 55 88 63 89 56 90 62 91 57 92 58 93 59 94 60 95 61 96
REMARK H PARENT 7 16 10 18 82 52 52 63
REMARK Flexibility Score: inf
ROOT
ATOM      1  C   UNL A   1      46.314  24.140  26.980  1.00  0.00     0.188 C 
ENDROOT
BRANCH   1   2
ATOM      2  O   UNL A   1      47.740  24.090  27.160  1.00  0.00    -0.376 OA
BRANCH   2   3
ATOM      3  C   UNL A   1      48.558  25.127  27.721  1.00  0.00     0.202 C 
BRANCH   3   4
ATOM      4  C   UNL A   1      49.480  25.211  29.164  1.00  0.00     0.261 C 
BRANCH   4   5
ATOM      5  O   UNL A   1      49.043  25.385  30.913  1.00  0.00    -0.463 OA
BRANCH   5   6
ATOM      6  C   UNL A   1      48.095  26.022  31.808  1.00  0.00     0.312 C 
ATOM      7  O   UNL A   1      47.042  26.625  31.543  1.00  0.00    -0.252 OA
BRANCH   6   8
ATOM      8  C   UNL A   1      48.218  26.003  33.300  1.00  0.00     0.124 C 
ATOM      9  C   UNL A   1      46.707  24.530  34.486  1.00  0.00     0.107 C 
ATOM     10  C   UNL A   1      46.590  25.955  34.931  1.00  0.00    -0.006 C 
ATOM     11  C   UNL A   1      47.975  24.548  33.656  1.00  0.00     0.048 C 
ATOM     12  C   UNL A   1      47.440  26.753  34.285  1.00  0.00    -0.014 C 
BRANCH   9  13
ATOM     13  N   UNL A   1      45.589  24.189  33.645  1.00  0.00    -0.332 N 
ATOM     14  N   UNL A   1      44.794  22.095  34.501  1.00  0.00    -0.308 N 
ATOM     15  C   UNL A   1      44.775  23.119  33.609  1.00  0.00     0.319 C 
ATOM     16  H   UNL A   1      44.033  21.477  34.414  1.00  0.00     0.171 HD
ATOM     17  O   UNL A   1      43.873  23.141  32.764  1.00  0.00    -0.248 OA
ATOM     18  H   UNL A   1      45.380  24.870  32.966  1.00  0.00     0.165 HD
BRANCH  14  19
ATOM     19  C   UNL A   1      45.692  21.747  35.524  1.00  0.00     0.046 A 
ATOM     20  C   UNL A   1      46.839  20.473  37.707  1.00  0.00     0.119 A 
ATOM     21  C   UNL A   1      46.186  21.681  37.888  1.00  0.00     0.048 A 
ATOM     22  C   UNL A   1      47.206  20.103  36.418  1.00  0.00     0.052 A 
ATOM     23  C   UNL A   1      45.625  22.324  36.784  1.00  0.00     0.030 A 
ATOM     24  C   UNL A   1      46.690  20.796  35.305  1.00  0.00    -0.024 A 
ATOM     25  C   UNL A   1      47.340  20.622  33.965  1.00  0.00     0.047 C 
BRANCH  20  26
ATOM     26  O   UNL A   1      47.228  19.691  38.760  1.00  0.00    -0.497 OA
ATOM     27  C   UNL A   1      46.316  18.605  38.978  1.00  0.00     0.278 C 
ENDBRANCH  20  26
ENDBRANCH  14  19
ENDBRANCH   9  13
ENDBRANCH   6   8
ENDBRANCH   5   6
ENDBRANCH   4   5
ENDBRANCH   3   4
ENDBRANCH   2   3
ENDBRANCH   1   2
BRANCH   1  28
ATOM     28  C   UNL A   1      45.349  23.845  28.123  1.00  0.00     0.188 C 
BRANCH  28  29
ATOM     29  O   UNL A   1      44.283  23.061  27.641  1.00  0.00    -0.376 OA
BRANCH  29  30
ATOM     30  C   UNL A   1      44.013  23.071  26.263  1.00  0.00     0.202 C 
BRANCH  30  31
ATOM     31  C   UNL A   1      42.630  22.517  25.897  1.00  0.00     0.261 C 
BRANCH  31  32
ATOM     32  O   UNL A   1      41.636  22.575  26.958  1.00  0.00    -0.460 OA
BRANCH  32  33
ATOM     33  C   UNL A   1      40.325  22.952  26.673  1.00  0.00     0.338 C 
ATOM     34  O   UNL A   1      39.454  22.144  26.483  1.00  0.00    -0.246 OA
BRANCH  33  35
ATOM     35  C   UNL A   1      40.113  24.417  26.933  1.00  0.00     0.060 A 
ATOM     36  C   UNL A   1      40.652  25.574  26.347  1.00  0.00     0.016 A 
ATOM     37  C   UNL A   1      39.322  24.651  27.982  1.00  0.00     0.016 A 
ATOM     38  C   UNL A   1      40.577  26.929  26.964  1.00  0.00     0.010 A 
ATOM     39  C   UNL A   1      39.521  25.855  28.635  1.00  0.00     0.010 A 
ATOM     40  C   UNL A   1      40.049  27.146  28.242  1.00  0.00    -0.014 A 
BRANCH  40  41
ATOM     41  C   UNL A   1      40.054  28.644  29.217  1.00  0.00     0.031 A 
ATOM     42  C   UNL A   1      38.864  30.009  29.448  1.00  0.00     0.074 A 
ATOM     43  C   UNL A   1      41.171  28.904  29.929  1.00  0.00     0.049 A 
ATOM     44  N   UNL A   1      39.175  31.282  29.643  1.00  0.00    -0.248 NA
ATOM     45  C   UNL A   1      37.331  30.045  29.203  1.00  0.00     0.031 C 
ATOM     46  C   UNL A   1      41.322  29.874  31.012  1.00  0.00     0.029 A 
ATOM     47  N   UNL A   1      42.437  28.342  29.797  1.00  0.00    -0.354 N 
ATOM     48  C   UNL A   1      37.986  32.064  29.618  1.00  0.00     0.074 A 
ATOM     49  C   UNL A   1      36.954  31.291  29.085  1.00  0.00     0.031 C 
ATOM     50  C   UNL A   1      42.629  30.020  31.285  1.00  0.00     0.029 A 
ATOM     51  C   UNL A   1      43.355  29.289  30.264  1.00  0.00     0.049 A 
ATOM     52  H   UNL A   1      42.648  27.447  29.443  1.00  0.00     0.167 HD
ATOM     53  C   UNL A   1      37.796  33.252  30.251  1.00  0.00     0.031 A 
ATOM     54  C   UNL A   1      44.285  29.824  29.424  1.00  0.00     0.031 A 
ATOM     55  C   UNL A   1      39.049  33.665  30.798  1.00  0.00     0.049 A 
ATOM     56  C   UNL A   1      44.182  31.330  29.332  1.00  0.00     0.074 A 
ATOM     57  C   UNL A   1      39.663  33.395  32.005  1.00  0.00     0.029 A 
ATOM     58  N   UNL A   1      40.031  34.009  29.895  1.00  0.00    -0.354 N 
ATOM     59  N   UNL A   1      43.117  32.019  29.643  1.00  0.00    -0.248 NA
ATOM     60  C   UNL A   1      45.294  32.182  28.923  1.00  0.00     0.031 C 
ATOM     61  C   UNL A   1      41.062  33.513  31.793  1.00  0.00     0.029 A 
ATOM     62  C   UNL A   1      41.270  33.917  30.485  1.00  0.00     0.049 A 
ATOM     63  H   UNL A   1      39.870  34.282  28.963  1.00  0.00     0.167 HD
ATOM     64  C   UNL A   1      43.368  33.357  29.479  1.00  0.00     0.074 A 
ATOM     65  C   UNL A   1      44.749  33.406  29.041  1.00  0.00     0.031 C 
ATOM     66  C   UNL A   1      42.428  34.320  29.711  1.00  0.00     0.031 A 
BRANCH  53  67
ATOM     67  C   UNL A   1      36.406  33.765  30.653  1.00  0.00    -0.014 A 
ATOM     68  C   UNL A   1      35.570  34.294  29.655  1.00  0.00     0.010 A 
ATOM     69  C   UNL A   1      35.899  33.861  31.976  1.00  0.00     0.010 A 
ATOM     70  C   UNL A   1      34.373  34.974  29.958  1.00  0.00     0.020 A 
ATOM     71  C   UNL A   1      34.744  34.601  32.302  1.00  0.00     0.020 A 
ATOM     72  C   UNL A   1      33.984  35.158  31.283  1.00  0.00     0.054 A 
BRANCH  72  73
ATOM     73  S   UNL A   1      32.484  36.115  31.646  1.00  0.00     0.124 S 
ATOM     74  O   UNL A   1      31.959  36.407  30.314  1.00  0.00    -0.237 OA
ATOM     75  O   UNL A   1      31.698  35.173  32.437  1.00  0.00    -0.237 OA
ATOM     76  O   UNL A   1      32.977  37.280  32.380  1.00  0.00    -0.744 OA
ENDBRANCH  72  73
ENDBRANCH  53  67
BRANCH  54  77
ATOM     77  C   UNL A   1      44.751  28.872  28.365  1.00  0.00    -0.014 A 
ATOM     78  C   UNL A   1      44.233  29.063  27.060  1.00  0.00     0.010 A 
ATOM     79  C   UNL A   1      45.918  28.102  28.506  1.00  0.00     0.010 A 
ATOM     80  C   UNL A   1      44.929  28.625  25.929  1.00  0.00     0.020 A 
ATOM     81  C   UNL A   1      46.606  27.627  27.367  1.00  0.00     0.020 A 
ATOM     82  C   UNL A   1      46.128  27.934  26.086  1.00  0.00     0.054 A 
BRANCH  82  83
ATOM     83  S   UNL A   1      47.138  27.669  24.593  1.00  0.00     0.124 S 
ATOM     84  O   UNL A   1      46.881  26.270  24.277  1.00  0.00    -0.237 OA
ATOM     85  O   UNL A   1      46.557  28.634  23.656  1.00  0.00    -0.237 OA
ATOM     86  O   UNL A   1      48.494  27.979  25.039  1.00  0.00    -0.744 OA
ENDBRANCH  82  83
ENDBRANCH  54  77
BRANCH  66  87
ATOM     87  C   UNL A   1      42.478  35.767  29.258  1.00  0.00    -0.014 A 
ATOM     88  C   UNL A   1      43.241  36.758  29.882  1.00  0.00     0.010 A 
ATOM     89  C   UNL A   1      41.834  36.132  28.044  1.00  0.00     0.010 A 
ATOM     90  C   UNL A   1      43.296  38.061  29.369  1.00  0.00     0.020 A 
ATOM     91  C   UNL A   1      41.943  37.403  27.483  1.00  0.00     0.020 A 
ATOM     92  C   UNL A   1      42.643  38.376  28.178  1.00  0.00     0.054 A 
BRANCH  92  93
ATOM     93  S   UNL A   1      42.734  40.057  27.522  1.00  0.00     0.124 S 
ATOM     94  O   UNL A   1      41.393  40.559  27.810  1.00  0.00    -0.237 OA
ATOM     95  O   UNL A   1      43.809  40.657  28.308  1.00  0.00    -0.237 OA
ATOM     96  O   UNL A   1      43.041  39.860  26.108  1.00  0.00    -0.744 OA
ENDBRANCH  92  93
ENDBRANCH  66  87
ENDBRANCH  40  41
ENDBRANCH  33  35
ENDBRANCH  32  33
ENDBRANCH  31  32
ENDBRANCH  30  31
ENDBRANCH  29  30
ENDBRANCH  28  29
ENDBRANCH   1  28
TORSDOF 23
ENDMDL
MODEL 3
REMARK VINA RESULT:     -10.8      4.701      8.970
REMARK SMILES COc1ccc(NC(=O)N[C@@H]2C=C[C@H](C(=O)OCCOCCOCCOC(=O)c3ccc(-c4c5nc(c(-c6ccc(S(=O)(=O)[O-])cc6)c6ccc([nH]6)c(-c6ccc(S(=O)(=O)[O-])cc6)c6nc(c(-c7ccc(S(=O)(=O)[O-])cc7)c7ccc4[nH]7)C=C6)C=C5)cc3)C2)c(C)c1
REMARK SMILES IDX 21 1 20 2 19 3 18 4 17 5 15 6 16 7 14 8 11 9 12 10 89 11
REMARK SMILES IDX 13 12 10 13 7 14 8 15 9 17 6 19 3 20 4 21 92 22 5 23 90 24
REMARK SMILES IDX 91 25 2 26 1 27 22 28 23 29 24 30 25 31 26 32 27 33 28 34
REMARK SMILES IDX 29 35 30 36 88 37 31 38 87 39 32 40 33 41 34 42 81 43 35 44
REMARK SMILES IDX 86 45 80 46 82 47 36 48 85 49 79 50 78 51 37 53 67 54 48 55
REMARK SMILES IDX 66 56 49 57 52 58 65 59 83 60 50 61 51 62 64 64 84 65 53 66
REMARK SMILES IDX 38 67 39 68 47 69 40 70 46 71 41 72 42 73 43 74 44 75 45 76
REMARK SMILES IDX 68 77 69 78 77 79 70 80 76 81 71 82 72 83 73 84 74 85 75 86
REMARK SMILES IDX 54 87 55 88 63 89 56 90 62 91 57 92 58 93 59 94 60 95 61 96
REMARK H PARENT 7 16 10 18 82 52 52 63
REMARK Flexibility Score: inf
ROOT
ATOM      1  C   UNL A   1      46.420  24.261  26.781  1.00  0.00     0.188 C 
ENDROOT
BRANCH   1   2
ATOM      2  O   UNL A   1      47.856  24.190  26.779  1.00  0.00    -0.376 OA
BRANCH   2   3
ATOM      3  C   UNL A   1      48.725  24.625  27.835  1.00  0.00     0.202 C 
BRANCH   3   4
ATOM      4  C   UNL A   1      48.505  25.731  29.125  1.00  0.00     0.261 C 
BRANCH   4   5
ATOM      5  O   UNL A   1      47.676  25.623  30.732  1.00  0.00    -0.463 OA
BRANCH   5   6
ATOM      6  C   UNL A   1      47.093  26.432  31.786  1.00  0.00     0.312 C 
ATOM      7  O   UNL A   1      47.617  26.882  32.818  1.00  0.00    -0.252 OA
BRANCH   6   8
ATOM      8  C   UNL A   1      45.681  26.932  31.766  1.00  0.00     0.124 C 
ATOM      9  C   UNL A   1      44.353  26.479  33.738  1.00  0.00     0.107 C 
ATOM     10  C   UNL A   1      43.734  25.932  32.490  1.00  0.00    -0.006 C 
ATOM     11  C   UNL A   1      45.446  27.379  33.197  1.00  0.00     0.048 C 
ATOM     12  C   UNL A   1      44.465  26.203  31.408  1.00  0.00    -0.014 C 
BRANCH   9  13
ATOM     13  N   UNL A   1      44.946  25.409  34.499  1.00  0.00    -0.332 N 
ATOM     14  N   UNL A   1      44.422  25.916  36.783  1.00  0.00    -0.308 N 
ATOM     15  C   UNL A   1      45.022  25.170  35.820  1.00  0.00     0.319 C 
ATOM     16  H   UNL A   1      44.457  25.511  37.679  1.00  0.00     0.171 HD
ATOM     17  O   UNL A   1      45.589  24.126  36.159  1.00  0.00    -0.248 OA
ATOM     18  H   UNL A   1      45.377  24.720  33.944  1.00  0.00     0.165 HD
BRANCH  14  19
ATOM     19  C   UNL A   1      43.761  27.156  36.747  1.00  0.00     0.046 A 
ATOM     20  C   UNL A   1      42.618  29.511  35.823  1.00  0.00     0.119 A 
ATOM     21  C   UNL A   1      43.886  29.540  36.379  1.00  0.00     0.048 A 
ATOM     22  C   UNL A   1      41.818  28.396  36.051  1.00  0.00     0.052 A 
ATOM     23  C   UNL A   1      44.448  28.355  36.856  1.00  0.00     0.030 A 
ATOM     24  C   UNL A   1      42.374  27.221  36.595  1.00  0.00    -0.024 A 
ATOM     25  C   UNL A   1      41.464  26.165  37.147  1.00  0.00     0.047 C 
BRANCH  20  26
ATOM     26  O   UNL A   1      42.093  30.581  35.153  1.00  0.00    -0.497 OA
ATOM     27  C   UNL A   1      41.444  31.498  36.047  1.00  0.00     0.278 C 
ENDBRANCH  20  26
ENDBRANCH  14  19
ENDBRANCH   9  13
ENDBRANCH   6   8
ENDBRANCH   5   6
ENDBRANCH   4   5
ENDBRANCH   3   4
ENDBRANCH   2   3
ENDBRANCH   1   2
BRANCH   1  28
ATOM     28  C   UNL A   1      45.594  23.794  27.975  1.00  0.00     0.188 C 
BRANCH  28  29
ATOM     29  O   UNL A   1      44.549  22.967  27.522  1.00  0.00    -0.376 OA
BRANCH  29  30
ATOM     30  C   UNL A   1      44.115  23.100  26.193  1.00  0.00     0.202 C 
BRANCH  30  31
ATOM     31  C   UNL A   1      42.766  22.426  25.910  1.00  0.00     0.261 C 
BRANCH  31  32
ATOM     32  O   UNL A   1      41.781  22.532  26.976  1.00  0.00    -0.460 OA
BRANCH  32  33
ATOM     33  C   UNL A   1      40.463  22.879  26.683  1.00  0.00     0.338 C 
ATOM     34  O   UNL A   1      39.603  22.052  26.531  1.00  0.00    -0.246 OA
BRANCH  33  35
ATOM     35  C   UNL A   1      40.232  24.350  26.885  1.00  0.00     0.060 A 
ATOM     36  C   UNL A   1      40.762  25.490  26.260  1.00  0.00     0.016 A 
ATOM     37  C   UNL A   1      39.429  24.614  27.918  1.00  0.00     0.016 A 
ATOM     38  C   UNL A   1      40.666  26.866  26.824  1.00  0.00     0.010 A 
ATOM     39  C   UNL A   1      39.608  25.845  28.526  1.00  0.00     0.010 A 
ATOM     40  C   UNL A   1      40.124  27.126  28.089  1.00  0.00    -0.014 A 
BRANCH  40  41
ATOM     41  C   UNL A   1      40.103  28.660  29.006  1.00  0.00     0.031 A 
ATOM     42  C   UNL A   1      38.890  30.013  29.181  1.00  0.00     0.074 A 
ATOM     43  C   UNL A   1      41.214  28.964  29.710  1.00  0.00     0.049 A 
ATOM     44  N   UNL A   1      39.182  31.298  29.328  1.00  0.00    -0.248 NA
ATOM     45  C   UNL A   1      37.358  30.016  28.932  1.00  0.00     0.031 C 
ATOM     46  C   UNL A   1      41.347  29.977  30.755  1.00  0.00     0.029 A 
ATOM     47  N   UNL A   1      42.489  28.417  29.602  1.00  0.00    -0.354 N 
ATOM     48  C   UNL A   1      37.981  32.060  29.270  1.00  0.00     0.074 A 
ATOM     49  C   UNL A   1      36.962  31.250  28.765  1.00  0.00     0.031 C 
ATOM     50  C   UNL A   1      42.650  30.154  31.025  1.00  0.00     0.029 A 
ATOM     51  C   UNL A   1      43.390  29.397  30.034  1.00  0.00     0.049 A 
ATOM     52  H   UNL A   1      42.714  27.513  29.283  1.00  0.00     0.167 HD
ATOM     53  C   UNL A   1      37.770  33.267  29.857  1.00  0.00     0.031 A 
ATOM     54  C   UNL A   1      44.314  29.913  29.176  1.00  0.00     0.031 A 
ATOM     55  C   UNL A   1      39.015  33.721  30.391  1.00  0.00     0.049 A 
ATOM     56  C   UNL A   1      44.188  31.412  29.027  1.00  0.00     0.074 A 
ATOM     57  C   UNL A   1      39.630  33.507  31.609  1.00  0.00     0.029 A 
ATOM     58  N   UNL A   1      39.994  34.046  29.477  1.00  0.00    -0.354 N 
ATOM     59  N   UNL A   1      43.112  32.097  29.308  1.00  0.00    -0.248 NA
ATOM     60  C   UNL A   1      45.287  32.266  28.588  1.00  0.00     0.031 C 
ATOM     61  C   UNL A   1      41.027  33.639  31.396  1.00  0.00     0.029 A 
ATOM     62  C   UNL A   1      41.232  33.996  30.073  1.00  0.00     0.049 A 
ATOM     63  H   UNL A   1      39.831  34.280  28.536  1.00  0.00     0.167 HD
ATOM     64  C   UNL A   1      43.342  33.431  29.095  1.00  0.00     0.074 A 
ATOM     65  C   UNL A   1      44.723  33.485  28.658  1.00  0.00     0.031 C 
ATOM     66  C   UNL A   1      42.386  34.387  29.287  1.00  0.00     0.031 A 
BRANCH  53  67
ATOM     67  C   UNL A   1      36.371  33.773  30.237  1.00  0.00    -0.014 A 
ATOM     68  C   UNL A   1      35.660  34.549  29.303  1.00  0.00     0.010 A 
ATOM     69  C   UNL A   1      35.742  33.627  31.500  1.00  0.00     0.010 A 
ATOM     70  C   UNL A   1      34.470  35.226  29.638  1.00  0.00     0.020 A 
ATOM     71  C   UNL A   1      34.594  34.356  31.874  1.00  0.00     0.020 A 
ATOM     72  C   UNL A   1      33.962  35.158  30.933  1.00  0.00     0.054 A 
BRANCH  72  73
ATOM     73  S   UNL A   1      32.476  36.112  31.358  1.00  0.00     0.124 S 
ATOM     74  O   UNL A   1      33.033  37.368  31.856  1.00  0.00    -0.237 OA
ATOM     75  O   UNL A   1      31.784  36.197  30.075  1.00  0.00    -0.237 OA
ATOM     76  O   UNL A   1      31.809  35.294  32.370  1.00  0.00    -0.744 OA
ENDBRANCH  72  73
ENDBRANCH  53  67
BRANCH  54  77
ATOM     77  C   UNL A   1      44.798  28.929  28.156  1.00  0.00    -0.014 A 
ATOM     78  C   UNL A   1      44.246  29.034  26.855  1.00  0.00     0.010 A 
ATOM     79  C   UNL A   1      45.998  28.214  28.309  1.00  0.00     0.010 A 
ATOM     80  C   UNL A   1      44.938  28.567  25.732  1.00  0.00     0.020 A 
ATOM     81  C   UNL A   1      46.683  27.711  27.180  1.00  0.00     0.020 A 
ATOM     82  C   UNL A   1      46.167  27.935  25.896  1.00  0.00     0.054 A 
BRANCH  82  83
ATOM     83  S   UNL A   1      47.158  27.636  24.397  1.00  0.00     0.124 S 
ATOM     84  O   UNL A   1      46.579  28.572  23.439  1.00  0.00    -0.237 OA
ATOM     85  O   UNL A   1      48.509  27.971  24.852  1.00  0.00    -0.237 OA
ATOM     86  O   UNL A   1      46.932  26.222  24.114  1.00  0.00    -0.744 OA
ENDBRANCH  82  83
ENDBRANCH  54  77
BRANCH  66  87
ATOM     87  C   UNL A   1      42.415  35.816  28.780  1.00  0.00    -0.014 A 
ATOM     88  C   UNL A   1      43.033  36.875  29.451  1.00  0.00     0.010 A 
ATOM     89  C   UNL A   1      41.917  36.095  27.477  1.00  0.00     0.010 A 
ATOM     90  C   UNL A   1      43.083  38.159  28.892  1.00  0.00     0.020 A 
ATOM     91  C   UNL A   1      42.028  37.349  26.878  1.00  0.00     0.020 A 
ATOM     92  C   UNL A   1      42.575  38.389  27.612  1.00  0.00     0.054 A 
BRANCH  92  93
ATOM     93  S   UNL A   1      42.658  40.046  26.899  1.00  0.00     0.124 S 
ATOM     94  O   UNL A   1      42.711  40.880  28.096  1.00  0.00    -0.237 OA
ATOM     95  O   UNL A   1      43.888  40.002  26.111  1.00  0.00    -0.237 OA
ATOM     96  O   UNL A   1      41.429  40.146  26.116  1.00  0.00    -0.744 OA
ENDBRANCH  92  93
ENDBRANCH  66  87
ENDBRANCH  40  41
ENDBRANCH  33  35
ENDBRANCH  32  33
ENDBRANCH  31  32
ENDBRANCH  30  31
ENDBRANCH  29  30
ENDBRANCH  28  29
ENDBRANCH   1  28
TORSDOF 23
ENDMDL
