MODEL 1
REMARK VINA RESULT:     -10.8      0.000      0.000
REMARK SMILES COc1ccccc1[C@@H]1C[N@@H+](Cc2cn3cc(C)ccc3n2)C[C@H]1C(=O)OCCOCCOCCOC(=O)c1ccc(-c2c3nc(c(-c4ccc(S(=O)(=O)[O-])cc4)c4ccc([nH]4)c(-c4ccc(S(=O)(=O)[O-])cc4)c4nc(c(-c5ccc(S(=O)(=O)[O-])cc5)c5ccc2[nH]5)C=C4)C=C3)cc1
REMARK SMILES IDX 32 1 31 2 30 3 29 4 28 5 27 6 25 7 26 8 24 9 9 10 10 11
REMARK SMILES IDX 11 12 23 13 8 15 3 16 4 17 5 18 7 19 6 20 2 21 1 22 12 23
REMARK SMILES IDX 13 24 14 25 22 26 15 27 21 28 16 29 20 30 17 31 19 32 18 33
REMARK SMILES IDX 33 34 34 35 35 36 36 37 37 38 38 39 39 40 40 41 98 42 41 43
REMARK SMILES IDX 97 44 42 45 43 46 44 47 91 48 45 49 96 50 90 51 92 52 46 53
REMARK SMILES IDX 95 54 89 55 88 56 47 58 77 59 58 60 76 61 59 62 62 63 75 64
REMARK SMILES IDX 93 65 60 66 61 67 74 69 94 70 63 71 48 72 49 73 57 74 50 75
REMARK SMILES IDX 56 76 51 77 52 78 53 79 54 80 55 81 78 82 79 83 87 84 80 85
REMARK SMILES IDX 86 86 81 87 82 88 83 89 84 90 85 91 64 92 65 93 73 94 66 95
REMARK SMILES IDX 72 96 67 97 68 98 69 99 70 100 71 101
REMARK H PARENT 11 14 92 57 62 68
REMARK Flexibility Score: inf
ROOT
ATOM      1  C   UNL A   1      30.691  29.748  24.658  1.00  0.00     0.188 C 
ENDROOT
BRANCH   1   2
ATOM      2  C   UNL A   1      31.219  29.113  23.367  1.00  0.00     0.188 C 
BRANCH   2   3
ATOM      3  O   UNL A   1      31.346  27.699  23.338  1.00  0.00    -0.376 OA
BRANCH   3   4
ATOM      4  C   UNL A   1      31.331  27.070  22.052  1.00  0.00     0.202 C 
BRANCH   4   5
ATOM      5  C   UNL A   1      32.649  27.031  21.254  1.00  0.00     0.261 C 
BRANCH   5   6
ATOM      6  O   UNL A   1      33.791  26.552  22.013  1.00  0.00    -0.463 OA
BRANCH   6   7
ATOM      7  C   UNL A   1      33.730  25.269  22.417  1.00  0.00     0.315 C 
ATOM      8  O   UNL A   1      33.503  24.338  21.641  1.00  0.00    -0.252 OA
BRANCH   7   9
ATOM      9  C   UNL A   1      33.960  24.975  23.898  1.00  0.00     0.167 C 
ATOM     10  C   UNL A   1      32.978  25.169  25.071  1.00  0.00     0.098 C 
ATOM     11  C   UNL A   1      33.312  23.989  26.000  1.00  0.00     0.272 C 
ATOM     12  N   UNL A   1      33.702  22.881  25.139  1.00  0.00    -0.329 N 
ATOM     13  C   UNL A   1      34.318  23.479  23.951  1.00  0.00     0.278 C 
ATOM     14  H   UNL A   1      34.373  22.280  25.618  1.00  0.00     0.348 HD
BRANCH  10  15
ATOM     15  C   UNL A   1      32.944  26.423  25.953  1.00  0.00     0.004 A 
ATOM     16  C   UNL A   1      31.950  26.767  26.886  1.00  0.00     0.122 A 
ATOM     17  C   UNL A   1      32.041  27.958  27.630  1.00  0.00     0.047 A 
ATOM     18  C   UNL A   1      33.084  28.858  27.407  1.00  0.00     0.004 A 
ATOM     19  C   UNL A   1      33.942  27.393  25.702  1.00  0.00     0.008 A 
ATOM     20  C   UNL A   1      34.016  28.591  26.415  1.00  0.00     0.001 A 
BRANCH  16  21
ATOM     21  O   UNL A   1      30.729  26.145  26.873  1.00  0.00    -0.496 OA
ATOM     22  C   UNL A   1      30.036  26.218  25.635  1.00  0.00     0.278 C 
ENDBRANCH  16  21
ENDBRANCH  10  15
BRANCH  12  23
ATOM     23  C   UNL A   1      32.626  21.922  24.853  1.00  0.00     0.321 C 
BRANCH  23  24
ATOM     24  C   UNL A   1      33.006  20.475  24.933  1.00  0.00     0.114 A 
ATOM     25  C   UNL A   1      34.231  19.897  24.650  1.00  0.00     0.122 A 
ATOM     26  N   UNL A   1      32.097  19.505  25.308  1.00  0.00    -0.228 NA
ATOM     27  N   UNL A   1      34.072  18.552  24.860  1.00  0.00    -0.306 N 
ATOM     28  C   UNL A   1      32.754  18.363  25.256  1.00  0.00     0.137 A 
ATOM     29  C   UNL A   1      35.000  17.522  24.725  1.00  0.00     0.096 A 
ATOM     30  C   UNL A   1      32.349  17.024  25.518  1.00  0.00     0.048 A 
ATOM     31  C   UNL A   1      34.617  16.249  24.958  1.00  0.00    -0.034 A 
ATOM     32  C   UNL A   1      33.225  16.012  25.355  1.00  0.00     0.009 A 
ATOM     33  C   UNL A   1      35.562  15.088  24.943  1.00  0.00     0.046 C 
ENDBRANCH  23  24
ENDBRANCH  12  23
ENDBRANCH   7   9
ENDBRANCH   6   7
ENDBRANCH   5   6
ENDBRANCH   4   5
ENDBRANCH   3   4
ENDBRANCH   2   3
ENDBRANCH   1   2
BRANCH   1  34
ATOM     34  O   UNL A   1      31.570  30.674  25.274  1.00  0.00    -0.376 OA
BRANCH  34  35
ATOM     35  C   UNL A   1      31.026  31.781  25.964  1.00  0.00     0.202 C 
BRANCH  35  36
ATOM     36  C   UNL A   1      31.764  32.191  27.225  1.00  0.00     0.261 C 
BRANCH  36  37
ATOM     37  O   UNL A   1      32.282  33.503  27.137  1.00  0.00    -0.460 OA
BRANCH  37  38
ATOM     38  C   UNL A   1      32.869  33.961  28.261  1.00  0.00     0.338 C 
ATOM     39  O   UNL A   1      32.635  34.980  28.878  1.00  0.00    -0.246 OA
BRANCH  38  40
ATOM     40  C   UNL A   1      33.902  33.002  28.621  1.00  0.00     0.060 A 
ATOM     41  C   UNL A   1      34.233  32.898  29.971  1.00  0.00     0.016 A 
ATOM     42  C   UNL A   1      34.682  32.458  27.592  1.00  0.00     0.016 A 
ATOM     43  C   UNL A   1      35.485  32.441  30.283  1.00  0.00     0.010 A 
ATOM     44  C   UNL A   1      35.936  32.021  27.902  1.00  0.00     0.010 A 
ATOM     45  C   UNL A   1      36.344  32.115  29.231  1.00  0.00    -0.014 A 
BRANCH  45  46
ATOM     46  C   UNL A   1      37.727  31.879  29.546  1.00  0.00     0.031 A 
ATOM     47  C   UNL A   1      38.157  30.496  29.308  1.00  0.00     0.074 A 
ATOM     48  C   UNL A   1      38.537  32.894  29.896  1.00  0.00     0.049 A 
ATOM     49  N   UNL A   1      38.554  29.636  30.182  1.00  0.00    -0.248 NA
ATOM     50  C   UNL A   1      37.967  29.953  27.952  1.00  0.00     0.031 C 
ATOM     51  C   UNL A   1      38.234  34.328  29.860  1.00  0.00     0.029 A 
ATOM     52  N   UNL A   1      39.858  32.858  30.207  1.00  0.00    -0.354 N 
ATOM     53  C   UNL A   1      38.903  28.515  29.445  1.00  0.00     0.074 A 
ATOM     54  C   UNL A   1      38.326  28.684  28.134  1.00  0.00     0.031 C 
ATOM     55  C   UNL A   1      39.395  35.017  29.883  1.00  0.00     0.029 A 
ATOM     56  C   UNL A   1      40.495  34.079  30.044  1.00  0.00     0.049 A 
ATOM     57  H   UNL A   1      40.317  32.045  30.518  1.00  0.00     0.167 HD
ATOM     58  C   UNL A   1      39.903  27.692  29.852  1.00  0.00     0.031 A 
ATOM     59  C   UNL A   1      41.832  34.274  29.931  1.00  0.00     0.031 A 
ATOM     60  C   UNL A   1      40.215  27.856  31.248  1.00  0.00     0.049 A 
ATOM     61  C   UNL A   1      42.508  33.063  30.465  1.00  0.00     0.074 A 
ATOM     62  C   UNL A   1      39.472  27.811  32.413  1.00  0.00     0.029 A 
ATOM     63  N   UNL A   1      41.386  28.504  31.569  1.00  0.00    -0.354 N 
ATOM     64  N   UNL A   1      42.496  32.725  31.725  1.00  0.00    -0.248 NA
ATOM     65  C   UNL A   1      42.846  31.987  29.543  1.00  0.00     0.031 C 
ATOM     66  C   UNL A   1      40.026  28.820  33.249  1.00  0.00     0.029 A 
ATOM     67  C   UNL A   1      41.109  29.392  32.578  1.00  0.00     0.049 A 
ATOM     68  H   UNL A   1      42.266  28.356  31.151  1.00  0.00     0.167 HD
ATOM     69  C   UNL A   1      42.393  31.340  31.725  1.00  0.00     0.074 A 
ATOM     70  C   UNL A   1      42.737  30.938  30.364  1.00  0.00     0.031 C 
ATOM     71  C   UNL A   1      41.763  30.675  32.740  1.00  0.00     0.031 A 
BRANCH  58  72
ATOM     72  C   UNL A   1      40.865  27.083  28.867  1.00  0.00    -0.014 A 
ATOM     73  C   UNL A   1      40.666  25.759  28.443  1.00  0.00     0.010 A 
ATOM     74  C   UNL A   1      42.110  27.680  28.563  1.00  0.00     0.010 A 
ATOM     75  C   UNL A   1      41.687  25.052  27.796  1.00  0.00     0.020 A 
ATOM     76  C   UNL A   1      43.111  27.005  27.873  1.00  0.00     0.020 A 
ATOM     77  C   UNL A   1      42.907  25.679  27.529  1.00  0.00     0.054 A 
BRANCH  77  78
ATOM     78  S   UNL A   1      44.260  24.729  26.800  1.00  0.00     0.124 S 
ATOM     79  O   UNL A   1      45.426  25.397  27.367  1.00  0.00    -0.237 OA
ATOM     80  O   UNL A   1      43.995  23.381  27.296  1.00  0.00    -0.237 OA
ATOM     81  O   UNL A   1      44.067  24.908  25.364  1.00  0.00    -0.744 OA
ENDBRANCH  77  78
ENDBRANCH  58  72
BRANCH  59  82
ATOM     82  C   UNL A   1      42.524  35.304  29.117  1.00  0.00    -0.014 A 
ATOM     83  C   UNL A   1      41.969  35.756  27.908  1.00  0.00     0.010 A 
ATOM     84  C   UNL A   1      43.614  36.028  29.645  1.00  0.00     0.010 A 
ATOM     85  C   UNL A   1      42.447  36.920  27.284  1.00  0.00     0.020 A 
ATOM     86  C   UNL A   1      44.110  37.177  29.019  1.00  0.00     0.020 A 
ATOM     87  C   UNL A   1      43.506  37.633  27.854  1.00  0.00     0.054 A 
BRANCH  87  88
ATOM     88  S   UNL A   1      44.002  39.227  27.141  1.00  0.00     0.124 S 
ATOM     89  O   UNL A   1      45.259  38.893  26.479  1.00  0.00    -0.237 OA
ATOM     90  O   UNL A   1      42.884  39.541  26.257  1.00  0.00    -0.237 OA
ATOM     91  O   UNL A   1      44.129  40.100  28.307  1.00  0.00    -0.744 OA
ENDBRANCH  87  88
ENDBRANCH  59  82
BRANCH  71  92
ATOM     92  C   UNL A   1      41.490  31.415  34.032  1.00  0.00    -0.014 A 
ATOM     93  C   UNL A   1      40.389  32.272  34.228  1.00  0.00     0.010 A 
ATOM     94  C   UNL A   1      42.315  31.130  35.137  1.00  0.00     0.010 A 
ATOM     95  C   UNL A   1      40.152  32.864  35.477  1.00  0.00     0.020 A 
ATOM     96  C   UNL A   1      42.070  31.697  36.390  1.00  0.00     0.020 A 
ATOM     97  C   UNL A   1      40.998  32.575  36.551  1.00  0.00     0.054 A 
BRANCH  97  98
ATOM     98  S   UNL A   1      40.665  33.322  38.171  1.00  0.00     0.124 S 
ATOM     99  O   UNL A   1      41.953  33.200  38.847  1.00  0.00    -0.237 OA
ATOM    100  O   UNL A   1      40.262  34.683  37.824  1.00  0.00    -0.237 OA
ATOM    101  O   UNL A   1      39.597  32.491  38.724  1.00  0.00    -0.744 OA
ENDBRANCH  97  98
ENDBRANCH  71  92
ENDBRANCH  45  46
ENDBRANCH  38  40
ENDBRANCH  37  38
ENDBRANCH  36  37
ENDBRANCH  35  36
ENDBRANCH  34  35
ENDBRANCH   1  34
TORSDOF 24
ENDMDL
MODEL 2
REMARK VINA RESULT:     -10.8      3.187      7.321
REMARK SMILES COc1ccccc1[C@@H]1C[N@@H+](Cc2cn3cc(C)ccc3n2)C[C@H]1C(=O)OCCOCCOCCOC(=O)c1ccc(-c2c3nc(c(-c4ccc(S(=O)(=O)[O-])cc4)c4ccc([nH]4)c(-c4ccc(S(=O)(=O)[O-])cc4)c4nc(c(-c5ccc(S(=O)(=O)[O-])cc5)c5ccc2[nH]5)C=C4)C=C3)cc1
REMARK SMILES IDX 32 1 31 2 30 3 29 4 28 5 27 6 25 7 26 8 24 9 9 10 10 11
REMARK SMILES IDX 11 12 23 13 8 15 3 16 4 17 5 18 7 19 6 20 2 21 1 22 12 23
REMARK SMILES IDX 13 24 14 25 22 26 15 27 21 28 16 29 20 30 17 31 19 32 18 33
REMARK SMILES IDX 33 34 34 35 35 36 36 37 37 38 38 39 39 40 40 41 98 42 41 43
REMARK SMILES IDX 97 44 42 45 43 46 44 47 91 48 45 49 96 50 90 51 92 52 46 53
REMARK SMILES IDX 95 54 89 55 88 56 47 58 77 59 58 60 76 61 59 62 62 63 75 64
REMARK SMILES IDX 93 65 60 66 61 67 74 69 94 70 63 71 48 72 49 73 57 74 50 75
REMARK SMILES IDX 56 76 51 77 52 78 53 79 54 80 55 81 78 82 79 83 87 84 80 85
REMARK SMILES IDX 86 86 81 87 82 88 83 89 84 90 85 91 64 92 65 93 73 94 66 95
REMARK SMILES IDX 72 96 67 97 68 98 69 99 70 100 71 101
REMARK H PARENT 11 14 92 57 62 68
REMARK Flexibility Score: inf
ROOT
ATOM      1  C   UNL A   1      31.035  29.250  24.598  1.00  0.00     0.188 C 
ENDROOT
BRANCH   1   2
ATOM      2  C   UNL A   1      31.358  28.930  23.135  1.00  0.00     0.188 C 
BRANCH   2   3
ATOM      3  O   UNL A   1      32.086  27.740  22.870  1.00  0.00    -0.376 OA
BRANCH   3   4
ATOM      4  C   UNL A   1      31.422  26.723  22.113  1.00  0.00     0.202 C 
BRANCH   4   5
ATOM      5  C   UNL A   1      32.249  25.944  21.072  1.00  0.00     0.261 C 
BRANCH   5   6
ATOM      6  O   UNL A   1      33.566  25.543  21.537  1.00  0.00    -0.463 OA
BRANCH   6   7
ATOM      7  C   UNL A   1      33.618  24.386  22.225  1.00  0.00     0.315 C 
ATOM      8  O   UNL A   1      33.588  23.283  21.673  1.00  0.00    -0.252 OA
BRANCH   7   9
ATOM      9  C   UNL A   1      33.723  24.464  23.746  1.00  0.00     0.167 C 
ATOM     10  C   UNL A   1      33.225  23.443  24.789  1.00  0.00     0.098 C 
ATOM     11  C   UNL A   1      34.293  23.528  25.893  1.00  0.00     0.272 C 
ATOM     12  N   UNL A   1      35.558  23.805  25.225  1.00  0.00    -0.329 N 
ATOM     13  C   UNL A   1      35.231  24.586  24.030  1.00  0.00     0.278 C 
ATOM     14  H   UNL A   1      36.171  24.342  25.839  1.00  0.00     0.348 HD
BRANCH  10  15
ATOM     15  C   UNL A   1      31.864  23.537  25.490  1.00  0.00     0.004 A 
ATOM     16  C   UNL A   1      31.142  24.710  25.769  1.00  0.00     0.122 A 
ATOM     17  C   UNL A   1      29.899  24.652  26.426  1.00  0.00     0.047 A 
ATOM     18  C   UNL A   1      29.390  23.433  26.878  1.00  0.00     0.004 A 
ATOM     19  C   UNL A   1      31.353  22.333  26.028  1.00  0.00     0.008 A 
ATOM     20  C   UNL A   1      30.137  22.276  26.710  1.00  0.00     0.001 A 
BRANCH  16  21
ATOM     21  O   UNL A   1      31.747  25.938  25.711  1.00  0.00    -0.496 OA
ATOM     22  C   UNL A   1      31.427  26.812  26.782  1.00  0.00     0.278 C 
ENDBRANCH  16  21
ENDBRANCH  10  15
BRANCH  12  23
ATOM     23  C   UNL A   1      36.388  22.618  24.973  1.00  0.00     0.321 C 
BRANCH  23  24
ATOM     24  C   UNL A   1      37.706  22.584  25.684  1.00  0.00     0.114 A 
ATOM     25  C   UNL A   1      38.325  23.604  26.385  1.00  0.00     0.122 A 
ATOM     26  N   UNL A   1      38.497  21.452  25.692  1.00  0.00    -0.228 NA
ATOM     27  N   UNL A   1      39.511  23.086  26.835  1.00  0.00    -0.306 N 
ATOM     28  C   UNL A   1      39.572  21.774  26.384  1.00  0.00     0.137 A 
ATOM     29  C   UNL A   1      40.507  23.695  27.598  1.00  0.00     0.096 A 
ATOM     30  C   UNL A   1      40.740  21.033  26.722  1.00  0.00     0.048 A 
ATOM     31  C   UNL A   1      41.621  23.001  27.909  1.00  0.00    -0.034 A 
ATOM     32  C   UNL A   1      41.728  21.620  27.427  1.00  0.00     0.009 A 
ATOM     33  C   UNL A   1      42.696  23.528  28.808  1.00  0.00     0.046 C 
ENDBRANCH  23  24
ENDBRANCH  12  23
ENDBRANCH   7   9
ENDBRANCH   6   7
ENDBRANCH   5   6
ENDBRANCH   4   5
ENDBRANCH   3   4
ENDBRANCH   2   3
ENDBRANCH   1   2
BRANCH   1  34
ATOM     34  O   UNL A   1      31.364  30.565  25.012  1.00  0.00    -0.376 OA
BRANCH  34  35
ATOM     35  C   UNL A   1      31.568  30.820  26.387  1.00  0.00     0.202 C 
BRANCH  35  36
ATOM     36  C   UNL A   1      32.653  29.991  27.050  1.00  0.00     0.261 C 
BRANCH  36  37
ATOM     37  O   UNL A   1      33.949  30.440  26.711  1.00  0.00    -0.460 OA
BRANCH  37  38
ATOM     38  C   UNL A   1      34.482  31.337  27.565  1.00  0.00     0.338 C 
ATOM     39  O   UNL A   1      34.215  32.515  27.691  1.00  0.00    -0.246 OA
BRANCH  38  40
ATOM     40  C   UNL A   1      35.502  30.639  28.332  1.00  0.00     0.060 A 
ATOM     41  C   UNL A   1      36.023  31.297  29.445  1.00  0.00     0.016 A 
ATOM     42  C   UNL A   1      36.088  29.500  27.764  1.00  0.00     0.016 A 
ATOM     43  C   UNL A   1      37.281  30.943  29.858  1.00  0.00     0.010 A 
ATOM     44  C   UNL A   1      37.347  29.162  28.163  1.00  0.00     0.010 A 
ATOM     45  C   UNL A   1      37.953  29.956  29.135  1.00  0.00    -0.014 A 
BRANCH  45  46
ATOM     46  C   UNL A   1      39.353  29.765  29.406  1.00  0.00     0.031 A 
ATOM     47  C   UNL A   1      39.658  29.604  30.833  1.00  0.00     0.074 A 
ATOM     48  C   UNL A   1      40.237  29.626  28.403  1.00  0.00     0.049 A 
ATOM     49  N   UNL A   1      40.354  30.391  31.581  1.00  0.00    -0.248 NA
ATOM     50  C   UNL A   1      38.970  28.520  31.553  1.00  0.00     0.031 C 
ATOM     51  C   UNL A   1      39.946  29.481  26.973  1.00  0.00     0.029 A 
ATOM     52  N   UNL A   1      41.578  29.423  28.474  1.00  0.00    -0.354 N 
ATOM     53  C   UNL A   1      40.397  29.761  32.816  1.00  0.00     0.074 A 
ATOM     54  C   UNL A   1      39.368  28.751  32.802  1.00  0.00     0.031 C 
ATOM     55  C   UNL A   1      41.031  28.961  26.360  1.00  0.00     0.029 A 
ATOM     56  C   UNL A   1      42.108  28.846  27.330  1.00  0.00     0.049 A 
ATOM     57  H   UNL A   1      42.119  29.663  29.260  1.00  0.00     0.167 HD
ATOM     58  C   UNL A   1      41.475  29.890  33.631  1.00  0.00     0.031 A 
ATOM     59  C   UNL A   1      43.304  28.213  27.235  1.00  0.00     0.031 A 
ATOM     60  C   UNL A   1      42.291  31.025  33.286  1.00  0.00     0.049 A 
ATOM     61  C   UNL A   1      44.129  28.640  28.396  1.00  0.00     0.074 A 
ATOM     62  C   UNL A   1      42.043  32.374  33.117  1.00  0.00     0.029 A 
ATOM     63  N   UNL A   1      43.498  30.781  32.672  1.00  0.00    -0.354 N 
ATOM     64  N   UNL A   1      44.593  29.850  28.548  1.00  0.00    -0.248 NA
ATOM     65  C   UNL A   1      44.092  27.839  29.612  1.00  0.00     0.031 C 
ATOM     66  C   UNL A   1      42.873  32.775  32.034  1.00  0.00     0.029 A 
ATOM     67  C   UNL A   1      43.624  31.668  31.632  1.00  0.00     0.049 A 
ATOM     68  H   UNL A   1      44.155  30.093  32.931  1.00  0.00     0.167 HD
ATOM     69  C   UNL A   1      44.495  30.104  29.909  1.00  0.00     0.074 A 
ATOM     70  C   UNL A   1      44.299  28.795  30.523  1.00  0.00     0.031 C 
ATOM     71  C   UNL A   1      44.293  31.372  30.381  1.00  0.00     0.031 A 
BRANCH  58  72
ATOM     72  C   UNL A   1      41.992  28.726  34.432  1.00  0.00    -0.014 A 
ATOM     73  C   UNL A   1      42.653  27.677  33.772  1.00  0.00     0.010 A 
ATOM     74  C   UNL A   1      41.601  28.502  35.773  1.00  0.00     0.010 A 
ATOM     75  C   UNL A   1      42.861  26.447  34.408  1.00  0.00     0.020 A 
ATOM     76  C   UNL A   1      41.851  27.303  36.431  1.00  0.00     0.020 A 
ATOM     77  C   UNL A   1      42.445  26.266  35.729  1.00  0.00     0.054 A 
BRANCH  77  78
ATOM     78  S   UNL A   1      42.610  24.644  36.505  1.00  0.00     0.124 S 
ATOM     79  O   UNL A   1      43.754  24.854  37.385  1.00  0.00    -0.237 OA
ATOM     80  O   UNL A   1      41.318  24.484  37.168  1.00  0.00    -0.237 OA
ATOM     81  O   UNL A   1      42.838  23.748  35.375  1.00  0.00    -0.744 OA
ENDBRANCH  77  78
ENDBRANCH  58  72
BRANCH  59  82
ATOM     82  C   UNL A   1      43.640  27.050  26.378  1.00  0.00    -0.014 A 
ATOM     83  C   UNL A   1      44.970  26.612  26.253  1.00  0.00     0.010 A 
ATOM     84  C   UNL A   1      42.627  26.210  25.869  1.00  0.00     0.010 A 
ATOM     85  C   UNL A   1      45.268  25.357  25.697  1.00  0.00     0.020 A 
ATOM     86  C   UNL A   1      42.917  24.969  25.294  1.00  0.00     0.020 A 
ATOM     87  C   UNL A   1      44.236  24.536  25.235  1.00  0.00     0.054 A 
BRANCH  87  88
ATOM     88  S   UNL A   1      44.611  22.848  24.681  1.00  0.00     0.124 S 
ATOM     89  O   UNL A   1      43.300  22.361  24.260  1.00  0.00    -0.237 OA
ATOM     90  O   UNL A   1      45.577  23.073  23.610  1.00  0.00    -0.237 OA
ATOM     91  O   UNL A   1      45.155  22.206  25.876  1.00  0.00    -0.744 OA
ENDBRANCH  87  88
ENDBRANCH  59  82
BRANCH  71  92
ATOM     92  C   UNL A   1      44.530  32.540  29.448  1.00  0.00    -0.014 A 
ATOM     93  C   UNL A   1      43.568  33.531  29.171  1.00  0.00     0.010 A 
ATOM     94  C   UNL A   1      45.827  32.709  28.927  1.00  0.00     0.010 A 
ATOM     95  C   UNL A   1      43.880  34.630  28.359  1.00  0.00     0.020 A 
ATOM     96  C   UNL A   1      46.152  33.815  28.136  1.00  0.00     0.020 A 
ATOM     97  C   UNL A   1      45.173  34.763  27.842  1.00  0.00     0.054 A 
BRANCH  97  98
ATOM     98  S   UNL A   1      45.575  36.204  26.816  1.00  0.00     0.124 S 
ATOM     99  O   UNL A   1      44.319  36.947  26.805  1.00  0.00    -0.237 OA
ATOM    100  O   UNL A   1      46.672  36.831  27.551  1.00  0.00    -0.237 OA
ATOM    101  O   UNL A   1      45.958  35.620  25.531  1.00  0.00    -0.744 OA
ENDBRANCH  97  98
ENDBRANCH  71  92
ENDBRANCH  45  46
ENDBRANCH  38  40
ENDBRANCH  37  38
ENDBRANCH  36  37
ENDBRANCH  35  36
ENDBRANCH  34  35
ENDBRANCH   1  34
TORSDOF 24
ENDMDL
MODEL 3
REMARK VINA RESULT:     -10.7      4.664     10.864
REMARK SMILES COc1ccccc1[C@@H]1C[N@@H+](Cc2cn3cc(C)ccc3n2)C[C@H]1C(=O)OCCOCCOCCOC(=O)c1ccc(-c2c3nc(c(-c4ccc(S(=O)(=O)[O-])cc4)c4ccc([nH]4)c(-c4ccc(S(=O)(=O)[O-])cc4)c4nc(c(-c5ccc(S(=O)(=O)[O-])cc5)c5ccc2[nH]5)C=C4)C=C3)cc1
REMARK SMILES IDX 32 1 31 2 30 3 29 4 28 5 27 6 25 7 26 8 24 9 9 10 10 11
REMARK SMILES IDX 11 12 23 13 8 15 3 16 4 17 5 18 7 19 6 20 2 21 1 22 12 23
REMARK SMILES IDX 13 24 14 25 22 26 15 27 21 28 16 29 20 30 17 31 19 32 18 33
REMARK SMILES IDX 33 34 34 35 35 36 36 37 37 38 38 39 39 40 40 41 98 42 41 43
REMARK SMILES IDX 97 44 42 45 43 46 44 47 91 48 45 49 96 50 90 51 92 52 46 53
REMARK SMILES IDX 95 54 89 55 88 56 47 58 77 59 58 60 76 61 59 62 62 63 75 64
REMARK SMILES IDX 93 65 60 66 61 67 74 69 94 70 63 71 48 72 49 73 57 74 50 75
REMARK SMILES IDX 56 76 51 77 52 78 53 79 54 80 55 81 78 82 79 83 87 84 80 85
REMARK SMILES IDX 86 86 81 87 82 88 83 89 84 90 85 91 64 92 65 93 73 94 66 95
REMARK SMILES IDX 72 96 67 97 68 98 69 99 70 100 71 101
REMARK H PARENT 11 14 92 57 62 68
REMARK Flexibility Score: inf
ROOT
ATOM      1  C   UNL A   1      38.058  33.270  35.521  1.00  0.00     0.188 C 
ENDROOT
BRANCH   1   2
ATOM      2  C   UNL A   1      36.673  33.807  35.146  1.00  0.00     0.188 C 
BRANCH   2   3
ATOM      3  O   UNL A   1      36.479  34.237  33.806  1.00  0.00    -0.376 OA
BRANCH   3   4
ATOM      4  C   UNL A   1      37.517  33.937  32.868  1.00  0.00     0.202 C 
BRANCH   4   5
ATOM      5  C   UNL A   1      37.349  32.685  31.984  1.00  0.00     0.261 C 
BRANCH   5   6
ATOM      6  O   UNL A   1      36.074  32.612  31.292  1.00  0.00    -0.463 OA
BRANCH   6   7
ATOM      7  C   UNL A   1      36.087  32.980  29.997  1.00  0.00     0.315 C 
ATOM      8  O   UNL A   1      35.973  34.155  29.639  1.00  0.00    -0.252 OA
BRANCH   7   9
ATOM      9  C   UNL A   1      36.257  31.886  28.945  1.00  0.00     0.167 C 
ATOM     10  C   UNL A   1      36.021  30.370  29.101  1.00  0.00     0.098 C 
ATOM     11  C   UNL A   1      35.467  29.964  27.724  1.00  0.00     0.272 C 
ATOM     12  N   UNL A   1      34.690  31.096  27.239  1.00  0.00    -0.329 N 
ATOM     13  C   UNL A   1      35.320  32.297  27.795  1.00  0.00     0.278 C 
ATOM     14  H   UNL A   1      34.713  31.128  26.219  1.00  0.00     0.348 HD
BRANCH  10  15
ATOM     15  C   UNL A   1      37.129  29.366  29.441  1.00  0.00     0.004 A 
ATOM     16  C   UNL A   1      37.354  28.752  30.685  1.00  0.00     0.122 A 
ATOM     17  C   UNL A   1      38.418  27.847  30.860  1.00  0.00     0.047 A 
ATOM     18  C   UNL A   1      39.315  27.594  29.820  1.00  0.00     0.004 A 
ATOM     19  C   UNL A   1      38.100  29.143  28.437  1.00  0.00     0.008 A 
ATOM     20  C   UNL A   1      39.175  28.272  28.618  1.00  0.00     0.001 A 
BRANCH  16  21
ATOM     21  O   UNL A   1      36.773  29.241  31.825  1.00  0.00    -0.496 OA
ATOM     22  C   UNL A   1      37.629  29.293  32.957  1.00  0.00     0.278 C 
ENDBRANCH  16  21
ENDBRANCH  10  15
BRANCH  12  23
ATOM     23  C   UNL A   1      33.244  30.994  27.482  1.00  0.00     0.321 C 
BRANCH  23  24
ATOM     24  C   UNL A   1      32.509  30.010  26.624  1.00  0.00     0.114 A 
ATOM     25  C   UNL A   1      32.317  28.658  26.847  1.00  0.00     0.122 A 
ATOM     26  N   UNL A   1      31.925  30.384  25.429  1.00  0.00    -0.228 NA
ATOM     27  N   UNL A   1      31.599  28.197  25.775  1.00  0.00    -0.306 N 
ATOM     28  C   UNL A   1      31.388  29.285  24.937  1.00  0.00     0.137 A 
ATOM     29  C   UNL A   1      31.137  26.909  25.510  1.00  0.00     0.096 A 
ATOM     30  C   UNL A   1      30.668  29.038  23.734  1.00  0.00     0.048 A 
ATOM     31  C   UNL A   1      30.466  26.667  24.365  1.00  0.00    -0.034 A 
ATOM     32  C   UNL A   1      30.247  27.790  23.446  1.00  0.00     0.009 A 
ATOM     33  C   UNL A   1      29.839  25.347  24.040  1.00  0.00     0.046 C 
ENDBRANCH  23  24
ENDBRANCH  12  23
ENDBRANCH   7   9
ENDBRANCH   6   7
ENDBRANCH   5   6
ENDBRANCH   4   5
ENDBRANCH   3   4
ENDBRANCH   2   3
ENDBRANCH   1   2
BRANCH   1  34
ATOM     34  O   UNL A   1      39.057  34.259  35.703  1.00  0.00    -0.376 OA
BRANCH  34  35
ATOM     35  C   UNL A   1      40.415  33.869  35.708  1.00  0.00     0.202 C 
BRANCH  35  36
ATOM     36  C   UNL A   1      40.689  32.466  36.220  1.00  0.00     0.261 C 
BRANCH  36  37
ATOM     37  O   UNL A   1      41.074  31.587  35.183  1.00  0.00    -0.460 OA
BRANCH  37  38
ATOM     38  C   UNL A   1      40.563  30.342  35.273  1.00  0.00     0.338 C 
ATOM     39  O   UNL A   1      39.562  29.974  35.852  1.00  0.00    -0.246 OA
BRANCH  38  40
ATOM     40  C   UNL A   1      41.466  29.460  34.551  1.00  0.00     0.060 A 
ATOM     41  C   UNL A   1      42.824  29.769  34.587  1.00  0.00     0.016 A 
ATOM     42  C   UNL A   1      40.908  28.539  33.653  1.00  0.00     0.016 A 
ATOM     43  C   UNL A   1      43.604  29.321  33.553  1.00  0.00     0.010 A 
ATOM     44  C   UNL A   1      41.680  28.110  32.614  1.00  0.00     0.010 A 
ATOM     45  C   UNL A   1      42.984  28.591  32.535  1.00  0.00    -0.014 A 
BRANCH  45  46
ATOM     46  C   UNL A   1      43.740  28.341  31.338  1.00  0.00     0.031 A 
ATOM     47  C   UNL A   1      43.619  29.403  30.332  1.00  0.00     0.074 A 
ATOM     48  C   UNL A   1      44.565  27.283  31.252  1.00  0.00     0.049 A 
ATOM     49  N   UNL A   1      43.090  29.318  29.160  1.00  0.00    -0.248 NA
ATOM     50  C   UNL A   1      43.983  30.769  30.746  1.00  0.00     0.031 C 
ATOM     51  C   UNL A   1      44.949  26.363  32.328  1.00  0.00     0.029 A 
ATOM     52  N   UNL A   1      45.359  26.906  30.217  1.00  0.00    -0.354 N 
ATOM     53  C   UNL A   1      43.285  30.568  28.591  1.00  0.00     0.074 A 
ATOM     54  C   UNL A   1      43.630  31.464  29.666  1.00  0.00     0.031 C 
ATOM     55  C   UNL A   1      46.076  25.714  31.963  1.00  0.00     0.029 A 
ATOM     56  C   UNL A   1      46.417  26.095  30.601  1.00  0.00     0.049 A 
ATOM     57  H   UNL A   1      45.199  27.182  29.286  1.00  0.00     0.167 HD
ATOM     58  C   UNL A   1      43.468  30.708  27.253  1.00  0.00     0.031 A 
ATOM     59  C   UNL A   1      47.544  25.860  29.887  1.00  0.00     0.031 A 
ATOM     60  C   UNL A   1      43.017  29.557  26.514  1.00  0.00     0.049 A 
ATOM     61  C   UNL A   1      47.261  26.221  28.472  1.00  0.00     0.074 A 
ATOM     62  C   UNL A   1      41.826  28.859  26.451  1.00  0.00     0.029 A 
ATOM     63  N   UNL A   1      43.975  28.724  25.983  1.00  0.00    -0.354 N 
ATOM     64  N   UNL A   1      46.438  25.557  27.708  1.00  0.00    -0.248 NA
ATOM     65  C   UNL A   1      47.564  27.572  28.021  1.00  0.00     0.031 C 
ATOM     66  C   UNL A   1      42.199  27.493  26.311  1.00  0.00     0.029 A 
ATOM     67  C   UNL A   1      43.593  27.431  26.242  1.00  0.00     0.049 A 
ATOM     68  H   UNL A   1      44.788  29.004  25.502  1.00  0.00     0.167 HD
ATOM     69  C   UNL A   1      45.796  26.524  26.946  1.00  0.00     0.074 A 
ATOM     70  C   UNL A   1      46.615  27.723  27.094  1.00  0.00     0.031 C 
ATOM     71  C   UNL A   1      44.514  26.344  26.505  1.00  0.00     0.031 A 
BRANCH  58  72
ATOM     72  C   UNL A   1      44.456  31.698  26.699  1.00  0.00    -0.014 A 
ATOM     73  C   UNL A   1      45.824  31.526  26.968  1.00  0.00     0.010 A 
ATOM     74  C   UNL A   1      44.054  32.942  26.159  1.00  0.00     0.010 A 
ATOM     75  C   UNL A   1      46.733  32.571  26.757  1.00  0.00     0.020 A 
ATOM     76  C   UNL A   1      44.956  33.967  25.896  1.00  0.00     0.020 A 
ATOM     77  C   UNL A   1      46.288  33.788  26.235  1.00  0.00     0.054 A 
BRANCH  77  78
ATOM     78  S   UNL A   1      47.442  35.168  26.076  1.00  0.00     0.124 S 
ATOM     79  O   UNL A   1      48.158  34.812  24.856  1.00  0.00    -0.237 OA
ATOM     80  O   UNL A   1      46.542  36.314  25.974  1.00  0.00    -0.237 OA
ATOM     81  O   UNL A   1      48.223  35.103  27.308  1.00  0.00    -0.744 OA
ENDBRANCH  77  78
ENDBRANCH  58  72
BRANCH  59  82
ATOM     82  C   UNL A   1      48.913  25.638  30.413  1.00  0.00    -0.014 A 
ATOM     83  C   UNL A   1      49.944  25.190  29.568  1.00  0.00     0.010 A 
ATOM     84  C   UNL A   1      49.278  26.097  31.697  1.00  0.00     0.010 A 
ATOM     85  C   UNL A   1      51.288  25.257  29.969  1.00  0.00     0.020 A 
ATOM     86  C   UNL A   1      50.612  26.148  32.112  1.00  0.00     0.020 A 
ATOM     87  C   UNL A   1      51.615  25.752  31.234  1.00  0.00     0.054 A 
BRANCH  87  88
ATOM     88  S   UNL A   1      53.357  26.000  31.679  1.00  0.00     0.124 S 
ATOM     89  O   UNL A   1      53.961  26.338  30.394  1.00  0.00    -0.237 OA
ATOM     90  O   UNL A   1      53.284  27.088  32.651  1.00  0.00    -0.237 OA
ATOM     91  O   UNL A   1      53.758  24.707  32.232  1.00  0.00    -0.744 OA
ENDBRANCH  87  88
ENDBRANCH  59  82
BRANCH  71  92
ATOM     92  C   UNL A   1      43.923  24.951  26.544  1.00  0.00    -0.014 A 
ATOM     93  C   UNL A   1      43.219  24.427  27.647  1.00  0.00     0.010 A 
ATOM     94  C   UNL A   1      43.973  24.185  25.364  1.00  0.00     0.010 A 
ATOM     95  C   UNL A   1      42.628  23.157  27.586  1.00  0.00     0.020 A 
ATOM     96  C   UNL A   1      43.365  22.929  25.288  1.00  0.00     0.020 A 
ATOM     97  C   UNL A   1      42.709  22.413  26.405  1.00  0.00     0.054 A 
BRANCH  97  98
ATOM     98  S   UNL A   1      41.915  20.783  26.327  1.00  0.00     0.124 S 
ATOM     99  O   UNL A   1      40.533  21.119  26.000  1.00  0.00    -0.237 OA
ATOM    100  O   UNL A   1      42.666  20.106  25.272  1.00  0.00    -0.237 OA
ATOM    101  O   UNL A   1      42.117  20.234  27.668  1.00  0.00    -0.744 OA
ENDBRANCH  97  98
ENDBRANCH  71  92
ENDBRANCH  45  46
ENDBRANCH  38  40
ENDBRANCH  37  38
ENDBRANCH  36  37
ENDBRANCH  35  36
ENDBRANCH  34  35
ENDBRANCH   1  34
TORSDOF 24
ENDMDL
