MODEL 1
REMARK VINA RESULT:     -10.5      0.000      0.000
REMARK SMILES O=C(OCCOCCOCCOC(=O)c1c(-c2ccc(Cl)cc2)noc1CO[C@@H]1CCCCO1)c1ccc(-c2c3nc(c(-c4ccc(S(=O)(=O)[O-])cc4)c4ccc([nH]4)c(-c4ccc(S(=O)(=O)[O-])cc4)c4nc(c(-c5ccc(S(=O)(=O)[O-])cc5)c5ccc2[nH]5)C=C4)C=C3)cc1
REMARK SMILES IDX 7 1 6 2 5 3 4 4 3 5 2 6 1 7 35 8 36 9 94 10 37 11 93 12
REMARK SMILES IDX 38 13 39 14 40 15 87 16 41 17 92 18 86 19 88 20 42 21 91 22
REMARK SMILES IDX 85 23 84 24 43 26 73 27 54 28 72 29 55 30 58 31 71 32 89 33
REMARK SMILES IDX 56 34 57 35 70 37 90 38 59 39 44 40 45 41 53 42 46 43 52 44
REMARK SMILES IDX 47 45 48 46 49 47 50 48 51 49 74 50 75 51 83 52 76 53 82 54
REMARK SMILES IDX 77 55 78 56 79 57 80 58 81 59 60 60 61 61 69 62 62 63 68 64
REMARK SMILES IDX 63 65 64 66 65 67 66 68 67 69 8 70 9 71 10 72 11 73 12 74
REMARK SMILES IDX 13 75 14 76 15 77 16 78 26 79 24 80 25 81 17 82 18 83 23 84
REMARK SMILES IDX 19 85 22 86 20 87 21 88 27 89 28 90 29 91 30 92 34 93 31 94
REMARK SMILES IDX 33 95 32 96
REMARK H PARENT 88 25 58 36
REMARK Flexibility Score: inf
ROOT
ATOM      1  C   UNL A   1      39.787  21.501  26.496  1.00  0.00     0.188 C 
ENDROOT
BRANCH   1   2
ATOM      2  O   UNL A   1      41.124  21.762  26.082  1.00  0.00    -0.376 OA
BRANCH   2   3
ATOM      3  C   UNL A   1      41.813  22.780  26.796  1.00  0.00     0.202 C 
BRANCH   3   4
ATOM      4  C   UNL A   1      43.141  23.159  26.134  1.00  0.00     0.261 C 
BRANCH   4   5
ATOM      5  O   UNL A   1      43.388  24.572  26.273  1.00  0.00    -0.460 OA
BRANCH   5   6
ATOM      6  C   UNL A   1      42.577  25.637  26.077  1.00  0.00     0.338 C 
ATOM      7  O   UNL A   1      42.255  25.898  24.917  1.00  0.00    -0.246 OA
BRANCH   6   8
ATOM      8  C   UNL A   1      42.061  26.547  27.153  1.00  0.00     0.060 A 
ATOM      9  C   UNL A   1      42.349  27.904  27.294  1.00  0.00     0.016 A 
ATOM     10  C   UNL A   1      41.145  25.983  28.067  1.00  0.00     0.016 A 
ATOM     11  C   UNL A   1      41.839  28.646  28.361  1.00  0.00     0.010 A 
ATOM     12  C   UNL A   1      40.577  26.739  29.101  1.00  0.00     0.010 A 
ATOM     13  C   UNL A   1      40.969  28.066  29.287  1.00  0.00    -0.014 A 
BRANCH  13  14
ATOM     14  C   UNL A   1      40.634  28.830  30.513  1.00  0.00     0.031 A 
ATOM     15  C   UNL A   1      41.532  28.700  31.709  1.00  0.00     0.074 A 
ATOM     16  C   UNL A   1      39.641  29.740  30.501  1.00  0.00     0.049 A 
ATOM     17  N   UNL A   1      41.517  29.376  32.827  1.00  0.00    -0.248 NA
ATOM     18  C   UNL A   1      42.600  27.688  31.630  1.00  0.00     0.031 C 
ATOM     19  C   UNL A   1      38.738  29.976  29.376  1.00  0.00     0.029 A 
ATOM     20  N   UNL A   1      39.250  30.661  31.439  1.00  0.00    -0.354 N 
ATOM     21  C   UNL A   1      42.575  28.880  33.577  1.00  0.00     0.074 A 
ATOM     22  C   UNL A   1      43.187  27.820  32.809  1.00  0.00     0.031 C 
ATOM     23  C   UNL A   1      37.923  31.001  29.672  1.00  0.00     0.029 A 
ATOM     24  C   UNL A   1      38.231  31.483  31.013  1.00  0.00     0.049 A 
ATOM     25  H   UNL A   1      39.659  30.728  32.332  1.00  0.00     0.167 HD
ATOM     26  C   UNL A   1      43.013  29.282  34.792  1.00  0.00     0.031 A 
ATOM     27  C   UNL A   1      37.620  32.512  31.631  1.00  0.00     0.031 A 
ATOM     28  C   UNL A   1      42.389  30.315  35.567  1.00  0.00     0.049 A 
ATOM     29  C   UNL A   1      38.091  32.903  33.006  1.00  0.00     0.074 A 
ATOM     30  C   UNL A   1      42.693  30.741  36.845  1.00  0.00     0.029 A 
ATOM     31  N   UNL A   1      41.326  31.089  35.124  1.00  0.00    -0.354 N 
ATOM     32  N   UNL A   1      39.080  32.402  33.709  1.00  0.00    -0.248 NA
ATOM     33  C   UNL A   1      37.370  33.998  33.670  1.00  0.00     0.031 C 
ATOM     34  C   UNL A   1      41.796  31.762  37.185  1.00  0.00     0.029 A 
ATOM     35  C   UNL A   1      40.960  31.993  36.103  1.00  0.00     0.049 A 
ATOM     36  H   UNL A   1      40.896  31.007  34.241  1.00  0.00     0.167 HD
ATOM     37  C   UNL A   1      39.101  33.121  34.897  1.00  0.00     0.074 A 
ATOM     38  C   UNL A   1      38.050  34.114  34.803  1.00  0.00     0.031 C 
ATOM     39  C   UNL A   1      39.908  32.967  35.976  1.00  0.00     0.031 A 
BRANCH  26  40
ATOM     40  C   UNL A   1      44.208  28.559  35.343  1.00  0.00    -0.014 A 
ATOM     41  C   UNL A   1      44.061  27.307  35.969  1.00  0.00     0.010 A 
ATOM     42  C   UNL A   1      45.477  29.158  35.291  1.00  0.00     0.010 A 
ATOM     43  C   UNL A   1      45.155  26.690  36.578  1.00  0.00     0.020 A 
ATOM     44  C   UNL A   1      46.578  28.536  35.885  1.00  0.00     0.020 A 
ATOM     45  C   UNL A   1      46.405  27.317  36.544  1.00  0.00     0.054 A 
BRANCH  45  46
ATOM     46  S   UNL A   1      47.807  26.515  37.372  1.00  0.00     0.124 S 
ATOM     47  O   UNL A   1      47.183  26.007  38.592  1.00  0.00    -0.237 OA
ATOM     48  O   UNL A   1      48.214  25.498  36.406  1.00  0.00    -0.237 OA
ATOM     49  O   UNL A   1      48.762  27.603  37.565  1.00  0.00    -0.744 OA
ENDBRANCH  45  46
ENDBRANCH  26  40
BRANCH  27  50
ATOM     50  C   UNL A   1      36.501  33.240  30.966  1.00  0.00    -0.014 A 
ATOM     51  C   UNL A   1      36.711  33.962  29.778  1.00  0.00     0.010 A 
ATOM     52  C   UNL A   1      35.211  33.224  31.531  1.00  0.00     0.010 A 
ATOM     53  C   UNL A   1      35.662  34.674  29.183  1.00  0.00     0.020 A 
ATOM     54  C   UNL A   1      34.155  33.912  30.926  1.00  0.00     0.020 A 
ATOM     55  C   UNL A   1      34.392  34.648  29.764  1.00  0.00     0.054 A 
BRANCH  55  56
ATOM     56  S   UNL A   1      33.036  35.554  28.966  1.00  0.00     0.124 S 
ATOM     57  O   UNL A   1      33.756  36.584  28.223  1.00  0.00    -0.237 OA
ATOM     58  O   UNL A   1      32.395  34.521  28.155  1.00  0.00    -0.237 OA
ATOM     59  O   UNL A   1      32.237  36.036  30.090  1.00  0.00    -0.744 OA
ENDBRANCH  55  56
ENDBRANCH  27  50
BRANCH  39  60
ATOM     60  C   UNL A   1      39.684  33.902  37.131  1.00  0.00    -0.014 A 
ATOM     61  C   UNL A   1      38.894  33.512  38.226  1.00  0.00     0.010 A 
ATOM     62  C   UNL A   1      40.312  35.159  37.141  1.00  0.00     0.010 A 
ATOM     63  C   UNL A   1      38.710  34.380  39.304  1.00  0.00     0.020 A 
ATOM     64  C   UNL A   1      40.147  36.021  38.227  1.00  0.00     0.020 A 
ATOM     65  C   UNL A   1      39.335  35.632  39.296  1.00  0.00     0.054 A 
BRANCH  65  66
ATOM     66  S   UNL A   1      39.121  36.729  40.724  1.00  0.00     0.124 S 
ATOM     67  O   UNL A   1      38.419  37.863  40.131  1.00  0.00    -0.237 OA
ATOM     68  O   UNL A   1      38.333  35.913  41.644  1.00  0.00    -0.237 OA
ATOM     69  O   UNL A   1      40.490  36.998  41.157  1.00  0.00    -0.744 OA
ENDBRANCH  65  66
ENDBRANCH  39  60
ENDBRANCH  13  14
ENDBRANCH   6   8
ENDBRANCH   5   6
ENDBRANCH   4   5
ENDBRANCH   3   4
ENDBRANCH   2   3
ENDBRANCH   1   2
BRANCH   1  70
ATOM     70  C   UNL A   1      38.697  21.742  25.446  1.00  0.00     0.188 C 
BRANCH  70  71
ATOM     71  O   UNL A   1      37.350  21.940  25.857  1.00  0.00    -0.376 OA
BRANCH  71  72
ATOM     72  C   UNL A   1      36.565  22.981  25.292  1.00  0.00     0.202 C 
BRANCH  72  73
ATOM     73  C   UNL A   1      36.360  22.948  23.778  1.00  0.00     0.261 C 
BRANCH  73  74
ATOM     74  O   UNL A   1      35.354  23.870  23.328  1.00  0.00    -0.459 OA
BRANCH  74  75
ATOM     75  C   UNL A   1      34.140  23.357  22.999  1.00  0.00     0.344 C 
ATOM     76  O   UNL A   1      33.810  23.032  21.856  1.00  0.00    -0.246 OA
BRANCH  75  77
ATOM     77  C   UNL A   1      33.297  23.185  24.147  1.00  0.00     0.133 A 
ATOM     78  C   UNL A   1      32.824  21.996  24.758  1.00  0.00     0.128 A 
ATOM     79  C   UNL A   1      32.690  24.195  24.865  1.00  0.00     0.177 A 
ATOM     80  N   UNL A   1      32.035  22.273  25.805  1.00  0.00    -0.079 NA
ATOM     81  O   UNL A   1      31.927  23.648  25.846  1.00  0.00    -0.357 OA
BRANCH  78  82
ATOM     82  C   UNL A   1      33.136  20.619  24.419  1.00  0.00     0.005 A 
ATOM     83  C   UNL A   1      32.276  19.906  23.576  1.00  0.00     0.012 A 
ATOM     84  C   UNL A   1      34.289  20.002  24.913  1.00  0.00     0.012 A 
ATOM     85  C   UNL A   1      32.552  18.578  23.243  1.00  0.00     0.021 A 
ATOM     86  C   UNL A   1      34.576  18.679  24.565  1.00  0.00     0.021 A 
ATOM     87  C   UNL A   1      33.705  17.972  23.735  1.00  0.00     0.041 A 
ATOM     88  Cl  UNL A   1      34.064  16.343  23.311  1.00  0.00    -0.084 Cl
ENDBRANCH  78  82
BRANCH  79  89
ATOM     89  C   UNL A   1      32.607  25.664  24.701  1.00  0.00     0.242 C 
BRANCH  89  90
ATOM     90  O   UNL A   1      32.369  26.279  25.966  1.00  0.00    -0.345 OA
BRANCH  90  91
ATOM     91  C   UNL A   1      31.123  26.959  26.086  1.00  0.00     0.250 C 
ATOM     92  C   UNL A   1      31.007  28.029  25.003  1.00  0.00     0.062 C 
ATOM     93  O   UNL A   1      30.955  27.566  27.370  1.00  0.00    -0.353 OA
ATOM     94  C   UNL A   1      32.006  29.161  25.229  1.00  0.00     0.008 C 
ATOM     95  C   UNL A   1      31.978  28.527  27.652  1.00  0.00     0.163 C 
ATOM     96  C   UNL A   1      31.918  29.678  26.661  1.00  0.00     0.029 C 
ENDBRANCH  90  91
ENDBRANCH  89  90
ENDBRANCH  79  89
ENDBRANCH  75  77
ENDBRANCH  74  75
ENDBRANCH  73  74
ENDBRANCH  72  73
ENDBRANCH  71  72
ENDBRANCH  70  71
ENDBRANCH   1  70
TORSDOF 24
ENDMDL
MODEL 2
REMARK VINA RESULT:     -10.3      5.667      7.844
REMARK SMILES O=C(OCCOCCOCCOC(=O)c1c(-c2ccc(Cl)cc2)noc1CO[C@@H]1CCCCO1)c1ccc(-c2c3nc(c(-c4ccc(S(=O)(=O)[O-])cc4)c4ccc([nH]4)c(-c4ccc(S(=O)(=O)[O-])cc4)c4nc(c(-c5ccc(S(=O)(=O)[O-])cc5)c5ccc2[nH]5)C=C4)C=C3)cc1
REMARK SMILES IDX 7 1 6 2 5 3 4 4 3 5 2 6 1 7 35 8 36 9 94 10 37 11 93 12
REMARK SMILES IDX 38 13 39 14 40 15 87 16 41 17 92 18 86 19 88 20 42 21 91 22
REMARK SMILES IDX 85 23 84 24 43 26 73 27 54 28 72 29 55 30 58 31 71 32 89 33
REMARK SMILES IDX 56 34 57 35 70 37 90 38 59 39 44 40 45 41 53 42 46 43 52 44
REMARK SMILES IDX 47 45 48 46 49 47 50 48 51 49 74 50 75 51 83 52 76 53 82 54
REMARK SMILES IDX 77 55 78 56 79 57 80 58 81 59 60 60 61 61 69 62 62 63 68 64
REMARK SMILES IDX 63 65 64 66 65 67 66 68 67 69 8 70 9 71 10 72 11 73 12 74
REMARK SMILES IDX 13 75 14 76 15 77 16 78 26 79 24 80 25 81 17 82 18 83 23 84
REMARK SMILES IDX 19 85 22 86 20 87 21 88 27 89 28 90 29 91 30 92 34 93 31 94
REMARK SMILES IDX 33 95 32 96
REMARK H PARENT 88 25 58 36
REMARK Flexibility Score: inf
ROOT
ATOM      1  C   UNL A   1      36.999  23.122  24.957  1.00  0.00     0.188 C 
ENDROOT
BRANCH   1   2
ATOM      2  O   UNL A   1      38.163  22.539  25.533  1.00  0.00    -0.376 OA
BRANCH   2   3
ATOM      3  C   UNL A   1      38.382  21.164  25.248  1.00  0.00     0.202 C 
BRANCH   3   4
ATOM      4  C   UNL A   1      39.178  20.459  26.351  1.00  0.00     0.261 C 
BRANCH   4   5
ATOM      5  O   UNL A   1      40.259  19.695  25.781  1.00  0.00    -0.460 OA
BRANCH   5   6
ATOM      6  C   UNL A   1      41.600  19.852  25.874  1.00  0.00     0.338 C 
ATOM      7  O   UNL A   1      42.306  18.898  25.543  1.00  0.00    -0.246 OA
BRANCH   6   8
ATOM      8  C   UNL A   1      42.299  21.081  26.375  1.00  0.00     0.060 A 
ATOM      9  C   UNL A   1      42.584  21.382  27.707  1.00  0.00     0.016 A 
ATOM     10  C   UNL A   1      42.768  21.981  25.395  1.00  0.00     0.016 A 
ATOM     11  C   UNL A   1      43.210  22.579  28.061  1.00  0.00     0.010 A 
ATOM     12  C   UNL A   1      43.456  23.152  25.740  1.00  0.00     0.010 A 
ATOM     13  C   UNL A   1      43.629  23.485  27.085  1.00  0.00    -0.014 A 
BRANCH  13  14
ATOM     14  C   UNL A   1      44.086  24.828  27.518  1.00  0.00     0.031 A 
ATOM     15  C   UNL A   1      45.538  25.178  27.362  1.00  0.00     0.074 A 
ATOM     16  C   UNL A   1      43.195  25.766  27.892  1.00  0.00     0.049 A 
ATOM     17  N   UNL A   1      46.130  26.330  27.535  1.00  0.00    -0.248 NA
ATOM     18  C   UNL A   1      46.440  24.094  26.936  1.00  0.00     0.031 C 
ATOM     19  C   UNL A   1      41.758  25.541  28.034  1.00  0.00     0.029 A 
ATOM     20  N   UNL A   1      43.353  27.097  28.179  1.00  0.00    -0.354 N 
ATOM     21  C   UNL A   1      47.467  26.112  27.231  1.00  0.00     0.074 A 
ATOM     22  C   UNL A   1      47.610  24.711  26.901  1.00  0.00     0.031 C 
ATOM     23  C   UNL A   1      41.159  26.703  28.344  1.00  0.00     0.029 A 
ATOM     24  C   UNL A   1      42.169  27.749  28.442  1.00  0.00     0.049 A 
ATOM     25  H   UNL A   1      44.229  27.545  28.196  1.00  0.00     0.167 HD
ATOM     26  C   UNL A   1      48.486  27.001  27.208  1.00  0.00     0.031 A 
ATOM     27  C   UNL A   1      41.925  29.044  28.722  1.00  0.00     0.031 A 
ATOM     28  C   UNL A   1      48.350  28.384  27.563  1.00  0.00     0.049 A 
ATOM     29  C   UNL A   1      43.086  30.001  28.745  1.00  0.00     0.074 A 
ATOM     30  C   UNL A   1      49.331  29.352  27.662  1.00  0.00     0.029 A 
ATOM     31  N   UNL A   1      47.144  28.994  27.874  1.00  0.00    -0.354 N 
ATOM     32  N   UNL A   1      44.350  29.767  28.477  1.00  0.00    -0.248 NA
ATOM     33  C   UNL A   1      42.791  31.396  29.102  1.00  0.00     0.031 C 
ATOM     34  C   UNL A   1      48.719  30.548  28.057  1.00  0.00     0.029 A 
ATOM     35  C   UNL A   1      47.354  30.330  28.166  1.00  0.00     0.049 A 
ATOM     36  H   UNL A   1      46.268  28.544  27.885  1.00  0.00     0.167 HD
ATOM     37  C   UNL A   1      45.001  30.985  28.633  1.00  0.00     0.074 A 
ATOM     38  C   UNL A   1      43.986  31.959  28.982  1.00  0.00     0.031 C 
ATOM     39  C   UNL A   1      46.321  31.271  28.510  1.00  0.00     0.031 A 
BRANCH  26  40
ATOM     40  C   UNL A   1      49.832  26.463  26.815  1.00  0.00    -0.014 A 
ATOM     41  C   UNL A   1      50.755  26.057  27.796  1.00  0.00     0.010 A 
ATOM     42  C   UNL A   1      50.201  26.418  25.460  1.00  0.00     0.010 A 
ATOM     43  C   UNL A   1      52.045  25.663  27.431  1.00  0.00     0.020 A 
ATOM     44  C   UNL A   1      51.484  26.008  25.090  1.00  0.00     0.020 A 
ATOM     45  C   UNL A   1      52.405  25.656  26.080  1.00  0.00     0.054 A 
BRANCH  45  46
ATOM     46  S   UNL A   1      54.095  25.174  25.630  1.00  0.00     0.124 S 
ATOM     47  O   UNL A   1      53.854  24.129  24.637  1.00  0.00    -0.237 OA
ATOM     48  O   UNL A   1      54.658  26.417  25.108  1.00  0.00    -0.237 OA
ATOM     49  O   UNL A   1      54.671  24.715  26.891  1.00  0.00    -0.744 OA
ENDBRANCH  45  46
ENDBRANCH  26  40
BRANCH  27  50
ATOM     50  C   UNL A   1      40.538  29.511  29.007  1.00  0.00    -0.014 A 
ATOM     51  C   UNL A   1      40.132  29.819  30.318  1.00  0.00     0.010 A 
ATOM     52  C   UNL A   1      39.605  29.636  27.961  1.00  0.00     0.010 A 
ATOM     53  C   UNL A   1      38.816  30.218  30.579  1.00  0.00     0.020 A 
ATOM     54  C   UNL A   1      38.296  30.059  28.214  1.00  0.00     0.020 A 
ATOM     55  C   UNL A   1      37.905  30.332  29.526  1.00  0.00     0.054 A 
BRANCH  55  56
ATOM     56  S   UNL A   1      36.209  30.876  29.878  1.00  0.00     0.124 S 
ATOM     57  O   UNL A   1      36.264  32.289  29.515  1.00  0.00    -0.237 OA
ATOM     58  O   UNL A   1      35.411  30.028  28.995  1.00  0.00    -0.237 OA
ATOM     59  O   UNL A   1      36.049  30.601  31.303  1.00  0.00    -0.744 OA
ENDBRANCH  55  56
ENDBRANCH  27  50
BRANCH  39  60
ATOM     60  C   UNL A   1      46.732  32.696  28.750  1.00  0.00    -0.014 A 
ATOM     61  C   UNL A   1      47.124  33.125  30.029  1.00  0.00     0.010 A 
ATOM     62  C   UNL A   1      46.774  33.599  27.673  1.00  0.00     0.010 A 
ATOM     63  C   UNL A   1      47.525  34.446  30.236  1.00  0.00     0.020 A 
ATOM     64  C   UNL A   1      47.195  34.915  27.872  1.00  0.00     0.020 A 
ATOM     65  C   UNL A   1      47.554  35.334  29.156  1.00  0.00     0.054 A 
BRANCH  65  66
ATOM     66  S   UNL A   1      48.119  37.035  29.433  1.00  0.00     0.124 S 
ATOM     67  O   UNL A   1      47.257  37.791  28.529  1.00  0.00    -0.237 OA
ATOM     68  O   UNL A   1      47.865  37.233  30.858  1.00  0.00    -0.237 OA
ATOM     69  O   UNL A   1      49.531  36.992  29.059  1.00  0.00    -0.744 OA
ENDBRANCH  65  66
ENDBRANCH  39  60
ENDBRANCH  13  14
ENDBRANCH   6   8
ENDBRANCH   5   6
ENDBRANCH   4   5
ENDBRANCH   3   4
ENDBRANCH   2   3
ENDBRANCH   1   2
BRANCH   1  70
ATOM     70  C   UNL A   1      36.670  22.692  23.523  1.00  0.00     0.188 C 
BRANCH  70  71
ATOM     71  O   UNL A   1      35.710  23.422  22.769  1.00  0.00    -0.376 OA
BRANCH  71  72
ATOM     72  C   UNL A   1      34.333  23.075  22.819  1.00  0.00     0.202 C 
BRANCH  72  73
ATOM     73  C   UNL A   1      33.336  24.126  22.330  1.00  0.00     0.261 C 
BRANCH  73  74
ATOM     74  O   UNL A   1      32.541  24.680  23.389  1.00  0.00    -0.459 OA
BRANCH  74  75
ATOM     75  C   UNL A   1      31.488  23.943  23.829  1.00  0.00     0.344 C 
ATOM     76  O   UNL A   1      30.627  23.453  23.094  1.00  0.00    -0.246 OA
BRANCH  75  77
ATOM     77  C   UNL A   1      31.517  23.753  25.251  1.00  0.00     0.133 A 
ATOM     78  C   UNL A   1      32.007  22.661  26.013  1.00  0.00     0.128 A 
ATOM     79  C   UNL A   1      30.976  24.603  26.193  1.00  0.00     0.177 A 
ATOM     80  N   UNL A   1      31.825  22.869  27.324  1.00  0.00    -0.079 NA
ATOM     81  O   UNL A   1      31.150  24.068  27.429  1.00  0.00    -0.357 OA
BRANCH  78  82
ATOM     82  C   UNL A   1      32.684  21.465  25.546  1.00  0.00     0.005 A 
ATOM     83  C   UNL A   1      34.014  21.236  25.920  1.00  0.00     0.012 A 
ATOM     84  C   UNL A   1      32.022  20.533  24.742  1.00  0.00     0.012 A 
ATOM     85  C   UNL A   1      34.687  20.096  25.476  1.00  0.00     0.021 A 
ATOM     86  C   UNL A   1      32.689  19.382  24.312  1.00  0.00     0.021 A 
ATOM     87  C   UNL A   1      34.019  19.170  24.679  1.00  0.00     0.041 A 
ATOM     88  Cl  UNL A   1      34.835  17.752  24.146  1.00  0.00    -0.084 Cl
ENDBRANCH  78  82
BRANCH  79  89
ATOM     89  C   UNL A   1      30.175  25.846  26.116  1.00  0.00     0.242 C 
BRANCH  89  90
ATOM     90  O   UNL A   1      30.866  26.909  26.770  1.00  0.00    -0.345 OA
BRANCH  90  91
ATOM     91  C   UNL A   1      32.142  27.228  26.225  1.00  0.00     0.250 C 
ATOM     92  C   UNL A   1      32.853  28.242  27.120  1.00  0.00     0.062 C 
ATOM     93  O   UNL A   1      32.053  27.752  24.897  1.00  0.00    -0.353 OA
ATOM     94  C   UNL A   1      32.151  29.597  27.092  1.00  0.00     0.008 C 
ATOM     95  C   UNL A   1      31.269  28.949  24.839  1.00  0.00     0.163 C 
ATOM     96  C   UNL A   1      31.919  30.054  25.656  1.00  0.00     0.029 C 
ENDBRANCH  90  91
ENDBRANCH  89  90
ENDBRANCH  79  89
ENDBRANCH  75  77
ENDBRANCH  74  75
ENDBRANCH  73  74
ENDBRANCH  72  73
ENDBRANCH  71  72
ENDBRANCH  70  71
ENDBRANCH   1  70
TORSDOF 24
ENDMDL
MODEL 3
REMARK VINA RESULT:     -10.2      0.873      7.941
REMARK SMILES O=C(OCCOCCOCCOC(=O)c1c(-c2ccc(Cl)cc2)noc1CO[C@@H]1CCCCO1)c1ccc(-c2c3nc(c(-c4ccc(S(=O)(=O)[O-])cc4)c4ccc([nH]4)c(-c4ccc(S(=O)(=O)[O-])cc4)c4nc(c(-c5ccc(S(=O)(=O)[O-])cc5)c5ccc2[nH]5)C=C4)C=C3)cc1
REMARK SMILES IDX 7 1 6 2 5 3 4 4 3 5 2 6 1 7 35 8 36 9 94 10 37 11 93 12
REMARK SMILES IDX 38 13 39 14 40 15 87 16 41 17 92 18 86 19 88 20 42 21 91 22
REMARK SMILES IDX 85 23 84 24 43 26 73 27 54 28 72 29 55 30 58 31 71 32 89 33
REMARK SMILES IDX 56 34 57 35 70 37 90 38 59 39 44 40 45 41 53 42 46 43 52 44
REMARK SMILES IDX 47 45 48 46 49 47 50 48 51 49 74 50 75 51 83 52 76 53 82 54
REMARK SMILES IDX 77 55 78 56 79 57 80 58 81 59 60 60 61 61 69 62 62 63 68 64
REMARK SMILES IDX 63 65 64 66 65 67 66 68 67 69 8 70 9 71 10 72 11 73 12 74
REMARK SMILES IDX 13 75 14 76 15 77 16 78 26 79 24 80 25 81 17 82 18 83 23 84
REMARK SMILES IDX 19 85 22 86 20 87 21 88 27 89 28 90 29 91 30 92 34 93 31 94
REMARK SMILES IDX 33 95 32 96
REMARK H PARENT 88 25 58 36
REMARK Flexibility Score: inf
ROOT
ATOM      1  C   UNL A   1      39.088  22.241  26.290  1.00  0.00     0.188 C 
ENDROOT
BRANCH   1   2
ATOM      2  O   UNL A   1      40.396  21.700  26.443  1.00  0.00    -0.376 OA
BRANCH   2   3
ATOM      3  C   UNL A   1      41.000  21.871  27.719  1.00  0.00     0.202 C 
BRANCH   3   4
ATOM      4  C   UNL A   1      42.138  22.895  27.692  1.00  0.00     0.261 C 
BRANCH   4   5
ATOM      5  O   UNL A   1      42.156  23.595  26.431  1.00  0.00    -0.460 OA
BRANCH   5   6
ATOM      6  C   UNL A   1      42.136  24.918  26.151  1.00  0.00     0.338 C 
ATOM      7  O   UNL A   1      42.320  25.252  24.980  1.00  0.00    -0.246 OA
BRANCH   6   8
ATOM      8  C   UNL A   1      41.939  26.016  27.155  1.00  0.00     0.060 A 
ATOM      9  C   UNL A   1      42.626  27.229  27.196  1.00  0.00     0.016 A 
ATOM     10  C   UNL A   1      40.914  25.822  28.105  1.00  0.00     0.016 A 
ATOM     11  C   UNL A   1      42.384  28.165  28.202  1.00  0.00     0.010 A 
ATOM     12  C   UNL A   1      40.620  26.787  29.077  1.00  0.00     0.010 A 
ATOM     13  C   UNL A   1      41.398  27.943  29.166  1.00  0.00    -0.014 A 
BRANCH  13  14
ATOM     14  C   UNL A   1      41.331  28.859  30.330  1.00  0.00     0.031 A 
ATOM     15  C   UNL A   1      40.218  29.866  30.390  1.00  0.00     0.074 A 
ATOM     16  C   UNL A   1      42.150  28.685  31.385  1.00  0.00     0.049 A 
ATOM     17  N   UNL A   1      39.880  30.661  31.370  1.00  0.00    -0.248 NA
ATOM     18  C   UNL A   1      39.361  29.980  29.197  1.00  0.00     0.031 C 
ATOM     19  C   UNL A   1      43.235  27.708  31.446  1.00  0.00     0.029 A 
ATOM     20  N   UNL A   1      42.177  29.288  32.616  1.00  0.00    -0.354 N 
ATOM     21  C   UNL A   1      38.769  31.360  30.917  1.00  0.00     0.074 A 
ATOM     22  C   UNL A   1      38.513  30.927  29.562  1.00  0.00     0.031 C 
ATOM     23  C   UNL A   1      43.798  27.749  32.665  1.00  0.00     0.029 A 
ATOM     24  C   UNL A   1      43.129  28.768  33.464  1.00  0.00     0.049 A 
ATOM     25  H   UNL A   1      41.574  30.023  32.870  1.00  0.00     0.167 HD
ATOM     26  C   UNL A   1      38.014  32.270  31.575  1.00  0.00     0.031 A 
ATOM     27  C   UNL A   1      43.422  29.072  34.744  1.00  0.00     0.031 A 
ATOM     28  C   UNL A   1      38.285  32.720  32.909  1.00  0.00     0.049 A 
ATOM     29  C   UNL A   1      42.602  30.128  35.434  1.00  0.00     0.074 A 
ATOM     30  C   UNL A   1      37.641  33.701  33.639  1.00  0.00     0.029 A 
ATOM     31  N   UNL A   1      39.290  32.207  33.717  1.00  0.00    -0.354 N 
ATOM     32  N   UNL A   1      41.568  30.796  34.976  1.00  0.00    -0.248 NA
ATOM     33  C   UNL A   1      42.981  30.469  36.812  1.00  0.00     0.031 C 
ATOM     34  C   UNL A   1      38.274  33.797  34.885  1.00  0.00     0.029 A 
ATOM     35  C   UNL A   1      39.286  32.850  34.941  1.00  0.00     0.049 A 
ATOM     36  H   UNL A   1      39.914  31.490  33.457  1.00  0.00     0.167 HD
ATOM     37  C   UNL A   1      41.173  31.635  36.010  1.00  0.00     0.074 A 
ATOM     38  C   UNL A   1      42.056  31.366  37.128  1.00  0.00     0.031 C 
ATOM     39  C   UNL A   1      40.178  32.557  36.031  1.00  0.00     0.031 A 
BRANCH  26  40
ATOM     40  C   UNL A   1      36.851  32.843  30.818  1.00  0.00    -0.014 A 
ATOM     41  C   UNL A   1      37.039  33.902  29.911  1.00  0.00     0.010 A 
ATOM     42  C   UNL A   1      35.552  32.364  31.059  1.00  0.00     0.010 A 
ATOM     43  C   UNL A   1      35.941  34.506  29.295  1.00  0.00     0.020 A 
ATOM     44  C   UNL A   1      34.453  32.954  30.430  1.00  0.00     0.020 A 
ATOM     45  C   UNL A   1      34.652  34.037  29.570  1.00  0.00     0.054 A 
BRANCH  45  46
ATOM     46  S   UNL A   1      33.238  34.857  28.786  1.00  0.00     0.124 S 
ATOM     47  O   UNL A   1      32.391  35.161  29.937  1.00  0.00    -0.237 OA
ATOM     48  O   UNL A   1      33.853  36.014  28.138  1.00  0.00    -0.237 OA
ATOM     49  O   UNL A   1      32.712  33.844  27.875  1.00  0.00    -0.744 OA
ENDBRANCH  45  46
ENDBRANCH  26  40
BRANCH  27  50
ATOM     50  C   UNL A   1      44.538  28.380  35.451  1.00  0.00    -0.014 A 
ATOM     51  C   UNL A   1      44.309  27.206  36.190  1.00  0.00     0.010 A 
ATOM     52  C   UNL A   1      45.843  28.905  35.398  1.00  0.00     0.010 A 
ATOM     53  C   UNL A   1      45.356  26.586  36.883  1.00  0.00     0.020 A 
ATOM     54  C   UNL A   1      46.896  28.275  36.068  1.00  0.00     0.020 A 
ATOM     55  C   UNL A   1      46.643  27.127  36.821  1.00  0.00     0.054 A 
BRANCH  55  56
ATOM     56  S   UNL A   1      47.995  26.297  37.703  1.00  0.00     0.124 S 
ATOM     57  O   UNL A   1      48.226  27.203  38.824  1.00  0.00    -0.237 OA
ATOM     58  O   UNL A   1      47.407  25.004  38.045  1.00  0.00    -0.237 OA
ATOM     59  O   UNL A   1      49.067  26.241  36.712  1.00  0.00    -0.744 OA
ENDBRANCH  55  56
ENDBRANCH  27  50
BRANCH  39  60
ATOM     60  C   UNL A   1      39.994  33.329  37.306  1.00  0.00    -0.014 A 
ATOM     61  C   UNL A   1      40.715  34.512  37.539  1.00  0.00     0.010 A 
ATOM     62  C   UNL A   1      39.054  32.891  38.255  1.00  0.00     0.010 A 
ATOM     63  C   UNL A   1      40.519  35.234  38.719  1.00  0.00     0.020 A 
ATOM     64  C   UNL A   1      38.841  33.621  39.426  1.00  0.00     0.020 A 
ATOM     65  C   UNL A   1      39.586  34.781  39.657  1.00  0.00     0.054 A 
BRANCH  65  66
ATOM     66  S   UNL A   1      39.313  35.753  41.163  1.00  0.00     0.124 S 
ATOM     67  O   UNL A   1      38.507  34.842  41.969  1.00  0.00    -0.237 OA
ATOM     68  O   UNL A   1      40.671  35.988  41.648  1.00  0.00    -0.237 OA
ATOM     69  O   UNL A   1      38.617  36.944  40.681  1.00  0.00    -0.744 OA
ENDBRANCH  65  66
ENDBRANCH  39  60
ENDBRANCH  13  14
ENDBRANCH   6   8
ENDBRANCH   5   6
ENDBRANCH   4   5
ENDBRANCH   3   4
ENDBRANCH   2   3
ENDBRANCH   1   2
BRANCH   1  70
ATOM     70  C   UNL A   1      38.144  21.471  25.361  1.00  0.00     0.188 C 
BRANCH  70  71
ATOM     71  O   UNL A   1      36.883  22.030  25.013  1.00  0.00    -0.376 OA
BRANCH  71  72
ATOM     72  C   UNL A   1      36.760  23.414  24.717  1.00  0.00     0.202 C 
BRANCH  72  73
ATOM     73  C   UNL A   1      35.440  23.875  24.101  1.00  0.00     0.261 C 
BRANCH  73  74
ATOM     74  O   UNL A   1      34.952  22.984  23.087  1.00  0.00    -0.459 OA
BRANCH  74  75
ATOM     75  C   UNL A   1      33.712  23.226  22.587  1.00  0.00     0.344 C 
ATOM     76  O   UNL A   1      33.483  23.523  21.412  1.00  0.00    -0.246 OA
BRANCH  75  77
ATOM     77  C   UNL A   1      32.687  23.045  23.574  1.00  0.00     0.133 A 
ATOM     78  C   UNL A   1      32.200  21.855  24.172  1.00  0.00     0.128 A 
ATOM     79  C   UNL A   1      31.884  24.037  24.099  1.00  0.00     0.177 A 
ATOM     80  N   UNL A   1      31.213  22.121  25.038  1.00  0.00    -0.079 NA
ATOM     81  O   UNL A   1      30.997  23.482  24.963  1.00  0.00    -0.357 OA
BRANCH  78  82
ATOM     82  C   UNL A   1      32.671  20.494  23.991  1.00  0.00     0.005 A 
ATOM     83  C   UNL A   1      33.731  20.022  24.774  1.00  0.00     0.012 A 
ATOM     84  C   UNL A   1      32.072  19.645  23.056  1.00  0.00     0.012 A 
ATOM     85  C   UNL A   1      34.206  18.719  24.612  1.00  0.00     0.021 A 
ATOM     86  C   UNL A   1      32.534  18.335  22.905  1.00  0.00     0.021 A 
ATOM     87  C   UNL A   1      33.601  17.878  23.682  1.00  0.00     0.041 A 
ATOM     88  Cl  UNL A   1      34.165  16.265  23.491  1.00  0.00    -0.084 Cl
ENDBRANCH  78  82
BRANCH  79  89
ATOM     89  C   UNL A   1      31.723  25.482  23.821  1.00  0.00     0.242 C 
BRANCH  89  90
ATOM     90  O   UNL A   1      32.297  26.246  24.881  1.00  0.00    -0.345 OA
BRANCH  90  91
ATOM     91  C   UNL A   1      32.316  27.654  24.672  1.00  0.00     0.250 C 
ATOM     92  C   UNL A   1      33.719  28.201  24.930  1.00  0.00     0.062 C 
ATOM     93  O   UNL A   1      31.380  28.342  25.507  1.00  0.00    -0.353 OA
ATOM     94  C   UNL A   1      34.094  28.097  26.406  1.00  0.00     0.008 C 
ATOM     95  C   UNL A   1      31.639  28.128  26.899  1.00  0.00     0.163 C 
ATOM     96  C   UNL A   1      32.998  28.691  27.283  1.00  0.00     0.029 C 
ENDBRANCH  90  91
ENDBRANCH  89  90
ENDBRANCH  79  89
ENDBRANCH  75  77
ENDBRANCH  74  75
ENDBRANCH  73  74
ENDBRANCH  72  73
ENDBRANCH  71  72
ENDBRANCH  70  71
ENDBRANCH   1  70
TORSDOF 24
ENDMDL
