MODEL 1
REMARK VINA RESULT:      -9.6      0.000      0.000
REMARK SMILES CC[C@@H](C)c1ccccc1NC(=O)[C@@H]1[C@@H](C(=O)OCCOCCOCCOC(=O)c2ccc(-c3c4nc(c(-c5ccc(S(=O)(=O)[O-])cc5)c5ccc([nH]5)c(-c5ccc(S(=O)(=O)[O-])cc5)c5nc(c(-c6ccc(S(=O)(=O)[O-])cc6)c6ccc3[nH]6)C=C5)C=C4)cc2)[C@@H]2C=C[C@H]1C2
REMARK SMILES IDX 22 1 21 2 20 3 19 4 18 5 16 6 17 7 15 8 14 9 93 10 90 11
REMARK SMILES IDX 92 12 94 13 91 14 12 15 11 16 13 18 10 19 5 20 6 21 7 22
REMARK SMILES IDX 9 23 8 24 3 25 4 26 2 27 1 28 23 29 24 30 25 31 26 32 27 33
REMARK SMILES IDX 28 34 29 35 30 36 31 37 89 38 32 39 88 40 33 41 34 42 35 43
REMARK SMILES IDX 82 44 36 45 87 46 81 47 83 48 37 49 86 50 80 51 79 52 38 54
REMARK SMILES IDX 68 55 49 56 67 57 50 58 53 59 66 60 84 61 51 62 52 63 65 65
REMARK SMILES IDX 85 66 54 67 39 68 40 69 48 70 41 71 47 72 42 73 43 74 44 75
REMARK SMILES IDX 45 76 46 77 69 78 70 79 78 80 71 81 77 82 72 83 73 84 74 85
REMARK SMILES IDX 75 86 76 87 55 88 56 89 64 90 57 91 63 92 58 93 59 94 60 95
REMARK SMILES IDX 61 96 62 97
REMARK H PARENT 11 17 83 53 53 64
REMARK Flexibility Score: inf
ROOT
ATOM      1  C   UNL A   1      40.655  22.147  26.266  1.00  0.00     0.188 C 
ENDROOT
BRANCH   1   2
ATOM      2  O   UNL A   1      39.399  22.032  25.618  1.00  0.00    -0.376 OA
BRANCH   2   3
ATOM      3  C   UNL A   1      38.302  22.709  26.206  1.00  0.00     0.202 C 
BRANCH   3   4
ATOM      4  C   UNL A   1      37.155  23.144  25.284  1.00  0.00     0.261 C 
BRANCH   4   5
ATOM      5  O   UNL A   1      35.824  22.777  25.695  1.00  0.00    -0.463 OA
BRANCH   5   6
ATOM      6  C   UNL A   1      35.184  21.807  24.993  1.00  0.00     0.310 C 
ATOM      7  O   UNL A   1      35.442  20.617  25.100  1.00  0.00    -0.252 OA
BRANCH   6   8
ATOM      8  C   UNL A   1      34.146  22.417  24.050  1.00  0.00     0.119 C 
ATOM      9  C   UNL A   1      33.580  23.846  24.480  1.00  0.00     0.100 C 
ATOM     10  C   UNL A   1      32.066  23.514  24.669  1.00  0.00     0.025 C 
ATOM     11  C   UNL A   1      32.880  21.520  24.094  1.00  0.00     0.027 C 
ATOM     12  C   UNL A   1      31.459  23.159  23.336  1.00  0.00    -0.027 C 
ATOM     13  C   UNL A   1      32.123  22.116  25.283  1.00  0.00     0.017 C 
ATOM     14  C   UNL A   1      31.951  21.964  22.986  1.00  0.00    -0.027 C 
BRANCH   9  15
ATOM     15  C   UNL A   1      33.849  24.956  23.439  1.00  0.00     0.228 C 
ATOM     16  N   UNL A   1      33.598  26.296  23.610  1.00  0.00    -0.326 N 
ATOM     17  H   UNL A   1      33.823  26.821  22.808  1.00  0.00     0.169 HD
ATOM     18  O   UNL A   1      34.375  24.661  22.357  1.00  0.00    -0.274 OA
BRANCH  16  19
ATOM     19  C   UNL A   1      33.095  27.110  24.654  1.00  0.00     0.044 A 
ATOM     20  C   UNL A   1      31.798  27.712  24.577  1.00  0.00    -0.022 A 
ATOM     21  C   UNL A   1      31.310  28.345  25.752  1.00  0.00     0.006 A 
ATOM     22  C   UNL A   1      32.062  28.448  26.917  1.00  0.00     0.000 A 
ATOM     23  C   UNL A   1      33.875  27.378  25.783  1.00  0.00     0.026 A 
ATOM     24  C   UNL A   1      33.357  27.984  26.922  1.00  0.00     0.002 A 
BRANCH  20  25
ATOM     25  C   UNL A   1      30.917  27.782  23.296  1.00  0.00     0.018 C 
ATOM     26  C   UNL A   1      31.021  29.151  22.603  1.00  0.00     0.013 C 
BRANCH  25  27
ATOM     27  C   UNL A   1      29.399  27.496  23.560  1.00  0.00     0.005 C 
ATOM     28  C   UNL A   1      29.027  26.090  24.017  1.00  0.00     0.004 C 
ENDBRANCH  25  27
ENDBRANCH  20  25
ENDBRANCH  16  19
ENDBRANCH   9  15
ENDBRANCH   6   8
ENDBRANCH   5   6
ENDBRANCH   4   5
ENDBRANCH   3   4
ENDBRANCH   2   3
ENDBRANCH   1   2
BRANCH   1  29
ATOM     29  C   UNL A   1      40.750  21.311  27.559  1.00  0.00     0.188 C 
BRANCH  29  30
ATOM     30  O   UNL A   1      40.894  19.898  27.440  1.00  0.00    -0.376 OA
BRANCH  30  31
ATOM     31  C   UNL A   1      42.207  19.360  27.331  1.00  0.00     0.202 C 
BRANCH  31  32
ATOM     32  C   UNL A   1      42.561  18.629  26.033  1.00  0.00     0.261 C 
BRANCH  32  33
ATOM     33  O   UNL A   1      42.810  19.517  24.924  1.00  0.00    -0.460 OA
BRANCH  33  34
ATOM     34  C   UNL A   1      44.064  20.008  24.846  1.00  0.00     0.338 C 
ATOM     35  O   UNL A   1      45.031  19.486  24.281  1.00  0.00    -0.246 OA
BRANCH  34  36
ATOM     36  C   UNL A   1      44.133  21.372  25.390  1.00  0.00     0.060 A 
ATOM     37  C   UNL A   1      43.836  22.425  24.528  1.00  0.00     0.016 A 
ATOM     38  C   UNL A   1      44.627  21.639  26.672  1.00  0.00     0.016 A 
ATOM     39  C   UNL A   1      44.064  23.734  24.938  1.00  0.00     0.010 A 
ATOM     40  C   UNL A   1      44.861  22.970  27.072  1.00  0.00     0.010 A 
ATOM     41  C   UNL A   1      44.601  24.030  26.192  1.00  0.00    -0.014 A 
BRANCH  41  42
ATOM     42  C   UNL A   1      45.022  25.439  26.431  1.00  0.00     0.031 A 
ATOM     43  C   UNL A   1      44.059  26.383  27.105  1.00  0.00     0.074 A 
ATOM     44  C   UNL A   1      46.301  25.828  26.258  1.00  0.00     0.049 A 
ATOM     45  N   UNL A   1      44.236  27.625  27.476  1.00  0.00    -0.248 NA
ATOM     46  C   UNL A   1      42.730  25.839  27.429  1.00  0.00     0.031 C 
ATOM     47  C   UNL A   1      47.391  24.965  25.808  1.00  0.00     0.029 A 
ATOM     48  N   UNL A   1      46.913  27.034  26.516  1.00  0.00    -0.354 N 
ATOM     49  C   UNL A   1      43.034  28.024  28.048  1.00  0.00     0.074 A 
ATOM     50  C   UNL A   1      42.146  26.881  28.003  1.00  0.00     0.031 C 
ATOM     51  C   UNL A   1      48.547  25.651  25.878  1.00  0.00     0.029 A 
ATOM     52  C   UNL A   1      48.275  27.020  26.322  1.00  0.00     0.049 A 
ATOM     53  H   UNL A   1      46.421  27.834  26.811  1.00  0.00     0.167 HD
ATOM     54  C   UNL A   1      42.682  29.239  28.535  1.00  0.00     0.031 A 
ATOM     55  C   UNL A   1      49.197  27.994  26.482  1.00  0.00     0.031 A 
ATOM     56  C   UNL A   1      43.539  30.394  28.544  1.00  0.00     0.049 A 
ATOM     57  C   UNL A   1      48.750  29.378  26.891  1.00  0.00     0.074 A 
ATOM     58  C   UNL A   1      43.227  31.693  28.904  1.00  0.00     0.029 A 
ATOM     59  N   UNL A   1      44.872  30.392  28.169  1.00  0.00    -0.354 N 
ATOM     60  N   UNL A   1      47.577  29.774  27.326  1.00  0.00    -0.248 NA
ATOM     61  C   UNL A   1      49.749  30.454  26.794  1.00  0.00     0.031 C 
ATOM     62  C   UNL A   1      44.358  32.491  28.690  1.00  0.00     0.029 A 
ATOM     63  C   UNL A   1      45.390  31.673  28.260  1.00  0.00     0.049 A 
ATOM     64  H   UNL A   1      45.377  29.597  27.881  1.00  0.00     0.167 HD
ATOM     65  C   UNL A   1      47.696  31.146  27.542  1.00  0.00     0.074 A 
ATOM     66  C   UNL A   1      49.066  31.502  27.235  1.00  0.00     0.031 C 
ATOM     67  C   UNL A   1      46.750  32.030  27.942  1.00  0.00     0.031 A 
BRANCH  54  68
ATOM     68  C   UNL A   1      41.256  29.402  28.980  1.00  0.00    -0.014 A 
ATOM     69  C   UNL A   1      40.195  29.464  28.062  1.00  0.00     0.010 A 
ATOM     70  C   UNL A   1      40.985  29.511  30.357  1.00  0.00     0.010 A 
ATOM     71  C   UNL A   1      38.889  29.679  28.514  1.00  0.00     0.020 A 
ATOM     72  C   UNL A   1      39.681  29.704  30.813  1.00  0.00     0.020 A 
ATOM     73  C   UNL A   1      38.643  29.810  29.886  1.00  0.00     0.054 A 
BRANCH  73  74
ATOM     74  S   UNL A   1      36.945  30.113  30.448  1.00  0.00     0.124 S 
ATOM     75  O   UNL A   1      36.173  29.791  29.250  1.00  0.00    -0.237 OA
ATOM     76  O   UNL A   1      36.803  29.174  31.558  1.00  0.00    -0.237 OA
ATOM     77  O   UNL A   1      36.952  31.524  30.825  1.00  0.00    -0.744 OA
ENDBRANCH  73  74
ENDBRANCH  54  68
BRANCH  55  78
ATOM     78  C   UNL A   1      50.639  27.735  26.200  1.00  0.00    -0.014 A 
ATOM     79  C   UNL A   1      51.535  27.437  27.243  1.00  0.00     0.010 A 
ATOM     80  C   UNL A   1      51.135  27.831  24.887  1.00  0.00     0.010 A 
ATOM     81  C   UNL A   1      52.897  27.254  26.979  1.00  0.00     0.020 A 
ATOM     82  C   UNL A   1      52.488  27.617  24.615  1.00  0.00     0.020 A 
ATOM     83  C   UNL A   1      53.365  27.344  25.666  1.00  0.00     0.054 A 
BRANCH  83  84
ATOM     84  S   UNL A   1      55.126  27.062  25.332  1.00  0.00     0.124 S 
ATOM     85  O   UNL A   1      55.099  26.592  23.950  1.00  0.00    -0.237 OA
ATOM     86  O   UNL A   1      55.704  28.387  25.540  1.00  0.00    -0.237 OA
ATOM     87  O   UNL A   1      55.504  26.062  26.327  1.00  0.00    -0.744 OA
ENDBRANCH  83  84
ENDBRANCH  55  78
BRANCH  67  88
ATOM     88  C   UNL A   1      47.146  33.480  28.067  1.00  0.00    -0.014 A 
ATOM     89  C   UNL A   1      47.702  33.979  29.260  1.00  0.00     0.010 A 
ATOM     90  C   UNL A   1      47.033  34.338  26.958  1.00  0.00     0.010 A 
ATOM     91  C   UNL A   1      48.115  35.312  29.348  1.00  0.00     0.020 A 
ATOM     92  C   UNL A   1      47.467  35.666  27.033  1.00  0.00     0.020 A 
ATOM     93  C   UNL A   1      47.996  36.147  28.233  1.00  0.00     0.054 A 
BRANCH  93  94
ATOM     94  S   UNL A   1      48.590  37.858  28.355  1.00  0.00     0.124 S 
ATOM     95  O   UNL A   1      49.736  37.719  29.248  1.00  0.00    -0.237 OA
ATOM     96  O   UNL A   1      48.910  38.188  26.968  1.00  0.00    -0.237 OA
ATOM     97  O   UNL A   1      47.449  38.582  28.912  1.00  0.00    -0.744 OA
ENDBRANCH  93  94
ENDBRANCH  67  88
ENDBRANCH  41  42
ENDBRANCH  34  36
ENDBRANCH  33  34
ENDBRANCH  32  33
ENDBRANCH  31  32
ENDBRANCH  30  31
ENDBRANCH  29  30
ENDBRANCH   1  29
TORSDOF 24
ENDMDL
MODEL 2
REMARK VINA RESULT:      -9.4      5.953      8.568
REMARK SMILES CC[C@@H](C)c1ccccc1NC(=O)[C@@H]1[C@@H](C(=O)OCCOCCOCCOC(=O)c2ccc(-c3c4nc(c(-c5ccc(S(=O)(=O)[O-])cc5)c5ccc([nH]5)c(-c5ccc(S(=O)(=O)[O-])cc5)c5nc(c(-c6ccc(S(=O)(=O)[O-])cc6)c6ccc3[nH]6)C=C5)C=C4)cc2)[C@@H]2C=C[C@H]1C2
REMARK SMILES IDX 22 1 21 2 20 3 19 4 18 5 16 6 17 7 15 8 14 9 93 10 90 11
REMARK SMILES IDX 92 12 94 13 91 14 12 15 11 16 13 18 10 19 5 20 6 21 7 22
REMARK SMILES IDX 9 23 8 24 3 25 4 26 2 27 1 28 23 29 24 30 25 31 26 32 27 33
REMARK SMILES IDX 28 34 29 35 30 36 31 37 89 38 32 39 88 40 33 41 34 42 35 43
REMARK SMILES IDX 82 44 36 45 87 46 81 47 83 48 37 49 86 50 80 51 79 52 38 54
REMARK SMILES IDX 68 55 49 56 67 57 50 58 53 59 66 60 84 61 51 62 52 63 65 65
REMARK SMILES IDX 85 66 54 67 39 68 40 69 48 70 41 71 47 72 42 73 43 74 44 75
REMARK SMILES IDX 45 76 46 77 69 78 70 79 78 80 71 81 77 82 72 83 73 84 74 85
REMARK SMILES IDX 75 86 76 87 55 88 56 89 64 90 57 91 63 92 58 93 59 94 60 95
REMARK SMILES IDX 61 96 62 97
REMARK H PARENT 11 17 83 53 53 64
REMARK Flexibility Score: inf
ROOT
ATOM      1  C   UNL A   1      39.260  21.789  26.109  1.00  0.00     0.188 C 
ENDROOT
BRANCH   1   2
ATOM      2  O   UNL A   1      38.410  20.911  25.390  1.00  0.00    -0.376 OA
BRANCH   2   3
ATOM      3  C   UNL A   1      37.407  21.498  24.578  1.00  0.00     0.202 C 
BRANCH   3   4
ATOM      4  C   UNL A   1      37.136  22.998  24.756  1.00  0.00     0.261 C 
BRANCH   4   5
ATOM      5  O   UNL A   1      35.904  23.499  24.202  1.00  0.00    -0.463 OA
BRANCH   5   6
ATOM      6  C   UNL A   1      35.020  24.092  25.045  1.00  0.00     0.310 C 
ATOM      7  O   UNL A   1      35.328  24.978  25.829  1.00  0.00    -0.252 OA
BRANCH   6   8
ATOM      8  C   UNL A   1      33.629  23.475  24.894  1.00  0.00     0.119 C 
ATOM      9  C   UNL A   1      32.841  23.212  26.256  1.00  0.00     0.100 C 
ATOM     10  C   UNL A   1      32.680  21.660  26.204  1.00  0.00     0.025 C 
ATOM     11  C   UNL A   1      33.806  22.044  24.319  1.00  0.00     0.027 C 
ATOM     12  C   UNL A   1      31.768  21.287  25.064  1.00  0.00    -0.027 C 
ATOM     13  C   UNL A   1      34.011  21.224  25.594  1.00  0.00     0.017 C 
ATOM     14  C   UNL A   1      32.440  21.523  23.929  1.00  0.00    -0.027 C 
BRANCH   9  15
ATOM     15  C   UNL A   1      31.500  23.974  26.352  1.00  0.00     0.228 C 
ATOM     16  N   UNL A   1      31.082  24.975  25.510  1.00  0.00    -0.326 N 
ATOM     17  H   UNL A   1      30.205  25.337  25.771  1.00  0.00     0.169 HD
ATOM     18  O   UNL A   1      30.683  23.658  27.229  1.00  0.00    -0.274 OA
BRANCH  16  19
ATOM     19  C   UNL A   1      31.600  25.615  24.358  1.00  0.00     0.044 A 
ATOM     20  C   UNL A   1      32.190  26.918  24.426  1.00  0.00    -0.022 A 
ATOM     21  C   UNL A   1      32.852  27.388  23.259  1.00  0.00     0.006 A 
ATOM     22  C   UNL A   1      32.885  26.665  22.072  1.00  0.00     0.000 A 
ATOM     23  C   UNL A   1      31.516  25.000  23.105  1.00  0.00     0.026 A 
ATOM     24  C   UNL A   1      32.193  25.479  21.990  1.00  0.00     0.002 A 
BRANCH  20  25
ATOM     25  C   UNL A   1      32.106  27.878  25.648  1.00  0.00     0.018 C 
ATOM     26  C   UNL A   1      32.018  29.352  25.214  1.00  0.00     0.013 C 
BRANCH  25  27
ATOM     27  C   UNL A   1      33.312  27.744  26.638  1.00  0.00     0.005 C 
ATOM     28  C   UNL A   1      34.428  28.775  26.515  1.00  0.00     0.004 C 
ENDBRANCH  25  27
ENDBRANCH  20  25
ENDBRANCH  16  19
ENDBRANCH   9  15
ENDBRANCH   6   8
ENDBRANCH   5   6
ENDBRANCH   4   5
ENDBRANCH   3   4
ENDBRANCH   2   3
ENDBRANCH   1   2
BRANCH   1  29
ATOM     29  C   UNL A   1      40.568  21.119  26.578  1.00  0.00     0.188 C 
BRANCH  29  30
ATOM     30  O   UNL A   1      41.787  21.506  25.948  1.00  0.00    -0.376 OA
BRANCH  30  31
ATOM     31  C   UNL A   1      42.245  22.841  26.128  1.00  0.00     0.202 C 
BRANCH  31  32
ATOM     32  C   UNL A   1      43.474  23.048  27.017  1.00  0.00     0.261 C 
BRANCH  32  33
ATOM     33  O   UNL A   1      43.953  24.409  27.029  1.00  0.00    -0.460 OA
BRANCH  33  34
ATOM     34  C   UNL A   1      43.168  25.303  26.395  1.00  0.00     0.338 C 
ATOM     35  O   UNL A   1      42.861  25.304  25.198  1.00  0.00    -0.246 OA
BRANCH  34  36
ATOM     36  C   UNL A   1      42.551  26.236  27.350  1.00  0.00     0.060 A 
ATOM     37  C   UNL A   1      43.139  27.490  27.496  1.00  0.00     0.016 A 
ATOM     38  C   UNL A   1      41.512  25.850  28.204  1.00  0.00     0.016 A 
ATOM     39  C   UNL A   1      42.709  28.336  28.512  1.00  0.00     0.010 A 
ATOM     40  C   UNL A   1      41.092  26.714  29.236  1.00  0.00     0.010 A 
ATOM     41  C   UNL A   1      41.708  27.961  29.410  1.00  0.00    -0.014 A 
BRANCH  41  42
ATOM     42  C   UNL A   1      41.497  28.841  30.593  1.00  0.00     0.031 A 
ATOM     43  C   UNL A   1      40.304  29.762  30.611  1.00  0.00     0.074 A 
ATOM     44  C   UNL A   1      42.213  28.681  31.724  1.00  0.00     0.049 A 
ATOM     45  N   UNL A   1      39.884  30.560  31.561  1.00  0.00    -0.248 NA
ATOM     46  C   UNL A   1      39.456  29.758  29.408  1.00  0.00     0.031 C 
ATOM     47  C   UNL A   1      43.263  27.685  31.923  1.00  0.00     0.029 A 
ATOM     48  N   UNL A   1      42.109  29.307  32.946  1.00  0.00    -0.354 N 
ATOM     49  C   UNL A   1      38.743  31.176  31.060  1.00  0.00     0.074 A 
ATOM     50  C   UNL A   1      38.520  30.637  29.735  1.00  0.00     0.031 C 
ATOM     51  C   UNL A   1      43.665  27.727  33.206  1.00  0.00     0.029 A 
ATOM     52  C   UNL A   1      42.944  28.791  33.908  1.00  0.00     0.049 A 
ATOM     53  H   UNL A   1      41.493  30.057  33.115  1.00  0.00     0.167 HD
ATOM     54  C   UNL A   1      37.970  32.131  31.631  1.00  0.00     0.031 A 
ATOM     55  C   UNL A   1      43.111  29.133  35.204  1.00  0.00     0.031 A 
ATOM     56  C   UNL A   1      38.207  32.707  32.926  1.00  0.00     0.049 A 
ATOM     57  C   UNL A   1      42.332  30.296  35.771  1.00  0.00     0.074 A 
ATOM     58  C   UNL A   1      37.548  33.763  33.532  1.00  0.00     0.029 A 
ATOM     59  N   UNL A   1      39.182  32.282  33.814  1.00  0.00    -0.354 N 
ATOM     60  N   UNL A   1      41.324  30.951  35.245  1.00  0.00    -0.248 NA
ATOM     61  C   UNL A   1      42.742  30.788  37.096  1.00  0.00     0.031 C 
ATOM     62  C   UNL A   1      38.166  34.016  34.763  1.00  0.00     0.029 A 
ATOM     63  C   UNL A   1      39.164  33.075  34.950  1.00  0.00     0.049 A 
ATOM     64  H   UNL A   1      39.797  31.529  33.660  1.00  0.00     0.167 HD
ATOM     65  C   UNL A   1      40.990  31.939  36.170  1.00  0.00     0.074 A 
ATOM     66  C   UNL A   1      41.871  31.766  37.306  1.00  0.00     0.031 C 
ATOM     67  C   UNL A   1      40.049  32.911  36.076  1.00  0.00     0.031 A 
BRANCH  54  68
ATOM     68  C   UNL A   1      36.864  32.699  30.786  1.00  0.00    -0.014 A 
ATOM     69  C   UNL A   1      37.112  33.648  29.780  1.00  0.00     0.010 A 
ATOM     70  C   UNL A   1      35.543  32.277  31.027  1.00  0.00     0.010 A 
ATOM     71  C   UNL A   1      36.048  34.199  29.058  1.00  0.00     0.020 A 
ATOM     72  C   UNL A   1      34.481  32.808  30.294  1.00  0.00     0.020 A 
ATOM     73  C   UNL A   1      34.739  33.784  29.329  1.00  0.00     0.054 A 
BRANCH  73  74
ATOM     74  S   UNL A   1      33.372  34.529  28.399  1.00  0.00     0.124 S 
ATOM     75  O   UNL A   1      32.523  35.039  29.473  1.00  0.00    -0.237 OA
ATOM     76  O   UNL A   1      34.047  35.545  27.595  1.00  0.00    -0.237 OA
ATOM     77  O   UNL A   1      32.815  33.409  27.644  1.00  0.00    -0.744 OA
ENDBRANCH  73  74
ENDBRANCH  54  68
BRANCH  55  78
ATOM     78  C   UNL A   1      44.099  28.415  36.062  1.00  0.00    -0.014 A 
ATOM     79  C   UNL A   1      43.711  27.304  36.834  1.00  0.00     0.010 A 
ATOM     80  C   UNL A   1      45.428  28.870  36.150  1.00  0.00     0.010 A 
ATOM     81  C   UNL A   1      44.627  26.673  37.683  1.00  0.00     0.020 A 
ATOM     82  C   UNL A   1      46.354  28.223  36.971  1.00  0.00     0.020 A 
ATOM     83  C   UNL A   1      45.944  27.136  37.744  1.00  0.00     0.054 A 
BRANCH  83  84
ATOM     84  S   UNL A   1      47.134  26.282  38.816  1.00  0.00     0.124 S 
ATOM     85  O   UNL A   1      46.752  26.769  40.138  1.00  0.00    -0.237 OA
ATOM     86  O   UNL A   1      46.846  24.874  38.551  1.00  0.00    -0.237 OA
ATOM     87  O   UNL A   1      48.428  26.749  38.324  1.00  0.00    -0.744 OA
ENDBRANCH  83  84
ENDBRANCH  55  78
BRANCH  67  88
ATOM     88  C   UNL A   1      39.917  33.879  37.224  1.00  0.00    -0.014 A 
ATOM     89  C   UNL A   1      40.549  35.135  37.189  1.00  0.00     0.010 A 
ATOM     90  C   UNL A   1      39.091  33.563  38.318  1.00  0.00     0.010 A 
ATOM     91  C   UNL A   1      40.376  36.047  38.235  1.00  0.00     0.020 A 
ATOM     92  C   UNL A   1      38.895  34.481  39.356  1.00  0.00     0.020 A 
ATOM     93  C   UNL A   1      39.550  35.714  39.312  1.00  0.00     0.054 A 
BRANCH  93  94
ATOM     94  S   UNL A   1      39.297  36.936  40.631  1.00  0.00     0.124 S 
ATOM     95  O   UNL A   1      40.667  37.320  40.956  1.00  0.00    -0.237 OA
ATOM     96  O   UNL A   1      38.496  37.963  39.969  1.00  0.00    -0.237 OA
ATOM     97  O   UNL A   1      38.597  36.184  41.670  1.00  0.00    -0.744 OA
ENDBRANCH  93  94
ENDBRANCH  67  88
ENDBRANCH  41  42
ENDBRANCH  34  36
ENDBRANCH  33  34
ENDBRANCH  32  33
ENDBRANCH  31  32
ENDBRANCH  30  31
ENDBRANCH  29  30
ENDBRANCH   1  29
TORSDOF 24
ENDMDL
MODEL 3
REMARK VINA RESULT:      -9.3      6.495     12.227
REMARK SMILES CC[C@@H](C)c1ccccc1NC(=O)[C@@H]1[C@@H](C(=O)OCCOCCOCCOC(=O)c2ccc(-c3c4nc(c(-c5ccc(S(=O)(=O)[O-])cc5)c5ccc([nH]5)c(-c5ccc(S(=O)(=O)[O-])cc5)c5nc(c(-c6ccc(S(=O)(=O)[O-])cc6)c6ccc3[nH]6)C=C5)C=C4)cc2)[C@@H]2C=C[C@H]1C2
REMARK SMILES IDX 22 1 21 2 20 3 19 4 18 5 16 6 17 7 15 8 14 9 93 10 90 11
REMARK SMILES IDX 92 12 94 13 91 14 12 15 11 16 13 18 10 19 5 20 6 21 7 22
REMARK SMILES IDX 9 23 8 24 3 25 4 26 2 27 1 28 23 29 24 30 25 31 26 32 27 33
REMARK SMILES IDX 28 34 29 35 30 36 31 37 89 38 32 39 88 40 33 41 34 42 35 43
REMARK SMILES IDX 82 44 36 45 87 46 81 47 83 48 37 49 86 50 80 51 79 52 38 54
REMARK SMILES IDX 68 55 49 56 67 57 50 58 53 59 66 60 84 61 51 62 52 63 65 65
REMARK SMILES IDX 85 66 54 67 39 68 40 69 48 70 41 71 47 72 42 73 43 74 44 75
REMARK SMILES IDX 45 76 46 77 69 78 70 79 78 80 71 81 77 82 72 83 73 84 74 85
REMARK SMILES IDX 75 86 76 87 55 88 56 89 64 90 57 91 63 92 58 93 59 94 60 95
REMARK SMILES IDX 61 96 62 97
REMARK H PARENT 11 17 83 53 53 64
REMARK Flexibility Score: inf
ROOT
ATOM      1  C   UNL A   1      36.104  31.390  28.204  1.00  0.00     0.188 C 
ENDROOT
BRANCH   1   2
ATOM      2  O   UNL A   1      35.737  30.417  27.240  1.00  0.00    -0.376 OA
BRANCH   2   3
ATOM      3  C   UNL A   1      34.870  29.379  27.663  1.00  0.00     0.202 C 
BRANCH   3   4
ATOM      4  C   UNL A   1      33.565  29.178  26.881  1.00  0.00     0.261 C 
BRANCH   4   5
ATOM      5  O   UNL A   1      33.355  27.876  26.303  1.00  0.00    -0.463 OA
BRANCH   5   6
ATOM      6  C   UNL A   1      33.455  27.752  24.955  1.00  0.00     0.310 C 
ATOM      7  O   UNL A   1      34.376  28.222  24.302  1.00  0.00    -0.252 OA
BRANCH   6   8
ATOM      8  C   UNL A   1      32.256  26.988  24.390  1.00  0.00     0.119 C 
ATOM      9  C   UNL A   1      32.053  27.097  22.811  1.00  0.00     0.100 C 
ATOM     10  C   UNL A   1      30.653  27.786  22.746  1.00  0.00     0.025 C 
ATOM     11  C   UNL A   1      30.968  27.650  24.948  1.00  0.00     0.027 C 
ATOM     12  C   UNL A   1      29.605  26.846  23.282  1.00  0.00    -0.027 C 
ATOM     13  C   UNL A   1      30.723  28.758  23.921  1.00  0.00     0.017 C 
ATOM     14  C   UNL A   1      29.795  26.758  24.605  1.00  0.00    -0.027 C 
BRANCH   9  15
ATOM     15  C   UNL A   1      32.112  25.735  22.085  1.00  0.00     0.228 C 
ATOM     16  N   UNL A   1      32.166  24.503  22.689  1.00  0.00    -0.326 N 
ATOM     17  H   UNL A   1      32.222  23.770  22.034  1.00  0.00     0.169 HD
ATOM     18  O   UNL A   1      32.067  25.704  20.847  1.00  0.00    -0.274 OA
BRANCH  16  19
ATOM     19  C   UNL A   1      32.161  24.025  24.022  1.00  0.00     0.044 A 
ATOM     20  C   UNL A   1      33.352  24.007  24.816  1.00  0.00    -0.022 A 
ATOM     21  C   UNL A   1      33.203  23.694  26.195  1.00  0.00     0.006 A 
ATOM     22  C   UNL A   1      31.979  23.352  26.760  1.00  0.00     0.000 A 
ATOM     23  C   UNL A   1      30.988  23.519  24.591  1.00  0.00     0.026 A 
ATOM     24  C   UNL A   1      30.875  23.241  25.948  1.00  0.00     0.002 A 
BRANCH  20  25
ATOM     25  C   UNL A   1      34.793  24.239  24.277  1.00  0.00     0.018 C 
ATOM     26  C   UNL A   1      35.252  23.094  23.358  1.00  0.00     0.013 C 
BRANCH  25  27
ATOM     27  C   UNL A   1      35.868  24.406  25.405  1.00  0.00     0.005 C 
ATOM     28  C   UNL A   1      37.034  23.424  25.402  1.00  0.00     0.004 C 
ENDBRANCH  25  27
ENDBRANCH  20  25
ENDBRANCH  16  19
ENDBRANCH   9  15
ENDBRANCH   6   8
ENDBRANCH   5   6
ENDBRANCH   4   5
ENDBRANCH   3   4
ENDBRANCH   2   3
ENDBRANCH   1   2
BRANCH   1  29
ATOM     29  C   UNL A   1      35.387  32.742  28.006  1.00  0.00     0.188 C 
BRANCH  29  30
ATOM     30  O   UNL A   1      34.074  32.892  28.538  1.00  0.00    -0.376 OA
BRANCH  30  31
ATOM     31  C   UNL A   1      33.302  34.014  28.123  1.00  0.00     0.202 C 
BRANCH  31  32
ATOM     32  C   UNL A   1      33.212  35.200  29.088  1.00  0.00     0.261 C 
BRANCH  32  33
ATOM     33  O   UNL A   1      32.558  34.879  30.333  1.00  0.00    -0.460 OA
BRANCH  33  34
ATOM     34  C   UNL A   1      33.214  35.262  31.447  1.00  0.00     0.338 C 
ATOM     35  O   UNL A   1      32.817  36.060  32.305  1.00  0.00    -0.246 OA
BRANCH  34  36
ATOM     36  C   UNL A   1      34.444  34.478  31.634  1.00  0.00     0.060 A 
ATOM     37  C   UNL A   1      34.362  33.330  32.419  1.00  0.00     0.016 A 
ATOM     38  C   UNL A   1      35.691  34.928  31.186  1.00  0.00     0.016 A 
ATOM     39  C   UNL A   1      35.525  32.658  32.778  1.00  0.00     0.010 A 
ATOM     40  C   UNL A   1      36.863  34.243  31.564  1.00  0.00     0.010 A 
ATOM     41  C   UNL A   1      36.787  33.110  32.386  1.00  0.00    -0.014 A 
BRANCH  41  42
ATOM     42  C   UNL A   1      37.966  32.455  33.020  1.00  0.00     0.031 A 
ATOM     43  C   UNL A   1      38.809  31.518  32.195  1.00  0.00     0.074 A 
ATOM     44  C   UNL A   1      38.416  32.841  34.231  1.00  0.00     0.049 A 
ATOM     45  N   UNL A   1      39.915  30.895  32.515  1.00  0.00    -0.248 NA
ATOM     46  C   UNL A   1      38.359  31.276  30.815  1.00  0.00     0.031 C 
ATOM     47  C   UNL A   1      37.819  33.887  35.058  1.00  0.00     0.029 A 
ATOM     48  N   UNL A   1      39.528  32.446  34.940  1.00  0.00    -0.354 N 
ATOM     49  C   UNL A   1      40.277  30.164  31.390  1.00  0.00     0.074 A 
ATOM     50  C   UNL A   1      39.290  30.444  30.370  1.00  0.00     0.031 C 
ATOM     51  C   UNL A   1      38.603  34.093  36.132  1.00  0.00     0.029 A 
ATOM     52  C   UNL A   1      39.727  33.155  36.102  1.00  0.00     0.049 A 
ATOM     53  H   UNL A   1      40.125  31.722  34.644  1.00  0.00     0.167 HD
ATOM     54  C   UNL A   1      41.314  29.307  31.227  1.00  0.00     0.031 A 
ATOM     55  C   UNL A   1      40.700  33.062  37.034  1.00  0.00     0.031 A 
ATOM     56  C   UNL A   1      42.275  28.985  32.247  1.00  0.00     0.049 A 
ATOM     57  C   UNL A   1      41.764  31.999  36.891  1.00  0.00     0.074 A 
ATOM     58  C   UNL A   1      43.284  28.038  32.210  1.00  0.00     0.029 A 
ATOM     59  N   UNL A   1      42.344  29.594  33.489  1.00  0.00    -0.354 N 
ATOM     60  N   UNL A   1      42.031  31.229  35.864  1.00  0.00    -0.248 NA
ATOM     61  C   UNL A   1      42.634  31.771  38.056  1.00  0.00     0.031 C 
ATOM     62  C   UNL A   1      43.927  28.034  33.455  1.00  0.00     0.029 A 
ATOM     63  C   UNL A   1      43.358  29.023  34.240  1.00  0.00     0.049 A 
ATOM     64  H   UNL A   1      41.758  30.325  33.793  1.00  0.00     0.167 HD
ATOM     65  C   UNL A   1      43.092  30.418  36.264  1.00  0.00     0.074 A 
ATOM     66  C   UNL A   1      43.446  30.822  37.608  1.00  0.00     0.031 C 
ATOM     67  C   UNL A   1      43.703  29.417  35.583  1.00  0.00     0.031 A 
BRANCH  54  68
ATOM     68  C   UNL A   1      41.376  28.560  29.924  1.00  0.00    -0.014 A 
ATOM     69  C   UNL A   1      40.686  27.352  29.728  1.00  0.00     0.010 A 
ATOM     70  C   UNL A   1      42.163  29.084  28.881  1.00  0.00     0.010 A 
ATOM     71  C   UNL A   1      40.820  26.657  28.521  1.00  0.00     0.020 A 
ATOM     72  C   UNL A   1      42.281  28.404  27.668  1.00  0.00     0.020 A 
ATOM     73  C   UNL A   1      41.626  27.182  27.505  1.00  0.00     0.054 A 
BRANCH  73  74
ATOM     74  S   UNL A   1      41.805  26.251  25.958  1.00  0.00     0.124 S 
ATOM     75  O   UNL A   1      42.080  27.318  24.999  1.00  0.00    -0.237 OA
ATOM     76  O   UNL A   1      42.928  25.362  26.247  1.00  0.00    -0.237 OA
ATOM     77  O   UNL A   1      40.513  25.590  25.801  1.00  0.00    -0.744 OA
ENDBRANCH  73  74
ENDBRANCH  54  68
BRANCH  55  78
ATOM     78  C   UNL A   1      40.699  33.954  38.231  1.00  0.00    -0.014 A 
ATOM     79  C   UNL A   1      39.956  33.621  39.378  1.00  0.00     0.010 A 
ATOM     80  C   UNL A   1      41.408  35.169  38.211  1.00  0.00     0.010 A 
ATOM     81  C   UNL A   1      39.911  34.491  40.473  1.00  0.00     0.020 A 
ATOM     82  C   UNL A   1      41.392  36.025  39.315  1.00  0.00     0.020 A 
ATOM     83  C   UNL A   1      40.632  35.687  40.435  1.00  0.00     0.054 A 
BRANCH  83  84
ATOM     84  S   UNL A   1      40.601  36.786  41.878  1.00  0.00     0.124 S 
ATOM     85  O   UNL A   1      41.035  38.055  41.301  1.00  0.00    -0.237 OA
ATOM     86  O   UNL A   1      39.201  36.725  42.293  1.00  0.00    -0.237 OA
ATOM     87  O   UNL A   1      41.544  36.160  42.801  1.00  0.00    -0.744 OA
ENDBRANCH  83  84
ENDBRANCH  55  78
BRANCH  67  88
ATOM     88  C   UNL A   1      44.819  28.672  36.272  1.00  0.00    -0.014 A 
ATOM     89  C   UNL A   1      46.148  29.124  36.194  1.00  0.00     0.010 A 
ATOM     90  C   UNL A   1      44.526  27.550  37.069  1.00  0.00     0.010 A 
ATOM     91  C   UNL A   1      47.167  28.456  36.880  1.00  0.00     0.020 A 
ATOM     92  C   UNL A   1      45.539  26.893  37.777  1.00  0.00     0.020 A 
ATOM     93  C   UNL A   1      46.856  27.345  37.669  1.00  0.00     0.054 A 
BRANCH  93  94
ATOM     94  S   UNL A   1      48.187  26.529  38.595  1.00  0.00     0.124 S 
ATOM     95  O   UNL A   1      47.474  26.005  39.755  1.00  0.00    -0.237 OA
ATOM     96  O   UNL A   1      48.670  25.527  37.648  1.00  0.00    -0.237 OA
ATOM     97  O   UNL A   1      49.127  27.613  38.877  1.00  0.00    -0.744 OA
ENDBRANCH  93  94
ENDBRANCH  67  88
ENDBRANCH  41  42
ENDBRANCH  34  36
ENDBRANCH  33  34
ENDBRANCH  32  33
ENDBRANCH  31  32
ENDBRANCH  30  31
ENDBRANCH  29  30
ENDBRANCH   1  29
TORSDOF 24
ENDMDL
