MODEL 1
REMARK VINA RESULT:      -7.5      0.000      0.000
REMARK SMILES COc1cc([N+](=O)[O-])cc([C@H]2[NH2+][C@H](C(=O)OCCOCCOCCOC(=O)c3ccc(-c4c5nc(c(-c6ccc(S(=O)(=O)[O-])cc6)c6ccc([nH]6)c(-c6ccc(S(=O)(=O)[O-])cc6)c6nc(c(-c7ccc(S(=O)(=O)[O-])cc7)c7ccc4[nH]7)C=C6)C=C5)cc3)CS2)c1O
REMARK SMILES IDX 21 1 20 2 19 3 18 4 17 5 16 6 14 7 15 8 13 9 11 10 12 11
REMARK SMILES IDX 89 12 88 15 10 16 3 17 4 18 90 19 5 20 9 21 2 22 1 23 91 24
REMARK SMILES IDX 6 26 7 27 8 28 22 29 23 30 24 31 25 32 26 33 27 34 28 35
REMARK SMILES IDX 29 36 87 37 30 38 86 39 31 40 32 41 33 42 80 43 34 44 85 45
REMARK SMILES IDX 79 46 81 47 35 48 84 49 78 50 77 51 36 53 66 54 47 55 65 56
REMARK SMILES IDX 48 57 51 58 64 59 82 60 49 61 50 62 63 64 83 65 52 66 37 67
REMARK SMILES IDX 38 68 46 69 39 70 45 71 40 72 41 73 42 74 43 75 44 76 67 77
REMARK SMILES IDX 68 78 76 79 69 80 75 81 70 82 71 83 72 84 73 85 74 86 53 87
REMARK SMILES IDX 54 88 62 89 55 90 61 91 56 92 57 93 58 94 59 95 60 96
REMARK H PARENT 12 13 12 14 91 25 81 52 51 63
REMARK Flexibility Score: inf
ROOT
ATOM      1  C   UNL A   1      33.901  35.347  31.540  1.00  0.00     0.188 C 
ENDROOT
BRANCH   1   2
ATOM      2  C   UNL A   1      34.840  35.474  32.755  1.00  0.00     0.188 C 
BRANCH   2   3
ATOM      3  O   UNL A   1      35.153  34.319  33.520  1.00  0.00    -0.376 OA
BRANCH   3   4
ATOM      4  C   UNL A   1      36.509  34.033  33.832  1.00  0.00     0.202 C 
BRANCH   4   5
ATOM      5  C   UNL A   1      37.660  34.770  33.121  1.00  0.00     0.261 C 
BRANCH   5   6
ATOM      6  O   UNL A   1      38.984  34.231  33.316  1.00  0.00    -0.459 OA
BRANCH   6   7
ATOM      7  C   UNL A   1      39.758  34.158  32.203  1.00  0.00     0.365 C 
ATOM      8  O   UNL A   1      39.409  34.583  31.102  1.00  0.00    -0.245 OA
BRANCH   7   9
ATOM      9  C   UNL A   1      41.135  33.500  32.376  1.00  0.00     0.304 C 
ATOM     10  C   UNL A   1      42.053  32.954  30.207  1.00  0.00     0.278 C 
ATOM     11  N   UNL A   1      41.536  32.395  31.458  1.00  0.00    -0.319 N 
ATOM     12  S   UNL A   1      42.635  34.644  30.546  1.00  0.00    -0.087 SA
ATOM     13  H   UNL A   1      42.260  31.832  31.902  1.00  0.00     0.348 HD
ATOM     14  H   UNL A   1      40.723  31.813  31.257  1.00  0.00     0.348 HD
ATOM     15  C   UNL A   1      42.201  34.577  32.305  1.00  0.00     0.153 C 
BRANCH  10  16
ATOM     16  C   UNL A   1      43.084  32.025  29.548  1.00  0.00     0.073 A 
ATOM     17  C   UNL A   1      44.553  30.040  29.411  1.00  0.00     0.167 A 
ATOM     18  C   UNL A   1      45.007  30.458  28.158  1.00  0.00     0.136 A 
ATOM     19  C   UNL A   1      43.593  30.817  30.095  1.00  0.00     0.168 A 
ATOM     20  C   UNL A   1      44.497  31.620  27.581  1.00  0.00     0.273 A 
ATOM     21  C   UNL A   1      43.536  32.390  28.256  1.00  0.00     0.100 A 
BRANCH  17  22
ATOM     22  O   UNL A   1      45.153  28.872  29.803  1.00  0.00    -0.493 OA
ATOM     23  C   UNL A   1      46.567  28.812  29.907  1.00  0.00     0.278 C 
ENDBRANCH  17  22
BRANCH  19  24
ATOM     24  O   UNL A   1      43.146  30.362  31.305  1.00  0.00    -0.504 OA
ATOM     25  H   UNL A   1      43.636  30.540  32.083  1.00  0.00     0.293 HD
ENDBRANCH  19  24
BRANCH  20  26
ATOM     26  N   UNL A   1      44.998  32.043  26.265  1.00  0.00     0.062 N 
ATOM     27  O   UNL A   1      44.425  32.990  25.707  1.00  0.00    -0.258 OA
ATOM     28  O   UNL A   1      45.945  31.411  25.781  1.00  0.00    -0.258 OA
ENDBRANCH  20  26
ENDBRANCH  10  16
ENDBRANCH   7   9
ENDBRANCH   6   7
ENDBRANCH   5   6
ENDBRANCH   4   5
ENDBRANCH   3   4
ENDBRANCH   2   3
ENDBRANCH   1   2
BRANCH   1  29
ATOM     29  O   UNL A   1      34.469  34.756  30.396  1.00  0.00    -0.376 OA
BRANCH  29  30
ATOM     30  C   UNL A   1      33.725  34.706  29.191  1.00  0.00     0.202 C 
BRANCH  30  31
ATOM     31  C   UNL A   1      33.724  33.529  28.192  1.00  0.00     0.261 C 
BRANCH  31  32
ATOM     32  O   UNL A   1      34.117  32.233  28.653  1.00  0.00    -0.460 OA
BRANCH  32  33
ATOM     33  C   UNL A   1      34.476  31.344  27.700  1.00  0.00     0.338 C 
ATOM     34  O   UNL A   1      33.919  31.158  26.622  1.00  0.00    -0.246 OA
BRANCH  33  35
ATOM     35  C   UNL A   1      35.782  30.764  28.057  1.00  0.00     0.060 A 
ATOM     36  C   UNL A   1      35.890  29.372  28.191  1.00  0.00     0.016 A 
ATOM     37  C   UNL A   1      36.882  31.587  28.305  1.00  0.00     0.016 A 
ATOM     38  C   UNL A   1      37.086  28.801  28.622  1.00  0.00     0.010 A 
ATOM     39  C   UNL A   1      38.073  31.015  28.760  1.00  0.00     0.010 A 
ATOM     40  C   UNL A   1      38.164  29.625  28.965  1.00  0.00    -0.014 A 
BRANCH  40  41
ATOM     41  C   UNL A   1      39.280  29.071  29.771  1.00  0.00     0.031 A 
ATOM     42  C   UNL A   1      39.423  29.549  31.194  1.00  0.00     0.074 A 
ATOM     43  C   UNL A   1      40.126  28.149  29.278  1.00  0.00     0.049 A 
ATOM     44  N   UNL A   1      40.341  29.260  32.079  1.00  0.00    -0.248 NA
ATOM     45  C   UNL A   1      38.390  30.482  31.679  1.00  0.00     0.031 C 
ATOM     46  C   UNL A   1      40.057  27.560  27.942  1.00  0.00     0.029 A 
ATOM     47  N   UNL A   1      41.218  27.551  29.855  1.00  0.00    -0.354 N 
ATOM     48  C   UNL A   1      40.004  29.983  33.218  1.00  0.00     0.074 A 
ATOM     49  C   UNL A   1      38.817  30.746  32.904  1.00  0.00     0.031 C 
ATOM     50  C   UNL A   1      41.073  26.689  27.799  1.00  0.00     0.029 A 
ATOM     51  C   UNL A   1      41.882  26.686  29.017  1.00  0.00     0.049 A 
ATOM     52  H   UNL A   1      41.501  27.725  30.782  1.00  0.00     0.167 HD
ATOM     53  C   UNL A   1      40.620  30.004  34.424  1.00  0.00     0.031 A 
ATOM     54  C   UNL A   1      43.022  25.991  29.207  1.00  0.00     0.031 A 
ATOM     55  C   UNL A   1      41.808  29.255  34.732  1.00  0.00     0.049 A 
ATOM     56  C   UNL A   1      43.741  26.098  30.530  1.00  0.00     0.074 A 
ATOM     57  C   UNL A   1      42.514  29.213  35.921  1.00  0.00     0.029 A 
ATOM     58  N   UNL A   1      42.469  28.421  33.843  1.00  0.00    -0.354 N 
ATOM     59  N   UNL A   1      43.409  26.782  31.599  1.00  0.00    -0.248 NA
ATOM     60  C   UNL A   1      44.986  25.328  30.672  1.00  0.00     0.031 C 
ATOM     61  C   UNL A   1      43.632  28.395  35.734  1.00  0.00     0.029 A 
ATOM     62  C   UNL A   1      43.584  27.872  34.452  1.00  0.00     0.049 A 
ATOM     63  H   UNL A   1      42.187  28.246  32.916  1.00  0.00     0.167 HD
ATOM     64  C   UNL A   1      44.380  26.488  32.555  1.00  0.00     0.074 A 
ATOM     65  C   UNL A   1      45.306  25.562  31.939  1.00  0.00     0.031 C 
ATOM     66  C   UNL A   1      44.489  26.938  33.830  1.00  0.00     0.031 A 
BRANCH  53  67
ATOM     67  C   UNL A   1      40.035  30.894  35.487  1.00  0.00    -0.014 A 
ATOM     68  C   UNL A   1      38.741  30.673  35.995  1.00  0.00     0.010 A 
ATOM     69  C   UNL A   1      40.803  31.950  36.011  1.00  0.00     0.010 A 
ATOM     70  C   UNL A   1      38.215  31.512  36.981  1.00  0.00     0.020 A 
ATOM     71  C   UNL A   1      40.292  32.773  37.019  1.00  0.00     0.020 A 
ATOM     72  C   UNL A   1      38.995  32.557  37.487  1.00  0.00     0.054 A 
BRANCH  72  73
ATOM     73  S   UNL A   1      38.298  33.610  38.788  1.00  0.00     0.124 S 
ATOM     74  O   UNL A   1      36.888  33.223  38.766  1.00  0.00    -0.237 OA
ATOM     75  O   UNL A   1      39.044  33.192  39.972  1.00  0.00    -0.237 OA
ATOM     76  O   UNL A   1      38.577  34.966  38.325  1.00  0.00    -0.744 OA
ENDBRANCH  72  73
ENDBRANCH  53  67
BRANCH  54  77
ATOM     77  C   UNL A   1      43.572  25.137  28.116  1.00  0.00    -0.014 A 
ATOM     78  C   UNL A   1      44.520  25.648  27.213  1.00  0.00     0.010 A 
ATOM     79  C   UNL A   1      43.130  23.810  27.960  1.00  0.00     0.010 A 
ATOM     80  C   UNL A   1      44.994  24.862  26.158  1.00  0.00     0.020 A 
ATOM     81  C   UNL A   1      43.624  23.009  26.925  1.00  0.00     0.020 A 
ATOM     82  C   UNL A   1      44.543  23.546  26.022  1.00  0.00     0.054 A 
BRANCH  82  83
ATOM     83  S   UNL A   1      45.202  22.533  24.668  1.00  0.00     0.124 S 
ATOM     84  O   UNL A   1      45.519  23.540  23.661  1.00  0.00    -0.237 OA
ATOM     85  O   UNL A   1      46.348  21.879  25.294  1.00  0.00    -0.237 OA
ATOM     86  O   UNL A   1      44.090  21.642  24.336  1.00  0.00    -0.744 OA
ENDBRANCH  82  83
ENDBRANCH  54  77
BRANCH  66  87
ATOM     87  C   UNL A   1      45.609  26.387  34.675  1.00  0.00    -0.014 A 
ATOM     88  C   UNL A   1      46.877  26.992  34.711  1.00  0.00     0.010 A 
ATOM     89  C   UNL A   1      45.364  25.269  35.494  1.00  0.00     0.010 A 
ATOM     90  C   UNL A   1      47.890  26.465  35.519  1.00  0.00     0.020 A 
ATOM     91  C   UNL A   1      46.361  24.759  36.328  1.00  0.00     0.020 A 
ATOM     92  C   UNL A   1      47.625  25.351  36.323  1.00  0.00     0.054 A 
BRANCH  92  93
ATOM     93  S   UNL A   1      48.943  24.709  37.390  1.00  0.00     0.124 S 
ATOM     94  O   UNL A   1      49.183  25.836  38.288  1.00  0.00    -0.237 OA
ATOM     95  O   UNL A   1      48.320  23.539  38.002  1.00  0.00    -0.237 OA
ATOM     96  O   UNL A   1      50.031  24.414  36.459  1.00  0.00    -0.744 OA
ENDBRANCH  92  93
ENDBRANCH  66  87
ENDBRANCH  40  41
ENDBRANCH  33  35
ENDBRANCH  32  33
ENDBRANCH  31  32
ENDBRANCH  30  31
ENDBRANCH  29  30
ENDBRANCH   1  29
TORSDOF 24
ENDMDL
MODEL 2
REMARK VINA RESULT:      -6.9      3.207      4.453
REMARK SMILES COc1cc([N+](=O)[O-])cc([C@H]2[NH2+][C@H](C(=O)OCCOCCOCCOC(=O)c3ccc(-c4c5nc(c(-c6ccc(S(=O)(=O)[O-])cc6)c6ccc([nH]6)c(-c6ccc(S(=O)(=O)[O-])cc6)c6nc(c(-c7ccc(S(=O)(=O)[O-])cc7)c7ccc4[nH]7)C=C6)C=C5)cc3)CS2)c1O
REMARK SMILES IDX 21 1 20 2 19 3 18 4 17 5 16 6 14 7 15 8 13 9 11 10 12 11
REMARK SMILES IDX 89 12 88 15 10 16 3 17 4 18 90 19 5 20 9 21 2 22 1 23 91 24
REMARK SMILES IDX 6 26 7 27 8 28 22 29 23 30 24 31 25 32 26 33 27 34 28 35
REMARK SMILES IDX 29 36 87 37 30 38 86 39 31 40 32 41 33 42 80 43 34 44 85 45
REMARK SMILES IDX 79 46 81 47 35 48 84 49 78 50 77 51 36 53 66 54 47 55 65 56
REMARK SMILES IDX 48 57 51 58 64 59 82 60 49 61 50 62 63 64 83 65 52 66 37 67
REMARK SMILES IDX 38 68 46 69 39 70 45 71 40 72 41 73 42 74 43 75 44 76 67 77
REMARK SMILES IDX 68 78 76 79 69 80 75 81 70 82 71 83 72 84 73 85 74 86 53 87
REMARK SMILES IDX 54 88 62 89 55 90 61 91 56 92 57 93 58 94 59 95 60 96
REMARK H PARENT 12 13 12 14 91 25 81 52 51 63
REMARK Flexibility Score: inf
ROOT
ATOM      1  C   UNL A   1      37.695  34.396  32.434  1.00  0.00     0.188 C 
ENDROOT
BRANCH   1   2
ATOM      2  C   UNL A   1      39.068  34.684  31.798  1.00  0.00     0.188 C 
BRANCH   2   3
ATOM      3  O   UNL A   1      39.424  34.039  30.584  1.00  0.00    -0.376 OA
BRANCH   3   4
ATOM      4  C   UNL A   1      40.747  34.173  30.083  1.00  0.00     0.202 C 
BRANCH   4   5
ATOM      5  C   UNL A   1      41.694  32.961  30.008  1.00  0.00     0.261 C 
BRANCH   5   6
ATOM      6  O   UNL A   1      42.866  33.113  29.180  1.00  0.00    -0.459 OA
BRANCH   6   7
ATOM      7  C   UNL A   1      43.969  33.596  29.807  1.00  0.00     0.365 C 
ATOM      8  O   UNL A   1      44.435  33.111  30.837  1.00  0.00    -0.245 OA
BRANCH   7   9
ATOM      9  C   UNL A   1      44.637  34.818  29.158  1.00  0.00     0.304 C 
ATOM     10  C   UNL A   1      43.180  36.738  29.353  1.00  0.00     0.278 C 
ATOM     11  N   UNL A   1      43.796  35.799  28.413  1.00  0.00    -0.319 N 
ATOM     12  S   UNL A   1      44.201  36.773  30.859  1.00  0.00    -0.087 SA
ATOM     13  H   UNL A   1      44.379  36.313  27.754  1.00  0.00     0.348 HD
ATOM     14  H   UNL A   1      43.064  35.299  27.907  1.00  0.00     0.348 HD
ATOM     15  C   UNL A   1      45.405  35.576  30.225  1.00  0.00     0.153 C 
BRANCH  10  16
ATOM     16  C   UNL A   1      42.918  38.107  28.706  1.00  0.00     0.073 A 
ATOM     17  C   UNL A   1      42.046  39.640  26.972  1.00  0.00     0.167 A 
ATOM     18  C   UNL A   1      42.557  40.733  27.676  1.00  0.00     0.136 A 
ATOM     19  C   UNL A   1      42.221  38.338  27.490  1.00  0.00     0.168 A 
ATOM     20  C   UNL A   1      43.212  40.537  28.891  1.00  0.00     0.273 A 
ATOM     21  C   UNL A   1      43.381  39.244  29.412  1.00  0.00     0.100 A 
BRANCH  17  22
ATOM     22  O   UNL A   1      41.421  40.031  25.817  1.00  0.00    -0.493 OA
ATOM     23  C   UNL A   1      41.847  41.211  25.155  1.00  0.00     0.278 C 
ENDBRANCH  17  22
BRANCH  19  24
ATOM     24  O   UNL A   1      41.680  37.294  26.792  1.00  0.00    -0.504 OA
ATOM     25  H   UNL A   1      40.936  36.837  27.132  1.00  0.00     0.293 HD
ENDBRANCH  19  24
BRANCH  20  26
ATOM     26  N   UNL A   1      43.749  41.703  29.609  1.00  0.00     0.062 N 
ATOM     27  O   UNL A   1      43.345  41.906  30.762  1.00  0.00    -0.258 OA
ATOM     28  O   UNL A   1      44.553  42.426  29.007  1.00  0.00    -0.258 OA
ENDBRANCH  20  26
ENDBRANCH  10  16
ENDBRANCH   7   9
ENDBRANCH   6   7
ENDBRANCH   5   6
ENDBRANCH   4   5
ENDBRANCH   3   4
ENDBRANCH   2   3
ENDBRANCH   1   2
BRANCH   1  29
ATOM     29  O   UNL A   1      36.797  33.668  31.631  1.00  0.00    -0.376 OA
BRANCH  29  30
ATOM     30  C   UNL A   1      35.508  34.194  31.368  1.00  0.00     0.202 C 
BRANCH  30  31
ATOM     31  C   UNL A   1      34.554  33.702  30.258  1.00  0.00     0.261 C 
BRANCH  31  32
ATOM     32  O   UNL A   1      34.326  32.297  30.118  1.00  0.00    -0.460 OA
BRANCH  32  33
ATOM     33  C   UNL A   1      34.678  31.751  28.932  1.00  0.00     0.338 C 
ATOM     34  O   UNL A   1      34.142  31.945  27.846  1.00  0.00    -0.246 OA
BRANCH  33  35
ATOM     35  C   UNL A   1      35.956  31.036  29.098  1.00  0.00     0.060 A 
ATOM     36  C   UNL A   1      35.962  29.811  29.780  1.00  0.00     0.016 A 
ATOM     37  C   UNL A   1      37.147  31.591  28.627  1.00  0.00     0.016 A 
ATOM     38  C   UNL A   1      37.167  29.159  30.036  1.00  0.00     0.010 A 
ATOM     39  C   UNL A   1      38.356  30.949  28.908  1.00  0.00     0.010 A 
ATOM     40  C   UNL A   1      38.374  29.755  29.653  1.00  0.00    -0.014 A 
BRANCH  40  41
ATOM     41  C   UNL A   1      39.646  29.276  30.247  1.00  0.00     0.031 A 
ATOM     42  C   UNL A   1      40.139  29.959  31.497  1.00  0.00     0.074 A 
ATOM     43  C   UNL A   1      40.335  28.248  29.722  1.00  0.00     0.049 A 
ATOM     44  N   UNL A   1      41.242  29.765  32.172  1.00  0.00    -0.248 NA
ATOM     45  C   UNL A   1      39.267  31.007  32.059  1.00  0.00     0.031 C 
ATOM     46  C   UNL A   1      39.935  27.463  28.555  1.00  0.00     0.029 A 
ATOM     47  N   UNL A   1      41.529  27.691  30.109  1.00  0.00    -0.354 N 
ATOM     48  C   UNL A   1      41.202  30.670  33.226  1.00  0.00     0.074 A 
ATOM     49  C   UNL A   1      39.984  31.435  33.086  1.00  0.00     0.031 C 
ATOM     50  C   UNL A   1      40.874  26.531  28.315  1.00  0.00     0.029 A 
ATOM     51  C   UNL A   1      41.957  26.674  29.288  1.00  0.00     0.049 A 
ATOM     52  H   UNL A   1      42.031  27.991  30.901  1.00  0.00     0.167 HD
ATOM     53  C   UNL A   1      42.095  30.846  34.229  1.00  0.00     0.031 A 
ATOM     54  C   UNL A   1      43.100  25.960  29.309  1.00  0.00     0.031 A 
ATOM     55  C   UNL A   1      43.314  30.095  34.360  1.00  0.00     0.049 A 
ATOM     56  C   UNL A   1      44.123  26.233  30.385  1.00  0.00     0.074 A 
ATOM     57  C   UNL A   1      44.289  30.200  35.336  1.00  0.00     0.029 A 
ATOM     58  N   UNL A   1      43.727  29.101  33.485  1.00  0.00    -0.354 N 
ATOM     59  N   UNL A   1      44.070  27.090  31.378  1.00  0.00    -0.248 NA
ATOM     60  C   UNL A   1      45.356  25.432  30.348  1.00  0.00     0.031 C 
ATOM     61  C   UNL A   1      45.318  29.308  35.021  1.00  0.00     0.029 A 
ATOM     62  C   UNL A   1      44.951  28.596  33.890  1.00  0.00     0.049 A 
ATOM     63  H   UNL A   1      43.225  28.799  32.694  1.00  0.00     0.167 HD
ATOM     64  C   UNL A   1      45.242  26.898  32.108  1.00  0.00     0.074 A 
ATOM     65  C   UNL A   1      45.978  25.842  31.445  1.00  0.00     0.031 C 
ATOM     66  C   UNL A   1      45.666  27.533  33.229  1.00  0.00     0.031 A 
BRANCH  53  67
ATOM     67  C   UNL A   1      41.798  31.918  35.243  1.00  0.00    -0.014 A 
ATOM     68  C   UNL A   1      41.151  31.618  36.455  1.00  0.00     0.010 A 
ATOM     69  C   UNL A   1      42.202  33.243  34.993  1.00  0.00     0.010 A 
ATOM     70  C   UNL A   1      40.883  32.627  37.383  1.00  0.00     0.020 A 
ATOM     71  C   UNL A   1      41.963  34.250  35.933  1.00  0.00     0.020 A 
ATOM     72  C   UNL A   1      41.291  33.938  37.116  1.00  0.00     0.054 A 
BRANCH  72  73
ATOM     73  S   UNL A   1      40.957  35.222  38.352  1.00  0.00     0.124 S 
ATOM     74  O   UNL A   1      40.299  36.250  37.549  1.00  0.00    -0.237 OA
ATOM     75  O   UNL A   1      40.099  34.528  39.309  1.00  0.00    -0.237 OA
ATOM     76  O   UNL A   1      42.283  35.576  38.852  1.00  0.00    -0.744 OA
ENDBRANCH  72  73
ENDBRANCH  53  67
BRANCH  54  77
ATOM     77  C   UNL A   1      43.357  24.921  28.271  1.00  0.00    -0.014 A 
ATOM     78  C   UNL A   1      42.925  23.597  28.459  1.00  0.00     0.010 A 
ATOM     79  C   UNL A   1      44.061  25.247  27.097  1.00  0.00     0.010 A 
ATOM     80  C   UNL A   1      43.214  22.613  27.508  1.00  0.00     0.020 A 
ATOM     81  C   UNL A   1      44.326  24.273  26.128  1.00  0.00     0.020 A 
ATOM     82  C   UNL A   1      43.912  22.958  26.348  1.00  0.00     0.054 A 
BRANCH  82  83
ATOM     83  S   UNL A   1      44.243  21.672  25.111  1.00  0.00     0.124 S 
ATOM     84  O   UNL A   1      44.206  22.432  23.865  1.00  0.00    -0.237 OA
ATOM     85  O   UNL A   1      45.557  21.179  25.514  1.00  0.00    -0.237 OA
ATOM     86  O   UNL A   1      43.145  20.726  25.301  1.00  0.00    -0.744 OA
ENDBRANCH  82  83
ENDBRANCH  54  77
BRANCH  66  87
ATOM     87  C   UNL A   1      46.952  27.063  33.858  1.00  0.00    -0.014 A 
ATOM     88  C   UNL A   1      46.979  26.012  34.792  1.00  0.00     0.010 A 
ATOM     89  C   UNL A   1      48.167  27.651  33.459  1.00  0.00     0.010 A 
ATOM     90  C   UNL A   1      48.192  25.587  35.343  1.00  0.00     0.020 A 
ATOM     91  C   UNL A   1      49.383  27.208  33.981  1.00  0.00     0.020 A 
ATOM     92  C   UNL A   1      49.387  26.189  34.935  1.00  0.00     0.054 A 
BRANCH  92  93
ATOM     93  S   UNL A   1      50.950  25.596  35.637  1.00  0.00     0.124 S 
ATOM     94  O   UNL A   1      50.495  24.557  36.557  1.00  0.00    -0.237 OA
ATOM     95  O   UNL A   1      51.672  25.121  34.460  1.00  0.00    -0.237 OA
ATOM     96  O   UNL A   1      51.518  26.783  36.273  1.00  0.00    -0.744 OA
ENDBRANCH  92  93
ENDBRANCH  66  87
ENDBRANCH  40  41
ENDBRANCH  33  35
ENDBRANCH  32  33
ENDBRANCH  31  32
ENDBRANCH  30  31
ENDBRANCH  29  30
ENDBRANCH   1  29
TORSDOF 24
ENDMDL
MODEL 3
REMARK VINA RESULT:      -6.8      2.822     10.124
REMARK SMILES COc1cc([N+](=O)[O-])cc([C@H]2[NH2+][C@H](C(=O)OCCOCCOCCOC(=O)c3ccc(-c4c5nc(c(-c6ccc(S(=O)(=O)[O-])cc6)c6ccc([nH]6)c(-c6ccc(S(=O)(=O)[O-])cc6)c6nc(c(-c7ccc(S(=O)(=O)[O-])cc7)c7ccc4[nH]7)C=C6)C=C5)cc3)CS2)c1O
REMARK SMILES IDX 21 1 20 2 19 3 18 4 17 5 16 6 14 7 15 8 13 9 11 10 12 11
REMARK SMILES IDX 89 12 88 15 10 16 3 17 4 18 90 19 5 20 9 21 2 22 1 23 91 24
REMARK SMILES IDX 6 26 7 27 8 28 22 29 23 30 24 31 25 32 26 33 27 34 28 35
REMARK SMILES IDX 29 36 87 37 30 38 86 39 31 40 32 41 33 42 80 43 34 44 85 45
REMARK SMILES IDX 79 46 81 47 35 48 84 49 78 50 77 51 36 53 66 54 47 55 65 56
REMARK SMILES IDX 48 57 51 58 64 59 82 60 49 61 50 62 63 64 83 65 52 66 37 67
REMARK SMILES IDX 38 68 46 69 39 70 45 71 40 72 41 73 42 74 43 75 44 76 67 77
REMARK SMILES IDX 68 78 76 79 69 80 75 81 70 82 71 83 72 84 73 85 74 86 53 87
REMARK SMILES IDX 54 88 62 89 55 90 61 91 56 92 57 93 58 94 59 95 60 96
REMARK H PARENT 12 13 12 14 91 25 81 52 51 63
REMARK Flexibility Score: inf
ROOT
ATOM      1  C   UNL A   1      45.576  25.342  32.356  1.00  0.00     0.188 C 
ENDROOT
BRANCH   1   2
ATOM      2  C   UNL A   1      46.019  25.293  30.881  1.00  0.00     0.188 C 
BRANCH   2   3
ATOM      3  O   UNL A   1      46.824  26.341  30.358  1.00  0.00    -0.376 OA
BRANCH   3   4
ATOM      4  C   UNL A   1      47.798  26.046  29.368  1.00  0.00     0.202 C 
BRANCH   4   5
ATOM      5  C   UNL A   1      47.417  25.306  28.073  1.00  0.00     0.261 C 
BRANCH   5   6
ATOM      6  O   UNL A   1      47.256  26.120  26.892  1.00  0.00    -0.459 OA
BRANCH   6   7
ATOM      7  C   UNL A   1      46.024  26.663  26.717  1.00  0.00     0.365 C 
ATOM      8  O   UNL A   1      44.977  26.079  26.992  1.00  0.00    -0.245 OA
BRANCH   7   9
ATOM      9  C   UNL A   1      45.986  28.085  26.139  1.00  0.00     0.304 C 
ATOM     10  C   UNL A   1      45.229  29.632  27.836  1.00  0.00     0.278 C 
ATOM     11  N   UNL A   1      44.893  29.012  26.552  1.00  0.00    -0.319 N 
ATOM     12  S   UNL A   1      47.038  29.580  28.027  1.00  0.00    -0.087 SA
ATOM     13  H   UNL A   1      44.779  29.738  25.845  1.00  0.00     0.348 HD
ATOM     14  H   UNL A   1      44.024  28.486  26.648  1.00  0.00     0.348 HD
ATOM     15  C   UNL A   1      47.311  28.764  26.432  1.00  0.00     0.153 C 
BRANCH  10  16
ATOM     16  C   UNL A   1      44.593  31.023  27.983  1.00  0.00     0.073 A 
ATOM     17  C   UNL A   1      44.121  33.358  27.317  1.00  0.00     0.167 A 
ATOM     18  C   UNL A   1      43.334  33.529  28.457  1.00  0.00     0.136 A 
ATOM     19  C   UNL A   1      44.739  32.110  27.081  1.00  0.00     0.168 A 
ATOM     20  C   UNL A   1      43.143  32.467  29.341  1.00  0.00     0.273 A 
ATOM     21  C   UNL A   1      43.750  31.223  29.105  1.00  0.00     0.100 A 
BRANCH  17  22
ATOM     22  O   UNL A   1      44.175  34.502  26.563  1.00  0.00    -0.493 OA
ATOM     23  C   UNL A   1      45.280  35.380  26.704  1.00  0.00     0.278 C 
ENDBRANCH  17  22
BRANCH  19  24
ATOM     24  O   UNL A   1      45.476  31.968  25.938  1.00  0.00    -0.504 OA
ATOM     25  H   UNL A   1      45.383  31.198  25.412  1.00  0.00     0.293 HD
ENDBRANCH  19  24
BRANCH  20  26
ATOM     26  N   UNL A   1      42.318  32.674  30.539  1.00  0.00     0.062 N 
ATOM     27  O   UNL A   1      41.309  33.386  30.429  1.00  0.00    -0.258 OA
ATOM     28  O   UNL A   1      42.694  32.148  31.594  1.00  0.00    -0.258 OA
ENDBRANCH  20  26
ENDBRANCH  10  16
ENDBRANCH   7   9
ENDBRANCH   6   7
ENDBRANCH   5   6
ENDBRANCH   4   5
ENDBRANCH   3   4
ENDBRANCH   2   3
ENDBRANCH   1   2
BRANCH   1  29
ATOM     29  O   UNL A   1      46.607  25.187  33.302  1.00  0.00    -0.376 OA
BRANCH  29  30
ATOM     30  C   UNL A   1      46.387  24.389  34.452  1.00  0.00     0.202 C 
BRANCH  30  31
ATOM     31  C   UNL A   1      47.181  24.490  35.772  1.00  0.00     0.261 C 
BRANCH  31  32
ATOM     32  O   UNL A   1      47.677  25.767  36.183  1.00  0.00    -0.460 OA
BRANCH  32  33
ATOM     33  C   UNL A   1      47.130  26.287  37.304  1.00  0.00     0.338 C 
ATOM     34  O   UNL A   1      47.536  26.146  38.453  1.00  0.00    -0.246 OA
BRANCH  33  35
ATOM     35  C   UNL A   1      46.073  27.240  36.921  1.00  0.00     0.060 A 
ATOM     36  C   UNL A   1      44.738  26.924  37.214  1.00  0.00     0.016 A 
ATOM     37  C   UNL A   1      46.389  28.415  36.237  1.00  0.00     0.016 A 
ATOM     38  C   UNL A   1      43.711  27.758  36.779  1.00  0.00     0.010 A 
ATOM     39  C   UNL A   1      45.356  29.237  35.780  1.00  0.00     0.010 A 
ATOM     40  C   UNL A   1      44.012  28.888  36.009  1.00  0.00    -0.014 A 
BRANCH  40  41
ATOM     41  C   UNL A   1      42.935  29.551  35.233  1.00  0.00     0.031 A 
ATOM     42  C   UNL A   1      42.237  30.728  35.864  1.00  0.00     0.074 A 
ATOM     43  C   UNL A   1      42.600  29.150  33.994  1.00  0.00     0.049 A 
ATOM     44  N   UNL A   1      41.234  31.437  35.418  1.00  0.00    -0.248 NA
ATOM     45  C   UNL A   1      42.740  31.160  37.181  1.00  0.00     0.031 C 
ATOM     46  C   UNL A   1      43.239  28.067  33.248  1.00  0.00     0.029 A 
ATOM     47  N   UNL A   1      41.626  29.615  33.146  1.00  0.00    -0.354 N 
ATOM     48  C   UNL A   1      40.979  32.388  36.400  1.00  0.00     0.074 A 
ATOM     49  C   UNL A   1      41.910  32.146  37.479  1.00  0.00     0.031 C 
ATOM     50  C   UNL A   1      42.631  27.945  32.054  1.00  0.00     0.029 A 
ATOM     51  C   UNL A   1      41.540  28.914  31.965  1.00  0.00     0.049 A 
ATOM     52  H   UNL A   1      41.042  30.377  33.362  1.00  0.00     0.167 HD
ATOM     53  C   UNL A   1      40.058  33.380  36.403  1.00  0.00     0.031 A 
ATOM     54  C   UNL A   1      40.667  29.031  30.944  1.00  0.00     0.031 A 
ATOM     55  C   UNL A   1      39.123  33.611  35.335  1.00  0.00     0.049 A 
ATOM     56  C   UNL A   1      39.592  30.088  31.008  1.00  0.00     0.074 A 
ATOM     57  C   UNL A   1      38.146  34.587  35.244  1.00  0.00     0.029 A 
ATOM     58  N   UNL A   1      39.046  32.856  34.176  1.00  0.00    -0.354 N 
ATOM     59  N   UNL A   1      39.365  30.982  31.941  1.00  0.00    -0.248 NA
ATOM     60  C   UNL A   1      38.661  30.157  29.872  1.00  0.00     0.031 C 
ATOM     61  C   UNL A   1      37.442  34.387  34.053  1.00  0.00     0.029 A 
ATOM     62  C   UNL A   1      38.026  33.332  33.370  1.00  0.00     0.049 A 
ATOM     63  H   UNL A   1      39.629  32.094  33.958  1.00  0.00     0.167 HD
ATOM     64  C   UNL A   1      38.295  31.748  31.482  1.00  0.00     0.074 A 
ATOM     65  C   UNL A   1      37.925  31.215  30.188  1.00  0.00     0.031 C 
ATOM     66  C   UNL A   1      37.679  32.801  32.076  1.00  0.00     0.031 A 
BRANCH  53  67
ATOM     67  C   UNL A   1      39.998  34.269  37.617  1.00  0.00    -0.014 A 
ATOM     68  C   UNL A   1      40.264  35.647  37.527  1.00  0.00     0.010 A 
ATOM     69  C   UNL A   1      39.639  33.722  38.862  1.00  0.00     0.010 A 
ATOM     70  C   UNL A   1      40.205  36.455  38.666  1.00  0.00     0.020 A 
ATOM     71  C   UNL A   1      39.549  34.531  39.998  1.00  0.00     0.020 A 
ATOM     72  C   UNL A   1      39.847  35.891  39.895  1.00  0.00     0.054 A 
BRANCH  72  73
ATOM     73  S   UNL A   1      39.749  36.969  41.349  1.00  0.00     0.124 S 
ATOM     74  O   UNL A   1      41.160  37.227  41.630  1.00  0.00    -0.237 OA
ATOM     75  O   UNL A   1      38.990  38.113  40.848  1.00  0.00    -0.237 OA
ATOM     76  O   UNL A   1      39.056  36.152  42.341  1.00  0.00    -0.744 OA
ENDBRANCH  72  73
ENDBRANCH  53  67
BRANCH  54  77
ATOM     77  C   UNL A   1      40.755  28.115  29.771  1.00  0.00    -0.014 A 
ATOM     78  C   UNL A   1      39.829  27.071  29.605  1.00  0.00     0.010 A 
ATOM     79  C   UNL A   1      41.787  28.267  28.826  1.00  0.00     0.010 A 
ATOM     80  C   UNL A   1      39.946  26.180  28.532  1.00  0.00     0.020 A 
ATOM     81  C   UNL A   1      41.890  27.398  27.735  1.00  0.00     0.020 A 
ATOM     82  C   UNL A   1      40.977  26.351  27.604  1.00  0.00     0.054 A 
BRANCH  82  83
ATOM     83  S   UNL A   1      41.086  25.206  26.200  1.00  0.00     0.124 S 
ATOM     84  O   UNL A   1      41.544  26.083  25.127  1.00  0.00    -0.237 OA
ATOM     85  O   UNL A   1      42.057  24.222  26.673  1.00  0.00    -0.237 OA
ATOM     86  O   UNL A   1      39.719  24.705  26.061  1.00  0.00    -0.744 OA
ENDBRANCH  82  83
ENDBRANCH  54  77
BRANCH  66  87
ATOM     87  C   UNL A   1      36.586  33.498  31.307  1.00  0.00    -0.014 A 
ATOM     88  C   UNL A   1      36.653  33.669  29.913  1.00  0.00     0.010 A 
ATOM     89  C   UNL A   1      35.439  33.941  31.993  1.00  0.00     0.010 A 
ATOM     90  C   UNL A   1      35.613  34.305  29.227  1.00  0.00     0.020 A 
ATOM     91  C   UNL A   1      34.384  34.546  31.309  1.00  0.00     0.020 A 
ATOM     92  C   UNL A   1      34.484  34.740  29.930  1.00  0.00     0.054 A 
BRANCH  92  93
ATOM     93  S   UNL A   1      33.133  35.528  29.013  1.00  0.00     0.124 S 
ATOM     94  O   UNL A   1      32.628  34.422  28.206  1.00  0.00    -0.237 OA
ATOM     95  O   UNL A   1      32.245  35.985  30.079  1.00  0.00    -0.237 OA
ATOM     96  O   UNL A   1      33.797  36.593  28.263  1.00  0.00    -0.744 OA
ENDBRANCH  92  93
ENDBRANCH  66  87
ENDBRANCH  40  41
ENDBRANCH  33  35
ENDBRANCH  32  33
ENDBRANCH  31  32
ENDBRANCH  30  31
ENDBRANCH  29  30
ENDBRANCH   1  29
TORSDOF 24
ENDMDL
