MODEL 1
REMARK VINA RESULT:      -8.5      0.000      0.000
REMARK SMILES C[C@@H]1c2ccccc2-c2ccc(C(=O)OCCOCCOCCOC(=O)c3ccc(-c4c5nc(c(-c6ccc(S(=O)(=O)[O-])cc6)c6ccc([nH]6)c(-c6ccc(S(=O)(=O)[O-])cc6)c6nc(c(-c7ccc(S(=O)(=O)[O-])cc7)c7ccc4[nH]7)C=C6)C=C5)cc3)cc21
REMARK SMILES IDX 21 1 20 2 19 3 18 4 17 5 16 6 15 7 13 8 14 9 12 10 1 11 2 12
REMARK SMILES IDX 3 13 88 14 4 15 8 16 9 17 87 18 5 19 7 20 10 21 6 22 11 23
REMARK SMILES IDX 22 24 23 25 24 26 25 27 26 28 27 29 28 30 86 31 29 32 85 33
REMARK SMILES IDX 30 34 31 35 32 36 79 37 33 38 84 39 78 40 80 41 34 42 83 43
REMARK SMILES IDX 77 44 76 45 35 47 65 48 46 49 64 50 47 51 50 52 63 53 81 54
REMARK SMILES IDX 48 55 49 56 62 58 82 59 51 60 36 61 37 62 45 63 38 64 44 65
REMARK SMILES IDX 39 66 40 67 41 68 42 69 43 70 66 71 67 72 75 73 68 74 74 75
REMARK SMILES IDX 69 76 70 77 71 78 72 79 73 80 52 81 53 82 61 83 54 84 60 85
REMARK SMILES IDX 55 86 56 87 57 88 58 89 59 90
REMARK H PARENT 80 46 50 57
REMARK Flexibility Score: inf
ROOT
ATOM      1  O   UNL A   1      33.070  35.215  28.767  1.00  0.00    -0.376 OA
ENDROOT
BRANCH   1   2
ATOM      2  C   UNL A   1      32.807  36.174  29.769  1.00  0.00     0.188 C 
BRANCH   2   3
ATOM      3  C   UNL A   1      32.890  35.796  31.263  1.00  0.00     0.188 C 
BRANCH   3   4
ATOM      4  O   UNL A   1      34.146  35.703  31.902  1.00  0.00    -0.376 OA
BRANCH   4   5
ATOM      5  C   UNL A   1      34.242  35.633  33.314  1.00  0.00     0.202 C 
BRANCH   5   6
ATOM      6  C   UNL A   1      35.212  34.709  34.061  1.00  0.00     0.261 C 
BRANCH   6   7
ATOM      7  O   UNL A   1      36.215  34.080  33.259  1.00  0.00    -0.460 OA
BRANCH   7   8
ATOM      8  C   UNL A   1      35.965  32.771  32.977  1.00  0.00     0.338 C 
ATOM      9  O   UNL A   1      35.042  32.327  32.335  1.00  0.00    -0.246 OA
BRANCH   8  10
ATOM     10  C   UNL A   1      37.098  31.932  33.432  1.00  0.00     0.060 A 
ATOM     11  C   UNL A   1      38.422  27.580  32.793  1.00  0.00     0.018 C 
ATOM     12  C   UNL A   1      39.252  28.847  32.628  1.00  0.00     0.047 C 
ATOM     13  C   UNL A   1      40.552  28.788  33.419  1.00  0.00    -0.033 A 
ATOM     14  C   UNL A   1      38.581  30.080  33.224  1.00  0.00    -0.032 A 
ATOM     15  C   UNL A   1      41.639  27.950  33.231  1.00  0.00     0.005 A 
ATOM     16  C   UNL A   1      40.570  29.800  34.403  1.00  0.00    -0.014 A 
ATOM     17  C   UNL A   1      39.365  30.591  34.285  1.00  0.00    -0.014 A 
ATOM     18  C   UNL A   1      37.436  30.735  32.791  1.00  0.00     0.020 A 
ATOM     19  C   UNL A   1      42.758  28.127  34.050  1.00  0.00     0.000 A 
ATOM     20  C   UNL A   1      41.673  29.964  35.228  1.00  0.00     0.009 A 
ATOM     21  C   UNL A   1      38.986  31.736  34.965  1.00  0.00     0.010 A 
ATOM     22  C   UNL A   1      42.771  29.120  35.044  1.00  0.00     0.001 A 
ATOM     23  C   UNL A   1      37.852  32.417  34.523  1.00  0.00     0.016 A 
ENDBRANCH   8  10
ENDBRANCH   7   8
ENDBRANCH   6   7
ENDBRANCH   5   6
ENDBRANCH   4   5
ENDBRANCH   3   4
ENDBRANCH   2   3
ENDBRANCH   1   2
BRANCH   1  24
ATOM     24  C   UNL A   1      33.741  34.009  29.081  1.00  0.00     0.202 C 
BRANCH  24  25
ATOM     25  C   UNL A   1      34.006  32.875  28.078  1.00  0.00     0.261 C 
BRANCH  25  26
ATOM     26  O   UNL A   1      34.066  31.548  28.604  1.00  0.00    -0.460 OA
BRANCH  26  27
ATOM     27  C   UNL A   1      34.392  30.592  27.697  1.00  0.00     0.338 C 
ATOM     28  O   UNL A   1      33.767  30.274  26.701  1.00  0.00    -0.246 OA
BRANCH  27  29
ATOM     29  C   UNL A   1      35.738  30.080  28.002  1.00  0.00     0.060 A 
ATOM     30  C   UNL A   1      35.998  29.606  29.295  1.00  0.00     0.016 A 
ATOM     31  C   UNL A   1      36.747  30.122  27.040  1.00  0.00     0.016 A 
ATOM     32  C   UNL A   1      37.284  29.192  29.638  1.00  0.00     0.010 A 
ATOM     33  C   UNL A   1      38.040  29.729  27.393  1.00  0.00     0.010 A 
ATOM     34  C   UNL A   1      38.319  29.291  28.701  1.00  0.00    -0.014 A 
BRANCH  34  35
ATOM     35  C   UNL A   1      39.727  29.117  29.131  1.00  0.00     0.031 A 
ATOM     36  C   UNL A   1      40.412  27.814  28.824  1.00  0.00     0.074 A 
ATOM     37  C   UNL A   1      40.385  30.094  29.780  1.00  0.00     0.049 A 
ATOM     38  N   UNL A   1      41.606  27.406  29.164  1.00  0.00    -0.248 NA
ATOM     39  C   UNL A   1      39.644  26.841  28.028  1.00  0.00     0.031 C 
ATOM     40  C   UNL A   1      39.847  31.417  30.091  1.00  0.00     0.029 A 
ATOM     41  N   UNL A   1      41.652  30.110  30.307  1.00  0.00    -0.354 N 
ATOM     42  C   UNL A   1      41.728  26.124  28.638  1.00  0.00     0.074 A 
ATOM     43  C   UNL A   1      40.479  25.815  27.976  1.00  0.00     0.031 C 
ATOM     44  C   UNL A   1      40.775  32.114  30.770  1.00  0.00     0.029 A 
ATOM     45  C   UNL A   1      41.955  31.273  30.973  1.00  0.00     0.049 A 
ATOM     46  H   UNL A   1      42.283  29.361  30.216  1.00  0.00     0.167 HD
ATOM     47  C   UNL A   1      42.785  25.281  28.700  1.00  0.00     0.031 A 
ATOM     48  C   UNL A   1      43.047  31.609  31.690  1.00  0.00     0.031 A 
ATOM     49  C   UNL A   1      44.018  25.582  29.377  1.00  0.00     0.049 A 
ATOM     50  C   UNL A   1      44.180  30.621  31.816  1.00  0.00     0.074 A 
ATOM     51  C   UNL A   1      45.153  24.798  29.489  1.00  0.00     0.029 A 
ATOM     52  N   UNL A   1      44.274  26.758  30.068  1.00  0.00    -0.354 N 
ATOM     53  N   UNL A   1      44.292  29.421  31.297  1.00  0.00    -0.248 NA
ATOM     54  C   UNL A   1      45.336  31.036  32.623  1.00  0.00     0.031 C 
ATOM     55  C   UNL A   1      46.072  25.475  30.297  1.00  0.00     0.029 A 
ATOM     56  C   UNL A   1      45.536  26.708  30.634  1.00  0.00     0.049 A 
ATOM     57  H   UNL A   1      43.649  27.514  30.146  1.00  0.00     0.167 HD
ATOM     58  C   UNL A   1      45.542  28.952  31.690  1.00  0.00     0.074 A 
ATOM     59  C   UNL A   1      46.153  30.001  32.480  1.00  0.00     0.031 C 
ATOM     60  C   UNL A   1      46.132  27.761  31.418  1.00  0.00     0.031 A 
BRANCH  47  61
ATOM     61  C   UNL A   1      42.633  23.930  28.051  1.00  0.00    -0.014 A 
ATOM     62  C   UNL A   1      43.121  23.682  26.756  1.00  0.00     0.010 A 
ATOM     63  C   UNL A   1      42.009  22.887  28.759  1.00  0.00     0.010 A 
ATOM     64  C   UNL A   1      42.951  22.426  26.165  1.00  0.00     0.020 A 
ATOM     65  C   UNL A   1      41.862  21.623  28.183  1.00  0.00     0.020 A 
ATOM     66  C   UNL A   1      42.319  21.406  26.882  1.00  0.00     0.054 A 
BRANCH  66  67
ATOM     67  S   UNL A   1      42.125  19.783  26.096  1.00  0.00     0.124 S 
ATOM     68  O   UNL A   1      43.039  19.887  24.961  1.00  0.00    -0.237 OA
ATOM     69  O   UNL A   1      42.539  18.864  27.153  1.00  0.00    -0.237 OA
ATOM     70  O   UNL A   1      40.707  19.732  25.750  1.00  0.00    -0.744 OA
ENDBRANCH  66  67
ENDBRANCH  47  61
BRANCH  48  71
ATOM     71  C   UNL A   1      43.116  32.934  32.365  1.00  0.00    -0.014 A 
ATOM     72  C   UNL A   1      43.765  34.020  31.750  1.00  0.00     0.010 A 
ATOM     73  C   UNL A   1      42.532  33.117  33.632  1.00  0.00     0.010 A 
ATOM     74  C   UNL A   1      43.842  35.257  32.396  1.00  0.00     0.020 A 
ATOM     75  C   UNL A   1      42.582  34.360  34.269  1.00  0.00     0.020 A 
ATOM     76  C   UNL A   1      43.246  35.421  33.650  1.00  0.00     0.054 A 
BRANCH  76  77
ATOM     77  S   UNL A   1      43.312  37.051  34.445  1.00  0.00     0.124 S 
ATOM     78  O   UNL A   1      44.544  36.961  35.222  1.00  0.00    -0.237 OA
ATOM     79  O   UNL A   1      43.352  37.957  33.300  1.00  0.00    -0.237 OA
ATOM     80  O   UNL A   1      42.080  37.100  35.228  1.00  0.00    -0.744 OA
ENDBRANCH  76  77
ENDBRANCH  48  71
BRANCH  60  81
ATOM     81  C   UNL A   1      47.527  27.536  31.943  1.00  0.00    -0.014 A 
ATOM     82  C   UNL A   1      47.753  26.939  33.196  1.00  0.00     0.010 A 
ATOM     83  C   UNL A   1      48.632  27.873  31.138  1.00  0.00     0.010 A 
ATOM     84  C   UNL A   1      49.057  26.711  33.645  1.00  0.00     0.020 A 
ATOM     85  C   UNL A   1      49.936  27.621  31.570  1.00  0.00     0.020 A 
ATOM     86  C   UNL A   1      50.141  27.053  32.830  1.00  0.00     0.054 A 
BRANCH  86  87
ATOM     87  S   UNL A   1      51.822  26.707  33.417  1.00  0.00     0.124 S 
ATOM     88  O   UNL A   1      52.526  27.937  33.066  1.00  0.00    -0.237 OA
ATOM     89  O   UNL A   1      51.622  26.483  34.847  1.00  0.00    -0.237 OA
ATOM     90  O   UNL A   1      52.217  25.522  32.657  1.00  0.00    -0.744 OA
ENDBRANCH  86  87
ENDBRANCH  60  81
ENDBRANCH  34  35
ENDBRANCH  27  29
ENDBRANCH  26  27
ENDBRANCH  25  26
ENDBRANCH  24  25
ENDBRANCH   1  24
TORSDOF 20
ENDMDL
MODEL 2
REMARK VINA RESULT:      -8.2      1.019      8.283
REMARK SMILES C[C@@H]1c2ccccc2-c2ccc(C(=O)OCCOCCOCCOC(=O)c3ccc(-c4c5nc(c(-c6ccc(S(=O)(=O)[O-])cc6)c6ccc([nH]6)c(-c6ccc(S(=O)(=O)[O-])cc6)c6nc(c(-c7ccc(S(=O)(=O)[O-])cc7)c7ccc4[nH]7)C=C6)C=C5)cc3)cc21
REMARK SMILES IDX 21 1 20 2 19 3 18 4 17 5 16 6 15 7 13 8 14 9 12 10 1 11 2 12
REMARK SMILES IDX 3 13 88 14 4 15 8 16 9 17 87 18 5 19 7 20 10 21 6 22 11 23
REMARK SMILES IDX 22 24 23 25 24 26 25 27 26 28 27 29 28 30 86 31 29 32 85 33
REMARK SMILES IDX 30 34 31 35 32 36 79 37 33 38 84 39 78 40 80 41 34 42 83 43
REMARK SMILES IDX 77 44 76 45 35 47 65 48 46 49 64 50 47 51 50 52 63 53 81 54
REMARK SMILES IDX 48 55 49 56 62 58 82 59 51 60 36 61 37 62 45 63 38 64 44 65
REMARK SMILES IDX 39 66 40 67 41 68 42 69 43 70 66 71 67 72 75 73 68 74 74 75
REMARK SMILES IDX 69 76 70 77 71 78 72 79 73 80 52 81 53 82 61 83 54 84 60 85
REMARK SMILES IDX 55 86 56 87 57 88 58 89 59 90
REMARK H PARENT 80 46 50 57
REMARK Flexibility Score: inf
ROOT
ATOM      1  O   UNL A   1      33.355  34.317  28.642  1.00  0.00    -0.376 OA
ENDROOT
BRANCH   1   2
ATOM      2  C   UNL A   1      33.664  35.604  29.133  1.00  0.00     0.188 C 
BRANCH   2   3
ATOM      3  C   UNL A   1      32.563  36.504  29.733  1.00  0.00     0.188 C 
BRANCH   3   4
ATOM      4  O   UNL A   1      32.772  37.148  30.973  1.00  0.00    -0.376 OA
BRANCH   4   5
ATOM      5  C   UNL A   1      32.867  36.402  32.174  1.00  0.00     0.202 C 
BRANCH   5   6
ATOM      6  C   UNL A   1      34.173  35.801  32.709  1.00  0.00     0.261 C 
BRANCH   6   7
ATOM      7  O   UNL A   1      34.568  34.555  32.129  1.00  0.00    -0.460 OA
BRANCH   7   8
ATOM      8  C   UNL A   1      34.455  33.488  32.968  1.00  0.00     0.338 C 
ATOM      9  O   UNL A   1      33.433  32.983  33.372  1.00  0.00    -0.246 OA
BRANCH   8  10
ATOM     10  C   UNL A   1      35.788  32.891  33.208  1.00  0.00     0.060 A 
ATOM     11  C   UNL A   1      39.743  34.330  35.050  1.00  0.00     0.018 C 
ATOM     12  C   UNL A   1      38.968  33.057  35.368  1.00  0.00     0.047 C 
ATOM     13  C   UNL A   1      39.841  31.813  35.264  1.00  0.00    -0.033 A 
ATOM     14  C   UNL A   1      37.875  32.755  34.348  1.00  0.00    -0.032 A 
ATOM     15  C   UNL A   1      40.924  31.451  36.050  1.00  0.00     0.005 A 
ATOM     16  C   UNL A   1      39.358  30.962  34.247  1.00  0.00    -0.014 A 
ATOM     17  C   UNL A   1      38.156  31.537  33.686  1.00  0.00    -0.014 A 
ATOM     18  C   UNL A   1      36.698  33.452  34.112  1.00  0.00     0.020 A 
ATOM     19  C   UNL A   1      41.534  30.218  35.803  1.00  0.00     0.000 A 
ATOM     20  C   UNL A   1      39.976  29.747  33.990  1.00  0.00     0.009 A 
ATOM     21  C   UNL A   1      37.287  31.024  32.737  1.00  0.00     0.010 A 
ATOM     22  C   UNL A   1      41.069  29.378  34.778  1.00  0.00     0.001 A 
ATOM     23  C   UNL A   1      36.089  31.702  32.510  1.00  0.00     0.016 A 
ENDBRANCH   8  10
ENDBRANCH   7   8
ENDBRANCH   6   7
ENDBRANCH   5   6
ENDBRANCH   4   5
ENDBRANCH   3   4
ENDBRANCH   2   3
ENDBRANCH   1   2
BRANCH   1  24
ATOM     24  C   UNL A   1      34.360  33.326  28.534  1.00  0.00     0.202 C 
BRANCH  24  25
ATOM     25  C   UNL A   1      34.286  32.112  27.596  1.00  0.00     0.261 C 
BRANCH  25  26
ATOM     26  O   UNL A   1      34.061  30.837  28.202  1.00  0.00    -0.460 OA
BRANCH  26  27
ATOM     27  C   UNL A   1      34.687  29.800  27.593  1.00  0.00     0.338 C 
ATOM     28  O   UNL A   1      34.272  29.125  26.667  1.00  0.00    -0.246 OA
BRANCH  27  29
ATOM     29  C   UNL A   1      36.060  29.695  28.114  1.00  0.00     0.060 A 
ATOM     30  C   UNL A   1      37.129  29.892  27.230  1.00  0.00     0.016 A 
ATOM     31  C   UNL A   1      36.289  29.350  29.446  1.00  0.00     0.016 A 
ATOM     32  C   UNL A   1      38.439  29.719  27.673  1.00  0.00     0.010 A 
ATOM     33  C   UNL A   1      37.601  29.154  29.881  1.00  0.00     0.010 A 
ATOM     34  C   UNL A   1      38.678  29.308  28.990  1.00  0.00    -0.014 A 
BRANCH  34  35
ATOM     35  C   UNL A   1      40.032  28.859  29.392  1.00  0.00     0.031 A 
ATOM     36  C   UNL A   1      40.899  29.811  30.170  1.00  0.00     0.074 A 
ATOM     37  C   UNL A   1      40.485  27.634  29.073  1.00  0.00     0.049 A 
ATOM     38  N   UNL A   1      42.138  29.670  30.563  1.00  0.00    -0.248 NA
ATOM     39  C   UNL A   1      40.285  31.093  30.553  1.00  0.00     0.031 C 
ATOM     40  C   UNL A   1      39.723  26.605  28.366  1.00  0.00     0.029 A 
ATOM     41  N   UNL A   1      41.709  27.056  29.295  1.00  0.00    -0.354 N 
ATOM     42  C   UNL A   1      42.458  30.850  31.226  1.00  0.00     0.074 A 
ATOM     43  C   UNL A   1      41.290  31.702  31.163  1.00  0.00     0.031 C 
ATOM     44  C   UNL A   1      40.505  25.524  28.200  1.00  0.00     0.029 A 
ATOM     45  C   UNL A   1      41.831  25.799  28.753  1.00  0.00     0.049 A 
ATOM     46  H   UNL A   1      42.432  27.498  29.796  1.00  0.00     0.167 HD
ATOM     47  C   UNL A   1      43.618  31.191  31.834  1.00  0.00     0.031 A 
ATOM     48  C   UNL A   1      42.898  24.977  28.685  1.00  0.00     0.031 A 
ATOM     49  C   UNL A   1      44.783  30.350  31.878  1.00  0.00     0.049 A 
ATOM     50  C   UNL A   1      44.206  25.413  29.296  1.00  0.00     0.074 A 
ATOM     51  C   UNL A   1      46.004  30.601  32.478  1.00  0.00     0.029 A 
ATOM     52  N   UNL A   1      44.877  29.098  31.288  1.00  0.00    -0.354 N 
ATOM     53  N   UNL A   1      44.489  26.522  29.939  1.00  0.00    -0.248 NA
ATOM     54  C   UNL A   1      45.338  24.483  29.176  1.00  0.00     0.031 C 
ATOM     55  C   UNL A   1      46.856  29.527  32.199  1.00  0.00     0.029 A 
ATOM     56  C   UNL A   1      46.144  28.577  31.483  1.00  0.00     0.049 A 
ATOM     57  H   UNL A   1      44.150  28.647  30.801  1.00  0.00     0.167 HD
ATOM     58  C   UNL A   1      45.822  26.409  30.324  1.00  0.00     0.074 A 
ATOM     59  C   UNL A   1      46.284  25.119  29.853  1.00  0.00     0.031 C 
ATOM     60  C   UNL A   1      46.591  27.291  31.009  1.00  0.00     0.031 A 
BRANCH  47  61
ATOM     61  C   UNL A   1      43.693  32.557  32.464  1.00  0.00    -0.014 A 
ATOM     62  C   UNL A   1      43.377  32.755  33.821  1.00  0.00     0.010 A 
ATOM     63  C   UNL A   1      44.107  33.656  31.690  1.00  0.00     0.010 A 
ATOM     64  C   UNL A   1      43.434  34.035  34.380  1.00  0.00     0.020 A 
ATOM     65  C   UNL A   1      44.193  34.932  32.253  1.00  0.00     0.020 A 
ATOM     66  C   UNL A   1      43.838  35.116  33.591  1.00  0.00     0.054 A 
BRANCH  66  67
ATOM     67  S   UNL A   1      43.918  36.762  34.347  1.00  0.00     0.124 S 
ATOM     68  O   UNL A   1      42.596  37.300  34.036  1.00  0.00    -0.237 OA
ATOM     69  O   UNL A   1      44.155  36.457  35.756  1.00  0.00    -0.237 OA
ATOM     70  O   UNL A   1      45.031  37.408  33.657  1.00  0.00    -0.744 OA
ENDBRANCH  66  67
ENDBRANCH  47  61
BRANCH  48  71
ATOM     71  C   UNL A   1      42.784  23.665  27.991  1.00  0.00    -0.014 A 
ATOM     72  C   UNL A   1      42.120  22.586  28.603  1.00  0.00     0.010 A 
ATOM     73  C   UNL A   1      43.342  23.486  26.712  1.00  0.00     0.010 A 
ATOM     74  C   UNL A   1      42.031  21.350  27.954  1.00  0.00     0.020 A 
ATOM     75  C   UNL A   1      43.230  22.262  26.049  1.00  0.00     0.020 A 
ATOM     76  C   UNL A   1      42.583  21.197  26.679  1.00  0.00     0.054 A 
BRANCH  76  77
ATOM     77  S   UNL A   1      42.407  19.600  25.835  1.00  0.00     0.124 S 
ATOM     78  O   UNL A   1      43.326  19.747  24.711  1.00  0.00    -0.237 OA
ATOM     79  O   UNL A   1      42.820  18.652  26.868  1.00  0.00    -0.237 OA
ATOM     80  O   UNL A   1      40.990  19.552  25.485  1.00  0.00    -0.744 OA
ENDBRANCH  76  77
ENDBRANCH  48  71
BRANCH  60  81
ATOM     81  C   UNL A   1      48.006  26.882  31.331  1.00  0.00    -0.014 A 
ATOM     82  C   UNL A   1      48.316  26.167  32.502  1.00  0.00     0.010 A 
ATOM     83  C   UNL A   1      49.034  27.165  30.411  1.00  0.00     0.010 A 
ATOM     84  C   UNL A   1      49.631  25.770  32.760  1.00  0.00     0.020 A 
ATOM     85  C   UNL A   1      50.344  26.745  30.652  1.00  0.00     0.020 A 
ATOM     86  C   UNL A   1      50.638  26.061  31.833  1.00  0.00     0.054 A 
BRANCH  86  87
ATOM     87  S   UNL A   1      52.328  25.496  32.171  1.00  0.00     0.124 S 
ATOM     88  O   UNL A   1      53.026  25.875  30.945  1.00  0.00    -0.237 OA
ATOM     89  O   UNL A   1      52.690  26.261  33.362  1.00  0.00    -0.237 OA
ATOM     90  O   UNL A   1      52.177  24.058  32.384  1.00  0.00    -0.744 OA
ENDBRANCH  86  87
ENDBRANCH  60  81
ENDBRANCH  34  35
ENDBRANCH  27  29
ENDBRANCH  26  27
ENDBRANCH  25  26
ENDBRANCH  24  25
ENDBRANCH   1  24
TORSDOF 20
ENDMDL
MODEL 3
REMARK VINA RESULT:      -8.2      1.942      8.392
REMARK SMILES C[C@@H]1c2ccccc2-c2ccc(C(=O)OCCOCCOCCOC(=O)c3ccc(-c4c5nc(c(-c6ccc(S(=O)(=O)[O-])cc6)c6ccc([nH]6)c(-c6ccc(S(=O)(=O)[O-])cc6)c6nc(c(-c7ccc(S(=O)(=O)[O-])cc7)c7ccc4[nH]7)C=C6)C=C5)cc3)cc21
REMARK SMILES IDX 21 1 20 2 19 3 18 4 17 5 16 6 15 7 13 8 14 9 12 10 1 11 2 12
REMARK SMILES IDX 3 13 88 14 4 15 8 16 9 17 87 18 5 19 7 20 10 21 6 22 11 23
REMARK SMILES IDX 22 24 23 25 24 26 25 27 26 28 27 29 28 30 86 31 29 32 85 33
REMARK SMILES IDX 30 34 31 35 32 36 79 37 33 38 84 39 78 40 80 41 34 42 83 43
REMARK SMILES IDX 77 44 76 45 35 47 65 48 46 49 64 50 47 51 50 52 63 53 81 54
REMARK SMILES IDX 48 55 49 56 62 58 82 59 51 60 36 61 37 62 45 63 38 64 44 65
REMARK SMILES IDX 39 66 40 67 41 68 42 69 43 70 66 71 67 72 75 73 68 74 74 75
REMARK SMILES IDX 69 76 70 77 71 78 72 79 73 80 52 81 53 82 61 83 54 84 60 85
REMARK SMILES IDX 55 86 56 87 57 88 58 89 59 90
REMARK H PARENT 80 46 50 57
REMARK Flexibility Score: inf
ROOT
ATOM      1  O   UNL A   1      33.234  34.048  28.991  1.00  0.00    -0.376 OA
ENDROOT
BRANCH   1   2
ATOM      2  C   UNL A   1      33.551  34.947  30.031  1.00  0.00     0.188 C 
BRANCH   2   3
ATOM      3  C   UNL A   1      32.946  36.368  30.057  1.00  0.00     0.188 C 
BRANCH   3   4
ATOM      4  O   UNL A   1      32.413  36.889  31.256  1.00  0.00    -0.376 OA
BRANCH   4   5
ATOM      5  C   UNL A   1      32.504  36.164  32.470  1.00  0.00     0.202 C 
BRANCH   5   6
ATOM      6  C   UNL A   1      33.550  36.442  33.557  1.00  0.00     0.261 C 
BRANCH   6   7
ATOM      7  O   UNL A   1      34.908  36.175  33.197  1.00  0.00    -0.460 OA
BRANCH   7   8
ATOM      8  C   UNL A   1      35.387  34.989  33.663  1.00  0.00     0.338 C 
ATOM      9  O   UNL A   1      34.791  34.172  34.326  1.00  0.00    -0.246 OA
BRANCH   8  10
ATOM     10  C   UNL A   1      36.731  34.731  33.099  1.00  0.00     0.060 A 
ATOM     11  C   UNL A   1      38.371  33.218  29.083  1.00  0.00     0.018 C 
ATOM     12  C   UNL A   1      38.787  34.463  29.857  1.00  0.00     0.047 C 
ATOM     13  C   UNL A   1      40.292  34.522  30.083  1.00  0.00    -0.033 A 
ATOM     14  C   UNL A   1      38.257  34.479  31.287  1.00  0.00    -0.032 A 
ATOM     15  C   UNL A   1      41.300  34.666  29.143  1.00  0.00     0.005 A 
ATOM     16  C   UNL A   1      40.580  34.478  31.464  1.00  0.00    -0.014 A 
ATOM     17  C   UNL A   1      39.337  34.452  32.202  1.00  0.00    -0.014 A 
ATOM     18  C   UNL A   1      36.945  34.608  31.722  1.00  0.00     0.020 A 
ATOM     19  C   UNL A   1      42.618  34.760  29.600  1.00  0.00     0.000 A 
ATOM     20  C   UNL A   1      41.889  34.552  31.915  1.00  0.00     0.009 A 
ATOM     21  C   UNL A   1      39.115  34.499  33.568  1.00  0.00     0.010 A 
ATOM     22  C   UNL A   1      42.910  34.696  30.972  1.00  0.00     0.001 A 
ATOM     23  C   UNL A   1      37.803  34.654  34.015  1.00  0.00     0.016 A 
ENDBRANCH   8  10
ENDBRANCH   7   8
ENDBRANCH   6   7
ENDBRANCH   5   6
ENDBRANCH   4   5
ENDBRANCH   3   4
ENDBRANCH   2   3
ENDBRANCH   1   2
BRANCH   1  24
ATOM     24  C   UNL A   1      34.198  33.124  28.517  1.00  0.00     0.202 C 
BRANCH  24  25
ATOM     25  C   UNL A   1      33.910  32.017  27.492  1.00  0.00     0.261 C 
BRANCH  25  26
ATOM     26  O   UNL A   1      33.827  30.680  27.991  1.00  0.00    -0.460 OA
BRANCH  26  27
ATOM     27  C   UNL A   1      34.648  29.792  27.376  1.00  0.00     0.338 C 
ATOM     28  O   UNL A   1      34.458  29.219  26.318  1.00  0.00    -0.246 OA
BRANCH  27  29
ATOM     29  C   UNL A   1      35.925  29.734  28.107  1.00  0.00     0.060 A 
ATOM     30  C   UNL A   1      37.119  29.832  27.379  1.00  0.00     0.016 A 
ATOM     31  C   UNL A   1      35.943  29.527  29.486  1.00  0.00     0.016 A 
ATOM     32  C   UNL A   1      38.343  29.697  28.031  1.00  0.00     0.010 A 
ATOM     33  C   UNL A   1      37.170  29.369  30.133  1.00  0.00     0.010 A 
ATOM     34  C   UNL A   1      38.373  29.423  29.404  1.00  0.00    -0.014 A 
BRANCH  34  35
ATOM     35  C   UNL A   1      39.641  29.010  30.050  1.00  0.00     0.031 A 
ATOM     36  C   UNL A   1      40.090  29.748  31.282  1.00  0.00     0.074 A 
ATOM     37  C   UNL A   1      40.380  28.001  29.555  1.00  0.00     0.049 A 
ATOM     38  N   UNL A   1      41.193  29.616  31.970  1.00  0.00    -0.248 NA
ATOM     39  C   UNL A   1      39.170  30.773  31.803  1.00  0.00     0.031 C 
ATOM     40  C   UNL A   1      40.027  27.179  28.399  1.00  0.00     0.029 A 
ATOM     41  N   UNL A   1      41.595  27.510  29.963  1.00  0.00    -0.354 N 
ATOM     42  C   UNL A   1      41.108  30.550  32.997  1.00  0.00     0.074 A 
ATOM     43  C   UNL A   1      39.857  31.256  32.827  1.00  0.00     0.031 C 
ATOM     44  C   UNL A   1      41.014  26.291  28.181  1.00  0.00     0.029 A 
ATOM     45  C   UNL A   1      42.082  26.509  29.156  1.00  0.00     0.049 A 
ATOM     46  H   UNL A   1      42.072  27.841  30.757  1.00  0.00     0.167 HD
ATOM     47  C   UNL A   1      41.992  30.796  33.992  1.00  0.00     0.031 A 
ATOM     48  C   UNL A   1      43.266  25.865  29.185  1.00  0.00     0.031 A 
ATOM     49  C   UNL A   1      43.246  30.107  34.145  1.00  0.00     0.049 A 
ATOM     50  C   UNL A   1      44.272  26.214  30.253  1.00  0.00     0.074 A 
ATOM     51  C   UNL A   1      44.207  30.278  35.126  1.00  0.00     0.029 A 
ATOM     52  N   UNL A   1      43.717  29.124  33.289  1.00  0.00    -0.354 N 
ATOM     53  N   UNL A   1      44.171  27.084  31.230  1.00  0.00    -0.248 NA
ATOM     54  C   UNL A   1      45.551  25.490  30.223  1.00  0.00     0.031 C 
ATOM     55  C   UNL A   1      45.286  29.440  34.829  1.00  0.00     0.029 A 
ATOM     56  C   UNL A   1      44.969  28.699  33.700  1.00  0.00     0.049 A 
ATOM     57  H   UNL A   1      43.234  28.780  32.503  1.00  0.00     0.167 HD
ATOM     58  C   UNL A   1      45.361  26.990  31.947  1.00  0.00     0.074 A 
ATOM     59  C   UNL A   1      46.160  25.971  31.299  1.00  0.00     0.031 C 
ATOM     60  C   UNL A   1      45.753  27.683  33.046  1.00  0.00     0.031 A 
BRANCH  47  61
ATOM     61  C   UNL A   1      41.649  31.892  34.966  1.00  0.00    -0.014 A 
ATOM     62  C   UNL A   1      40.712  31.688  35.996  1.00  0.00     0.010 A 
ATOM     63  C   UNL A   1      42.292  33.139  34.863  1.00  0.00     0.010 A 
ATOM     64  C   UNL A   1      40.394  32.725  36.877  1.00  0.00     0.020 A 
ATOM     65  C   UNL A   1      41.998  34.169  35.760  1.00  0.00     0.020 A 
ATOM     66  C   UNL A   1      41.036  33.960  36.751  1.00  0.00     0.054 A 
BRANCH  66  67
ATOM     67  S   UNL A   1      40.614  35.282  37.918  1.00  0.00     0.124 S 
ATOM     68  O   UNL A   1      41.934  35.783  38.295  1.00  0.00    -0.237 OA
ATOM     69  O   UNL A   1      39.810  36.187  37.100  1.00  0.00    -0.237 OA
ATOM     70  O   UNL A   1      39.885  34.591  38.978  1.00  0.00    -0.744 OA
ENDBRANCH  66  67
ENDBRANCH  47  61
BRANCH  48  71
ATOM     71  C   UNL A   1      43.578  24.836  28.155  1.00  0.00    -0.014 A 
ATOM     72  C   UNL A   1      44.277  25.182  26.985  1.00  0.00     0.010 A 
ATOM     73  C   UNL A   1      43.174  23.501  28.339  1.00  0.00     0.010 A 
ATOM     74  C   UNL A   1      44.553  24.215  26.012  1.00  0.00     0.020 A 
ATOM     75  C   UNL A   1      43.472  22.526  27.383  1.00  0.00     0.020 A 
ATOM     76  C   UNL A   1      44.152  22.892  26.220  1.00  0.00     0.054 A 
BRANCH  76  77
ATOM     77  S   UNL A   1      44.568  21.645  24.969  1.00  0.00     0.124 S 
ATOM     78  O   UNL A   1      44.351  22.377  23.725  1.00  0.00    -0.237 OA
ATOM     79  O   UNL A   1      45.960  21.335  25.285  1.00  0.00    -0.237 OA
ATOM     80  O   UNL A   1      43.621  20.565  25.233  1.00  0.00    -0.744 OA
ENDBRANCH  76  77
ENDBRANCH  48  71
BRANCH  60  81
ATOM     81  C   UNL A   1      47.092  27.338  33.647  1.00  0.00    -0.014 A 
ATOM     82  C   UNL A   1      48.280  27.929  33.180  1.00  0.00     0.010 A 
ATOM     83  C   UNL A   1      47.152  26.454  34.740  1.00  0.00     0.010 A 
ATOM     84  C   UNL A   1      49.506  27.617  33.777  1.00  0.00     0.020 A 
ATOM     85  C   UNL A   1      48.371  26.163  35.359  1.00  0.00     0.020 A 
ATOM     86  C   UNL A   1      49.544  26.736  34.863  1.00  0.00     0.054 A 
BRANCH  86  87
ATOM     87  S   UNL A   1      51.140  26.384  35.648  1.00  0.00     0.124 S 
ATOM     88  O   UNL A   1      51.822  25.609  34.615  1.00  0.00    -0.237 OA
ATOM     89  O   UNL A   1      51.680  27.719  35.892  1.00  0.00    -0.237 OA
ATOM     90  O   UNL A   1      50.778  25.636  36.851  1.00  0.00    -0.744 OA
ENDBRANCH  86  87
ENDBRANCH  60  81
ENDBRANCH  34  35
ENDBRANCH  27  29
ENDBRANCH  26  27
ENDBRANCH  25  26
ENDBRANCH  24  25
ENDBRANCH   1  24
TORSDOF 20
ENDMDL
