MODEL 1
REMARK VINA RESULT:      -8.4      0.000      0.000
REMARK SMILES C=CCCC[C@@]1(C(=O)OCCOCCOCCOC(=O)c2ccc(-c3c4nc(c(-c5ccc(S(=O)(=O)[O-])cc5)c5ccc([nH]5)c(-c5ccc(S(=O)(=O)[O-])cc5)c5nc(c(-c6ccc(S(=O)(=O)[O-])cc6)c6ccc3[nH]6)C=C5)C=C4)cc2)CCCN(C(=O)OC(C)(C)C)C1
REMARK SMILES IDX 13 1 12 2 11 3 10 4 9 5 7 6 8 7 6 8 81 9 92 10 82 11 84 12
REMARK SMILES IDX 83 13 5 14 4 15 3 16 2 17 1 18 85 19 86 20 87 21 88 22 89 23
REMARK SMILES IDX 90 24 91 25 14 26 15 27 16 28 17 29 18 30 19 31 20 32 21 33
REMARK SMILES IDX 22 34 80 35 23 36 79 37 24 38 25 39 26 40 73 41 27 42 78 43
REMARK SMILES IDX 72 44 74 45 28 46 77 47 71 48 70 49 29 51 59 52 40 53 58 54
REMARK SMILES IDX 41 55 44 56 57 57 75 58 42 59 43 60 56 62 76 63 45 64 30 65
REMARK SMILES IDX 31 66 39 67 32 68 38 69 33 70 34 71 35 72 36 73 37 74 60 75
REMARK SMILES IDX 61 76 69 77 62 78 68 79 63 80 64 81 65 82 66 83 67 84 46 85
REMARK SMILES IDX 47 86 55 87 48 88 54 89 49 90 50 91 51 92 52 93 53 94
REMARK H PARENT 74 50 44 61
REMARK Flexibility Score: inf
ROOT
ATOM      1  C   UNL A   1      40.993  24.360  26.716  1.00  0.00     0.188 C 
ENDROOT
BRANCH   1   2
ATOM      2  O   UNL A   1      39.852  23.646  27.158  1.00  0.00    -0.376 OA
BRANCH   2   3
ATOM      3  C   UNL A   1      38.947  23.222  26.156  1.00  0.00     0.202 C 
BRANCH   3   4
ATOM      4  C   UNL A   1      37.645  24.016  26.102  1.00  0.00     0.261 C 
BRANCH   4   5
ATOM      5  O   UNL A   1      36.957  23.946  24.825  1.00  0.00    -0.463 OA
BRANCH   5   6
ATOM      6  C   UNL A   1      36.244  22.814  24.572  1.00  0.00     0.313 C 
ATOM      7  O   UNL A   1      36.692  21.844  23.968  1.00  0.00    -0.252 OA
BRANCH   6   8
ATOM      8  C   UNL A   1      34.774  22.879  24.975  1.00  0.00     0.086 C 
ATOM      9  C   UNL A   1      33.808  21.836  24.373  1.00  0.00     0.022 C 
ATOM     10  C   UNL A   1      34.230  24.354  24.701  1.00  0.00     0.141 C 
ATOM     11  C   UNL A   1      33.167  22.200  23.030  1.00  0.00     0.023 C 
ATOM     12  N   UNL A   1      33.557  24.610  23.386  1.00  0.00    -0.307 N 
ATOM     13  C   UNL A   1      32.604  23.611  22.965  1.00  0.00     0.123 C 
BRANCH   8  14
ATOM     14  C   UNL A   1      34.911  22.593  26.533  1.00  0.00     0.021 C 
BRANCH  14  15
ATOM     15  C   UNL A   1      33.765  21.839  27.287  1.00  0.00     0.005 C 
BRANCH  15  16
ATOM     16  C   UNL A   1      32.545  22.558  27.913  1.00  0.00     0.027 C 
BRANCH  16  17
ATOM     17  C   UNL A   1      31.611  23.297  26.995  1.00  0.00    -0.035 C 
ATOM     18  C   UNL A   1      30.339  22.923  26.774  1.00  0.00     0.004 C 
ENDBRANCH  16  17
ENDBRANCH  15  16
ENDBRANCH  14  15
ENDBRANCH   8  14
BRANCH  12  19
ATOM     19  C   UNL A   1      33.419  25.947  22.883  1.00  0.00     0.410 C 
ATOM     20  O   UNL A   1      33.855  26.243  21.784  1.00  0.00    -0.224 OA
BRANCH  19  21
ATOM     21  O   UNL A   1      32.793  26.844  23.736  1.00  0.00    -0.444 OA
BRANCH  21  22
ATOM     22  C   UNL A   1      32.509  28.300  23.498  1.00  0.00     0.106 C 
ATOM     23  C   UNL A   1      31.496  28.607  22.393  1.00  0.00     0.056 C 
ATOM     24  C   UNL A   1      32.080  29.121  24.739  1.00  0.00     0.056 C 
ATOM     25  C   UNL A   1      33.878  28.907  23.143  1.00  0.00     0.056 C 
ENDBRANCH  21  22
ENDBRANCH  19  21
ENDBRANCH  12  19
ENDBRANCH   6   8
ENDBRANCH   5   6
ENDBRANCH   4   5
ENDBRANCH   3   4
ENDBRANCH   2   3
ENDBRANCH   1   2
BRANCH   1  26
ATOM     26  C   UNL A   1      40.752  25.743  26.092  1.00  0.00     0.188 C 
BRANCH  26  27
ATOM     27  O   UNL A   1      41.789  26.346  25.339  1.00  0.00    -0.376 OA
BRANCH  27  28
ATOM     28  C   UNL A   1      43.028  25.664  25.218  1.00  0.00     0.202 C 
BRANCH  28  29
ATOM     29  C   UNL A   1      44.315  26.501  25.048  1.00  0.00     0.261 C 
BRANCH  29  30
ATOM     30  O   UNL A   1      45.075  26.886  26.232  1.00  0.00    -0.460 OA
BRANCH  30  31
ATOM     31  C   UNL A   1      44.664  26.244  27.346  1.00  0.00     0.338 C 
ATOM     32  O   UNL A   1      45.146  25.180  27.709  1.00  0.00    -0.246 OA
BRANCH  31  33
ATOM     33  C   UNL A   1      43.640  26.811  28.234  1.00  0.00     0.060 A 
ATOM     34  C   UNL A   1      43.702  28.205  28.380  1.00  0.00     0.016 A 
ATOM     35  C   UNL A   1      42.989  26.043  29.196  1.00  0.00     0.016 A 
ATOM     36  C   UNL A   1      43.230  28.823  29.532  1.00  0.00     0.010 A 
ATOM     37  C   UNL A   1      42.439  26.683  30.319  1.00  0.00     0.010 A 
ATOM     38  C   UNL A   1      42.572  28.074  30.505  1.00  0.00    -0.014 A 
BRANCH  38  39
ATOM     39  C   UNL A   1      41.905  28.754  31.643  1.00  0.00     0.031 A 
ATOM     40  C   UNL A   1      40.675  29.593  31.454  1.00  0.00     0.074 A 
ATOM     41  C   UNL A   1      42.493  28.665  32.852  1.00  0.00     0.049 A 
ATOM     42  N   UNL A   1      40.202  30.542  32.219  1.00  0.00    -0.248 NA
ATOM     43  C   UNL A   1      39.863  29.324  30.259  1.00  0.00     0.031 C 
ATOM     44  C   UNL A   1      43.609  27.774  33.190  1.00  0.00     0.029 A 
ATOM     45  N   UNL A   1      42.273  29.371  34.006  1.00  0.00    -0.354 N 
ATOM     46  C   UNL A   1      39.059  31.017  31.581  1.00  0.00     0.074 A 
ATOM     47  C   UNL A   1      38.897  30.232  30.375  1.00  0.00     0.031 C 
ATOM     48  C   UNL A   1      44.014  28.028  34.439  1.00  0.00     0.029 A 
ATOM     49  C   UNL A   1      43.258  29.163  34.943  1.00  0.00     0.049 A 
ATOM     50  H   UNL A   1      41.497  29.961  34.148  1.00  0.00     0.167 HD
ATOM     51  C   UNL A   1      38.248  32.033  31.969  1.00  0.00     0.031 A 
ATOM     52  C   UNL A   1      43.595  29.871  36.036  1.00  0.00     0.031 A 
ATOM     53  C   UNL A   1      38.462  32.793  33.178  1.00  0.00     0.049 A 
ATOM     54  C   UNL A   1      42.787  31.084  36.375  1.00  0.00     0.074 A 
ATOM     55  C   UNL A   1      37.734  33.864  33.668  1.00  0.00     0.029 A 
ATOM     56  N   UNL A   1      39.486  32.560  34.088  1.00  0.00    -0.354 N 
ATOM     57  N   UNL A   1      41.762  31.590  35.731  1.00  0.00    -0.248 NA
ATOM     58  C   UNL A   1      43.175  31.824  37.580  1.00  0.00     0.031 C 
ATOM     59  C   UNL A   1      38.353  34.313  34.838  1.00  0.00     0.029 A 
ATOM     60  C   UNL A   1      39.424  33.479  35.121  1.00  0.00     0.049 A 
ATOM     61  H   UNL A   1      40.157  31.845  34.009  1.00  0.00     0.167 HD
ATOM     62  C   UNL A   1      41.352  32.685  36.478  1.00  0.00     0.074 A 
ATOM     63  C   UNL A   1      42.247  32.771  37.616  1.00  0.00     0.031 C 
ATOM     64  C   UNL A   1      40.320  33.532  36.250  1.00  0.00     0.031 A 
BRANCH  51  65
ATOM     65  C   UNL A   1      37.113  32.441  31.061  1.00  0.00    -0.014 A 
ATOM     66  C   UNL A   1      35.773  32.134  31.355  1.00  0.00     0.010 A 
ATOM     67  C   UNL A   1      37.393  33.217  29.919  1.00  0.00     0.010 A 
ATOM     68  C   UNL A   1      34.742  32.563  30.507  1.00  0.00     0.020 A 
ATOM     69  C   UNL A   1      36.365  33.669  29.083  1.00  0.00     0.020 A 
ATOM     70  C   UNL A   1      35.046  33.324  29.373  1.00  0.00     0.054 A 
BRANCH  70  71
ATOM     71  S   UNL A   1      33.691  33.875  28.297  1.00  0.00     0.124 S 
ATOM     72  O   UNL A   1      34.369  34.830  27.423  1.00  0.00    -0.237 OA
ATOM     73  O   UNL A   1      33.261  32.634  27.656  1.00  0.00    -0.237 OA
ATOM     74  O   UNL A   1      32.724  34.462  29.223  1.00  0.00    -0.744 OA
ENDBRANCH  70  71
ENDBRANCH  51  65
BRANCH  52  75
ATOM     75  C   UNL A   1      44.797  29.475  36.816  1.00  0.00    -0.014 A 
ATOM     76  C   UNL A   1      44.710  28.481  37.802  1.00  0.00     0.010 A 
ATOM     77  C   UNL A   1      46.055  30.035  36.516  1.00  0.00     0.010 A 
ATOM     78  C   UNL A   1      45.857  28.056  38.478  1.00  0.00     0.020 A 
ATOM     79  C   UNL A   1      47.209  29.591  37.168  1.00  0.00     0.020 A 
ATOM     80  C   UNL A   1      47.099  28.610  38.153  1.00  0.00     0.054 A 
BRANCH  80  81
ATOM     81  S   UNL A   1      48.578  27.992  39.003  1.00  0.00     0.124 S 
ATOM     82  O   UNL A   1      48.604  28.818  40.205  1.00  0.00    -0.237 OA
ATOM     83  O   UNL A   1      48.257  26.582  39.210  1.00  0.00    -0.237 OA
ATOM     84  O   UNL A   1      49.654  28.244  38.046  1.00  0.00    -0.744 OA
ENDBRANCH  80  81
ENDBRANCH  52  75
BRANCH  64  85
ATOM     85  C   UNL A   1      40.052  34.581  37.291  1.00  0.00    -0.014 A 
ATOM     86  C   UNL A   1      39.140  34.361  38.336  1.00  0.00     0.010 A 
ATOM     87  C   UNL A   1      40.791  35.778  37.256  1.00  0.00     0.010 A 
ATOM     88  C   UNL A   1      38.968  35.328  39.329  1.00  0.00     0.020 A 
ATOM     89  C   UNL A   1      40.640  36.734  38.261  1.00  0.00     0.020 A 
ATOM     90  C   UNL A   1      39.725  36.504  39.289  1.00  0.00     0.054 A 
BRANCH  90  91
ATOM     91  S   UNL A   1      39.547  37.702  40.638  1.00  0.00     0.124 S 
ATOM     92  O   UNL A   1      40.883  38.290  40.700  1.00  0.00    -0.237 OA
ATOM     93  O   UNL A   1      38.494  38.586  40.143  1.00  0.00    -0.237 OA
ATOM     94  O   UNL A   1      39.175  36.880  41.787  1.00  0.00    -0.744 OA
ENDBRANCH  90  91
ENDBRANCH  64  85
ENDBRANCH  38  39
ENDBRANCH  31  33
ENDBRANCH  30  31
ENDBRANCH  29  30
ENDBRANCH  28  29
ENDBRANCH  27  28
ENDBRANCH  26  27
ENDBRANCH   1  26
TORSDOF 27
ENDMDL
MODEL 2
REMARK VINA RESULT:      -7.0      6.751      9.349
REMARK SMILES C=CCCC[C@@]1(C(=O)OCCOCCOCCOC(=O)c2ccc(-c3c4nc(c(-c5ccc(S(=O)(=O)[O-])cc5)c5ccc([nH]5)c(-c5ccc(S(=O)(=O)[O-])cc5)c5nc(c(-c6ccc(S(=O)(=O)[O-])cc6)c6ccc3[nH]6)C=C5)C=C4)cc2)CCCN(C(=O)OC(C)(C)C)C1
REMARK SMILES IDX 13 1 12 2 11 3 10 4 9 5 7 6 8 7 6 8 81 9 92 10 82 11 84 12
REMARK SMILES IDX 83 13 5 14 4 15 3 16 2 17 1 18 85 19 86 20 87 21 88 22 89 23
REMARK SMILES IDX 90 24 91 25 14 26 15 27 16 28 17 29 18 30 19 31 20 32 21 33
REMARK SMILES IDX 22 34 80 35 23 36 79 37 24 38 25 39 26 40 73 41 27 42 78 43
REMARK SMILES IDX 72 44 74 45 28 46 77 47 71 48 70 49 29 51 59 52 40 53 58 54
REMARK SMILES IDX 41 55 44 56 57 57 75 58 42 59 43 60 56 62 76 63 45 64 30 65
REMARK SMILES IDX 31 66 39 67 32 68 38 69 33 70 34 71 35 72 36 73 37 74 60 75
REMARK SMILES IDX 61 76 69 77 62 78 68 79 63 80 64 81 65 82 66 83 67 84 46 85
REMARK SMILES IDX 47 86 55 87 48 88 54 89 49 90 50 91 51 92 52 93 53 94
REMARK H PARENT 74 50 44 61
REMARK Flexibility Score: inf
ROOT
ATOM      1  C   UNL A   1      42.856  24.479  27.826  1.00  0.00     0.188 C 
ENDROOT
BRANCH   1   2
ATOM      2  O   UNL A   1      42.788  25.824  27.388  1.00  0.00    -0.376 OA
BRANCH   2   3
ATOM      3  C   UNL A   1      41.495  26.393  27.298  1.00  0.00     0.202 C 
BRANCH   3   4
ATOM      4  C   UNL A   1      41.345  27.735  28.008  1.00  0.00     0.261 C 
BRANCH   4   5
ATOM      5  O   UNL A   1      39.980  28.228  28.067  1.00  0.00    -0.463 OA
BRANCH   5   6
ATOM      6  C   UNL A   1      39.759  29.341  28.819  1.00  0.00     0.313 C 
ATOM      7  O   UNL A   1      40.630  30.158  29.104  1.00  0.00    -0.252 OA
BRANCH   6   8
ATOM      8  C   UNL A   1      38.360  29.444  29.417  1.00  0.00     0.086 C 
ATOM      9  C   UNL A   1      37.152  29.230  28.480  1.00  0.00     0.022 C 
ATOM     10  C   UNL A   1      38.226  30.840  30.177  1.00  0.00     0.141 C 
ATOM     11  C   UNL A   1      36.629  30.473  27.752  1.00  0.00     0.023 C 
ATOM     12  N   UNL A   1      37.644  31.991  29.412  1.00  0.00    -0.307 N 
ATOM     13  C   UNL A   1      36.459  31.696  28.640  1.00  0.00     0.123 C 
BRANCH   8  14
ATOM     14  C   UNL A   1      38.417  28.230  30.443  1.00  0.00     0.021 C 
BRANCH  14  15
ATOM     15  C   UNL A   1      38.493  28.516  31.979  1.00  0.00     0.005 C 
BRANCH  15  16
ATOM     16  C   UNL A   1      39.626  27.978  32.888  1.00  0.00     0.027 C 
BRANCH  16  17
ATOM     17  C   UNL A   1      40.800  28.876  33.163  1.00  0.00    -0.035 C 
ATOM     18  C   UNL A   1      41.788  28.562  34.018  1.00  0.00     0.004 C 
ENDBRANCH  16  17
ENDBRANCH  15  16
ENDBRANCH  14  15
ENDBRANCH   8  14
BRANCH  12  19
ATOM     19  C   UNL A   1      37.865  33.342  29.842  1.00  0.00     0.410 C 
ATOM     20  O   UNL A   1      38.415  34.144  29.107  1.00  0.00    -0.224 OA
BRANCH  19  21
ATOM     21  O   UNL A   1      37.437  33.636  31.129  1.00  0.00    -0.444 OA
BRANCH  21  22
ATOM     22  C   UNL A   1      36.027  33.685  31.643  1.00  0.00     0.106 C 
ATOM     23  C   UNL A   1      34.963  34.111  30.629  1.00  0.00     0.056 C 
ATOM     24  C   UNL A   1      35.506  32.393  32.321  1.00  0.00     0.056 C 
ATOM     25  C   UNL A   1      36.076  34.687  32.810  1.00  0.00     0.056 C 
ENDBRANCH  21  22
ENDBRANCH  19  21
ENDBRANCH  12  19
ENDBRANCH   6   8
ENDBRANCH   5   6
ENDBRANCH   4   5
ENDBRANCH   3   4
ENDBRANCH   2   3
ENDBRANCH   1   2
BRANCH   1  26
ATOM     26  C   UNL A   1      44.028  23.634  27.306  1.00  0.00     0.188 C 
BRANCH  26  27
ATOM     27  O   UNL A   1      44.247  23.553  25.908  1.00  0.00    -0.376 OA
BRANCH  27  28
ATOM     28  C   UNL A   1      45.551  23.802  25.407  1.00  0.00     0.202 C 
BRANCH  28  29
ATOM     29  C   UNL A   1      45.998  25.268  25.213  1.00  0.00     0.261 C 
BRANCH  29  30
ATOM     30  O   UNL A   1      47.156  25.762  25.947  1.00  0.00    -0.460 OA
BRANCH  30  31
ATOM     31  C   UNL A   1      46.838  26.220  27.176  1.00  0.00     0.338 C 
ATOM     32  O   UNL A   1      46.439  25.485  28.070  1.00  0.00    -0.246 OA
BRANCH  31  33
ATOM     33  C   UNL A   1      47.001  27.633  27.544  1.00  0.00     0.060 A 
ATOM     34  C   UNL A   1      47.778  27.850  28.693  1.00  0.00     0.016 A 
ATOM     35  C   UNL A   1      46.116  28.616  27.112  1.00  0.00     0.016 A 
ATOM     36  C   UNL A   1      47.589  28.982  29.477  1.00  0.00     0.010 A 
ATOM     37  C   UNL A   1      45.991  29.797  27.863  1.00  0.00     0.010 A 
ATOM     38  C   UNL A   1      46.710  29.980  29.060  1.00  0.00    -0.014 A 
BRANCH  38  39
ATOM     39  C   UNL A   1      46.646  31.268  29.795  1.00  0.00     0.031 A 
ATOM     40  C   UNL A   1      45.533  31.578  30.754  1.00  0.00     0.074 A 
ATOM     41  C   UNL A   1      47.580  32.195  29.509  1.00  0.00     0.049 A 
ATOM     42  N   UNL A   1      45.107  32.742  31.169  1.00  0.00    -0.248 NA
ATOM     43  C   UNL A   1      44.815  30.434  31.333  1.00  0.00     0.031 C 
ATOM     44  C   UNL A   1      48.784  31.967  28.701  1.00  0.00     0.029 A 
ATOM     45  N   UNL A   1      47.637  33.530  29.816  1.00  0.00    -0.354 N 
ATOM     46  C   UNL A   1      44.041  32.479  32.026  1.00  0.00     0.074 A 
ATOM     47  C   UNL A   1      43.903  31.039  32.089  1.00  0.00     0.031 C 
ATOM     48  C   UNL A   1      49.425  33.127  28.527  1.00  0.00     0.029 A 
ATOM     49  C   UNL A   1      48.623  34.186  29.117  1.00  0.00     0.049 A 
ATOM     50  H   UNL A   1      47.038  33.969  30.463  1.00  0.00     0.167 HD
ATOM     51  C   UNL A   1      43.248  33.372  32.670  1.00  0.00     0.031 A 
ATOM     52  C   UNL A   1      48.807  35.497  28.879  1.00  0.00     0.031 A 
ATOM     53  C   UNL A   1      43.422  34.801  32.562  1.00  0.00     0.049 A 
ATOM     54  C   UNL A   1      47.836  36.471  29.468  1.00  0.00     0.074 A 
ATOM     55  C   UNL A   1      42.670  35.811  33.137  1.00  0.00     0.029 A 
ATOM     56  N   UNL A   1      44.424  35.421  31.826  1.00  0.00    -0.354 N 
ATOM     57  N   UNL A   1      46.778  36.227  30.204  1.00  0.00    -0.248 NA
ATOM     58  C   UNL A   1      48.075  37.892  29.197  1.00  0.00     0.031 C 
ATOM     59  C   UNL A   1      43.179  37.037  32.700  1.00  0.00     0.029 A 
ATOM     60  C   UNL A   1      44.295  36.797  31.912  1.00  0.00     0.049 A 
ATOM     61  H   UNL A   1      45.123  34.951  31.318  1.00  0.00     0.167 HD
ATOM     62  C   UNL A   1      46.248  37.468  30.525  1.00  0.00     0.074 A 
ATOM     63  C   UNL A   1      47.098  38.459  29.893  1.00  0.00     0.031 C 
ATOM     64  C   UNL A   1      45.166  37.761  31.285  1.00  0.00     0.031 A 
BRANCH  51  65
ATOM     65  C   UNL A   1      42.080  32.854  33.476  1.00  0.00    -0.014 A 
ATOM     66  C   UNL A   1      42.152  32.681  34.869  1.00  0.00     0.010 A 
ATOM     67  C   UNL A   1      40.856  32.602  32.826  1.00  0.00     0.010 A 
ATOM     68  C   UNL A   1      41.035  32.234  35.589  1.00  0.00     0.020 A 
ATOM     69  C   UNL A   1      39.731  32.179  33.544  1.00  0.00     0.020 A 
ATOM     70  C   UNL A   1      39.833  31.981  34.921  1.00  0.00     0.054 A 
BRANCH  70  71
ATOM     71  S   UNL A   1      38.398  31.413  35.878  1.00  0.00     0.124 S 
ATOM     72  O   UNL A   1      38.799  31.740  37.245  1.00  0.00    -0.237 OA
ATOM     73  O   UNL A   1      37.307  32.218  35.335  1.00  0.00    -0.237 OA
ATOM     74  O   UNL A   1      38.322  29.984  35.580  1.00  0.00    -0.744 OA
ENDBRANCH  70  71
ENDBRANCH  51  65
BRANCH  52  75
ATOM     75  C   UNL A   1      49.912  35.924  27.979  1.00  0.00    -0.014 A 
ATOM     76  C   UNL A   1      49.681  36.107  26.607  1.00  0.00     0.010 A 
ATOM     77  C   UNL A   1      51.182  36.229  28.508  1.00  0.00     0.010 A 
ATOM     78  C   UNL A   1      50.701  36.584  25.779  1.00  0.00     0.020 A 
ATOM     79  C   UNL A   1      52.195  36.734  27.688  1.00  0.00     0.020 A 
ATOM     80  C   UNL A   1      51.949  36.899  26.325  1.00  0.00     0.054 A 
BRANCH  80  81
ATOM     81  S   UNL A   1      53.232  37.576  25.237  1.00  0.00     0.124 S 
ATOM     82  O   UNL A   1      54.431  36.903  25.726  1.00  0.00    -0.237 OA
ATOM     83  O   UNL A   1      52.771  37.166  23.912  1.00  0.00    -0.237 OA
ATOM     84  O   UNL A   1      53.174  39.015  25.489  1.00  0.00    -0.744 OA
ENDBRANCH  80  81
ENDBRANCH  52  75
BRANCH  64  85
ATOM     85  C   UNL A   1      44.881  39.213  31.541  1.00  0.00    -0.014 A 
ATOM     86  C   UNL A   1      45.738  40.001  32.327  1.00  0.00     0.010 A 
ATOM     87  C   UNL A   1      43.771  39.810  30.914  1.00  0.00     0.010 A 
ATOM     88  C   UNL A   1      45.484  41.364  32.487  1.00  0.00     0.020 A 
ATOM     89  C   UNL A   1      43.531  41.177  31.050  1.00  0.00     0.020 A 
ATOM     90  C   UNL A   1      44.388  41.945  31.840  1.00  0.00     0.054 A 
BRANCH  90  91
ATOM     91  S   UNL A   1      44.132  43.734  31.990  1.00  0.00     0.124 S 
ATOM     92  O   UNL A   1      44.854  44.243  30.827  1.00  0.00    -0.237 OA
ATOM     93  O   UNL A   1      42.678  43.854  31.930  1.00  0.00    -0.237 OA
ATOM     94  O   UNL A   1      44.726  44.062  33.285  1.00  0.00    -0.744 OA
ENDBRANCH  90  91
ENDBRANCH  64  85
ENDBRANCH  38  39
ENDBRANCH  31  33
ENDBRANCH  30  31
ENDBRANCH  29  30
ENDBRANCH  28  29
ENDBRANCH  27  28
ENDBRANCH  26  27
ENDBRANCH   1  26
TORSDOF 27
ENDMDL
MODEL 3
REMARK VINA RESULT:      -6.9      7.557     14.661
REMARK SMILES C=CCCC[C@@]1(C(=O)OCCOCCOCCOC(=O)c2ccc(-c3c4nc(c(-c5ccc(S(=O)(=O)[O-])cc5)c5ccc([nH]5)c(-c5ccc(S(=O)(=O)[O-])cc5)c5nc(c(-c6ccc(S(=O)(=O)[O-])cc6)c6ccc3[nH]6)C=C5)C=C4)cc2)CCCN(C(=O)OC(C)(C)C)C1
REMARK SMILES IDX 13 1 12 2 11 3 10 4 9 5 7 6 8 7 6 8 81 9 92 10 82 11 84 12
REMARK SMILES IDX 83 13 5 14 4 15 3 16 2 17 1 18 85 19 86 20 87 21 88 22 89 23
REMARK SMILES IDX 90 24 91 25 14 26 15 27 16 28 17 29 18 30 19 31 20 32 21 33
REMARK SMILES IDX 22 34 80 35 23 36 79 37 24 38 25 39 26 40 73 41 27 42 78 43
REMARK SMILES IDX 72 44 74 45 28 46 77 47 71 48 70 49 29 51 59 52 40 53 58 54
REMARK SMILES IDX 41 55 44 56 57 57 75 58 42 59 43 60 56 62 76 63 45 64 30 65
REMARK SMILES IDX 31 66 39 67 32 68 38 69 33 70 34 71 35 72 36 73 37 74 60 75
REMARK SMILES IDX 61 76 69 77 62 78 68 79 63 80 64 81 65 82 66 83 67 84 46 85
REMARK SMILES IDX 47 86 55 87 48 88 54 89 49 90 50 91 51 92 52 93 53 94
REMARK H PARENT 74 50 44 61
REMARK Flexibility Score: inf
ROOT
ATOM      1  C   UNL A   1      49.056  19.416  38.876  1.00  0.00     0.188 C 
ENDROOT
BRANCH   1   2
ATOM      2  O   UNL A   1      48.816  18.329  39.754  1.00  0.00    -0.376 OA
BRANCH   2   3
ATOM      3  C   UNL A   1      48.433  18.659  41.075  1.00  0.00     0.202 C 
BRANCH   3   4
ATOM      4  C   UNL A   1      46.958  19.012  41.237  1.00  0.00     0.261 C 
BRANCH   4   5
ATOM      5  O   UNL A   1      46.615  19.556  42.539  1.00  0.00    -0.463 OA
BRANCH   5   6
ATOM      6  C   UNL A   1      45.316  19.442  42.930  1.00  0.00     0.313 C 
ATOM      7  O   UNL A   1      44.418  20.189  42.549  1.00  0.00    -0.252 OA
BRANCH   6   8
ATOM      8  C   UNL A   1      45.060  18.389  44.004  1.00  0.00     0.086 C 
ATOM      9  C   UNL A   1      46.251  17.528  44.477  1.00  0.00     0.022 C 
ATOM     10  C   UNL A   1      43.858  17.453  43.530  1.00  0.00     0.141 C 
ATOM     11  C   UNL A   1      46.521  16.248  43.681  1.00  0.00     0.023 C 
ATOM     12  N   UNL A   1      44.211  16.184  42.814  1.00  0.00    -0.307 N 
ATOM     13  C   UNL A   1      45.282  15.411  43.398  1.00  0.00     0.123 C 
BRANCH   8  14
ATOM     14  C   UNL A   1      44.618  19.334  45.205  1.00  0.00     0.021 C 
BRANCH  14  15
ATOM     15  C   UNL A   1      45.654  20.325  45.833  1.00  0.00     0.005 C 
BRANCH  15  16
ATOM     16  C   UNL A   1      45.320  21.262  47.020  1.00  0.00     0.027 C 
BRANCH  16  17
ATOM     17  C   UNL A   1      46.391  22.198  47.507  1.00  0.00    -0.035 C 
ATOM     18  C   UNL A   1      47.628  22.245  46.983  1.00  0.00     0.004 C 
ENDBRANCH  16  17
ENDBRANCH  15  16
ENDBRANCH  14  15
ENDBRANCH   8  14
BRANCH  12  19
ATOM     19  C   UNL A   1      43.241  15.508  42.000  1.00  0.00     0.410 C 
ATOM     20  O   UNL A   1      43.329  15.529  40.785  1.00  0.00    -0.224 OA
BRANCH  19  21
ATOM     21  O   UNL A   1      42.218  14.877  42.693  1.00  0.00    -0.444 OA
BRANCH  21  22
ATOM     22  C   UNL A   1      41.988  13.401  42.856  1.00  0.00     0.106 C 
ATOM     23  C   UNL A   1      41.765  12.616  41.562  1.00  0.00     0.056 C 
ATOM     24  C   UNL A   1      43.061  12.632  43.666  1.00  0.00     0.056 C 
ATOM     25  C   UNL A   1      40.744  13.301  43.756  1.00  0.00     0.056 C 
ENDBRANCH  21  22
ENDBRANCH  19  21
ENDBRANCH  12  19
ENDBRANCH   6   8
ENDBRANCH   5   6
ENDBRANCH   4   5
ENDBRANCH   3   4
ENDBRANCH   2   3
ENDBRANCH   1   2
BRANCH   1  26
ATOM     26  C   UNL A   1      49.670  20.683  39.489  1.00  0.00     0.188 C 
BRANCH  26  27
ATOM     27  O   UNL A   1      49.684  21.877  38.725  1.00  0.00    -0.376 OA
BRANCH  27  28
ATOM     28  C   UNL A   1      48.737  22.890  39.028  1.00  0.00     0.202 C 
BRANCH  28  29
ATOM     29  C   UNL A   1      47.458  22.982  38.167  1.00  0.00     0.261 C 
BRANCH  29  30
ATOM     30  O   UNL A   1      47.264  24.141  37.304  1.00  0.00    -0.460 OA
BRANCH  30  31
ATOM     31  C   UNL A   1      45.965  24.357  37.007  1.00  0.00     0.338 C 
ATOM     32  O   UNL A   1      45.053  23.995  37.738  1.00  0.00    -0.246 OA
BRANCH  31  33
ATOM     33  C   UNL A   1      45.557  25.096  35.804  1.00  0.00     0.060 A 
ATOM     34  C   UNL A   1      46.226  26.315  35.614  1.00  0.00     0.016 A 
ATOM     35  C   UNL A   1      44.332  24.875  35.182  1.00  0.00     0.016 A 
ATOM     36  C   UNL A   1      45.628  27.354  34.912  1.00  0.00     0.010 A 
ATOM     37  C   UNL A   1      43.770  25.901  34.402  1.00  0.00     0.010 A 
ATOM     38  C   UNL A   1      44.403  27.153  34.277  1.00  0.00    -0.014 A 
BRANCH  38  39
ATOM     39  C   UNL A   1      43.853  28.196  33.375  1.00  0.00     0.031 A 
ATOM     40  C   UNL A   1      44.275  28.304  31.939  1.00  0.00     0.074 A 
ATOM     41  C   UNL A   1      43.017  29.105  33.913  1.00  0.00     0.049 A 
ATOM     42  N   UNL A   1      44.213  29.337  31.140  1.00  0.00    -0.248 NA
ATOM     43  C   UNL A   1      44.826  27.094  31.314  1.00  0.00     0.031 C 
ATOM     44  C   UNL A   1      42.429  29.029  35.255  1.00  0.00     0.029 A 
ATOM     45  N   UNL A   1      42.563  30.301  33.421  1.00  0.00    -0.354 N 
ATOM     46  C   UNL A   1      44.755  28.919  29.927  1.00  0.00     0.074 A 
ATOM     47  C   UNL A   1      45.119  27.527  30.091  1.00  0.00     0.031 C 
ATOM     48  C   UNL A   1      41.743  30.150  35.501  1.00  0.00     0.029 A 
ATOM     49  C   UNL A   1      41.935  31.059  34.382  1.00  0.00     0.049 A 
ATOM     50  H   UNL A   1      42.673  30.586  32.484  1.00  0.00     0.167 HD
ATOM     51  C   UNL A   1      44.946  29.652  28.802  1.00  0.00     0.031 A 
ATOM     52  C   UNL A   1      41.642  32.370  34.414  1.00  0.00     0.031 A 
ATOM     53  C   UNL A   1      44.574  31.043  28.696  1.00  0.00     0.049 A 
ATOM     54  C   UNL A   1      41.996  33.208  33.225  1.00  0.00     0.074 A 
ATOM     55  C   UNL A   1      44.741  31.906  27.625  1.00  0.00     0.029 A 
ATOM     56  N   UNL A   1      43.959  31.776  29.703  1.00  0.00    -0.354 N 
ATOM     57  N   UNL A   1      42.587  32.840  32.112  1.00  0.00    -0.248 NA
ATOM     58  C   UNL A   1      41.650  34.631  33.290  1.00  0.00     0.031 C 
ATOM     59  C   UNL A   1      44.283  33.170  28.008  1.00  0.00     0.029 A 
ATOM     60  C   UNL A   1      43.762  33.082  29.290  1.00  0.00     0.049 A 
ATOM     61  H   UNL A   1      43.700  31.418  30.583  1.00  0.00     0.167 HD
ATOM     62  C   UNL A   1      42.643  33.979  31.323  1.00  0.00     0.074 A 
ATOM     63  C   UNL A   1      42.035  35.049  32.091  1.00  0.00     0.031 C 
ATOM     64  C   UNL A   1      43.140  34.123  30.071  1.00  0.00     0.031 A 
BRANCH  51  65
ATOM     65  C   UNL A   1      45.648  29.010  27.630  1.00  0.00    -0.014 A 
ATOM     66  C   UNL A   1      44.948  28.536  26.507  1.00  0.00     0.010 A 
ATOM     67  C   UNL A   1      47.056  28.946  27.624  1.00  0.00     0.010 A 
ATOM     68  C   UNL A   1      45.638  27.980  25.420  1.00  0.00     0.020 A 
ATOM     69  C   UNL A   1      47.751  28.415  26.531  1.00  0.00     0.020 A 
ATOM     70  C   UNL A   1      47.035  27.919  25.442  1.00  0.00     0.054 A 
BRANCH  70  71
ATOM     71  S   UNL A   1      47.905  27.203  24.017  1.00  0.00     0.124 S 
ATOM     72  O   UNL A   1      49.266  27.696  24.216  1.00  0.00    -0.237 OA
ATOM     73  O   UNL A   1      47.723  25.767  24.215  1.00  0.00    -0.237 OA
ATOM     74  O   UNL A   1      47.206  27.763  22.863  1.00  0.00    -0.744 OA
ENDBRANCH  70  71
ENDBRANCH  51  65
BRANCH  52  75
ATOM     75  C   UNL A   1      41.056  32.955  35.650  1.00  0.00    -0.014 A 
ATOM     76  C   UNL A   1      39.667  33.100  35.779  1.00  0.00     0.010 A 
ATOM     77  C   UNL A   1      41.885  33.292  36.739  1.00  0.00     0.010 A 
ATOM     78  C   UNL A   1      39.116  33.576  36.971  1.00  0.00     0.020 A 
ATOM     79  C   UNL A   1      41.336  33.739  37.943  1.00  0.00     0.020 A 
ATOM     80  C   UNL A   1      39.953  33.887  38.048  1.00  0.00     0.054 A 
BRANCH  80  81
ATOM     81  S   UNL A   1      39.204  34.441  39.604  1.00  0.00     0.124 S 
ATOM     82  O   UNL A   1      40.240  34.105  40.575  1.00  0.00    -0.237 OA
ATOM     83  O   UNL A   1      38.999  35.867  39.365  1.00  0.00    -0.237 OA
ATOM     84  O   UNL A   1      37.979  33.650  39.696  1.00  0.00    -0.744 OA
ENDBRANCH  80  81
ENDBRANCH  52  75
BRANCH  64  85
ATOM     85  C   UNL A   1      42.978  35.467  29.420  1.00  0.00    -0.014 A 
ATOM     86  C   UNL A   1      41.885  35.750  28.583  1.00  0.00     0.010 A 
ATOM     87  C   UNL A   1      43.903  36.484  29.719  1.00  0.00     0.010 A 
ATOM     88  C   UNL A   1      41.725  37.031  28.051  1.00  0.00     0.020 A 
ATOM     89  C   UNL A   1      43.730  37.772  29.211  1.00  0.00     0.020 A 
ATOM     90  C   UNL A   1      42.643  38.035  28.376  1.00  0.00     0.054 A 
BRANCH  90  91
ATOM     91  S   UNL A   1      42.363  39.711  27.745  1.00  0.00     0.124 S 
ATOM     92  O   UNL A   1      43.685  40.315  27.887  1.00  0.00    -0.237 OA
ATOM     93  O   UNL A   1      41.927  39.467  26.372  1.00  0.00    -0.237 OA
ATOM     94  O   UNL A   1      41.334  40.249  28.633  1.00  0.00    -0.744 OA
ENDBRANCH  90  91
ENDBRANCH  64  85
ENDBRANCH  38  39
ENDBRANCH  31  33
ENDBRANCH  30  31
ENDBRANCH  29  30
ENDBRANCH  28  29
ENDBRANCH  27  28
ENDBRANCH  26  27
ENDBRANCH   1  26
TORSDOF 27
ENDMDL
