MODEL 1
REMARK VINA RESULT:      -9.5      0.000      0.000
REMARK SMILES Cc1nc(=O)[nH]c(C)c1CC(=O)N1CC[C@H](C(=O)OCCOCCOCCOC(=O)c2ccc(-c3c4nc(c(-c5ccc(S(=O)(=O)[O-])cc5)c5ccc([nH]5)c(-c5ccc(S(=O)(=O)[O-])cc5)c5nc(c(-c6ccc(S(=O)(=O)[O-])cc6)c6ccc3[nH]6)C=C5)C=C4)cc2)[C@@H]1C
REMARK SMILES IDX 23 1 22 2 21 3 20 4 19 5 17 6 18 7 16 8 13 9 14 10 91 11
REMARK SMILES IDX 15 12 92 13 11 14 12 15 10 16 9 17 1 18 2 19 3 20 4 21 7 22
REMARK SMILES IDX 5 23 6 24 8 25 24 27 25 28 26 29 27 30 28 31 29 32 30 33
REMARK SMILES IDX 31 34 32 35 90 36 33 37 89 38 34 39 35 40 36 41 83 42 37 43
REMARK SMILES IDX 88 44 82 45 84 46 38 47 87 48 81 49 80 50 39 52 69 53 50 54
REMARK SMILES IDX 68 55 51 56 54 57 67 58 85 59 52 60 53 61 66 63 86 64 55 65
REMARK SMILES IDX 40 66 41 67 49 68 42 69 48 70 43 71 44 72 45 73 46 74 47 75
REMARK SMILES IDX 70 76 71 77 79 78 72 79 78 80 73 81 74 82 75 83 76 84 77 85
REMARK SMILES IDX 56 86 57 87 65 88 58 89 64 90 59 91 60 92 61 93 62 94 63 95
REMARK H PARENT 6 26 84 51 54 62
REMARK Flexibility Score: inf
ROOT
ATOM      1  C   UNL A   1      37.803  22.971  25.531  1.00  0.00     0.188 C 
ENDROOT
BRANCH   1   2
ATOM      2  O   UNL A   1      36.650  22.176  25.777  1.00  0.00    -0.376 OA
BRANCH   2   3
ATOM      3  C   UNL A   1      36.109  21.406  24.714  1.00  0.00     0.202 C 
BRANCH   3   4
ATOM      4  C   UNL A   1      34.864  20.559  24.997  1.00  0.00     0.261 C 
BRANCH   4   5
ATOM      5  O   UNL A   1      33.884  21.188  25.846  1.00  0.00    -0.463 OA
BRANCH   5   6
ATOM      6  C   UNL A   1      32.653  21.431  25.332  1.00  0.00     0.311 C 
ATOM      7  O   UNL A   1      31.780  20.580  25.220  1.00  0.00    -0.252 OA
BRANCH   6   8
ATOM      8  C   UNL A   1      32.422  22.887  24.931  1.00  0.00     0.123 C 
ATOM      9  N   UNL A   1      32.796  24.528  23.243  1.00  0.00    -0.339 N 
ATOM     10  C   UNL A   1      33.908  24.664  24.155  1.00  0.00     0.121 C 
ATOM     11  C   UNL A   1      32.136  23.231  23.459  1.00  0.00     0.096 C 
ATOM     12  C   UNL A   1      33.469  23.911  25.401  1.00  0.00     0.039 C 
ATOM     13  C   UNL A   1      32.594  22.215  22.414  1.00  0.00     0.032 C 
BRANCH   9  14
ATOM     14  C   UNL A   1      32.704  25.393  22.171  1.00  0.00     0.227 C 
ATOM     15  O   UNL A   1      33.467  25.274  21.204  1.00  0.00    -0.275 OA
BRANCH  14  16
ATOM     16  C   UNL A   1      31.823  26.648  22.245  1.00  0.00     0.139 C 
BRANCH  16  17
ATOM     17  C   UNL A   1      31.838  27.436  23.512  1.00  0.00     0.002 A 
ATOM     18  C   UNL A   1      34.018  28.734  22.804  1.00  0.00     0.067 C 
ATOM     19  C   UNL A   1      32.942  28.409  23.827  1.00  0.00     0.049 A 
ATOM     20  N   UNL A   1      33.089  28.993  24.972  1.00  0.00    -0.198 NA
ATOM     21  C   UNL A   1      32.196  28.746  25.974  1.00  0.00     0.345 A 
ATOM     22  C   UNL A   1      30.915  27.314  24.486  1.00  0.00     0.022 A 
ATOM     23  O   UNL A   1      32.318  29.186  27.109  1.00  0.00    -0.246 OA
ATOM     24  N   UNL A   1      31.115  27.957  25.678  1.00  0.00    -0.310 N 
ATOM     25  C   UNL A   1      29.698  26.427  24.442  1.00  0.00     0.065 C 
ATOM     26  H   UNL A   1      30.430  27.844  26.375  1.00  0.00     0.171 HD
ENDBRANCH  16  17
ENDBRANCH  14  16
ENDBRANCH   9  14
ENDBRANCH   6   8
ENDBRANCH   5   6
ENDBRANCH   4   5
ENDBRANCH   3   4
ENDBRANCH   2   3
ENDBRANCH   1   2
BRANCH   1  27
ATOM     27  C   UNL A   1      38.204  24.056  26.552  1.00  0.00     0.188 C 
BRANCH  27  28
ATOM     28  O   UNL A   1      39.432  23.802  27.207  1.00  0.00    -0.376 OA
BRANCH  28  29
ATOM     29  C   UNL A   1      40.283  22.857  26.587  1.00  0.00     0.202 C 
BRANCH  29  30
ATOM     30  C   UNL A   1      41.638  23.396  26.107  1.00  0.00     0.261 C 
BRANCH  30  31
ATOM     31  O   UNL A   1      41.721  24.817  25.891  1.00  0.00    -0.460 OA
BRANCH  31  32
ATOM     32  C   UNL A   1      42.913  25.410  26.138  1.00  0.00     0.338 C 
ATOM     33  O   UNL A   1      43.874  25.433  25.390  1.00  0.00    -0.246 OA
BRANCH  32  34
ATOM     34  C   UNL A   1      42.802  26.216  27.382  1.00  0.00     0.060 A 
ATOM     35  C   UNL A   1      42.094  25.682  28.467  1.00  0.00     0.016 A 
ATOM     36  C   UNL A   1      43.368  27.489  27.479  1.00  0.00     0.016 A 
ATOM     37  C   UNL A   1      41.906  26.441  29.628  1.00  0.00     0.010 A 
ATOM     38  C   UNL A   1      43.167  28.253  28.639  1.00  0.00     0.010 A 
ATOM     39  C   UNL A   1      42.399  27.751  29.706  1.00  0.00    -0.014 A 
BRANCH  39  40
ATOM     40  C   UNL A   1      41.964  28.636  30.824  1.00  0.00     0.031 A 
ATOM     41  C   UNL A   1      42.767  28.642  32.105  1.00  0.00     0.074 A 
ATOM     42  C   UNL A   1      40.908  29.465  30.701  1.00  0.00     0.049 A 
ATOM     43  N   UNL A   1      42.601  29.361  33.187  1.00  0.00    -0.248 NA
ATOM     44  C   UNL A   1      43.910  27.717  32.172  1.00  0.00     0.031 C 
ATOM     45  C   UNL A   1      40.063  29.590  29.513  1.00  0.00     0.029 A 
ATOM     46  N   UNL A   1      40.371  30.367  31.588  1.00  0.00    -0.354 N 
ATOM     47  C   UNL A   1      43.606  28.967  34.064  1.00  0.00     0.074 A 
ATOM     48  C   UNL A   1      44.363  27.930  33.399  1.00  0.00     0.031 C 
ATOM     49  C   UNL A   1      39.121  30.523  29.743  1.00  0.00     0.029 A 
ATOM     50  C   UNL A   1      39.273  31.040  31.102  1.00  0.00     0.049 A 
ATOM     51  H   UNL A   1      40.738  30.518  32.489  1.00  0.00     0.167 HD
ATOM     52  C   UNL A   1      43.880  29.427  35.309  1.00  0.00     0.031 A 
ATOM     53  C   UNL A   1      38.476  31.960  31.687  1.00  0.00     0.031 A 
ATOM     54  C   UNL A   1      43.131  30.458  35.979  1.00  0.00     0.049 A 
ATOM     55  C   UNL A   1      38.773  32.409  33.098  1.00  0.00     0.074 A 
ATOM     56  C   UNL A   1      43.362  31.015  37.226  1.00  0.00     0.029 A 
ATOM     57  N   UNL A   1      42.002  31.080  35.469  1.00  0.00    -0.354 N 
ATOM     58  N   UNL A   1      39.761  32.063  33.889  1.00  0.00    -0.248 NA
ATOM     59  C   UNL A   1      37.847  33.388  33.688  1.00  0.00     0.031 C 
ATOM     60  C   UNL A   1      42.330  31.918  37.501  1.00  0.00     0.029 A 
ATOM     61  C   UNL A   1      41.502  31.984  36.392  1.00  0.00     0.049 A 
ATOM     62  H   UNL A   1      41.612  30.903  34.582  1.00  0.00     0.167 HD
ATOM     63  C   UNL A   1      39.595  32.811  35.053  1.00  0.00     0.074 A 
ATOM     64  C   UNL A   1      38.429  33.645  34.851  1.00  0.00     0.031 C 
ATOM     65  C   UNL A   1      40.338  32.809  36.188  1.00  0.00     0.031 A 
BRANCH  52  66
ATOM     66  C   UNL A   1      45.025  28.794  36.059  1.00  0.00    -0.014 A 
ATOM     67  C   UNL A   1      44.853  27.623  36.818  1.00  0.00     0.010 A 
ATOM     68  C   UNL A   1      46.316  29.342  35.934  1.00  0.00     0.010 A 
ATOM     69  C   UNL A   1      45.945  27.024  37.453  1.00  0.00     0.020 A 
ATOM     70  C   UNL A   1      47.415  28.730  36.543  1.00  0.00     0.020 A 
ATOM     71  C   UNL A   1      47.220  27.579  37.308  1.00  0.00     0.054 A 
BRANCH  71  72
ATOM     72  S   UNL A   1      48.627  26.748  38.095  1.00  0.00     0.124 S 
ATOM     73  O   UNL A   1      48.557  25.413  37.505  1.00  0.00    -0.237 OA
ATOM     74  O   UNL A   1      49.760  27.565  37.669  1.00  0.00    -0.237 OA
ATOM     75  O   UNL A   1      48.317  26.813  39.521  1.00  0.00    -0.744 OA
ENDBRANCH  71  72
ENDBRANCH  52  66
BRANCH  53  76
ATOM     76  C   UNL A   1      37.301  32.524  30.959  1.00  0.00    -0.014 A 
ATOM     77  C   UNL A   1      36.025  31.945  31.090  1.00  0.00     0.010 A 
ATOM     78  C   UNL A   1      37.467  33.607  30.077  1.00  0.00     0.010 A 
ATOM     79  C   UNL A   1      34.951  32.409  30.324  1.00  0.00     0.020 A 
ATOM     80  C   UNL A   1      36.387  34.098  29.335  1.00  0.00     0.020 A 
ATOM     81  C   UNL A   1      35.140  33.482  29.448  1.00  0.00     0.054 A 
BRANCH  81  82
ATOM     82  S   UNL A   1      33.729  34.075  28.472  1.00  0.00     0.124 S 
ATOM     83  O   UNL A   1      32.863  34.639  29.501  1.00  0.00    -0.237 OA
ATOM     84  O   UNL A   1      34.355  35.040  27.571  1.00  0.00    -0.237 OA
ATOM     85  O   UNL A   1      33.228  32.864  27.826  1.00  0.00    -0.744 OA
ENDBRANCH  81  82
ENDBRANCH  53  76
BRANCH  65  86
ATOM     86  C   UNL A   1      39.940  33.771  37.281  1.00  0.00    -0.014 A 
ATOM     87  C   UNL A   1      40.400  35.100  37.299  1.00  0.00     0.010 A 
ATOM     88  C   UNL A   1      39.086  33.334  38.312  1.00  0.00     0.010 A 
ATOM     89  C   UNL A   1      40.075  35.949  38.361  1.00  0.00     0.020 A 
ATOM     90  C   UNL A   1      38.726  34.191  39.355  1.00  0.00     0.020 A 
ATOM     91  C   UNL A   1      39.247  35.486  39.388  1.00  0.00     0.054 A 
BRANCH  91  92
ATOM     92  S   UNL A   1      38.852  36.600  40.764  1.00  0.00     0.124 S 
ATOM     93  O   UNL A   1      40.157  36.777  41.395  1.00  0.00    -0.237 OA
ATOM     94  O   UNL A   1      38.318  37.775  40.082  1.00  0.00    -0.237 OA
ATOM     95  O   UNL A   1      37.878  35.847  41.551  1.00  0.00    -0.744 OA
ENDBRANCH  91  92
ENDBRANCH  65  86
ENDBRANCH  39  40
ENDBRANCH  32  34
ENDBRANCH  31  32
ENDBRANCH  30  31
ENDBRANCH  29  30
ENDBRANCH  28  29
ENDBRANCH  27  28
ENDBRANCH   1  27
TORSDOF 23
ENDMDL
MODEL 2
REMARK VINA RESULT:      -9.4      5.959      7.978
REMARK SMILES Cc1nc(=O)[nH]c(C)c1CC(=O)N1CC[C@H](C(=O)OCCOCCOCCOC(=O)c2ccc(-c3c4nc(c(-c5ccc(S(=O)(=O)[O-])cc5)c5ccc([nH]5)c(-c5ccc(S(=O)(=O)[O-])cc5)c5nc(c(-c6ccc(S(=O)(=O)[O-])cc6)c6ccc3[nH]6)C=C5)C=C4)cc2)[C@@H]1C
REMARK SMILES IDX 23 1 22 2 21 3 20 4 19 5 17 6 18 7 16 8 13 9 14 10 91 11
REMARK SMILES IDX 15 12 92 13 11 14 12 15 10 16 9 17 1 18 2 19 3 20 4 21 7 22
REMARK SMILES IDX 5 23 6 24 8 25 24 27 25 28 26 29 27 30 28 31 29 32 30 33
REMARK SMILES IDX 31 34 32 35 90 36 33 37 89 38 34 39 35 40 36 41 83 42 37 43
REMARK SMILES IDX 88 44 82 45 84 46 38 47 87 48 81 49 80 50 39 52 69 53 50 54
REMARK SMILES IDX 68 55 51 56 54 57 67 58 85 59 52 60 53 61 66 63 86 64 55 65
REMARK SMILES IDX 40 66 41 67 49 68 42 69 48 70 43 71 44 72 45 73 46 74 47 75
REMARK SMILES IDX 70 76 71 77 79 78 72 79 78 80 73 81 74 82 75 83 76 84 77 85
REMARK SMILES IDX 56 86 57 87 65 88 58 89 64 90 59 91 60 92 61 93 62 94 63 95
REMARK H PARENT 6 26 84 51 54 62
REMARK Flexibility Score: inf
ROOT
ATOM      1  C   UNL A   1      37.581  23.611  25.748  1.00  0.00     0.188 C 
ENDROOT
BRANCH   1   2
ATOM      2  O   UNL A   1      36.527  23.836  26.676  1.00  0.00    -0.376 OA
BRANCH   2   3
ATOM      3  C   UNL A   1      35.224  23.368  26.361  1.00  0.00     0.202 C 
BRANCH   3   4
ATOM      4  C   UNL A   1      35.097  22.046  25.597  1.00  0.00     0.261 C 
BRANCH   4   5
ATOM      5  O   UNL A   1      33.964  21.237  25.970  1.00  0.00    -0.463 OA
BRANCH   5   6
ATOM      6  C   UNL A   1      32.838  21.327  25.220  1.00  0.00     0.311 C 
ATOM      7  O   UNL A   1      31.961  20.472  25.200  1.00  0.00    -0.252 OA
BRANCH   6   8
ATOM      8  C   UNL A   1      32.727  22.621  24.416  1.00  0.00     0.123 C 
ATOM      9  N   UNL A   1      31.443  24.600  24.072  1.00  0.00    -0.339 N 
ATOM     10  C   UNL A   1      30.919  23.640  23.128  1.00  0.00     0.121 C 
ATOM     11  C   UNL A   1      32.222  23.901  25.105  1.00  0.00     0.096 C 
ATOM     12  C   UNL A   1      31.972  22.544  23.078  1.00  0.00     0.039 C 
ATOM     13  C   UNL A   1      31.390  23.716  26.373  1.00  0.00     0.032 C 
BRANCH   9  14
ATOM     14  C   UNL A   1      30.927  25.880  24.076  1.00  0.00     0.227 C 
ATOM     15  O   UNL A   1      29.708  26.063  24.179  1.00  0.00    -0.275 OA
BRANCH  14  16
ATOM     16  C   UNL A   1      31.811  27.086  23.728  1.00  0.00     0.139 C 
BRANCH  16  17
ATOM     17  C   UNL A   1      32.005  28.133  24.774  1.00  0.00     0.002 A 
ATOM     18  C   UNL A   1      30.093  29.642  23.773  1.00  0.00     0.067 C 
ATOM     19  C   UNL A   1      31.219  29.416  24.767  1.00  0.00     0.049 A 
ATOM     20  N   UNL A   1      31.461  30.419  25.548  1.00  0.00    -0.198 NA
ATOM     21  C   UNL A   1      32.475  30.334  26.458  1.00  0.00     0.345 A 
ATOM     22  C   UNL A   1      32.915  28.047  25.764  1.00  0.00     0.022 A 
ATOM     23  O   UNL A   1      32.824  31.269  27.166  1.00  0.00    -0.246 OA
ATOM     24  N   UNL A   1      33.129  29.136  26.567  1.00  0.00    -0.310 N 
ATOM     25  C   UNL A   1      33.832  26.880  26.022  1.00  0.00     0.065 C 
ATOM     26  H   UNL A   1      33.806  29.049  27.277  1.00  0.00     0.171 HD
ENDBRANCH  16  17
ENDBRANCH  14  16
ENDBRANCH   9  14
ENDBRANCH   6   8
ENDBRANCH   5   6
ENDBRANCH   4   5
ENDBRANCH   3   4
ENDBRANCH   2   3
ENDBRANCH   1   2
BRANCH   1  27
ATOM     27  C   UNL A   1      39.011  23.370  26.274  1.00  0.00     0.188 C 
BRANCH  27  28
ATOM     28  O   UNL A   1      39.283  22.021  26.599  1.00  0.00    -0.376 OA
BRANCH  28  29
ATOM     29  C   UNL A   1      38.966  21.065  25.604  1.00  0.00     0.202 C 
BRANCH  29  30
ATOM     30  C   UNL A   1      39.599  19.679  25.789  1.00  0.00     0.261 C 
BRANCH  30  31
ATOM     31  O   UNL A   1      40.694  19.594  26.721  1.00  0.00    -0.460 OA
BRANCH  31  32
ATOM     32  C   UNL A   1      41.942  19.528  26.201  1.00  0.00     0.338 C 
ATOM     33  O   UNL A   1      42.378  18.644  25.485  1.00  0.00    -0.246 OA
BRANCH  32  34
ATOM     34  C   UNL A   1      42.643  20.811  26.466  1.00  0.00     0.060 A 
ATOM     35  C   UNL A   1      42.576  21.360  27.753  1.00  0.00     0.016 A 
ATOM     36  C   UNL A   1      43.344  21.481  25.459  1.00  0.00     0.016 A 
ATOM     37  C   UNL A   1      43.160  22.603  28.021  1.00  0.00     0.010 A 
ATOM     38  C   UNL A   1      43.918  22.733  25.727  1.00  0.00     0.010 A 
ATOM     39  C   UNL A   1      43.795  23.323  26.998  1.00  0.00    -0.014 A 
BRANCH  39  40
ATOM     40  C   UNL A   1      44.171  24.748  27.225  1.00  0.00     0.031 A 
ATOM     41  C   UNL A   1      45.610  25.163  27.027  1.00  0.00     0.074 A 
ATOM     42  C   UNL A   1      43.251  25.678  27.550  1.00  0.00     0.049 A 
ATOM     43  N   UNL A   1      46.153  26.351  27.124  1.00  0.00    -0.248 NA
ATOM     44  C   UNL A   1      46.562  24.099  26.669  1.00  0.00     0.031 C 
ATOM     45  C   UNL A   1      41.823  25.428  27.740  1.00  0.00     0.029 A 
ATOM     46  N   UNL A   1      43.385  27.029  27.769  1.00  0.00    -0.354 N 
ATOM     47  C   UNL A   1      47.507  26.175  26.853  1.00  0.00     0.074 A 
ATOM     48  C   UNL A   1      47.707  24.763  26.610  1.00  0.00     0.031 C 
ATOM     49  C   UNL A   1      41.211  26.590  28.038  1.00  0.00     0.029 A 
ATOM     50  C   UNL A   1      42.205  27.660  28.091  1.00  0.00     0.049 A 
ATOM     51  H   UNL A   1      44.246  27.502  27.703  1.00  0.00     0.167 HD
ATOM     52  C   UNL A   1      48.495  27.101  26.804  1.00  0.00     0.031 A 
ATOM     53  C   UNL A   1      41.954  28.951  28.400  1.00  0.00     0.031 A 
ATOM     54  C   UNL A   1      48.303  28.508  27.045  1.00  0.00     0.049 A 
ATOM     55  C   UNL A   1      43.088  29.949  28.396  1.00  0.00     0.074 A 
ATOM     56  C   UNL A   1      49.241  29.525  26.978  1.00  0.00     0.029 A 
ATOM     57  N   UNL A   1      47.103  29.097  27.411  1.00  0.00    -0.354 N 
ATOM     58  N   UNL A   1      44.350  29.770  28.082  1.00  0.00    -0.248 NA
ATOM     59  C   UNL A   1      42.754  31.330  28.775  1.00  0.00     0.031 C 
ATOM     60  C   UNL A   1      48.625  30.717  27.376  1.00  0.00     0.029 A 
ATOM     61  C   UNL A   1      47.285  30.455  27.611  1.00  0.00     0.049 A 
ATOM     62  H   UNL A   1      46.248  28.619  27.513  1.00  0.00     0.167 HD
ATOM     63  C   UNL A   1      44.948  31.024  28.191  1.00  0.00     0.074 A 
ATOM     64  C   UNL A   1      43.906  31.953  28.572  1.00  0.00     0.031 C 
ATOM     65  C   UNL A   1      46.244  31.376  27.995  1.00  0.00     0.031 A 
BRANCH  52  66
ATOM     66  C   UNL A   1      49.895  26.625  26.512  1.00  0.00    -0.014 A 
ATOM     67  C   UNL A   1      50.702  26.050  27.510  1.00  0.00     0.010 A 
ATOM     68  C   UNL A   1      50.381  26.682  25.192  1.00  0.00     0.010 A 
ATOM     69  C   UNL A   1      51.974  25.561  27.197  1.00  0.00     0.020 A 
ATOM     70  C   UNL A   1      51.639  26.168  24.869  1.00  0.00     0.020 A 
ATOM     71  C   UNL A   1      52.433  25.619  25.877  1.00  0.00     0.054 A 
BRANCH  71  72
ATOM     72  S   UNL A   1      54.063  24.924  25.491  1.00  0.00     0.124 S 
ATOM     73  O   UNL A   1      53.770  23.495  25.408  1.00  0.00    -0.237 OA
ATOM     74  O   UNL A   1      54.393  25.572  24.224  1.00  0.00    -0.237 OA
ATOM     75  O   UNL A   1      54.891  25.324  26.626  1.00  0.00    -0.744 OA
ENDBRANCH  71  72
ENDBRANCH  52  66
BRANCH  53  76
ATOM     76  C   UNL A   1      40.575  29.394  28.760  1.00  0.00    -0.014 A 
ATOM     77  C   UNL A   1      40.239  29.697  30.092  1.00  0.00     0.010 A 
ATOM     78  C   UNL A   1      39.570  29.455  27.776  1.00  0.00     0.010 A 
ATOM     79  C   UNL A   1      38.920  30.008  30.441  1.00  0.00     0.020 A 
ATOM     80  C   UNL A   1      38.258  29.800  28.114  1.00  0.00     0.020 A 
ATOM     81  C   UNL A   1      37.937  30.054  29.449  1.00  0.00     0.054 A 
BRANCH  81  82
ATOM     82  S   UNL A   1      36.235  30.470  29.921  1.00  0.00     0.124 S 
ATOM     83  O   UNL A   1      35.499  30.174  28.697  1.00  0.00    -0.237 OA
ATOM     84  O   UNL A   1      35.990  29.564  31.042  1.00  0.00    -0.237 OA
ATOM     85  O   UNL A   1      36.315  31.884  30.278  1.00  0.00    -0.744 OA
ENDBRANCH  81  82
ENDBRANCH  53  76
BRANCH  65  86
ATOM     86  C   UNL A   1      46.597  32.836  28.142  1.00  0.00    -0.014 A 
ATOM     87  C   UNL A   1      47.019  33.374  29.372  1.00  0.00     0.010 A 
ATOM     88  C   UNL A   1      46.505  33.688  27.024  1.00  0.00     0.010 A 
ATOM     89  C   UNL A   1      47.270  34.744  29.498  1.00  0.00     0.020 A 
ATOM     90  C   UNL A   1      46.794  35.050  27.137  1.00  0.00     0.020 A 
ATOM     91  C   UNL A   1      47.146  35.575  28.381  1.00  0.00     0.054 A 
BRANCH  91  92
ATOM     92  S   UNL A   1      47.461  37.352  28.573  1.00  0.00     0.124 S 
ATOM     93  O   UNL A   1      48.585  37.361  29.504  1.00  0.00    -0.237 OA
ATOM     94  O   UNL A   1      47.770  37.772  27.209  1.00  0.00    -0.237 OA
ATOM     95  O   UNL A   1      46.204  37.869  29.109  1.00  0.00    -0.744 OA
ENDBRANCH  91  92
ENDBRANCH  65  86
ENDBRANCH  39  40
ENDBRANCH  32  34
ENDBRANCH  31  32
ENDBRANCH  30  31
ENDBRANCH  29  30
ENDBRANCH  28  29
ENDBRANCH  27  28
ENDBRANCH   1  27
TORSDOF 23
ENDMDL
MODEL 3
REMARK VINA RESULT:      -8.8      2.345      9.643
REMARK SMILES Cc1nc(=O)[nH]c(C)c1CC(=O)N1CC[C@H](C(=O)OCCOCCOCCOC(=O)c2ccc(-c3c4nc(c(-c5ccc(S(=O)(=O)[O-])cc5)c5ccc([nH]5)c(-c5ccc(S(=O)(=O)[O-])cc5)c5nc(c(-c6ccc(S(=O)(=O)[O-])cc6)c6ccc3[nH]6)C=C5)C=C4)cc2)[C@@H]1C
REMARK SMILES IDX 23 1 22 2 21 3 20 4 19 5 17 6 18 7 16 8 13 9 14 10 91 11
REMARK SMILES IDX 15 12 92 13 11 14 12 15 10 16 9 17 1 18 2 19 3 20 4 21 7 22
REMARK SMILES IDX 5 23 6 24 8 25 24 27 25 28 26 29 27 30 28 31 29 32 30 33
REMARK SMILES IDX 31 34 32 35 90 36 33 37 89 38 34 39 35 40 36 41 83 42 37 43
REMARK SMILES IDX 88 44 82 45 84 46 38 47 87 48 81 49 80 50 39 52 69 53 50 54
REMARK SMILES IDX 68 55 51 56 54 57 67 58 85 59 52 60 53 61 66 63 86 64 55 65
REMARK SMILES IDX 40 66 41 67 49 68 42 69 48 70 43 71 44 72 45 73 46 74 47 75
REMARK SMILES IDX 70 76 71 77 79 78 72 79 78 80 73 81 74 82 75 83 76 84 77 85
REMARK SMILES IDX 56 86 57 87 65 88 58 89 64 90 59 91 60 92 61 93 62 94 63 95
REMARK H PARENT 6 26 84 51 54 62
REMARK Flexibility Score: inf
ROOT
ATOM      1  C   UNL A   1      34.292  32.961  28.957  1.00  0.00     0.188 C 
ENDROOT
BRANCH   1   2
ATOM      2  O   UNL A   1      35.240  32.067  29.529  1.00  0.00    -0.376 OA
BRANCH   2   3
ATOM      3  C   UNL A   1      36.176  31.424  28.677  1.00  0.00     0.202 C 
BRANCH   3   4
ATOM      4  C   UNL A   1      35.655  30.783  27.385  1.00  0.00     0.261 C 
BRANCH   4   5
ATOM      5  O   UNL A   1      34.931  29.550  27.570  1.00  0.00    -0.463 OA
BRANCH   5   6
ATOM      6  C   UNL A   1      33.694  29.447  27.028  1.00  0.00     0.311 C 
ATOM      7  O   UNL A   1      33.190  30.299  26.308  1.00  0.00    -0.252 OA
BRANCH   6   8
ATOM      8  C   UNL A   1      32.976  28.140  27.360  1.00  0.00     0.123 C 
ATOM      9  N   UNL A   1      31.959  26.185  26.447  1.00  0.00    -0.339 N 
ATOM     10  C   UNL A   1      30.883  27.139  26.593  1.00  0.00     0.121 C 
ATOM     11  C   UNL A   1      33.251  26.887  26.510  1.00  0.00     0.096 C 
ATOM     12  C   UNL A   1      31.448  28.207  27.517  1.00  0.00     0.039 C 
ATOM     13  C   UNL A   1      33.806  27.117  25.106  1.00  0.00     0.032 C 
BRANCH   9  14
ATOM     14  C   UNL A   1      31.669  24.919  25.983  1.00  0.00     0.227 C 
ATOM     15  O   UNL A   1      32.291  23.938  26.410  1.00  0.00    -0.275 OA
BRANCH  14  16
ATOM     16  C   UNL A   1      30.743  24.715  24.776  1.00  0.00     0.139 C 
BRANCH  16  17
ATOM     17  C   UNL A   1      31.288  25.017  23.420  1.00  0.00     0.002 A 
ATOM     18  C   UNL A   1      32.554  22.711  23.299  1.00  0.00     0.067 C 
ATOM     19  C   UNL A   1      32.227  24.076  22.717  1.00  0.00     0.049 A 
ATOM     20  N   UNL A   1      32.852  24.361  21.620  1.00  0.00    -0.198 NA
ATOM     21  C   UNL A   1      32.657  25.575  21.030  1.00  0.00     0.345 A 
ATOM     22  C   UNL A   1      31.033  26.153  22.743  1.00  0.00     0.022 A 
ATOM     23  O   UNL A   1      33.278  25.954  20.046  1.00  0.00    -0.246 OA
ATOM     24  N   UNL A   1      31.718  26.405  21.583  1.00  0.00    -0.310 N 
ATOM     25  C   UNL A   1      30.125  27.267  23.195  1.00  0.00     0.065 C 
ATOM     26  H   UNL A   1      31.519  27.246  21.113  1.00  0.00     0.171 HD
ENDBRANCH  16  17
ENDBRANCH  14  16
ENDBRANCH   9  14
ENDBRANCH   6   8
ENDBRANCH   5   6
ENDBRANCH   4   5
ENDBRANCH   3   4
ENDBRANCH   2   3
ENDBRANCH   1   2
BRANCH   1  27
ATOM     27  C   UNL A   1      34.792  34.191  28.172  1.00  0.00     0.188 C 
BRANCH  27  28
ATOM     28  O   UNL A   1      34.401  35.428  28.737  1.00  0.00    -0.376 OA
BRANCH  28  29
ATOM     29  C   UNL A   1      33.008  35.666  28.812  1.00  0.00     0.202 C 
BRANCH  29  30
ATOM     30  C   UNL A   1      32.531  36.431  30.053  1.00  0.00     0.261 C 
BRANCH  30  31
ATOM     31  O   UNL A   1      33.364  36.335  31.224  1.00  0.00    -0.460 OA
BRANCH  31  32
ATOM     32  C   UNL A   1      33.098  35.329  32.090  1.00  0.00     0.338 C 
ATOM     33  O   UNL A   1      31.994  34.969  32.458  1.00  0.00    -0.246 OA
BRANCH  32  34
ATOM     34  C   UNL A   1      34.356  34.587  32.367  1.00  0.00     0.060 A 
ATOM     35  C   UNL A   1      34.273  33.331  32.983  1.00  0.00     0.016 A 
ATOM     36  C   UNL A   1      35.604  35.123  32.044  1.00  0.00     0.016 A 
ATOM     37  C   UNL A   1      35.438  32.636  33.326  1.00  0.00     0.010 A 
ATOM     38  C   UNL A   1      36.772  34.430  32.401  1.00  0.00     0.010 A 
ATOM     39  C   UNL A   1      36.698  33.201  33.081  1.00  0.00    -0.014 A 
BRANCH  39  40
ATOM     40  C   UNL A   1      37.912  32.584  33.689  1.00  0.00     0.031 A 
ATOM     41  C   UNL A   1      38.642  31.505  32.924  1.00  0.00     0.074 A 
ATOM     42  C   UNL A   1      38.399  33.001  34.875  1.00  0.00     0.049 A 
ATOM     43  N   UNL A   1      39.740  30.862  33.236  1.00  0.00    -0.248 NA
ATOM     44  C   UNL A   1      38.059  31.099  31.634  1.00  0.00     0.031 C 
ATOM     45  C   UNL A   1      37.819  34.055  35.706  1.00  0.00     0.029 A 
ATOM     46  N   UNL A   1      39.504  32.590  35.581  1.00  0.00    -0.354 N 
ATOM     47  C   UNL A   1      39.970  29.971  32.193  1.00  0.00     0.074 A 
ATOM     48  C   UNL A   1      38.887  30.138  31.250  1.00  0.00     0.031 C 
ATOM     49  C   UNL A   1      38.579  34.214  36.805  1.00  0.00     0.029 A 
ATOM     50  C   UNL A   1      39.682  33.255  36.773  1.00  0.00     0.049 A 
ATOM     51  H   UNL A   1      40.113  31.884  35.264  1.00  0.00     0.167 HD
ATOM     52  C   UNL A   1      40.991  29.095  32.029  1.00  0.00     0.031 A 
ATOM     53  C   UNL A   1      40.619  33.103  37.733  1.00  0.00     0.031 A 
ATOM     54  C   UNL A   1      42.073  28.922  32.963  1.00  0.00     0.049 A 
ATOM     55  C   UNL A   1      41.711  32.076  37.548  1.00  0.00     0.074 A 
ATOM     56  C   UNL A   1      43.171  28.085  32.859  1.00  0.00     0.029 A 
ATOM     57  N   UNL A   1      42.189  29.582  34.177  1.00  0.00    -0.354 N 
ATOM     58  N   UNL A   1      41.941  31.283  36.528  1.00  0.00    -0.248 NA
ATOM     59  C   UNL A   1      42.681  31.937  38.645  1.00  0.00     0.031 C 
ATOM     60  C   UNL A   1      43.912  28.185  34.042  1.00  0.00     0.029 A 
ATOM     61  C   UNL A   1      43.319  29.143  34.847  1.00  0.00     0.049 A 
ATOM     62  H   UNL A   1      41.561  30.262  34.512  1.00  0.00     0.167 HD
ATOM     63  C   UNL A   1      43.101  30.581  36.848  1.00  0.00     0.074 A 
ATOM     64  C   UNL A   1      43.539  31.063  38.141  1.00  0.00     0.031 C 
ATOM     65  C   UNL A   1      43.748  29.622  36.137  1.00  0.00     0.031 A 
BRANCH  52  66
ATOM     66  C   UNL A   1      40.978  28.218  30.802  1.00  0.00    -0.014 A 
ATOM     67  C   UNL A   1      42.149  27.961  30.066  1.00  0.00     0.010 A 
ATOM     68  C   UNL A   1      39.783  27.574  30.428  1.00  0.00     0.010 A 
ATOM     69  C   UNL A   1      42.120  27.095  28.970  1.00  0.00     0.020 A 
ATOM     70  C   UNL A   1      39.755  26.686  29.350  1.00  0.00     0.020 A 
ATOM     71  C   UNL A   1      40.924  26.459  28.621  1.00  0.00     0.054 A 
BRANCH  71  72
ATOM     72  S   UNL A   1      40.929  25.296  27.228  1.00  0.00     0.124 S 
ATOM     73  O   UNL A   1      42.345  24.948  27.132  1.00  0.00    -0.237 OA
ATOM     74  O   UNL A   1      40.050  24.230  27.701  1.00  0.00    -0.237 OA
ATOM     75  O   UNL A   1      40.406  26.084  26.115  1.00  0.00    -0.744 OA
ENDBRANCH  71  72
ENDBRANCH  52  66
BRANCH  53  76
ATOM     76  C   UNL A   1      40.577  33.927  38.976  1.00  0.00    -0.014 A 
ATOM     77  C   UNL A   1      41.338  35.107  39.086  1.00  0.00     0.010 A 
ATOM     78  C   UNL A   1      39.823  33.502  40.085  1.00  0.00     0.010 A 
ATOM     79  C   UNL A   1      41.379  35.818  40.290  1.00  0.00     0.020 A 
ATOM     80  C   UNL A   1      39.832  34.229  41.279  1.00  0.00     0.020 A 
ATOM     81  C   UNL A   1      40.628  35.372  41.381  1.00  0.00     0.054 A 
BRANCH  81  82
ATOM     82  S   UNL A   1      40.688  36.316  42.930  1.00  0.00     0.124 S 
ATOM     83  O   UNL A   1      41.476  35.439  43.789  1.00  0.00    -0.237 OA
ATOM     84  O   UNL A   1      41.343  37.555  42.518  1.00  0.00    -0.237 OA
ATOM     85  O   UNL A   1      39.281  36.455  43.300  1.00  0.00    -0.744 OA
ENDBRANCH  81  82
ENDBRANCH  53  76
BRANCH  65  86
ATOM     86  C   UNL A   1      45.024  29.065  36.721  1.00  0.00    -0.014 A 
ATOM     87  C   UNL A   1      45.028  27.902  37.512  1.00  0.00     0.010 A 
ATOM     88  C   UNL A   1      46.244  29.722  36.472  1.00  0.00     0.010 A 
ATOM     89  C   UNL A   1      46.213  27.449  38.100  1.00  0.00     0.020 A 
ATOM     90  C   UNL A   1      47.437  29.250  37.026  1.00  0.00     0.020 A 
ATOM     91  C   UNL A   1      47.409  28.132  37.861  1.00  0.00     0.054 A 
BRANCH  91  92
ATOM     92  S   UNL A   1      48.930  27.535  38.649  1.00  0.00     0.124 S 
ATOM     93  O   UNL A   1      49.824  28.678  38.486  1.00  0.00    -0.237 OA
ATOM     94  O   UNL A   1      48.498  27.265  40.017  1.00  0.00    -0.237 OA
ATOM     95  O   UNL A   1      49.283  26.352  37.868  1.00  0.00    -0.744 OA
ENDBRANCH  91  92
ENDBRANCH  65  86
ENDBRANCH  39  40
ENDBRANCH  32  34
ENDBRANCH  31  32
ENDBRANCH  30  31
ENDBRANCH  29  30
ENDBRANCH  28  29
ENDBRANCH  27  28
ENDBRANCH   1  27
TORSDOF 23
ENDMDL
