MODEL 1
REMARK VINA RESULT:     -10.5      0.000      0.000
REMARK SMILES C[C@@H](NC(=O)[C@H]1CC=CC[C@@H]1C(=O)OCCOCCOCCOC(=O)c1ccc(-c2c3nc(c(-c4ccc(S(=O)(=O)[O-])cc4)c4ccc([nH]4)c(-c4ccc(S(=O)(=O)[O-])cc4)c4nc(c(-c5ccc(S(=O)(=O)[O-])cc5)c5ccc2[nH]5)C=C4)C=C3)cc1)c1ccc(-n2ccnc2)cc1
REMARK SMILES IDX 18 1 17 2 16 3 15 4 14 5 12 6 13 7 11 8 6 9 7 10 8 11 10 12
REMARK SMILES IDX 9 13 4 14 3 15 5 17 2 18 1 19 86 20 87 21 96 22 88 23 95 24
REMARK SMILES IDX 89 25 90 26 91 27 94 28 92 29 93 30 19 31 20 32 21 33 22 34
REMARK SMILES IDX 23 35 24 36 25 37 26 38 27 39 85 40 28 41 84 42 29 43 30 44
REMARK SMILES IDX 31 45 78 46 32 47 83 48 77 49 79 50 33 51 82 52 76 53 75 54
REMARK SMILES IDX 34 56 64 57 45 58 63 59 46 60 49 61 62 62 80 63 47 64 48 65
REMARK SMILES IDX 61 67 81 68 50 69 35 70 36 71 44 72 37 73 43 74 38 75 39 76
REMARK SMILES IDX 40 77 41 78 42 79 65 80 66 81 74 82 67 83 73 84 68 85 69 86
REMARK SMILES IDX 70 87 71 88 72 89 51 90 52 91 60 92 53 93 59 94 54 95 55 96
REMARK SMILES IDX 56 97 57 98 58 99
REMARK H PARENT 3 16 79 55 49 66
REMARK Flexibility Score: inf
ROOT
ATOM      1  C   UNL A   1      40.586  20.458  26.326  1.00  0.00     0.188 C 
ENDROOT
BRANCH   1   2
ATOM      2  O   UNL A   1      39.661  21.450  26.773  1.00  0.00    -0.376 OA
BRANCH   2   3
ATOM      3  C   UNL A   1      38.848  22.136  25.840  1.00  0.00     0.202 C 
BRANCH   3   4
ATOM      4  C   UNL A   1      37.769  21.299  25.096  1.00  0.00     0.261 C 
BRANCH   4   5
ATOM      5  O   UNL A   1      36.700  21.981  24.392  1.00  0.00    -0.463 OA
BRANCH   5   6
ATOM      6  C   UNL A   1      35.521  21.863  25.038  1.00  0.00     0.310 C 
ATOM      7  O   UNL A   1      35.371  21.148  26.006  1.00  0.00    -0.252 OA
BRANCH   6   8
ATOM      8  C   UNL A   1      34.336  22.644  24.564  1.00  0.00     0.115 C 
ATOM      9  C   UNL A   1      33.925  23.970  25.108  1.00  0.00     0.097 C 
ATOM     10  C   UNL A   1      32.818  23.819  26.180  1.00  0.00     0.041 C 
ATOM     11  C   UNL A   1      31.704  22.910  25.761  1.00  0.00    -0.030 C 
ATOM     12  C   UNL A   1      33.159  21.776  24.089  1.00  0.00     0.043 C 
ATOM     13  C   UNL A   1      31.855  22.021  24.776  1.00  0.00    -0.030 C 
BRANCH   9  14
ATOM     14  C   UNL A   1      33.536  24.909  23.933  1.00  0.00     0.224 C 
ATOM     15  N   UNL A   1      32.371  25.625  23.797  1.00  0.00    -0.349 N 
ATOM     16  H   UNL A   1      32.047  25.514  22.874  1.00  0.00     0.164 HD
ATOM     17  O   UNL A   1      34.245  24.888  22.914  1.00  0.00    -0.275 OA
BRANCH  15  18
ATOM     18  C   UNL A   1      31.383  26.533  24.546  1.00  0.00     0.109 C 
ATOM     19  C   UNL A   1      30.197  26.844  23.613  1.00  0.00     0.036 C 
BRANCH  18  20
ATOM     20  C   UNL A   1      31.829  27.703  25.457  1.00  0.00    -0.026 A 
ATOM     21  C   UNL A   1      31.488  29.051  25.194  1.00  0.00     0.008 A 
ATOM     22  C   UNL A   1      32.620  27.481  26.601  1.00  0.00     0.008 A 
ATOM     23  C   UNL A   1      32.023  30.128  25.938  1.00  0.00     0.027 A 
ATOM     24  C   UNL A   1      33.169  28.556  27.348  1.00  0.00     0.027 A 
ATOM     25  C   UNL A   1      32.936  29.893  26.973  1.00  0.00     0.046 A 
BRANCH  25  26
ATOM     26  N   UNL A   1      33.784  30.960  27.444  1.00  0.00    -0.306 N 
ATOM     27  C   UNL A   1      35.153  30.919  27.657  1.00  0.00     0.113 A 
ATOM     28  C   UNL A   1      33.446  32.287  27.648  1.00  0.00     0.204 A 
ATOM     29  C   UNL A   1      35.550  32.212  27.910  1.00  0.00     0.131 A 
ATOM     30  N   UNL A   1      34.478  33.050  27.949  1.00  0.00    -0.245 NA
ENDBRANCH  25  26
ENDBRANCH  18  20
ENDBRANCH  15  18
ENDBRANCH   9  14
ENDBRANCH   6   8
ENDBRANCH   5   6
ENDBRANCH   4   5
ENDBRANCH   3   4
ENDBRANCH   2   3
ENDBRANCH   1   2
BRANCH   1  31
ATOM     31  C   UNL A   1      42.075  20.820  26.176  1.00  0.00     0.188 C 
BRANCH  31  32
ATOM     32  O   UNL A   1      42.596  21.469  27.310  1.00  0.00    -0.376 OA
BRANCH  32  33
ATOM     33  C   UNL A   1      42.901  22.840  27.167  1.00  0.00     0.202 C 
BRANCH  33  34
ATOM     34  C   UNL A   1      42.197  23.919  28.025  1.00  0.00     0.261 C 
BRANCH  34  35
ATOM     35  O   UNL A   1      40.835  24.302  27.719  1.00  0.00    -0.460 OA
BRANCH  35  36
ATOM     36  C   UNL A   1      40.596  25.445  27.045  1.00  0.00     0.338 C 
ATOM     37  O   UNL A   1      40.531  25.559  25.827  1.00  0.00    -0.246 OA
BRANCH  36  38
ATOM     38  C   UNL A   1      40.189  26.508  28.008  1.00  0.00     0.060 A 
ATOM     39  C   UNL A   1      40.655  27.817  27.823  1.00  0.00     0.016 A 
ATOM     40  C   UNL A   1      39.438  26.214  29.144  1.00  0.00     0.016 A 
ATOM     41  C   UNL A   1      40.415  28.820  28.766  1.00  0.00     0.010 A 
ATOM     42  C   UNL A   1      39.227  27.212  30.114  1.00  0.00     0.010 A 
ATOM     43  C   UNL A   1      39.753  28.510  29.953  1.00  0.00    -0.014 A 
BRANCH  43  44
ATOM     44  C   UNL A   1      39.865  29.438  31.115  1.00  0.00     0.031 A 
ATOM     45  C   UNL A   1      41.059  29.281  32.023  1.00  0.00     0.074 A 
ATOM     46  C   UNL A   1      39.001  30.445  31.340  1.00  0.00     0.049 A 
ATOM     47  N   UNL A   1      41.298  29.816  33.193  1.00  0.00    -0.248 NA
ATOM     48  C   UNL A   1      42.128  28.395  31.535  1.00  0.00     0.031 C 
ATOM     49  C   UNL A   1      37.893  30.828  30.470  1.00  0.00     0.029 A 
ATOM     50  N   UNL A   1      38.924  31.329  32.393  1.00  0.00    -0.354 N 
ATOM     51  C   UNL A   1      42.516  29.284  33.606  1.00  0.00     0.074 A 
ATOM     52  C   UNL A   1      42.963  28.388  32.563  1.00  0.00     0.031 C 
ATOM     53  C   UNL A   1      37.228  31.852  31.036  1.00  0.00     0.029 A 
ATOM     54  C   UNL A   1      37.820  32.149  32.341  1.00  0.00     0.049 A 
ATOM     55  H   UNL A   1      39.594  31.371  33.113  1.00  0.00     0.167 HD
ATOM     56  C   UNL A   1      43.192  29.508  34.758  1.00  0.00     0.031 A 
ATOM     57  C   UNL A   1      37.311  32.994  33.262  1.00  0.00     0.031 A 
ATOM     58  C   UNL A   1      42.741  30.403  35.791  1.00  0.00     0.049 A 
ATOM     59  C   UNL A   1      38.006  33.149  34.591  1.00  0.00     0.074 A 
ATOM     60  C   UNL A   1      43.334  30.683  37.008  1.00  0.00     0.029 A 
ATOM     61  N   UNL A   1      41.582  31.163  35.726  1.00  0.00    -0.354 N 
ATOM     62  N   UNL A   1      39.115  32.586  35.013  1.00  0.00    -0.248 NA
ATOM     63  C   UNL A   1      37.380  34.047  35.572  1.00  0.00     0.031 C 
ATOM     64  C   UNL A   1      42.498  31.561  37.707  1.00  0.00     0.029 A 
ATOM     65  C   UNL A   1      41.426  31.889  36.894  1.00  0.00     0.049 A 
ATOM     66  H   UNL A   1      40.962  31.182  34.961  1.00  0.00     0.167 HD
ATOM     67  C   UNL A   1      39.329  33.077  36.298  1.00  0.00     0.074 A 
ATOM     68  C   UNL A   1      38.244  33.994  36.578  1.00  0.00     0.031 C 
ATOM     69  C   UNL A   1      40.336  32.796  37.164  1.00  0.00     0.031 A 
BRANCH  56  70
ATOM     70  C   UNL A   1      44.440  28.693  34.991  1.00  0.00    -0.014 A 
ATOM     71  C   UNL A   1      44.397  27.401  35.547  1.00  0.00     0.010 A 
ATOM     72  C   UNL A   1      45.691  29.256  34.674  1.00  0.00     0.010 A 
ATOM     73  C   UNL A   1      45.582  26.719  35.844  1.00  0.00     0.020 A 
ATOM     74  C   UNL A   1      46.875  28.563  34.934  1.00  0.00     0.020 A 
ATOM     75  C   UNL A   1      46.814  27.310  35.544  1.00  0.00     0.054 A 
BRANCH  75  76
ATOM     76  S   UNL A   1      48.336  26.419  35.968  1.00  0.00     0.124 S 
ATOM     77  O   UNL A   1      47.982  25.042  35.632  1.00  0.00    -0.237 OA
ATOM     78  O   UNL A   1      49.325  27.044  35.094  1.00  0.00    -0.237 OA
ATOM     79  O   UNL A   1      48.511  26.687  37.393  1.00  0.00    -0.744 OA
ENDBRANCH  75  76
ENDBRANCH  56  70
BRANCH  57  80
ATOM     80  C   UNL A   1      36.031  33.706  32.979  1.00  0.00    -0.014 A 
ATOM     81  C   UNL A   1      34.794  33.154  33.357  1.00  0.00     0.010 A 
ATOM     82  C   UNL A   1      36.049  34.966  32.350  1.00  0.00     0.010 A 
ATOM     83  C   UNL A   1      33.604  33.857  33.129  1.00  0.00     0.020 A 
ATOM     84  C   UNL A   1      34.867  35.684  32.149  1.00  0.00     0.020 A 
ATOM     85  C   UNL A   1      33.651  35.124  32.540  1.00  0.00     0.054 A 
BRANCH  85  86
ATOM     86  S   UNL A   1      32.107  36.060  32.357  1.00  0.00     0.124 S 
ATOM     87  O   UNL A   1      31.098  35.050  32.662  1.00  0.00    -0.237 OA
ATOM     88  O   UNL A   1      32.265  37.119  33.351  1.00  0.00    -0.237 OA
ATOM     89  O   UNL A   1      32.142  36.511  30.967  1.00  0.00    -0.744 OA
ENDBRANCH  85  86
ENDBRANCH  57  80
BRANCH  69  90
ATOM     90  C   UNL A   1      40.343  33.517  38.490  1.00  0.00    -0.014 A 
ATOM     91  C   UNL A   1      40.972  34.764  38.647  1.00  0.00     0.010 A 
ATOM     92  C   UNL A   1      39.645  32.962  39.580  1.00  0.00     0.010 A 
ATOM     93  C   UNL A   1      40.929  35.429  39.878  1.00  0.00     0.020 A 
ATOM     94  C   UNL A   1      39.571  33.638  40.801  1.00  0.00     0.020 A 
ATOM     95  C   UNL A   1      40.226  34.862  40.946  1.00  0.00     0.054 A 
BRANCH  95  96
ATOM     96  S   UNL A   1      40.146  35.765  42.518  1.00  0.00     0.124 S 
ATOM     97  O   UNL A   1      40.883  36.986  42.205  1.00  0.00    -0.237 OA
ATOM     98  O   UNL A   1      38.709  35.932  42.718  1.00  0.00    -0.237 OA
ATOM     99  O   UNL A   1      40.802  34.869  43.468  1.00  0.00    -0.744 OA
ENDBRANCH  95  96
ENDBRANCH  69  90
ENDBRANCH  43  44
ENDBRANCH  36  38
ENDBRANCH  35  36
ENDBRANCH  34  35
ENDBRANCH  33  34
ENDBRANCH  32  33
ENDBRANCH  31  32
ENDBRANCH   1  31
TORSDOF 24
ENDMDL
MODEL 2
REMARK VINA RESULT:     -10.4      1.109      2.152
REMARK SMILES C[C@@H](NC(=O)[C@H]1CC=CC[C@@H]1C(=O)OCCOCCOCCOC(=O)c1ccc(-c2c3nc(c(-c4ccc(S(=O)(=O)[O-])cc4)c4ccc([nH]4)c(-c4ccc(S(=O)(=O)[O-])cc4)c4nc(c(-c5ccc(S(=O)(=O)[O-])cc5)c5ccc2[nH]5)C=C4)C=C3)cc1)c1ccc(-n2ccnc2)cc1
REMARK SMILES IDX 18 1 17 2 16 3 15 4 14 5 12 6 13 7 11 8 6 9 7 10 8 11 10 12
REMARK SMILES IDX 9 13 4 14 3 15 5 17 2 18 1 19 86 20 87 21 96 22 88 23 95 24
REMARK SMILES IDX 89 25 90 26 91 27 94 28 92 29 93 30 19 31 20 32 21 33 22 34
REMARK SMILES IDX 23 35 24 36 25 37 26 38 27 39 85 40 28 41 84 42 29 43 30 44
REMARK SMILES IDX 31 45 78 46 32 47 83 48 77 49 79 50 33 51 82 52 76 53 75 54
REMARK SMILES IDX 34 56 64 57 45 58 63 59 46 60 49 61 62 62 80 63 47 64 48 65
REMARK SMILES IDX 61 67 81 68 50 69 35 70 36 71 44 72 37 73 43 74 38 75 39 76
REMARK SMILES IDX 40 77 41 78 42 79 65 80 66 81 74 82 67 83 73 84 68 85 69 86
REMARK SMILES IDX 70 87 71 88 72 89 51 90 52 91 60 92 53 93 59 94 54 95 55 96
REMARK SMILES IDX 56 97 57 98 58 99
REMARK H PARENT 3 16 79 55 49 66
REMARK Flexibility Score: inf
ROOT
ATOM      1  C   UNL A   1      35.831  20.604  25.383  1.00  0.00     0.188 C 
ENDROOT
BRANCH   1   2
ATOM      2  O   UNL A   1      35.147  21.355  26.385  1.00  0.00    -0.376 OA
BRANCH   2   3
ATOM      3  C   UNL A   1      33.766  21.146  26.613  1.00  0.00     0.202 C 
BRANCH   3   4
ATOM      4  C   UNL A   1      33.111  21.958  27.766  1.00  0.00     0.261 C 
BRANCH   4   5
ATOM      5  O   UNL A   1      32.437  23.206  27.462  1.00  0.00    -0.463 OA
BRANCH   5   6
ATOM      6  C   UNL A   1      31.787  23.149  26.280  1.00  0.00     0.310 C 
ATOM      7  O   UNL A   1      30.776  22.499  26.117  1.00  0.00    -0.252 OA
BRANCH   6   8
ATOM      8  C   UNL A   1      32.313  23.917  25.109  1.00  0.00     0.115 C 
ATOM      9  C   UNL A   1      32.143  23.508  23.684  1.00  0.00     0.097 C 
ATOM     10  C   UNL A   1      33.391  22.752  23.165  1.00  0.00     0.041 C 
ATOM     11  C   UNL A   1      34.682  23.433  23.501  1.00  0.00    -0.030 C 
ATOM     12  C   UNL A   1      33.626  24.668  25.387  1.00  0.00     0.043 C 
ATOM     13  C   UNL A   1      34.765  24.339  24.478  1.00  0.00    -0.030 C 
BRANCH   9  14
ATOM     14  C   UNL A   1      31.764  24.752  22.835  1.00  0.00     0.224 C 
ATOM     15  N   UNL A   1      30.727  25.625  23.065  1.00  0.00    -0.349 N 
ATOM     16  H   UNL A   1      30.270  25.791  22.209  1.00  0.00     0.164 HD
ATOM     17  O   UNL A   1      32.318  24.894  21.733  1.00  0.00    -0.275 OA
BRANCH  15  18
ATOM     18  C   UNL A   1      30.014  26.438  24.156  1.00  0.00     0.109 C 
ATOM     19  C   UNL A   1      28.622  26.846  23.633  1.00  0.00     0.036 C 
BRANCH  18  20
ATOM     20  C   UNL A   1      30.728  27.499  25.028  1.00  0.00    -0.026 A 
ATOM     21  C   UNL A   1      30.957  28.824  24.587  1.00  0.00     0.008 A 
ATOM     22  C   UNL A   1      31.206  27.189  26.316  1.00  0.00     0.008 A 
ATOM     23  C   UNL A   1      31.742  29.743  25.320  1.00  0.00     0.027 A 
ATOM     24  C   UNL A   1      32.002  28.102  27.055  1.00  0.00     0.027 A 
ATOM     25  C   UNL A   1      32.343  29.361  26.525  1.00  0.00     0.046 A 
BRANCH  25  26
ATOM     26  N   UNL A   1      33.451  30.119  27.052  1.00  0.00    -0.306 N 
ATOM     27  C   UNL A   1      33.433  31.420  27.529  1.00  0.00     0.113 A 
ATOM     28  C   UNL A   1      34.733  29.672  27.325  1.00  0.00     0.204 A 
ATOM     29  C   UNL A   1      34.663  31.644  28.104  1.00  0.00     0.131 A 
ATOM     30  N   UNL A   1      35.482  30.571  27.933  1.00  0.00    -0.245 NA
ENDBRANCH  25  26
ENDBRANCH  18  20
ENDBRANCH  15  18
ENDBRANCH   9  14
ENDBRANCH   6   8
ENDBRANCH   5   6
ENDBRANCH   4   5
ENDBRANCH   3   4
ENDBRANCH   2   3
ENDBRANCH   1   2
BRANCH   1  31
ATOM     31  C   UNL A   1      37.169  21.122  24.823  1.00  0.00     0.188 C 
BRANCH  31  32
ATOM     32  O   UNL A   1      37.755  22.109  25.636  1.00  0.00    -0.376 OA
BRANCH  32  33
ATOM     33  C   UNL A   1      39.135  21.973  25.899  1.00  0.00     0.202 C 
BRANCH  33  34
ATOM     34  C   UNL A   1      39.904  23.015  26.747  1.00  0.00     0.261 C 
BRANCH  34  35
ATOM     35  O   UNL A   1      39.439  24.384  26.795  1.00  0.00    -0.460 OA
BRANCH  35  36
ATOM     36  C   UNL A   1      40.328  25.397  26.725  1.00  0.00     0.338 C 
ATOM     37  O   UNL A   1      41.178  25.545  25.855  1.00  0.00    -0.246 OA
BRANCH  36  38
ATOM     38  C   UNL A   1      39.971  26.434  27.734  1.00  0.00     0.060 A 
ATOM     39  C   UNL A   1      40.378  27.760  27.528  1.00  0.00     0.016 A 
ATOM     40  C   UNL A   1      39.330  26.104  28.925  1.00  0.00     0.016 A 
ATOM     41  C   UNL A   1      40.188  28.745  28.501  1.00  0.00     0.010 A 
ATOM     42  C   UNL A   1      39.171  27.084  29.923  1.00  0.00     0.010 A 
ATOM     43  C   UNL A   1      39.640  28.401  29.736  1.00  0.00    -0.014 A 
BRANCH  43  44
ATOM     44  C   UNL A   1      39.822  29.319  30.897  1.00  0.00     0.031 A 
ATOM     45  C   UNL A   1      41.046  29.127  31.756  1.00  0.00     0.074 A 
ATOM     46  C   UNL A   1      38.993  30.346  31.161  1.00  0.00     0.049 A 
ATOM     47  N   UNL A   1      41.345  29.649  32.917  1.00  0.00    -0.248 NA
ATOM     48  C   UNL A   1      42.072  28.217  31.221  1.00  0.00     0.031 C 
ATOM     49  C   UNL A   1      37.861  30.762  30.337  1.00  0.00     0.029 A 
ATOM     50  N   UNL A   1      38.979  31.225  32.219  1.00  0.00    -0.354 N 
ATOM     51  C   UNL A   1      42.564  29.085  33.280  1.00  0.00     0.074 A 
ATOM     52  C   UNL A   1      42.947  28.184  32.215  1.00  0.00     0.031 C 
ATOM     53  C   UNL A   1      37.245  31.798  30.934  1.00  0.00     0.029 A 
ATOM     54  C   UNL A   1      37.896  32.073  32.215  1.00  0.00     0.049 A 
ATOM     55  H   UNL A   1      39.678  31.247  32.912  1.00  0.00     0.167 HD
ATOM     56  C   UNL A   1      43.291  29.286  34.405  1.00  0.00     0.031 A 
ATOM     57  C   UNL A   1      37.445  32.926  33.159  1.00  0.00     0.031 A 
ATOM     58  C   UNL A   1      42.904  30.185  35.458  1.00  0.00     0.049 A 
ATOM     59  C   UNL A   1      38.196  33.056  34.460  1.00  0.00     0.074 A 
ATOM     60  C   UNL A   1      43.552  30.445  36.653  1.00  0.00     0.029 A 
ATOM     61  N   UNL A   1      41.763  30.974  35.443  1.00  0.00    -0.354 N 
ATOM     62  N   UNL A   1      39.306  32.463  34.835  1.00  0.00    -0.248 NA
ATOM     63  C   UNL A   1      37.632  33.964  35.470  1.00  0.00     0.031 C 
ATOM     64  C   UNL A   1      42.767  31.339  37.388  1.00  0.00     0.029 A 
ATOM     65  C   UNL A   1      41.672  31.699  36.620  1.00  0.00     0.049 A 
ATOM     66  H   UNL A   1      41.114  31.014  34.704  1.00  0.00     0.167 HD
ATOM     67  C   UNL A   1      39.584  32.941  36.113  1.00  0.00     0.074 A 
ATOM     68  C   UNL A   1      38.534  33.884  36.441  1.00  0.00     0.031 C 
ATOM     69  C   UNL A   1      40.617  32.631  36.937  1.00  0.00     0.031 A 
BRANCH  56  70
ATOM     70  C   UNL A   1      44.527  28.439  34.584  1.00  0.00    -0.014 A 
ATOM     71  C   UNL A   1      44.472  27.140  35.124  1.00  0.00     0.010 A 
ATOM     72  C   UNL A   1      45.779  28.976  34.231  1.00  0.00     0.010 A 
ATOM     73  C   UNL A   1      45.649  26.427  35.372  1.00  0.00     0.020 A 
ATOM     74  C   UNL A   1      46.955  28.252  34.441  1.00  0.00     0.020 A 
ATOM     75  C   UNL A   1      46.884  26.993  35.037  1.00  0.00     0.054 A 
BRANCH  75  76
ATOM     76  S   UNL A   1      48.398  26.060  35.397  1.00  0.00     0.124 S 
ATOM     77  O   UNL A   1      49.203  26.324  34.207  1.00  0.00    -0.237 OA
ATOM     78  O   UNL A   1      48.873  26.685  36.628  1.00  0.00    -0.237 OA
ATOM     79  O   UNL A   1      47.933  24.683  35.539  1.00  0.00    -0.744 OA
ENDBRANCH  75  76
ENDBRANCH  56  70
BRANCH  57  80
ATOM     80  C   UNL A   1      36.173  33.671  32.932  1.00  0.00    -0.014 A 
ATOM     81  C   UNL A   1      36.137  35.075  32.967  1.00  0.00     0.010 A 
ATOM     82  C   UNL A   1      34.986  32.967  32.645  1.00  0.00     0.010 A 
ATOM     83  C   UNL A   1      34.945  35.762  32.704  1.00  0.00     0.020 A 
ATOM     84  C   UNL A   1      33.802  33.649  32.351  1.00  0.00     0.020 A 
ATOM     85  C   UNL A   1      33.790  35.044  32.381  1.00  0.00     0.054 A 
BRANCH  85  86
ATOM     86  S   UNL A   1      32.287  35.960  31.935  1.00  0.00     0.124 S 
ATOM     87  O   UNL A   1      32.580  37.296  32.445  1.00  0.00    -0.237 OA
ATOM     88  O   UNL A   1      32.263  35.827  30.481  1.00  0.00    -0.237 OA
ATOM     89  O   UNL A   1      31.226  35.240  32.636  1.00  0.00    -0.744 OA
ENDBRANCH  85  86
ENDBRANCH  57  80
BRANCH  69  90
ATOM     90  C   UNL A   1      40.694  33.344  38.265  1.00  0.00    -0.014 A 
ATOM     91  C   UNL A   1      41.228  34.640  38.375  1.00  0.00     0.010 A 
ATOM     92  C   UNL A   1      40.159  32.727  39.411  1.00  0.00     0.010 A 
ATOM     93  C   UNL A   1      41.251  35.293  39.613  1.00  0.00     0.020 A 
ATOM     94  C   UNL A   1      40.150  33.388  40.643  1.00  0.00     0.020 A 
ATOM     95  C   UNL A   1      40.709  34.663  40.738  1.00  0.00     0.054 A 
BRANCH  95  96
ATOM     96  S   UNL A   1      40.710  35.550  42.321  1.00  0.00     0.124 S 
ATOM     97  O   UNL A   1      39.288  35.588  42.649  1.00  0.00    -0.237 OA
ATOM     98  O   UNL A   1      41.528  34.688  43.170  1.00  0.00    -0.237 OA
ATOM     99  O   UNL A   1      41.308  36.843  41.995  1.00  0.00    -0.744 OA
ENDBRANCH  95  96
ENDBRANCH  69  90
ENDBRANCH  43  44
ENDBRANCH  36  38
ENDBRANCH  35  36
ENDBRANCH  34  35
ENDBRANCH  33  34
ENDBRANCH  32  33
ENDBRANCH  31  32
ENDBRANCH   1  31
TORSDOF 24
ENDMDL
MODEL 3
REMARK VINA RESULT:      -9.7      1.524      2.446
REMARK SMILES C[C@@H](NC(=O)[C@H]1CC=CC[C@@H]1C(=O)OCCOCCOCCOC(=O)c1ccc(-c2c3nc(c(-c4ccc(S(=O)(=O)[O-])cc4)c4ccc([nH]4)c(-c4ccc(S(=O)(=O)[O-])cc4)c4nc(c(-c5ccc(S(=O)(=O)[O-])cc5)c5ccc2[nH]5)C=C4)C=C3)cc1)c1ccc(-n2ccnc2)cc1
REMARK SMILES IDX 18 1 17 2 16 3 15 4 14 5 12 6 13 7 11 8 6 9 7 10 8 11 10 12
REMARK SMILES IDX 9 13 4 14 3 15 5 17 2 18 1 19 86 20 87 21 96 22 88 23 95 24
REMARK SMILES IDX 89 25 90 26 91 27 94 28 92 29 93 30 19 31 20 32 21 33 22 34
REMARK SMILES IDX 23 35 24 36 25 37 26 38 27 39 85 40 28 41 84 42 29 43 30 44
REMARK SMILES IDX 31 45 78 46 32 47 83 48 77 49 79 50 33 51 82 52 76 53 75 54
REMARK SMILES IDX 34 56 64 57 45 58 63 59 46 60 49 61 62 62 80 63 47 64 48 65
REMARK SMILES IDX 61 67 81 68 50 69 35 70 36 71 44 72 37 73 43 74 38 75 39 76
REMARK SMILES IDX 40 77 41 78 42 79 65 80 66 81 74 82 67 83 73 84 68 85 69 86
REMARK SMILES IDX 70 87 71 88 72 89 51 90 52 91 60 92 53 93 59 94 54 95 55 96
REMARK SMILES IDX 56 97 57 98 58 99
REMARK H PARENT 3 16 79 55 49 66
REMARK Flexibility Score: inf
ROOT
ATOM      1  C   UNL A   1      40.541  21.209  26.122  1.00  0.00     0.188 C 
ENDROOT
BRANCH   1   2
ATOM      2  O   UNL A   1      39.633  21.923  26.961  1.00  0.00    -0.376 OA
BRANCH   2   3
ATOM      3  C   UNL A   1      38.594  22.696  26.389  1.00  0.00     0.202 C 
BRANCH   3   4
ATOM      4  C   UNL A   1      37.785  22.044  25.233  1.00  0.00     0.261 C 
BRANCH   4   5
ATOM      5  O   UNL A   1      36.581  22.695  24.752  1.00  0.00    -0.463 OA
BRANCH   5   6
ATOM      6  C   UNL A   1      35.551  21.827  24.650  1.00  0.00     0.310 C 
ATOM      7  O   UNL A   1      35.689  20.628  24.761  1.00  0.00    -0.252 OA
BRANCH   6   8
ATOM      8  C   UNL A   1      34.171  22.346  24.396  1.00  0.00     0.115 C 
ATOM      9  C   UNL A   1      32.926  21.741  24.953  1.00  0.00     0.097 C 
ATOM     10  C   UNL A   1      32.259  20.787  23.932  1.00  0.00     0.041 C 
ATOM     11  C   UNL A   1      32.145  21.372  22.557  1.00  0.00    -0.030 C 
ATOM     12  C   UNL A   1      33.984  22.988  23.012  1.00  0.00     0.043 C 
ATOM     13  C   UNL A   1      32.898  22.404  22.168  1.00  0.00    -0.030 C 
BRANCH   9  14
ATOM     14  C   UNL A   1      31.989  22.872  25.459  1.00  0.00     0.224 C 
ATOM     15  N   UNL A   1      32.314  24.196  25.641  1.00  0.00    -0.349 N 
ATOM     16  H   UNL A   1      31.951  24.485  26.509  1.00  0.00     0.164 HD
ATOM     17  O   UNL A   1      30.887  22.547  25.928  1.00  0.00    -0.275 OA
BRANCH  15  18
ATOM     18  C   UNL A   1      33.031  25.393  24.998  1.00  0.00     0.109 C 
ATOM     19  C   UNL A   1      34.102  25.908  25.979  1.00  0.00     0.036 C 
BRANCH  18  20
ATOM     20  C   UNL A   1      32.296  26.489  24.188  1.00  0.00    -0.026 A 
ATOM     21  C   UNL A   1      32.218  27.834  24.618  1.00  0.00     0.008 A 
ATOM     22  C   UNL A   1      31.646  26.192  22.975  1.00  0.00     0.008 A 
ATOM     23  C   UNL A   1      31.419  28.796  23.959  1.00  0.00     0.027 A 
ATOM     24  C   UNL A   1      30.834  27.148  22.311  1.00  0.00     0.027 A 
ATOM     25  C   UNL A   1      30.652  28.439  22.843  1.00  0.00     0.046 A 
BRANCH  25  26
ATOM     26  N   UNL A   1      29.546  29.269  22.432  1.00  0.00    -0.306 N 
ATOM     27  C   UNL A   1      28.269  29.302  22.971  1.00  0.00     0.113 A 
ATOM     28  C   UNL A   1      29.556  30.303  21.511  1.00  0.00     0.204 A 
ATOM     29  C   UNL A   1      27.628  30.375  22.395  1.00  0.00     0.131 A 
ATOM     30  N   UNL A   1      28.417  30.964  21.455  1.00  0.00    -0.245 NA
ENDBRANCH  25  26
ENDBRANCH  18  20
ENDBRANCH  15  18
ENDBRANCH   9  14
ENDBRANCH   6   8
ENDBRANCH   5   6
ENDBRANCH   4   5
ENDBRANCH   3   4
ENDBRANCH   2   3
ENDBRANCH   1   2
BRANCH   1  31
ATOM     31  C   UNL A   1      41.902  21.836  25.766  1.00  0.00     0.188 C 
BRANCH  31  32
ATOM     32  O   UNL A   1      42.747  21.975  26.882  1.00  0.00    -0.376 OA
BRANCH  32  33
ATOM     33  C   UNL A   1      43.135  23.290  27.220  1.00  0.00     0.202 C 
BRANCH  33  34
ATOM     34  C   UNL A   1      42.209  24.221  28.040  1.00  0.00     0.261 C 
BRANCH  34  35
ATOM     35  O   UNL A   1      40.926  24.613  27.499  1.00  0.00    -0.460 OA
BRANCH  35  36
ATOM     36  C   UNL A   1      40.800  25.796  26.864  1.00  0.00     0.338 C 
ATOM     37  O   UNL A   1      40.842  25.967  25.651  1.00  0.00    -0.246 OA
BRANCH  36  38
ATOM     38  C   UNL A   1      40.368  26.836  27.841  1.00  0.00     0.060 A 
ATOM     39  C   UNL A   1      40.866  28.140  27.720  1.00  0.00     0.016 A 
ATOM     40  C   UNL A   1      39.561  26.521  28.932  1.00  0.00     0.016 A 
ATOM     41  C   UNL A   1      40.601  29.119  28.683  1.00  0.00     0.010 A 
ATOM     42  C   UNL A   1      39.324  27.492  29.923  1.00  0.00     0.010 A 
ATOM     43  C   UNL A   1      39.879  28.784  29.829  1.00  0.00    -0.014 A 
BRANCH  43  44
ATOM     44  C   UNL A   1      39.955  29.673  31.024  1.00  0.00     0.031 A 
ATOM     45  C   UNL A   1      41.136  29.507  31.946  1.00  0.00     0.074 A 
ATOM     46  C   UNL A   1      39.068  30.655  31.269  1.00  0.00     0.049 A 
ATOM     47  N   UNL A   1      41.346  30.004  33.137  1.00  0.00    -0.248 NA
ATOM     48  C   UNL A   1      42.230  28.658  31.445  1.00  0.00     0.031 C 
ATOM     49  C   UNL A   1      37.967  31.048  30.394  1.00  0.00     0.029 A 
ATOM     50  N   UNL A   1      38.956  31.500  32.350  1.00  0.00    -0.354 N 
ATOM     51  C   UNL A   1      42.566  29.480  33.553  1.00  0.00     0.074 A 
ATOM     52  C   UNL A   1      43.048  28.630  32.486  1.00  0.00     0.031 C 
ATOM     53  C   UNL A   1      37.274  32.038  30.983  1.00  0.00     0.029 A 
ATOM     54  C   UNL A   1      37.839  32.300  32.308  1.00  0.00     0.049 A 
ATOM     55  H   UNL A   1      39.613  31.529  33.082  1.00  0.00     0.167 HD
ATOM     56  C   UNL A   1      43.220  29.677  34.723  1.00  0.00     0.031 A 
ATOM     57  C   UNL A   1      37.298  33.103  33.249  1.00  0.00     0.031 A 
ATOM     58  C   UNL A   1      42.735  30.526  35.778  1.00  0.00     0.049 A 
ATOM     59  C   UNL A   1      37.968  33.224  34.594  1.00  0.00     0.074 A 
ATOM     60  C   UNL A   1      43.301  30.775  37.015  1.00  0.00     0.029 A 
ATOM     61  N   UNL A   1      41.563  31.266  35.720  1.00  0.00    -0.354 N 
ATOM     62  N   UNL A   1      39.080  32.668  35.015  1.00  0.00    -0.248 NA
ATOM     63  C   UNL A   1      37.308  34.076  35.595  1.00  0.00     0.031 C 
ATOM     64  C   UNL A   1      42.438  31.611  37.730  1.00  0.00     0.029 A 
ATOM     65  C   UNL A   1      41.373  31.948  36.910  1.00  0.00     0.049 A 
ATOM     66  H   UNL A   1      40.955  31.301  34.946  1.00  0.00     0.167 HD
ATOM     67  C   UNL A   1      39.264  33.117  36.320  1.00  0.00     0.074 A 
ATOM     68  C   UNL A   1      38.157  34.004  36.613  1.00  0.00     0.031 C 
ATOM     69  C   UNL A   1      40.262  32.825  37.193  1.00  0.00     0.031 A 
BRANCH  56  70
ATOM     70  C   UNL A   1      44.479  28.878  34.949  1.00  0.00    -0.014 A 
ATOM     71  C   UNL A   1      44.457  27.594  35.527  1.00  0.00     0.010 A 
ATOM     72  C   UNL A   1      45.719  29.447  34.602  1.00  0.00     0.010 A 
ATOM     73  C   UNL A   1      45.654  26.929  35.816  1.00  0.00     0.020 A 
ATOM     74  C   UNL A   1      46.914  28.769  34.853  1.00  0.00     0.020 A 
ATOM     75  C   UNL A   1      46.874  27.526  35.485  1.00  0.00     0.054 A 
BRANCH  75  76
ATOM     76  S   UNL A   1      48.412  26.656  35.898  1.00  0.00     0.124 S 
ATOM     77  O   UNL A   1      48.058  25.999  37.154  1.00  0.00    -0.237 OA
ATOM     78  O   UNL A   1      48.593  25.767  34.754  1.00  0.00    -0.237 OA
ATOM     79  O   UNL A   1      49.398  27.728  36.013  1.00  0.00    -0.744 OA
ENDBRANCH  75  76
ENDBRANCH  56  70
BRANCH  57  80
ATOM     80  C   UNL A   1      36.009  33.800  32.969  1.00  0.00    -0.014 A 
ATOM     81  C   UNL A   1      34.777  33.141  33.125  1.00  0.00     0.010 A 
ATOM     82  C   UNL A   1      36.011  35.152  32.571  1.00  0.00     0.010 A 
ATOM     83  C   UNL A   1      33.575  33.823  32.905  1.00  0.00     0.020 A 
ATOM     84  C   UNL A   1      34.812  35.845  32.381  1.00  0.00     0.020 A 
ATOM     85  C   UNL A   1      33.600  35.175  32.551  1.00  0.00     0.054 A 
BRANCH  85  86
ATOM     86  S   UNL A   1      32.027  36.065  32.381  1.00  0.00     0.124 S 
ATOM     87  O   UNL A   1      31.057  35.053  32.789  1.00  0.00    -0.237 OA
ATOM     88  O   UNL A   1      32.202  37.184  33.303  1.00  0.00    -0.237 OA
ATOM     89  O   UNL A   1      31.992  36.433  30.967  1.00  0.00    -0.744 OA
ENDBRANCH  85  86
ENDBRANCH  57  80
BRANCH  69  90
ATOM     90  C   UNL A   1      40.233  33.499  38.543  1.00  0.00    -0.014 A 
ATOM     91  C   UNL A   1      40.676  34.821  38.716  1.00  0.00     0.010 A 
ATOM     92  C   UNL A   1      39.687  32.812  39.644  1.00  0.00     0.010 A 
ATOM     93  C   UNL A   1      40.601  35.435  39.971  1.00  0.00     0.020 A 
ATOM     94  C   UNL A   1      39.580  33.432  40.892  1.00  0.00     0.020 A 
ATOM     95  C   UNL A   1      40.051  34.736  41.051  1.00  0.00     0.054 A 
BRANCH  95  96
ATOM     96  S   UNL A   1      39.922  35.570  42.657  1.00  0.00     0.124 S 
ATOM     97  O   UNL A   1      39.440  36.894  42.275  1.00  0.00    -0.237 OA
ATOM     98  O   UNL A   1      38.964  34.734  43.375  1.00  0.00    -0.237 OA
ATOM     99  O   UNL A   1      41.287  35.532  43.178  1.00  0.00    -0.744 OA
ENDBRANCH  95  96
ENDBRANCH  69  90
ENDBRANCH  43  44
ENDBRANCH  36  38
ENDBRANCH  35  36
ENDBRANCH  34  35
ENDBRANCH  33  34
ENDBRANCH  32  33
ENDBRANCH  31  32
ENDBRANCH   1  31
TORSDOF 24
ENDMDL
