MODEL 1
REMARK VINA RESULT:     -10.2      0.000      0.000
REMARK SMILES Cc1cc(C)cc(N(C)S(=O)(=O)c2ccc(F)c(C(=O)OCCOCCOCCOC(=O)c3ccc(-c4c5nc(c(-c6ccc(S(=O)(=O)[O-])cc6)c6ccc([nH]6)c(-c6ccc(S(=O)(=O)[O-])cc6)c6nc(c(-c7ccc(S(=O)(=O)[O-])cc7)c7ccc4[nH]7)C=C6)C=C5)cc3)c2)c1
REMARK SMILES IDX 25 1 24 2 23 3 22 4 21 5 19 6 20 7 18 8 13 9 14 10 93 11
REMARK SMILES IDX 15 12 16 13 17 14 10 15 11 16 12 17 8 18 9 19 7 20 1 21 2 22
REMARK SMILES IDX 3 23 94 24 4 25 5 26 6 27 26 28 27 29 28 30 29 31 30 32
REMARK SMILES IDX 31 33 32 34 33 35 34 36 92 37 35 38 91 39 36 40 37 41 38 42
REMARK SMILES IDX 85 43 39 44 90 45 84 46 86 47 40 48 89 49 83 50 82 51 41 53
REMARK SMILES IDX 71 54 52 55 70 56 53 57 56 58 69 59 87 60 54 61 55 62 68 64
REMARK SMILES IDX 88 65 57 66 42 67 43 68 51 69 44 70 50 71 45 72 46 73 47 74
REMARK SMILES IDX 48 75 49 76 72 77 73 78 81 79 74 80 80 81 75 82 76 83 77 84
REMARK SMILES IDX 78 85 79 86 58 87 59 88 67 89 60 90 66 91 61 92 62 93 63 94
REMARK SMILES IDX 64 95 65 96
REMARK H PARENT 86 52 56 63
REMARK Flexibility Score: inf
ROOT
ATOM      1  C   UNL A   1      46.349  23.342  26.238  1.00  0.00     0.188 C 
ENDROOT
BRANCH   1   2
ATOM      2  O   UNL A   1      45.673  22.149  26.570  1.00  0.00    -0.376 OA
BRANCH   2   3
ATOM      3  C   UNL A   1      44.518  21.753  25.847  1.00  0.00     0.202 C 
BRANCH   3   4
ATOM      4  C   UNL A   1      43.145  22.434  25.992  1.00  0.00     0.261 C 
BRANCH   4   5
ATOM      5  O   UNL A   1      42.007  21.614  25.691  1.00  0.00    -0.460 OA
BRANCH   5   6
ATOM      6  C   UNL A   1      41.109  21.459  26.698  1.00  0.00     0.341 C 
ATOM      7  O   UNL A   1      41.280  20.859  27.745  1.00  0.00    -0.246 OA
BRANCH   6   8
ATOM      8  C   UNL A   1      39.960  22.356  26.482  1.00  0.00     0.097 A 
ATOM      9  C   UNL A   1      37.641  22.584  25.795  1.00  0.00     0.089 A 
ATOM     10  C   UNL A   1      37.665  23.917  26.243  1.00  0.00     0.025 A 
ATOM     11  C   UNL A   1      38.813  21.826  25.865  1.00  0.00     0.041 A 
ATOM     12  C   UNL A   1      38.836  24.467  26.779  1.00  0.00     0.041 A 
ATOM     13  C   UNL A   1      39.976  23.680  26.912  1.00  0.00     0.137 A 
ATOM     14  F   UNL A   1      41.083  24.226  27.431  1.00  0.00    -0.206 F 
BRANCH   9  15
ATOM     15  S   UNL A   1      36.188  22.024  24.888  1.00  0.00     0.264 S 
ATOM     16  O   UNL A   1      36.428  20.616  24.654  1.00  0.00    -0.201 OA
ATOM     17  O   UNL A   1      36.083  22.952  23.776  1.00  0.00    -0.201 OA
BRANCH  15  18
ATOM     18  N   UNL A   1      34.738  22.199  25.836  1.00  0.00    -0.269 N 
ATOM     19  C   UNL A   1      33.999  20.939  26.099  1.00  0.00     0.164 C 
BRANCH  18  20
ATOM     20  C   UNL A   1      33.880  23.347  25.391  1.00  0.00     0.052 A 
ATOM     21  C   UNL A   1      33.521  27.152  25.864  1.00  0.00     0.044 C 
ATOM     22  C   UNL A   1      33.260  25.740  25.441  1.00  0.00    -0.049 A 
ATOM     23  C   UNL A   1      32.156  25.490  24.640  1.00  0.00     0.007 A 
ATOM     24  C   UNL A   1      34.089  24.668  25.833  1.00  0.00     0.030 A 
ATOM     25  C   UNL A   1      31.899  24.198  24.212  1.00  0.00    -0.049 A 
ATOM     26  C   UNL A   1      30.708  23.953  23.352  1.00  0.00     0.044 C 
ATOM     27  C   UNL A   1      32.733  23.139  24.609  1.00  0.00     0.030 A 
ENDBRANCH  18  20
ENDBRANCH  15  18
ENDBRANCH   9  15
ENDBRANCH   6   8
ENDBRANCH   5   6
ENDBRANCH   4   5
ENDBRANCH   3   4
ENDBRANCH   2   3
ENDBRANCH   1   2
BRANCH   1  28
ATOM     28  C   UNL A   1      45.676  24.703  26.506  1.00  0.00     0.188 C 
BRANCH  28  29
ATOM     29  O   UNL A   1      45.688  25.694  25.506  1.00  0.00    -0.376 OA
BRANCH  29  30
ATOM     30  C   UNL A   1      44.529  26.465  25.237  1.00  0.00     0.202 C 
BRANCH  30  31
ATOM     31  C   UNL A   1      43.131  25.907  24.915  1.00  0.00     0.261 C 
BRANCH  31  32
ATOM     32  O   UNL A   1      41.997  26.564  25.483  1.00  0.00    -0.460 OA
BRANCH  32  33
ATOM     33  C   UNL A   1      42.075  27.915  25.535  1.00  0.00     0.338 C 
ATOM     34  O   UNL A   1      42.081  28.692  24.586  1.00  0.00    -0.246 OA
BRANCH  33  35
ATOM     35  C   UNL A   1      41.987  28.345  26.939  1.00  0.00     0.060 A 
ATOM     36  C   UNL A   1      41.123  27.671  27.814  1.00  0.00     0.016 A 
ATOM     37  C   UNL A   1      42.727  29.444  27.376  1.00  0.00     0.016 A 
ATOM     38  C   UNL A   1      40.987  28.106  29.134  1.00  0.00     0.010 A 
ATOM     39  C   UNL A   1      42.574  29.890  28.689  1.00  0.00     0.010 A 
ATOM     40  C   UNL A   1      41.688  29.240  29.568  1.00  0.00    -0.014 A 
BRANCH  40  41
ATOM     41  C   UNL A   1      41.378  29.873  30.875  1.00  0.00     0.031 A 
ATOM     42  C   UNL A   1      40.134  30.714  30.973  1.00  0.00     0.074 A 
ATOM     43  C   UNL A   1      42.224  29.762  31.917  1.00  0.00     0.049 A 
ATOM     44  N   UNL A   1      39.656  31.369  31.997  1.00  0.00    -0.248 NA
ATOM     45  C   UNL A   1      39.333  30.852  29.743  1.00  0.00     0.031 C 
ATOM     46  C   UNL A   1      43.448  28.965  31.915  1.00  0.00     0.029 A 
ATOM     47  N   UNL A   1      42.186  30.311  33.178  1.00  0.00    -0.354 N 
ATOM     48  C   UNL A   1      38.528  32.032  31.526  1.00  0.00     0.074 A 
ATOM     49  C   UNL A   1      38.391  31.700  30.126  1.00  0.00     0.031 C 
ATOM     50  C   UNL A   1      44.025  29.046  33.128  1.00  0.00     0.029 A 
ATOM     51  C   UNL A   1      43.236  29.928  33.989  1.00  0.00     0.049 A 
ATOM     52  H   UNL A   1      41.475  30.922  33.475  1.00  0.00     0.167 HD
ATOM     53  C   UNL A   1      37.696  32.860  32.200  1.00  0.00     0.031 A 
ATOM     54  C   UNL A   1      43.488  30.216  35.289  1.00  0.00     0.031 A 
ATOM     55  C   UNL A   1      37.853  33.182  33.592  1.00  0.00     0.049 A 
ATOM     56  C   UNL A   1      42.482  31.076  36.030  1.00  0.00     0.074 A 
ATOM     57  C   UNL A   1      37.062  34.000  34.381  1.00  0.00     0.029 A 
ATOM     58  N   UNL A   1      38.873  32.706  34.402  1.00  0.00    -0.354 N 
ATOM     59  N   UNL A   1      41.344  31.577  35.604  1.00  0.00    -0.248 NA
ATOM     60  C   UNL A   1      42.770  31.375  37.441  1.00  0.00     0.031 C 
ATOM     61  C   UNL A   1      37.645  34.069  35.650  1.00  0.00     0.029 A 
ATOM     62  C   UNL A   1      38.756  33.240  35.672  1.00  0.00     0.049 A 
ATOM     63  H   UNL A   1      39.577  32.080  34.114  1.00  0.00     0.167 HD
ATOM     64  C   UNL A   1      40.774  32.221  36.699  1.00  0.00     0.074 A 
ATOM     65  C   UNL A   1      41.660  31.991  37.822  1.00  0.00     0.031 C 
ATOM     66  C   UNL A   1      39.641  32.963  36.776  1.00  0.00     0.031 A 
BRANCH  53  67
ATOM     67  C   UNL A   1      36.586  33.527  31.428  1.00  0.00    -0.014 A 
ATOM     68  C   UNL A   1      36.628  33.654  30.029  1.00  0.00     0.010 A 
ATOM     69  C   UNL A   1      35.457  34.001  32.123  1.00  0.00     0.010 A 
ATOM     70  C   UNL A   1      35.579  34.275  29.343  1.00  0.00     0.020 A 
ATOM     71  C   UNL A   1      34.393  34.595  31.438  1.00  0.00     0.020 A 
ATOM     72  C   UNL A   1      34.469  34.742  30.053  1.00  0.00     0.054 A 
BRANCH  72  73
ATOM     73  S   UNL A   1      33.112  35.522  29.135  1.00  0.00     0.124 S 
ATOM     74  O   UNL A   1      32.630  34.416  28.312  1.00  0.00    -0.237 OA
ATOM     75  O   UNL A   1      32.209  35.950  30.202  1.00  0.00    -0.237 OA
ATOM     76  O   UNL A   1      33.763  36.605  28.402  1.00  0.00    -0.744 OA
ENDBRANCH  72  73
ENDBRANCH  53  67
BRANCH  54  77
ATOM     77  C   UNL A   1      44.619  29.545  36.025  1.00  0.00    -0.014 A 
ATOM     78  C   UNL A   1      44.369  28.393  36.804  1.00  0.00     0.010 A 
ATOM     79  C   UNL A   1      45.950  29.982  35.920  1.00  0.00     0.010 A 
ATOM     80  C   UNL A   1      45.402  27.676  37.410  1.00  0.00     0.020 A 
ATOM     81  C   UNL A   1      46.998  29.254  36.507  1.00  0.00     0.020 A 
ATOM     82  C   UNL A   1      46.715  28.101  37.242  1.00  0.00     0.054 A 
BRANCH  82  83
ATOM     83  S   UNL A   1      48.040  27.102  37.974  1.00  0.00     0.124 S 
ATOM     84  O   UNL A   1      48.522  27.968  39.045  1.00  0.00    -0.237 OA
ATOM     85  O   UNL A   1      47.320  25.905  38.403  1.00  0.00    -0.237 OA
ATOM     86  O   UNL A   1      48.969  26.901  36.865  1.00  0.00    -0.744 OA
ENDBRANCH  82  83
ENDBRANCH  54  77
BRANCH  66  87
ATOM     87  C   UNL A   1      39.294  33.587  38.105  1.00  0.00    -0.014 A 
ATOM     88  C   UNL A   1      38.632  32.841  39.098  1.00  0.00     0.010 A 
ATOM     89  C   UNL A   1      39.724  34.893  38.407  1.00  0.00     0.010 A 
ATOM     90  C   UNL A   1      38.384  33.396  40.355  1.00  0.00     0.020 A 
ATOM     91  C   UNL A   1      39.509  35.440  39.676  1.00  0.00     0.020 A 
ATOM     92  C   UNL A   1      38.830  34.689  40.639  1.00  0.00     0.054 A 
BRANCH  92  93
ATOM     93  S   UNL A   1      38.561  35.350  42.306  1.00  0.00     0.124 S 
ATOM     94  O   UNL A   1      37.129  35.136  42.492  1.00  0.00    -0.237 OA
ATOM     95  O   UNL A   1      39.434  34.512  43.125  1.00  0.00    -0.237 OA
ATOM     96  O   UNL A   1      38.973  36.749  42.197  1.00  0.00    -0.744 OA
ENDBRANCH  92  93
ENDBRANCH  66  87
ENDBRANCH  40  41
ENDBRANCH  33  35
ENDBRANCH  32  33
ENDBRANCH  31  32
ENDBRANCH  30  31
ENDBRANCH  29  30
ENDBRANCH  28  29
ENDBRANCH   1  28
TORSDOF 23
ENDMDL
MODEL 2
REMARK VINA RESULT:      -9.9      5.413     14.104
REMARK SMILES Cc1cc(C)cc(N(C)S(=O)(=O)c2ccc(F)c(C(=O)OCCOCCOCCOC(=O)c3ccc(-c4c5nc(c(-c6ccc(S(=O)(=O)[O-])cc6)c6ccc([nH]6)c(-c6ccc(S(=O)(=O)[O-])cc6)c6nc(c(-c7ccc(S(=O)(=O)[O-])cc7)c7ccc4[nH]7)C=C6)C=C5)cc3)c2)c1
REMARK SMILES IDX 25 1 24 2 23 3 22 4 21 5 19 6 20 7 18 8 13 9 14 10 93 11
REMARK SMILES IDX 15 12 16 13 17 14 10 15 11 16 12 17 8 18 9 19 7 20 1 21 2 22
REMARK SMILES IDX 3 23 94 24 4 25 5 26 6 27 26 28 27 29 28 30 29 31 30 32
REMARK SMILES IDX 31 33 32 34 33 35 34 36 92 37 35 38 91 39 36 40 37 41 38 42
REMARK SMILES IDX 85 43 39 44 90 45 84 46 86 47 40 48 89 49 83 50 82 51 41 53
REMARK SMILES IDX 71 54 52 55 70 56 53 57 56 58 69 59 87 60 54 61 55 62 68 64
REMARK SMILES IDX 88 65 57 66 42 67 43 68 51 69 44 70 50 71 45 72 46 73 47 74
REMARK SMILES IDX 48 75 49 76 72 77 73 78 81 79 74 80 80 81 75 82 76 83 77 84
REMARK SMILES IDX 78 85 79 86 58 87 59 88 67 89 60 90 66 91 61 92 62 93 63 94
REMARK SMILES IDX 64 95 65 96
REMARK H PARENT 86 52 56 63
REMARK Flexibility Score: inf
ROOT
ATOM      1  C   UNL A   1      35.177  35.493  32.959  1.00  0.00     0.188 C 
ENDROOT
BRANCH   1   2
ATOM      2  O   UNL A   1      36.234  35.199  33.846  1.00  0.00    -0.376 OA
BRANCH   2   3
ATOM      3  C   UNL A   1      36.458  33.866  34.280  1.00  0.00     0.202 C 
BRANCH   3   4
ATOM      4  C   UNL A   1      37.163  33.505  35.600  1.00  0.00     0.261 C 
BRANCH   4   5
ATOM      5  O   UNL A   1      38.594  33.598  35.590  1.00  0.00    -0.460 OA
BRANCH   5   6
ATOM      6  C   UNL A   1      39.259  32.502  36.040  1.00  0.00     0.341 C 
ATOM      7  O   UNL A   1      38.903  31.741  36.923  1.00  0.00    -0.246 OA
BRANCH   6   8
ATOM      8  C   UNL A   1      40.369  32.184  35.124  1.00  0.00     0.097 A 
ATOM      9  C   UNL A   1      42.572  32.781  34.291  1.00  0.00     0.089 A 
ATOM     10  C   UNL A   1      42.612  31.559  33.595  1.00  0.00     0.025 A 
ATOM     11  C   UNL A   1      41.419  33.112  35.009  1.00  0.00     0.041 A 
ATOM     12  C   UNL A   1      41.527  30.676  33.644  1.00  0.00     0.041 A 
ATOM     13  C   UNL A   1      40.415  30.984  34.422  1.00  0.00     0.137 A 
ATOM     14  F   UNL A   1      39.390  30.121  34.458  1.00  0.00    -0.206 F 
BRANCH   9  15
ATOM     15  S   UNL A   1      43.885  33.974  33.980  1.00  0.00     0.264 S 
ATOM     16  O   UNL A   1      44.783  33.296  33.068  1.00  0.00    -0.201 OA
ATOM     17  O   UNL A   1      44.333  34.365  35.305  1.00  0.00    -0.201 OA
BRANCH  15  18
ATOM     18  N   UNL A   1      43.273  35.409  33.206  1.00  0.00    -0.269 N 
ATOM     19  C   UNL A   1      42.490  36.314  34.083  1.00  0.00     0.164 C 
BRANCH  18  20
ATOM     20  C   UNL A   1      42.645  35.134  31.870  1.00  0.00     0.052 A 
ATOM     21  C   UNL A   1      43.285  35.686  28.112  1.00  0.00     0.044 C 
ATOM     22  C   UNL A   1      42.627  35.310  29.404  1.00  0.00    -0.049 A 
ATOM     23  C   UNL A   1      41.371  34.721  29.353  1.00  0.00     0.007 A 
ATOM     24  C   UNL A   1      43.235  35.538  30.656  1.00  0.00     0.030 A 
ATOM     25  C   UNL A   1      40.746  34.340  30.528  1.00  0.00    -0.049 A 
ATOM     26  C   UNL A   1      39.399  33.710  30.449  1.00  0.00     0.044 C 
ATOM     27  C   UNL A   1      41.362  34.572  31.769  1.00  0.00     0.030 A 
ENDBRANCH  18  20
ENDBRANCH  15  18
ENDBRANCH   9  15
ENDBRANCH   6   8
ENDBRANCH   5   6
ENDBRANCH   4   5
ENDBRANCH   3   4
ENDBRANCH   2   3
ENDBRANCH   1   2
BRANCH   1  28
ATOM     28  C   UNL A   1      33.915  34.608  32.952  1.00  0.00     0.188 C 
BRANCH  28  29
ATOM     29  O   UNL A   1      33.651  33.779  31.845  1.00  0.00    -0.376 OA
BRANCH  29  30
ATOM     30  C   UNL A   1      34.713  33.197  31.108  1.00  0.00     0.202 C 
BRANCH  30  31
ATOM     31  C   UNL A   1      34.923  31.692  30.866  1.00  0.00     0.261 C 
BRANCH  31  32
ATOM     32  O   UNL A   1      36.215  31.252  30.444  1.00  0.00    -0.460 OA
BRANCH  32  33
ATOM     33  C   UNL A   1      36.900  30.514  31.351  1.00  0.00     0.338 C 
ATOM     34  O   UNL A   1      36.520  30.175  32.467  1.00  0.00    -0.246 OA
BRANCH  33  35
ATOM     35  C   UNL A   1      38.139  30.023  30.730  1.00  0.00     0.060 A 
ATOM     36  C   UNL A   1      39.035  29.256  31.490  1.00  0.00     0.016 A 
ATOM     37  C   UNL A   1      38.434  30.359  29.409  1.00  0.00     0.016 A 
ATOM     38  C   UNL A   1      40.242  28.832  30.929  1.00  0.00     0.010 A 
ATOM     39  C   UNL A   1      39.650  29.953  28.857  1.00  0.00     0.010 A 
ATOM     40  C   UNL A   1      40.569  29.209  29.619  1.00  0.00    -0.014 A 
BRANCH  40  41
ATOM     41  C   UNL A   1      41.938  28.993  29.084  1.00  0.00     0.031 A 
ATOM     42  C   UNL A   1      42.246  27.661  28.455  1.00  0.00     0.074 A 
ATOM     43  C   UNL A   1      42.895  29.930  29.230  1.00  0.00     0.049 A 
ATOM     44  N   UNL A   1      43.362  27.235  27.926  1.00  0.00    -0.248 NA
ATOM     45  C   UNL A   1      41.156  26.671  28.440  1.00  0.00     0.031 C 
ATOM     46  C   UNL A   1      42.685  31.249  29.822  1.00  0.00     0.029 A 
ATOM     47  N   UNL A   1      44.228  29.925  28.890  1.00  0.00    -0.354 N 
ATOM     48  C   UNL A   1      43.123  25.915  27.558  1.00  0.00     0.074 A 
ATOM     49  C   UNL A   1      41.757  25.611  27.920  1.00  0.00     0.031 C 
ATOM     50  C   UNL A   1      43.839  31.940  29.770  1.00  0.00     0.029 A 
ATOM     51  C   UNL A   1      44.884  31.106  29.174  1.00  0.00     0.049 A 
ATOM     52  H   UNL A   1      44.674  29.148  28.482  1.00  0.00     0.167 HD
ATOM     53  C   UNL A   1      43.976  25.033  26.987  1.00  0.00     0.031 A 
ATOM     54  C   UNL A   1      46.163  31.479  28.924  1.00  0.00     0.031 A 
ATOM     55  C   UNL A   1      45.333  25.353  26.637  1.00  0.00     0.049 A 
ATOM     56  C   UNL A   1      47.059  30.490  28.202  1.00  0.00     0.074 A 
ATOM     57  C   UNL A   1      46.284  24.542  26.043  1.00  0.00     0.029 A 
ATOM     58  N   UNL A   1      45.934  26.584  26.856  1.00  0.00    -0.354 N 
ATOM     59  N   UNL A   1      46.770  29.297  27.734  1.00  0.00    -0.248 NA
ATOM     60  C   UNL A   1      48.442  30.913  27.937  1.00  0.00     0.031 C 
ATOM     61  C   UNL A   1      47.479  25.263  25.965  1.00  0.00     0.029 A 
ATOM     62  C   UNL A   1      47.254  26.545  26.444  1.00  0.00     0.049 A 
ATOM     63  H   UNL A   1      45.488  27.370  27.248  1.00  0.00     0.167 HD
ATOM     64  C   UNL A   1      47.923  28.845  27.097  1.00  0.00     0.074 A 
ATOM     65  C   UNL A   1      48.892  29.918  27.184  1.00  0.00     0.031 C 
ATOM     66  C   UNL A   1      48.181  27.645  26.518  1.00  0.00     0.031 A 
BRANCH  53  67
ATOM     67  C   UNL A   1      43.490  23.623  26.766  1.00  0.00    -0.014 A 
ATOM     68  C   UNL A   1      43.349  23.081  25.478  1.00  0.00     0.010 A 
ATOM     69  C   UNL A   1      43.207  22.813  27.883  1.00  0.00     0.010 A 
ATOM     70  C   UNL A   1      42.899  21.767  25.308  1.00  0.00     0.020 A 
ATOM     71  C   UNL A   1      42.786  21.490  27.719  1.00  0.00     0.020 A 
ATOM     72  C   UNL A   1      42.620  20.981  26.430  1.00  0.00     0.054 A 
BRANCH  72  73
ATOM     73  S   UNL A   1      42.061  19.273  26.181  1.00  0.00     0.124 S 
ATOM     74  O   UNL A   1      40.611  19.437  26.112  1.00  0.00    -0.237 OA
ATOM     75  O   UNL A   1      42.711  18.904  24.926  1.00  0.00    -0.237 OA
ATOM     76  O   UNL A   1      42.551  18.569  27.364  1.00  0.00    -0.744 OA
ENDBRANCH  72  73
ENDBRANCH  53  67
BRANCH  54  77
ATOM     77  C   UNL A   1      46.619  32.893  29.173  1.00  0.00    -0.014 A 
ATOM     78  C   UNL A   1      47.278  33.219  30.379  1.00  0.00     0.010 A 
ATOM     79  C   UNL A   1      46.475  33.911  28.217  1.00  0.00     0.010 A 
ATOM     80  C   UNL A   1      47.817  34.487  30.605  1.00  0.00     0.020 A 
ATOM     81  C   UNL A   1      47.032  35.183  28.425  1.00  0.00     0.020 A 
ATOM     82  C   UNL A   1      47.707  35.458  29.616  1.00  0.00     0.054 A 
BRANCH  82  83
ATOM     83  S   UNL A   1      48.487  37.069  29.906  1.00  0.00     0.124 S 
ATOM     84  O   UNL A   1      48.404  37.693  28.590  1.00  0.00    -0.237 OA
ATOM     85  O   UNL A   1      47.627  37.646  30.937  1.00  0.00    -0.237 OA
ATOM     86  O   UNL A   1      49.835  36.721  30.349  1.00  0.00    -0.744 OA
ENDBRANCH  82  83
ENDBRANCH  54  77
BRANCH  66  87
ATOM     87  C   UNL A   1      49.558  27.421  25.942  1.00  0.00    -0.014 A 
ATOM     88  C   UNL A   1      50.554  26.768  26.692  1.00  0.00     0.010 A 
ATOM     89  C   UNL A   1      49.831  27.771  24.606  1.00  0.00     0.010 A 
ATOM     90  C   UNL A   1      51.801  26.492  26.128  1.00  0.00     0.020 A 
ATOM     91  C   UNL A   1      51.066  27.465  24.026  1.00  0.00     0.020 A 
ATOM     92  C   UNL A   1      52.047  26.835  24.797  1.00  0.00     0.054 A 
BRANCH  92  93
ATOM     93  S   UNL A   1      53.649  26.391  24.071  1.00  0.00     0.124 S 
ATOM     94  O   UNL A   1      53.251  25.774  22.810  1.00  0.00    -0.237 OA
ATOM     95  O   UNL A   1      54.315  27.687  23.955  1.00  0.00    -0.237 OA
ATOM     96  O   UNL A   1      54.236  25.482  25.053  1.00  0.00    -0.744 OA
ENDBRANCH  92  93
ENDBRANCH  66  87
ENDBRANCH  40  41
ENDBRANCH  33  35
ENDBRANCH  32  33
ENDBRANCH  31  32
ENDBRANCH  30  31
ENDBRANCH  29  30
ENDBRANCH  28  29
ENDBRANCH   1  28
TORSDOF 23
ENDMDL
MODEL 3
REMARK VINA RESULT:      -9.7      4.870      9.479
REMARK SMILES Cc1cc(C)cc(N(C)S(=O)(=O)c2ccc(F)c(C(=O)OCCOCCOCCOC(=O)c3ccc(-c4c5nc(c(-c6ccc(S(=O)(=O)[O-])cc6)c6ccc([nH]6)c(-c6ccc(S(=O)(=O)[O-])cc6)c6nc(c(-c7ccc(S(=O)(=O)[O-])cc7)c7ccc4[nH]7)C=C6)C=C5)cc3)c2)c1
REMARK SMILES IDX 25 1 24 2 23 3 22 4 21 5 19 6 20 7 18 8 13 9 14 10 93 11
REMARK SMILES IDX 15 12 16 13 17 14 10 15 11 16 12 17 8 18 9 19 7 20 1 21 2 22
REMARK SMILES IDX 3 23 94 24 4 25 5 26 6 27 26 28 27 29 28 30 29 31 30 32
REMARK SMILES IDX 31 33 32 34 33 35 34 36 92 37 35 38 91 39 36 40 37 41 38 42
REMARK SMILES IDX 85 43 39 44 90 45 84 46 86 47 40 48 89 49 83 50 82 51 41 53
REMARK SMILES IDX 71 54 52 55 70 56 53 57 56 58 69 59 87 60 54 61 55 62 68 64
REMARK SMILES IDX 88 65 57 66 42 67 43 68 51 69 44 70 50 71 45 72 46 73 47 74
REMARK SMILES IDX 48 75 49 76 72 77 73 78 81 79 74 80 80 81 75 82 76 83 77 84
REMARK SMILES IDX 78 85 79 86 58 87 59 88 67 89 60 90 66 91 61 92 62 93 63 94
REMARK SMILES IDX 64 95 65 96
REMARK H PARENT 86 52 56 63
REMARK Flexibility Score: inf
ROOT
ATOM      1  C   UNL A   1      45.210  25.537  34.779  1.00  0.00     0.188 C 
ENDROOT
BRANCH   1   2
ATOM      2  O   UNL A   1      43.828  25.796  34.656  1.00  0.00    -0.376 OA
BRANCH   2   3
ATOM      3  C   UNL A   1      42.963  25.618  35.767  1.00  0.00     0.202 C 
BRANCH   3   4
ATOM      4  C   UNL A   1      42.227  26.772  36.471  1.00  0.00     0.261 C 
BRANCH   4   5
ATOM      5  O   UNL A   1      42.545  28.091  36.007  1.00  0.00    -0.460 OA
BRANCH   5   6
ATOM      6  C   UNL A   1      41.519  28.785  35.450  1.00  0.00     0.341 C 
ATOM      7  O   UNL A   1      40.712  29.490  36.030  1.00  0.00    -0.246 OA
BRANCH   6   8
ATOM      8  C   UNL A   1      41.664  28.795  33.983  1.00  0.00     0.097 A 
ATOM      9  C   UNL A   1      40.576  28.983  31.819  1.00  0.00     0.089 A 
ATOM     10  C   UNL A   1      41.844  29.045  31.215  1.00  0.00     0.025 A 
ATOM     11  C   UNL A   1      40.494  28.799  33.203  1.00  0.00     0.041 A 
ATOM     12  C   UNL A   1      43.007  28.954  31.989  1.00  0.00     0.041 A 
ATOM     13  C   UNL A   1      42.914  28.845  33.373  1.00  0.00     0.137 A 
ATOM     14  F   UNL A   1      44.040  28.764  34.094  1.00  0.00    -0.206 F 
BRANCH   9  15
ATOM     15  S   UNL A   1      39.134  28.850  30.746  1.00  0.00     0.264 S 
ATOM     16  O   UNL A   1      38.571  27.553  31.056  1.00  0.00    -0.201 OA
ATOM     17  O   UNL A   1      39.650  29.135  29.419  1.00  0.00    -0.201 OA
BRANCH  15  18
ATOM     18  N   UNL A   1      37.954  30.078  31.109  1.00  0.00    -0.269 N 
ATOM     19  C   UNL A   1      37.174  29.857  32.351  1.00  0.00     0.164 C 
BRANCH  18  20
ATOM     20  C   UNL A   1      37.133  30.474  29.916  1.00  0.00     0.052 A 
ATOM     21  C   UNL A   1      36.045  33.609  27.961  1.00  0.00     0.044 C 
ATOM     22  C   UNL A   1      36.168  32.188  28.419  1.00  0.00    -0.049 A 
ATOM     23  C   UNL A   1      35.459  31.215  27.730  1.00  0.00     0.007 A 
ATOM     24  C   UNL A   1      36.969  31.816  29.518  1.00  0.00     0.030 A 
ATOM     25  C   UNL A   1      35.569  29.889  28.113  1.00  0.00    -0.049 A 
ATOM     26  C   UNL A   1      34.799  28.861  27.360  1.00  0.00     0.044 C 
ATOM     27  C   UNL A   1      36.371  29.530  29.210  1.00  0.00     0.030 A 
ENDBRANCH  18  20
ENDBRANCH  15  18
ENDBRANCH   9  15
ENDBRANCH   6   8
ENDBRANCH   5   6
ENDBRANCH   4   5
ENDBRANCH   3   4
ENDBRANCH   2   3
ENDBRANCH   1   2
BRANCH   1  28
ATOM     28  C   UNL A   1      46.090  26.467  35.637  1.00  0.00     0.188 C 
BRANCH  28  29
ATOM     29  O   UNL A   1      47.039  27.299  35.014  1.00  0.00    -0.376 OA
BRANCH  29  30
ATOM     30  C   UNL A   1      48.423  27.143  35.277  1.00  0.00     0.202 C 
BRANCH  30  31
ATOM     31  C   UNL A   1      49.216  27.860  36.385  1.00  0.00     0.261 C 
BRANCH  31  32
ATOM     32  O   UNL A   1      49.366  29.278  36.295  1.00  0.00    -0.460 OA
BRANCH  32  33
ATOM     33  C   UNL A   1      48.989  29.970  37.397  1.00  0.00     0.338 C 
ATOM     34  O   UNL A   1      49.684  30.252  38.366  1.00  0.00    -0.246 OA
BRANCH  33  35
ATOM     35  C   UNL A   1      47.631  30.495  37.190  1.00  0.00     0.060 A 
ATOM     36  C   UNL A   1      46.527  29.653  37.392  1.00  0.00     0.016 A 
ATOM     37  C   UNL A   1      47.452  31.808  36.754  1.00  0.00     0.016 A 
ATOM     38  C   UNL A   1      45.235  30.122  37.144  1.00  0.00     0.010 A 
ATOM     39  C   UNL A   1      46.162  32.268  36.485  1.00  0.00     0.010 A 
ATOM     40  C   UNL A   1      45.051  31.423  36.656  1.00  0.00    -0.014 A 
BRANCH  40  41
ATOM     41  C   UNL A   1      43.727  31.864  36.147  1.00  0.00     0.031 A 
ATOM     42  C   UNL A   1      43.580  32.085  34.665  1.00  0.00     0.074 A 
ATOM     43  C   UNL A   1      42.713  32.133  36.993  1.00  0.00     0.049 A 
ATOM     44  N   UNL A   1      42.534  32.473  33.987  1.00  0.00    -0.248 NA
ATOM     45  C   UNL A   1      44.781  31.860  33.843  1.00  0.00     0.031 C 
ATOM     46  C   UNL A   1      42.764  31.943  38.440  1.00  0.00     0.029 A 
ATOM     47  N   UNL A   1      41.446  32.616  36.764  1.00  0.00    -0.354 N 
ATOM     48  C   UNL A   1      42.960  32.582  32.668  1.00  0.00     0.074 A 
ATOM     49  C   UNL A   1      44.359  32.218  32.640  1.00  0.00     0.031 C 
ATOM     50  C   UNL A   1      41.569  32.269  38.966  1.00  0.00     0.029 A 
ATOM     51  C   UNL A   1      40.673  32.727  37.903  1.00  0.00     0.049 A 
ATOM     52  H   UNL A   1      41.119  32.861  35.868  1.00  0.00     0.167 HD
ATOM     53  C   UNL A   1      42.251  32.971  31.583  1.00  0.00     0.031 A 
ATOM     54  C   UNL A   1      39.378  33.099  38.049  1.00  0.00     0.031 A 
ATOM     55  C   UNL A   1      40.861  33.334  31.632  1.00  0.00     0.049 A 
ATOM     56  C   UNL A   1      38.595  33.443  36.796  1.00  0.00     0.074 A 
ATOM     57  C   UNL A   1      40.037  33.732  30.593  1.00  0.00     0.029 A 
ATOM     58  N   UNL A   1      40.089  33.348  32.785  1.00  0.00    -0.354 N 
ATOM     59  N   UNL A   1      38.980  33.401  35.540  1.00  0.00    -0.248 NA
ATOM     60  C   UNL A   1      37.191  33.841  36.974  1.00  0.00     0.031 C 
ATOM     61  C   UNL A   1      38.787  34.051  31.130  1.00  0.00     0.029 A 
ATOM     62  C   UNL A   1      38.810  33.783  32.491  1.00  0.00     0.049 A 
ATOM     63  H   UNL A   1      40.406  33.087  33.680  1.00  0.00     0.167 HD
ATOM     64  C   UNL A   1      37.859  33.739  34.784  1.00  0.00     0.074 A 
ATOM     65  C   UNL A   1      36.769  33.919  35.720  1.00  0.00     0.031 C 
ATOM     66  C   UNL A   1      37.738  33.919  33.445  1.00  0.00     0.031 A 
BRANCH  53  67
ATOM     67  C   UNL A   1      42.979  33.090  30.268  1.00  0.00    -0.014 A 
ATOM     68  C   UNL A   1      43.158  31.985  29.418  1.00  0.00     0.010 A 
ATOM     69  C   UNL A   1      43.460  34.349  29.862  1.00  0.00     0.010 A 
ATOM     70  C   UNL A   1      43.836  32.130  28.203  1.00  0.00     0.020 A 
ATOM     71  C   UNL A   1      44.112  34.505  28.635  1.00  0.00     0.020 A 
ATOM     72  C   UNL A   1      44.309  33.389  27.820  1.00  0.00     0.054 A 
BRANCH  72  73
ATOM     73  S   UNL A   1      45.163  33.553  26.228  1.00  0.00     0.124 S 
ATOM     74  O   UNL A   1      44.047  33.739  25.304  1.00  0.00    -0.237 OA
ATOM     75  O   UNL A   1      46.006  34.728  26.438  1.00  0.00    -0.237 OA
ATOM     76  O   UNL A   1      45.884  32.291  26.087  1.00  0.00    -0.744 OA
ENDBRANCH  72  73
ENDBRANCH  53  67
BRANCH  54  77
ATOM     77  C   UNL A   1      38.687  32.985  39.383  1.00  0.00    -0.014 A 
ATOM     78  C   UNL A   1      38.732  34.062  40.296  1.00  0.00     0.010 A 
ATOM     79  C   UNL A   1      37.929  31.859  39.744  1.00  0.00     0.010 A 
ATOM     80  C   UNL A   1      38.014  34.044  41.493  1.00  0.00     0.020 A 
ATOM     81  C   UNL A   1      37.185  31.840  40.935  1.00  0.00     0.020 A 
ATOM     82  C   UNL A   1      37.227  32.938  41.797  1.00  0.00     0.054 A 
BRANCH  82  83
ATOM     83  S   UNL A   1      36.243  32.980  43.320  1.00  0.00     0.124 S 
ATOM     84  O   UNL A   1      37.265  32.827  44.351  1.00  0.00    -0.237 OA
ATOM     85  O   UNL A   1      35.614  34.296  43.243  1.00  0.00    -0.237 OA
ATOM     86  O   UNL A   1      35.332  31.848  43.169  1.00  0.00    -0.744 OA
ENDBRANCH  82  83
ENDBRANCH  54  77
BRANCH  66  87
ATOM     87  C   UNL A   1      36.391  34.337  32.908  1.00  0.00    -0.014 A 
ATOM     88  C   UNL A   1      35.828  35.576  33.265  1.00  0.00     0.010 A 
ATOM     89  C   UNL A   1      35.729  33.535  31.959  1.00  0.00     0.010 A 
ATOM     90  C   UNL A   1      34.619  35.993  32.705  1.00  0.00     0.020 A 
ATOM     91  C   UNL A   1      34.536  33.965  31.370  1.00  0.00     0.020 A 
ATOM     92  C   UNL A   1      33.984  35.189  31.755  1.00  0.00     0.054 A 
BRANCH  92  93
ATOM     93  S   UNL A   1      32.457  35.797  30.989  1.00  0.00     0.124 S 
ATOM     94  O   UNL A   1      32.762  37.209  30.781  1.00  0.00    -0.237 OA
ATOM     95  O   UNL A   1      32.366  34.988  29.776  1.00  0.00    -0.237 OA
ATOM     96  O   UNL A   1      31.430  35.521  31.993  1.00  0.00    -0.744 OA
ENDBRANCH  92  93
ENDBRANCH  66  87
ENDBRANCH  40  41
ENDBRANCH  33  35
ENDBRANCH  32  33
ENDBRANCH  31  32
ENDBRANCH  30  31
ENDBRANCH  29  30
ENDBRANCH  28  29
ENDBRANCH   1  28
TORSDOF 23
ENDMDL
