MODEL 1
REMARK VINA RESULT:      -8.8      0.000      0.000
REMARK SMILES CC(C)C[C@H](C)NS(=O)(=O)c1cc(C(=O)OCCOCCOCCOC(=O)c2ccc(-c3c4nc(c(-c5ccc(S(=O)(=O)[O-])cc5)c5ccc([nH]5)c(-c5ccc(S(=O)(=O)[O-])cc5)c5nc(c(-c6ccc(S(=O)(=O)[O-])cc6)c6ccc3[nH]6)C=C5)C=C4)cc2)ccc1Cl
REMARK SMILES IDX 20 1 19 2 18 3 17 4 16 5 14 6 15 7 13 8 11 9 12 10 90 11
REMARK SMILES IDX 89 12 91 13 88 14 8 15 9 16 10 17 7 18 5 20 6 21 4 22 2 23
REMARK SMILES IDX 1 24 3 25 21 26 22 27 23 28 24 29 25 30 26 31 27 32 28 33
REMARK SMILES IDX 29 34 87 35 30 36 86 37 31 38 32 39 33 40 80 41 34 42 85 43
REMARK SMILES IDX 79 44 81 45 35 46 84 47 78 48 77 49 36 51 66 52 47 53 65 54
REMARK SMILES IDX 48 55 51 56 64 57 82 58 49 59 50 60 63 62 83 63 52 64 37 65
REMARK SMILES IDX 38 66 46 67 39 68 45 69 40 70 41 71 42 72 43 73 44 74 67 75
REMARK SMILES IDX 68 76 76 77 69 78 75 79 70 80 71 81 72 82 73 83 74 84 53 85
REMARK SMILES IDX 54 86 62 87 55 88 61 89 56 90 57 91 58 92 59 93 60 94
REMARK H PARENT 7 19 81 50 51 61
REMARK Flexibility Score: inf
ROOT
ATOM      1  C   UNL A   1      35.915  23.887  25.669  1.00  0.00     0.188 C 
ENDROOT
BRANCH   1   2
ATOM      2  O   UNL A   1      35.353  22.952  26.577  1.00  0.00    -0.376 OA
BRANCH   2   3
ATOM      3  C   UNL A   1      35.336  21.601  26.145  1.00  0.00     0.202 C 
BRANCH   3   4
ATOM      4  C   UNL A   1      35.417  21.393  24.626  1.00  0.00     0.261 C 
BRANCH   4   5
ATOM      5  O   UNL A   1      34.273  21.847  23.883  1.00  0.00    -0.460 OA
BRANCH   5   6
ATOM      6  C   UNL A   1      33.068  21.346  24.232  1.00  0.00     0.338 C 
ATOM      7  O   UNL A   1      32.732  20.180  24.250  1.00  0.00    -0.246 OA
BRANCH   6   8
ATOM      8  C   UNL A   1      32.259  22.464  24.771  1.00  0.00     0.061 A 
ATOM      9  C   UNL A   1      31.150  24.598  24.371  1.00  0.00     0.101 A 
ATOM     10  C   UNL A   1      32.018  23.568  23.949  1.00  0.00     0.039 A 
ATOM     11  C   UNL A   1      30.574  24.539  25.642  1.00  0.00     0.061 A 
ATOM     12  C   UNL A   1      30.820  23.421  26.456  1.00  0.00     0.023 A 
ATOM     13  Cl  UNL A   1      29.578  25.759  26.344  1.00  0.00    -0.083 Cl
ATOM     14  C   UNL A   1      31.642  22.378  26.019  1.00  0.00     0.017 A 
BRANCH   9  15
ATOM     15  S   UNL A   1      30.633  25.743  23.121  1.00  0.00     0.242 S 
ATOM     16  O   UNL A   1      29.193  25.829  23.074  1.00  0.00    -0.207 OA
ATOM     17  O   UNL A   1      31.352  25.350  21.926  1.00  0.00    -0.207 OA
BRANCH  15  18
ATOM     18  N   UNL A   1      31.234  27.263  23.490  1.00  0.00    -0.208 NA
ATOM     19  H   UNL A   1      31.932  27.112  24.218  1.00  0.00     0.141 HD
BRANCH  18  20
ATOM     20  C   UNL A   1      30.418  28.393  23.953  1.00  0.00     0.067 C 
ATOM     21  C   UNL A   1      31.186  29.111  25.067  1.00  0.00     0.025 C 
BRANCH  20  22
ATOM     22  C   UNL A   1      30.029  29.347  22.810  1.00  0.00     0.022 C 
BRANCH  22  23
ATOM     23  C   UNL A   1      28.641  30.027  22.857  1.00  0.00    -0.016 C 
ATOM     24  C   UNL A   1      28.661  31.353  23.626  1.00  0.00     0.007 C 
ATOM     25  C   UNL A   1      28.166  30.306  21.424  1.00  0.00     0.007 C 
ENDBRANCH  22  23
ENDBRANCH  20  22
ENDBRANCH  18  20
ENDBRANCH  15  18
ENDBRANCH   9  15
ENDBRANCH   6   8
ENDBRANCH   5   6
ENDBRANCH   4   5
ENDBRANCH   3   4
ENDBRANCH   2   3
ENDBRANCH   1   2
BRANCH   1  26
ATOM     26  C   UNL A   1      34.963  25.051  25.322  1.00  0.00     0.188 C 
BRANCH  26  27
ATOM     27  O   UNL A   1      33.942  25.454  26.225  1.00  0.00    -0.376 OA
BRANCH  27  28
ATOM     28  C   UNL A   1      33.425  26.773  26.151  1.00  0.00     0.202 C 
BRANCH  28  29
ATOM     29  C   UNL A   1      34.342  27.977  26.428  1.00  0.00     0.261 C 
BRANCH  29  30
ATOM     30  O   UNL A   1      34.019  28.766  27.582  1.00  0.00    -0.460 OA
BRANCH  30  31
ATOM     31  C   UNL A   1      34.621  29.980  27.642  1.00  0.00     0.338 C 
ATOM     32  O   UNL A   1      34.100  31.070  27.476  1.00  0.00    -0.246 OA
BRANCH  31  33
ATOM     33  C   UNL A   1      36.014  29.816  28.106  1.00  0.00     0.060 A 
ATOM     34  C   UNL A   1      37.050  29.998  27.181  1.00  0.00     0.016 A 
ATOM     35  C   UNL A   1      36.300  29.437  29.419  1.00  0.00     0.016 A 
ATOM     36  C   UNL A   1      38.375  29.794  27.564  1.00  0.00     0.010 A 
ATOM     37  C   UNL A   1      37.630  29.208  29.794  1.00  0.00     0.010 A 
ATOM     38  C   UNL A   1      38.673  29.369  28.863  1.00  0.00    -0.014 A 
BRANCH  38  39
ATOM     39  C   UNL A   1      40.051  28.935  29.190  1.00  0.00     0.031 A 
ATOM     40  C   UNL A   1      40.965  29.903  29.889  1.00  0.00     0.074 A 
ATOM     41  C   UNL A   1      40.480  27.692  28.903  1.00  0.00     0.049 A 
ATOM     42  N   UNL A   1      42.218  29.759  30.237  1.00  0.00    -0.248 NA
ATOM     43  C   UNL A   1      40.384  31.208  30.247  1.00  0.00     0.031 C 
ATOM     44  C   UNL A   1      39.672  26.636  28.294  1.00  0.00     0.029 A 
ATOM     45  N   UNL A   1      41.710  27.111  29.087  1.00  0.00    -0.354 N 
ATOM     46  C   UNL A   1      42.574  30.952  30.855  1.00  0.00     0.074 A 
ATOM     47  C   UNL A   1      41.417  31.817  30.809  1.00  0.00     0.031 C 
ATOM     48  C   UNL A   1      40.435  25.539  28.141  1.00  0.00     0.029 A 
ATOM     49  C   UNL A   1      41.790  25.824  28.613  1.00  0.00     0.049 A 
ATOM     50  H   UNL A   1      42.465  27.573  29.520  1.00  0.00     0.167 HD
ATOM     51  C   UNL A   1      43.759  31.295  31.412  1.00  0.00     0.031 A 
ATOM     52  C   UNL A   1      42.841  24.981  28.547  1.00  0.00     0.031 A 
ATOM     53  C   UNL A   1      44.919  30.445  31.435  1.00  0.00     0.049 A 
ATOM     54  C   UNL A   1      44.182  25.425  29.078  1.00  0.00     0.074 A 
ATOM     55  C   UNL A   1      46.169  30.709  31.968  1.00  0.00     0.029 A 
ATOM     56  N   UNL A   1      44.975  29.171  30.894  1.00  0.00    -0.354 N 
ATOM     57  N   UNL A   1      44.505  26.553  29.664  1.00  0.00    -0.248 NA
ATOM     58  C   UNL A   1      45.298  24.478  28.941  1.00  0.00     0.031 C 
ATOM     59  C   UNL A   1      46.997  29.614  31.699  1.00  0.00     0.029 A 
ATOM     60  C   UNL A   1      46.246  28.645  31.054  1.00  0.00     0.049 A 
ATOM     61  H   UNL A   1      44.222  28.708  30.461  1.00  0.00     0.167 HD
ATOM     62  C   UNL A   1      45.853  26.440  29.991  1.00  0.00     0.074 A 
ATOM     63  C   UNL A   1      46.281  25.129  29.547  1.00  0.00     0.031 C 
ATOM     64  C   UNL A   1      46.661  27.338  30.608  1.00  0.00     0.031 A 
BRANCH  51  65
ATOM     65  C   UNL A   1      43.867  32.675  32.003  1.00  0.00    -0.014 A 
ATOM     66  C   UNL A   1      43.799  32.882  33.393  1.00  0.00     0.010 A 
ATOM     67  C   UNL A   1      44.055  33.781  31.154  1.00  0.00     0.010 A 
ATOM     68  C   UNL A   1      43.875  34.175  33.919  1.00  0.00     0.020 A 
ATOM     69  C   UNL A   1      44.157  35.072  31.678  1.00  0.00     0.020 A 
ATOM     70  C   UNL A   1      44.048  35.262  33.057  1.00  0.00     0.054 A 
BRANCH  70  71
ATOM     71  S   UNL A   1      44.151  36.929  33.765  1.00  0.00     0.124 S 
ATOM     72  O   UNL A   1      44.742  37.687  32.666  1.00  0.00    -0.237 OA
ATOM     73  O   UNL A   1      42.755  37.239  34.064  1.00  0.00    -0.237 OA
ATOM     74  O   UNL A   1      45.010  36.756  34.935  1.00  0.00    -0.744 OA
ENDBRANCH  70  71
ENDBRANCH  51  65
BRANCH  52  75
ATOM     75  C   UNL A   1      42.680  23.634  27.933  1.00  0.00    -0.014 A 
ATOM     76  C   UNL A   1      42.050  22.593  28.638  1.00  0.00     0.010 A 
ATOM     77  C   UNL A   1      43.168  23.383  26.637  1.00  0.00     0.010 A 
ATOM     78  C   UNL A   1      41.923  21.325  28.065  1.00  0.00     0.020 A 
ATOM     79  C   UNL A   1      43.018  22.124  26.050  1.00  0.00     0.020 A 
ATOM     80  C   UNL A   1      42.405  21.099  26.771  1.00  0.00     0.054 A 
BRANCH  80  81
ATOM     81  S   UNL A   1      42.175  19.461  26.026  1.00  0.00     0.124 S 
ATOM     82  O   UNL A   1      40.729  19.409  25.844  1.00  0.00    -0.237 OA
ATOM     83  O   UNL A   1      42.966  19.561  24.801  1.00  0.00    -0.237 OA
ATOM     84  O   UNL A   1      42.715  18.549  27.033  1.00  0.00    -0.744 OA
ENDBRANCH  80  81
ENDBRANCH  52  75
BRANCH  64  85
ATOM     85  C   UNL A   1      48.086  26.928  30.876  1.00  0.00    -0.014 A 
ATOM     86  C   UNL A   1      49.089  27.089  29.905  1.00  0.00     0.010 A 
ATOM     87  C   UNL A   1      48.438  26.439  32.148  1.00  0.00     0.010 A 
ATOM     88  C   UNL A   1      50.412  26.743  30.191  1.00  0.00     0.020 A 
ATOM     89  C   UNL A   1      49.764  26.117  32.447  1.00  0.00     0.020 A 
ATOM     90  C   UNL A   1      50.742  26.259  31.462  1.00  0.00     0.054 A 
BRANCH  90  91
ATOM     91  S   UNL A   1      52.475  25.867  31.826  1.00  0.00     0.124 S 
ATOM     92  O   UNL A   1      53.138  26.240  30.579  1.00  0.00    -0.237 OA
ATOM     93  O   UNL A   1      52.766  26.723  32.972  1.00  0.00    -0.237 OA
ATOM     94  O   UNL A   1      52.454  24.435  32.116  1.00  0.00    -0.744 OA
ENDBRANCH  90  91
ENDBRANCH  64  85
ENDBRANCH  38  39
ENDBRANCH  31  33
ENDBRANCH  30  31
ENDBRANCH  29  30
ENDBRANCH  28  29
ENDBRANCH  27  28
ENDBRANCH  26  27
ENDBRANCH   1  26
TORSDOF 25
ENDMDL
MODEL 2
REMARK VINA RESULT:      -8.1      0.879      8.005
REMARK SMILES CC(C)C[C@H](C)NS(=O)(=O)c1cc(C(=O)OCCOCCOCCOC(=O)c2ccc(-c3c4nc(c(-c5ccc(S(=O)(=O)[O-])cc5)c5ccc([nH]5)c(-c5ccc(S(=O)(=O)[O-])cc5)c5nc(c(-c6ccc(S(=O)(=O)[O-])cc6)c6ccc3[nH]6)C=C5)C=C4)cc2)ccc1Cl
REMARK SMILES IDX 20 1 19 2 18 3 17 4 16 5 14 6 15 7 13 8 11 9 12 10 90 11
REMARK SMILES IDX 89 12 91 13 88 14 8 15 9 16 10 17 7 18 5 20 6 21 4 22 2 23
REMARK SMILES IDX 1 24 3 25 21 26 22 27 23 28 24 29 25 30 26 31 27 32 28 33
REMARK SMILES IDX 29 34 87 35 30 36 86 37 31 38 32 39 33 40 80 41 34 42 85 43
REMARK SMILES IDX 79 44 81 45 35 46 84 47 78 48 77 49 36 51 66 52 47 53 65 54
REMARK SMILES IDX 48 55 51 56 64 57 82 58 49 59 50 60 63 62 83 63 52 64 37 65
REMARK SMILES IDX 38 66 46 67 39 68 45 69 40 70 41 71 42 72 43 73 44 74 67 75
REMARK SMILES IDX 68 76 76 77 69 78 75 79 70 80 71 81 72 82 73 83 74 84 53 85
REMARK SMILES IDX 54 86 62 87 55 88 61 89 56 90 57 91 58 92 59 93 60 94
REMARK H PARENT 7 19 81 50 51 61
REMARK Flexibility Score: inf
ROOT
ATOM      1  C   UNL A   1      35.604  23.703  25.518  1.00  0.00     0.188 C 
ENDROOT
BRANCH   1   2
ATOM      2  O   UNL A   1      35.027  22.812  26.460  1.00  0.00    -0.376 OA
BRANCH   2   3
ATOM      3  C   UNL A   1      34.931  21.456  26.054  1.00  0.00     0.202 C 
BRANCH   3   4
ATOM      4  C   UNL A   1      34.843  21.227  24.538  1.00  0.00     0.261 C 
BRANCH   4   5
ATOM      5  O   UNL A   1      33.593  21.595  23.933  1.00  0.00    -0.460 OA
BRANCH   5   6
ATOM      6  C   UNL A   1      32.466  21.086  24.476  1.00  0.00     0.338 C 
ATOM      7  O   UNL A   1      32.173  19.914  24.603  1.00  0.00    -0.246 OA
BRANCH   6   8
ATOM      8  C   UNL A   1      31.706  22.212  25.068  1.00  0.00     0.061 A 
ATOM      9  C   UNL A   1      30.742  24.433  24.784  1.00  0.00     0.101 A 
ATOM     10  C   UNL A   1      31.561  23.383  24.318  1.00  0.00     0.039 A 
ATOM     11  C   UNL A   1      30.118  24.323  26.029  1.00  0.00     0.061 A 
ATOM     12  C   UNL A   1      30.268  23.140  26.770  1.00  0.00     0.023 A 
ATOM     13  Cl  UNL A   1      29.174  25.552  26.784  1.00  0.00    -0.083 Cl
ATOM     14  C   UNL A   1      31.042  22.080  26.287  1.00  0.00     0.017 A 
BRANCH   9  15
ATOM     15  S   UNL A   1      30.339  25.691  23.602  1.00  0.00     0.242 S 
ATOM     16  O   UNL A   1      28.972  25.553  23.159  1.00  0.00    -0.207 OA
ATOM     17  O   UNL A   1      31.403  25.643  22.620  1.00  0.00    -0.207 OA
BRANCH  15  18
ATOM     18  N   UNL A   1      30.503  27.193  24.325  1.00  0.00    -0.208 NA
ATOM     19  H   UNL A   1      29.772  27.237  25.035  1.00  0.00     0.141 HD
BRANCH  18  20
ATOM     20  C   UNL A   1      30.437  28.475  23.611  1.00  0.00     0.067 C 
ATOM     21  C   UNL A   1      31.722  28.632  22.793  1.00  0.00     0.025 C 
BRANCH  20  22
ATOM     22  C   UNL A   1      29.176  28.597  22.737  1.00  0.00     0.022 C 
BRANCH  22  23
ATOM     23  C   UNL A   1      28.348  29.901  22.816  1.00  0.00    -0.016 C 
ATOM     24  C   UNL A   1      29.046  30.992  23.636  1.00  0.00     0.007 C 
ATOM     25  C   UNL A   1      28.113  30.438  21.397  1.00  0.00     0.007 C 
ENDBRANCH  22  23
ENDBRANCH  20  22
ENDBRANCH  18  20
ENDBRANCH  15  18
ENDBRANCH   9  15
ENDBRANCH   6   8
ENDBRANCH   5   6
ENDBRANCH   4   5
ENDBRANCH   3   4
ENDBRANCH   2   3
ENDBRANCH   1   2
BRANCH   1  26
ATOM     26  C   UNL A   1      34.798  25.006  25.334  1.00  0.00     0.188 C 
BRANCH  26  27
ATOM     27  O   UNL A   1      33.687  25.302  26.170  1.00  0.00    -0.376 OA
BRANCH  27  28
ATOM     28  C   UNL A   1      33.124  26.604  26.148  1.00  0.00     0.202 C 
BRANCH  28  29
ATOM     29  C   UNL A   1      34.028  27.838  26.320  1.00  0.00     0.261 C 
BRANCH  29  30
ATOM     30  O   UNL A   1      33.993  28.473  27.606  1.00  0.00    -0.460 OA
BRANCH  30  31
ATOM     31  C   UNL A   1      34.419  29.761  27.628  1.00  0.00     0.338 C 
ATOM     32  O   UNL A   1      33.760  30.759  27.395  1.00  0.00    -0.246 OA
BRANCH  31  33
ATOM     33  C   UNL A   1      35.803  29.812  28.143  1.00  0.00     0.060 A 
ATOM     34  C   UNL A   1      36.837  30.105  27.246  1.00  0.00     0.016 A 
ATOM     35  C   UNL A   1      36.089  29.525  29.480  1.00  0.00     0.016 A 
ATOM     36  C   UNL A   1      38.162  30.105  27.680  1.00  0.00     0.010 A 
ATOM     37  C   UNL A   1      37.423  29.500  29.907  1.00  0.00     0.010 A 
ATOM     38  C   UNL A   1      38.467  29.773  29.004  1.00  0.00    -0.014 A 
BRANCH  38  39
ATOM     39  C   UNL A   1      39.880  29.550  29.394  1.00  0.00     0.031 A 
ATOM     40  C   UNL A   1      40.509  28.219  29.090  1.00  0.00     0.074 A 
ATOM     41  C   UNL A   1      40.605  30.521  29.979  1.00  0.00     0.049 A 
ATOM     42  N   UNL A   1      41.711  27.785  29.373  1.00  0.00    -0.248 NA
ATOM     43  C   UNL A   1      39.671  27.249  28.367  1.00  0.00     0.031 C 
ATOM     44  C   UNL A   1      40.135  31.876  30.261  1.00  0.00     0.029 A 
ATOM     45  N   UNL A   1      41.897  30.508  30.443  1.00  0.00    -0.354 N 
ATOM     46  C   UNL A   1      41.774  26.494  28.861  1.00  0.00     0.074 A 
ATOM     47  C   UNL A   1      40.483  26.206  28.277  1.00  0.00     0.031 C 
ATOM     48  C   UNL A   1      41.123  32.561  30.865  1.00  0.00     0.029 A 
ATOM     49  C   UNL A   1      42.282  31.685  31.038  1.00  0.00     0.049 A 
ATOM     50  H   UNL A   1      42.493  29.729  30.357  1.00  0.00     0.167 HD
ATOM     51  C   UNL A   1      42.814  25.628  28.875  1.00  0.00     0.031 A 
ATOM     52  C   UNL A   1      43.429  32.010  31.670  1.00  0.00     0.031 A 
ATOM     53  C   UNL A   1      44.089  25.905  29.479  1.00  0.00     0.049 A 
ATOM     54  C   UNL A   1      44.536  30.991  31.767  1.00  0.00     0.074 A 
ATOM     55  C   UNL A   1      45.203  25.085  29.552  1.00  0.00     0.029 A 
ATOM     56  N   UNL A   1      44.419  27.088  30.120  1.00  0.00    -0.354 N 
ATOM     57  N   UNL A   1      44.585  29.775  31.276  1.00  0.00    -0.248 NA
ATOM     58  C   UNL A   1      45.745  31.390  32.502  1.00  0.00     0.031 C 
ATOM     59  C   UNL A   1      46.187  25.753  30.289  1.00  0.00     0.029 A 
ATOM     60  C   UNL A   1      45.709  27.011  30.619  1.00  0.00     0.049 A 
ATOM     61  H   UNL A   1      43.825  27.867  30.208  1.00  0.00     0.167 HD
ATOM     62  C   UNL A   1      45.838  29.276  31.616  1.00  0.00     0.074 A 
ATOM     63  C   UNL A   1      46.520  30.325  32.348  1.00  0.00     0.031 C 
ATOM     64  C   UNL A   1      46.378  28.063  31.345  1.00  0.00     0.031 A 
BRANCH  51  65
ATOM     65  C   UNL A   1      42.590  24.276  28.253  1.00  0.00    -0.014 A 
ATOM     66  C   UNL A   1      42.142  23.185  29.019  1.00  0.00     0.010 A 
ATOM     67  C   UNL A   1      42.817  24.100  26.876  1.00  0.00     0.010 A 
ATOM     68  C   UNL A   1      41.965  21.931  28.426  1.00  0.00     0.020 A 
ATOM     69  C   UNL A   1      42.617  22.854  26.275  1.00  0.00     0.020 A 
ATOM     70  C   UNL A   1      42.210  21.773  27.059  1.00  0.00     0.054 A 
BRANCH  70  71
ATOM     71  S   UNL A   1      41.966  20.138  26.312  1.00  0.00     0.124 S 
ATOM     72  O   UNL A   1      42.301  19.248  27.420  1.00  0.00    -0.237 OA
ATOM     73  O   UNL A   1      40.556  20.165  25.932  1.00  0.00    -0.237 OA
ATOM     74  O   UNL A   1      42.907  20.123  25.195  1.00  0.00    -0.744 OA
ENDBRANCH  70  71
ENDBRANCH  51  65
BRANCH  52  75
ATOM     75  C   UNL A   1      43.585  33.358  32.285  1.00  0.00    -0.014 A 
ATOM     76  C   UNL A   1      44.143  34.421  31.552  1.00  0.00     0.010 A 
ATOM     77  C   UNL A   1      43.185  33.580  33.615  1.00  0.00     0.010 A 
ATOM     78  C   UNL A   1      44.310  35.677  32.144  1.00  0.00     0.020 A 
ATOM     79  C   UNL A   1      43.324  34.842  34.200  1.00  0.00     0.020 A 
ATOM     80  C   UNL A   1      43.895  35.881  33.464  1.00  0.00     0.054 A 
BRANCH  80  81
ATOM     81  S   UNL A   1      44.066  37.535  34.189  1.00  0.00     0.124 S 
ATOM     82  O   UNL A   1      44.526  37.230  35.539  1.00  0.00    -0.237 OA
ATOM     83  O   UNL A   1      45.050  38.162  33.310  1.00  0.00    -0.237 OA
ATOM     84  O   UNL A   1      42.717  38.090  34.095  1.00  0.00    -0.744 OA
ENDBRANCH  80  81
ENDBRANCH  52  75
BRANCH  64  85
ATOM     85  C   UNL A   1      47.789  27.804  31.806  1.00  0.00    -0.014 A 
ATOM     86  C   UNL A   1      48.894  28.157  31.012  1.00  0.00     0.010 A 
ATOM     87  C   UNL A   1      48.011  27.263  33.086  1.00  0.00     0.010 A 
ATOM     88  C   UNL A   1      50.195  27.948  31.479  1.00  0.00     0.020 A 
ATOM     89  C   UNL A   1      49.309  27.078  33.567  1.00  0.00     0.020 A 
ATOM     90  C   UNL A   1      50.394  27.409  32.755  1.00  0.00     0.054 A 
BRANCH  90  91
ATOM     91  S   UNL A   1      52.091  27.197  33.359  1.00  0.00     0.124 S 
ATOM     92  O   UNL A   1      52.190  25.744  33.481  1.00  0.00    -0.237 OA
ATOM     93  O   UNL A   1      52.891  27.793  32.292  1.00  0.00    -0.237 OA
ATOM     94  O   UNL A   1      52.105  27.930  34.622  1.00  0.00    -0.744 OA
ENDBRANCH  90  91
ENDBRANCH  64  85
ENDBRANCH  38  39
ENDBRANCH  31  33
ENDBRANCH  30  31
ENDBRANCH  29  30
ENDBRANCH  28  29
ENDBRANCH  27  28
ENDBRANCH  26  27
ENDBRANCH   1  26
TORSDOF 25
ENDMDL
MODEL 3
REMARK VINA RESULT:      -7.9      8.283     15.428
REMARK SMILES CC(C)C[C@H](C)NS(=O)(=O)c1cc(C(=O)OCCOCCOCCOC(=O)c2ccc(-c3c4nc(c(-c5ccc(S(=O)(=O)[O-])cc5)c5ccc([nH]5)c(-c5ccc(S(=O)(=O)[O-])cc5)c5nc(c(-c6ccc(S(=O)(=O)[O-])cc6)c6ccc3[nH]6)C=C5)C=C4)cc2)ccc1Cl
REMARK SMILES IDX 20 1 19 2 18 3 17 4 16 5 14 6 15 7 13 8 11 9 12 10 90 11
REMARK SMILES IDX 89 12 91 13 88 14 8 15 9 16 10 17 7 18 5 20 6 21 4 22 2 23
REMARK SMILES IDX 1 24 3 25 21 26 22 27 23 28 24 29 25 30 26 31 27 32 28 33
REMARK SMILES IDX 29 34 87 35 30 36 86 37 31 38 32 39 33 40 80 41 34 42 85 43
REMARK SMILES IDX 79 44 81 45 35 46 84 47 78 48 77 49 36 51 66 52 47 53 65 54
REMARK SMILES IDX 48 55 51 56 64 57 82 58 49 59 50 60 63 62 83 63 52 64 37 65
REMARK SMILES IDX 38 66 46 67 39 68 45 69 40 70 41 71 42 72 43 73 44 74 67 75
REMARK SMILES IDX 68 76 76 77 69 78 75 79 70 80 71 81 72 82 73 83 74 84 53 85
REMARK SMILES IDX 54 86 62 87 55 88 61 89 56 90 57 91 58 92 59 93 60 94
REMARK H PARENT 7 19 81 50 51 61
REMARK Flexibility Score: inf
ROOT
ATOM      1  C   UNL A   1      46.185  38.719  26.260  1.00  0.00     0.188 C 
ENDROOT
BRANCH   1   2
ATOM      2  O   UNL A   1      45.683  39.720  25.387  1.00  0.00    -0.376 OA
BRANCH   2   3
ATOM      3  C   UNL A   1      45.813  41.058  25.838  1.00  0.00     0.202 C 
BRANCH   3   4
ATOM      4  C   UNL A   1      45.704  42.135  24.749  1.00  0.00     0.261 C 
BRANCH   4   5
ATOM      5  O   UNL A   1      44.522  42.950  24.809  1.00  0.00    -0.460 OA
BRANCH   5   6
ATOM      6  C   UNL A   1      43.348  42.367  24.484  1.00  0.00     0.338 C 
ATOM      7  O   UNL A   1      42.630  41.703  25.204  1.00  0.00    -0.246 OA
BRANCH   6   8
ATOM      8  C   UNL A   1      42.982  42.828  23.124  1.00  0.00     0.061 A 
ATOM      9  C   UNL A   1      43.670  43.910  21.051  1.00  0.00     0.101 A 
ATOM     10  C   UNL A   1      43.923  43.559  22.394  1.00  0.00     0.039 A 
ATOM     11  C   UNL A   1      42.447  43.572  20.466  1.00  0.00     0.061 A 
ATOM     12  C   UNL A   1      41.512  42.832  21.209  1.00  0.00     0.023 A 
ATOM     13  Cl  UNL A   1      41.944  44.013  18.878  1.00  0.00    -0.083 Cl
ATOM     14  C   UNL A   1      41.783  42.443  22.525  1.00  0.00     0.017 A 
BRANCH   9  15
ATOM     15  S   UNL A   1      45.060  44.501  20.124  1.00  0.00     0.242 S 
ATOM     16  O   UNL A   1      45.272  43.687  18.951  1.00  0.00    -0.207 OA
ATOM     17  O   UNL A   1      46.132  44.633  21.091  1.00  0.00    -0.207 OA
BRANCH  15  18
ATOM     18  N   UNL A   1      44.755  46.070  19.621  1.00  0.00    -0.208 NA
ATOM     19  H   UNL A   1      43.740  46.170  19.638  1.00  0.00     0.141 HD
BRANCH  18  20
ATOM     20  C   UNL A   1      45.185  46.632  18.334  1.00  0.00     0.067 C 
ATOM     21  C   UNL A   1      46.621  46.171  18.069  1.00  0.00     0.025 C 
BRANCH  20  22
ATOM     22  C   UNL A   1      44.236  46.262  17.182  1.00  0.00     0.022 C 
BRANCH  22  23
ATOM     23  C   UNL A   1      43.253  47.337  16.660  1.00  0.00    -0.016 C 
ATOM     24  C   UNL A   1      41.899  47.292  17.377  1.00  0.00     0.007 C 
ATOM     25  C   UNL A   1      43.867  48.728  16.873  1.00  0.00     0.007 C 
ENDBRANCH  22  23
ENDBRANCH  20  22
ENDBRANCH  18  20
ENDBRANCH  15  18
ENDBRANCH   9  15
ENDBRANCH   6   8
ENDBRANCH   5   6
ENDBRANCH   4   5
ENDBRANCH   3   4
ENDBRANCH   2   3
ENDBRANCH   1   2
BRANCH   1  26
ATOM     26  C   UNL A   1      47.379  37.937  25.673  1.00  0.00     0.188 C 
BRANCH  26  27
ATOM     27  O   UNL A   1      48.684  38.079  26.218  1.00  0.00    -0.376 OA
BRANCH  27  28
ATOM     28  C   UNL A   1      48.921  39.060  27.215  1.00  0.00     0.202 C 
BRANCH  28  29
ATOM     29  C   UNL A   1      49.043  38.646  28.691  1.00  0.00     0.261 C 
BRANCH  29  30
ATOM     30  O   UNL A   1      48.193  37.572  29.119  1.00  0.00    -0.460 OA
BRANCH  30  31
ATOM     31  C   UNL A   1      48.729  36.744  30.052  1.00  0.00     0.338 C 
ATOM     32  O   UNL A   1      49.331  37.065  31.062  1.00  0.00    -0.246 OA
BRANCH  31  33
ATOM     33  C   UNL A   1      48.342  35.351  29.753  1.00  0.00     0.060 A 
ATOM     34  C   UNL A   1      47.632  35.095  28.573  1.00  0.00     0.016 A 
ATOM     35  C   UNL A   1      48.626  34.314  30.644  1.00  0.00     0.016 A 
ATOM     36  C   UNL A   1      47.196  33.802  28.284  1.00  0.00     0.010 A 
ATOM     37  C   UNL A   1      48.165  33.021  30.363  1.00  0.00     0.010 A 
ATOM     38  C   UNL A   1      47.432  32.763  29.190  1.00  0.00    -0.014 A 
BRANCH  38  39
ATOM     39  C   UNL A   1      46.770  31.453  28.986  1.00  0.00     0.031 A 
ATOM     40  C   UNL A   1      47.568  30.327  28.390  1.00  0.00     0.074 A 
ATOM     41  C   UNL A   1      45.490  31.252  29.352  1.00  0.00     0.049 A 
ATOM     42  N   UNL A   1      47.190  29.112  28.085  1.00  0.00    -0.248 NA
ATOM     43  C   UNL A   1      48.985  30.609  28.106  1.00  0.00     0.031 C 
ATOM     44  C   UNL A   1      44.630  32.238  30.004  1.00  0.00     0.029 A 
ATOM     45  N   UNL A   1      44.691  30.143  29.219  1.00  0.00    -0.354 N 
ATOM     46  C   UNL A   1      48.321  28.486  27.573  1.00  0.00     0.074 A 
ATOM     47  C   UNL A   1      49.388  29.461  27.584  1.00  0.00     0.031 C 
ATOM     48  C   UNL A   1      43.417  31.693  30.202  1.00  0.00     0.029 A 
ATOM     49  C   UNL A   1      43.405  30.332  29.664  1.00  0.00     0.049 A 
ATOM     50  H   UNL A   1      45.010  29.292  28.841  1.00  0.00     0.167 HD
ATOM     51  C   UNL A   1      48.458  27.212  27.136  1.00  0.00     0.031 A 
ATOM     52  C   UNL A   1      42.337  29.510  29.621  1.00  0.00     0.031 A 
ATOM     53  C   UNL A   1      47.389  26.249  27.101  1.00  0.00     0.049 A 
ATOM     54  C   UNL A   1      42.486  28.130  29.030  1.00  0.00     0.074 A 
ATOM     55  C   UNL A   1      47.428  24.936  26.665  1.00  0.00     0.029 A 
ATOM     56  N   UNL A   1      46.089  26.498  27.508  1.00  0.00    -0.354 N 
ATOM     57  N   UNL A   1      43.561  27.548  28.555  1.00  0.00    -0.248 NA
ATOM     58  C   UNL A   1      41.277  27.296  28.974  1.00  0.00     0.031 C 
ATOM     59  C   UNL A   1      46.136  24.409  26.757  1.00  0.00     0.029 A 
ATOM     60  C   UNL A   1      45.307  25.373  27.307  1.00  0.00     0.049 A 
ATOM     61  H   UNL A   1      45.767  27.349  27.885  1.00  0.00     0.167 HD
ATOM     62  C   UNL A   1      43.164  26.270  28.171  1.00  0.00     0.074 A 
ATOM     63  C   UNL A   1      41.752  26.162  28.479  1.00  0.00     0.031 C 
ATOM     64  C   UNL A   1      43.902  25.276  27.619  1.00  0.00     0.031 A 
BRANCH  51  65
ATOM     65  C   UNL A   1      49.810  26.805  26.616  1.00  0.00    -0.014 A 
ATOM     66  C   UNL A   1      50.178  27.038  25.279  1.00  0.00     0.010 A 
ATOM     67  C   UNL A   1      50.733  26.195  27.485  1.00  0.00     0.010 A 
ATOM     68  C   UNL A   1      51.430  26.629  24.810  1.00  0.00     0.020 A 
ATOM     69  C   UNL A   1      51.994  25.808  27.027  1.00  0.00     0.020 A 
ATOM     70  C   UNL A   1      52.328  26.011  25.686  1.00  0.00     0.054 A 
BRANCH  70  71
ATOM     71  S   UNL A   1      53.948  25.497  25.055  1.00  0.00     0.124 S 
ATOM     72  O   UNL A   1      54.856  26.324  25.845  1.00  0.00    -0.237 OA
ATOM     73  O   UNL A   1      53.975  24.069  25.360  1.00  0.00    -0.237 OA
ATOM     74  O   UNL A   1      53.887  25.825  23.632  1.00  0.00    -0.744 OA
ENDBRANCH  70  71
ENDBRANCH  51  65
BRANCH  52  75
ATOM     75  C   UNL A   1      41.017  29.975  30.133  1.00  0.00    -0.014 A 
ATOM     76  C   UNL A   1      40.066  30.534  29.262  1.00  0.00     0.010 A 
ATOM     77  C   UNL A   1      40.711  29.869  31.502  1.00  0.00     0.010 A 
ATOM     78  C   UNL A   1      38.839  30.990  29.752  1.00  0.00     0.020 A 
ATOM     79  C   UNL A   1      39.474  30.299  31.992  1.00  0.00     0.020 A 
ATOM     80  C   UNL A   1      38.549  30.866  31.115  1.00  0.00     0.054 A 
BRANCH  80  81
ATOM     81  S   UNL A   1      36.927  31.410  31.718  1.00  0.00     0.124 S 
ATOM     82  O   UNL A   1      36.069  31.145  30.568  1.00  0.00    -0.237 OA
ATOM     83  O   UNL A   1      36.718  30.546  32.878  1.00  0.00    -0.237 OA
ATOM     84  O   UNL A   1      37.136  32.822  32.033  1.00  0.00    -0.744 OA
ENDBRANCH  80  81
ENDBRANCH  52  75
BRANCH  64  85
ATOM     85  C   UNL A   1      43.214  23.965  27.340  1.00  0.00    -0.014 A 
ATOM     86  C   UNL A   1      42.969  23.034  28.364  1.00  0.00     0.010 A 
ATOM     87  C   UNL A   1      42.743  23.694  26.041  1.00  0.00     0.010 A 
ATOM     88  C   UNL A   1      42.289  21.844  28.090  1.00  0.00     0.020 A 
ATOM     89  C   UNL A   1      42.040  22.517  25.769  1.00  0.00     0.020 A 
ATOM     90  C   UNL A   1      41.828  21.593  26.793  1.00  0.00     0.054 A 
BRANCH  90  91
ATOM     91  S   UNL A   1      40.904  20.066  26.475  1.00  0.00     0.124 S 
ATOM     92  O   UNL A   1      40.879  19.445  27.797  1.00  0.00    -0.237 OA
ATOM     93  O   UNL A   1      39.619  20.561  25.990  1.00  0.00    -0.237 OA
ATOM     94  O   UNL A   1      41.714  19.371  25.476  1.00  0.00    -0.744 OA
ENDBRANCH  90  91
ENDBRANCH  64  85
ENDBRANCH  38  39
ENDBRANCH  31  33
ENDBRANCH  30  31
ENDBRANCH  29  30
ENDBRANCH  28  29
ENDBRANCH  27  28
ENDBRANCH  26  27
ENDBRANCH   1  26
TORSDOF 25
ENDMDL
