MODEL 1
REMARK VINA RESULT:     -11.1      0.000      0.000
REMARK SMILES C[C@]1(C(=O)OCCOCCOCCOC(=O)c2ccc(-c3c4nc(c(-c5ccc(S(=O)(=O)[O-])cc5)c5ccc([nH]5)c(-c5ccc(S(=O)(=O)[O-])cc5)c5nc(c(-c6ccc(S(=O)(=O)[O-])cc6)c6ccc3[nH]6)C=C5)C=C4)cc2)[NH2+]C2(C(=O)c3ccccc3C2=O)[C@@H]2C(=O)N(c3ccccc3)C(=O)[C@H]21
REMARK SMILES IDX 10 1 9 2 8 3 7 4 6 5 5 6 3 7 4 8 2 9 1 10 77 11 101 12 78 13
REMARK SMILES IDX 89 16 99 17 79 18 87 19 90 20 92 21 100 22 80 23 81 24 86 25
REMARK SMILES IDX 88 26 91 27 82 28 85 29 83 30 84 31 93 32 94 33 98 34 95 35
REMARK SMILES IDX 97 36 96 37 11 38 12 39 13 40 14 41 15 42 16 43 17 44 18 45
REMARK SMILES IDX 76 46 19 47 75 48 20 49 21 50 22 51 69 52 23 53 74 54 68 55
REMARK SMILES IDX 70 56 24 57 73 58 67 59 66 60 25 62 55 63 36 64 54 65 37 66
REMARK SMILES IDX 40 67 53 68 71 69 38 70 39 71 52 73 72 74 41 75 26 76 27 77
REMARK SMILES IDX 35 78 28 79 34 80 29 81 30 82 31 83 32 84 33 85 56 86 57 87
REMARK SMILES IDX 65 88 58 89 64 90 59 91 60 92 61 93 62 94 63 95 42 96 43 97
REMARK SMILES IDX 51 98 44 99 50 100 45 101 46 102 47 103 48 104 49 105
REMARK H PARENT 77 14 77 15 70 61 40 72
REMARK Flexibility Score: inf
ROOT
ATOM      1  C   UNL A   1      41.053  21.245  26.701  1.00  0.00     0.188 C 
ENDROOT
BRANCH   1   2
ATOM      2  C   UNL A   1      39.718  21.973  26.470  1.00  0.00     0.188 C 
BRANCH   2   3
ATOM      3  O   UNL A   1      38.849  21.378  25.541  1.00  0.00    -0.376 OA
BRANCH   3   4
ATOM      4  C   UNL A   1      37.781  22.127  24.990  1.00  0.00     0.202 C 
BRANCH   4   5
ATOM      5  C   UNL A   1      37.207  23.444  25.554  1.00  0.00     0.261 C 
BRANCH   5   6
ATOM      6  O   UNL A   1      35.785  23.605  25.635  1.00  0.00    -0.459 OA
BRANCH   6   7
ATOM      7  C   UNL A   1      35.154  22.860  26.585  1.00  0.00     0.368 C 
ATOM      8  O   UNL A   1      35.702  21.944  27.188  1.00  0.00    -0.245 OA
BRANCH   7   9
ATOM      9  C   UNL A   1      33.658  23.246  26.814  1.00  0.00     0.205 C 
ATOM     10  C   UNL A   1      33.434  23.312  28.326  1.00  0.00     0.093 C 
ATOM     11  N   UNL A   1      33.199  24.558  26.180  1.00  0.00    -0.313 N 
ATOM     12  C   UNL A   1      32.763  22.283  26.093  1.00  0.00     0.172 C 
ATOM     13  C   UNL A   1      32.472  24.249  24.885  1.00  0.00     0.237 C 
ATOM     14  H   UNL A   1      34.009  25.147  25.986  1.00  0.00     0.348 HD
ATOM     15  H   UNL A   1      32.575  25.051  26.819  1.00  0.00     0.348 HD
ATOM     16  C   UNL A   1      32.860  22.830  24.678  1.00  0.00     0.177 C 
ATOM     17  C   UNL A   1      33.059  20.844  25.870  1.00  0.00     0.244 C 
ATOM     18  C   UNL A   1      30.983  24.568  25.032  1.00  0.00     0.232 C 
ATOM     19  C   UNL A   1      32.914  25.203  23.770  1.00  0.00     0.232 C 
ATOM     20  C   UNL A   1      32.224  21.739  23.907  1.00  0.00     0.245 C 
ATOM     21  N   UNL A   1      32.648  20.585  24.563  1.00  0.00    -0.250 N 
ATOM     22  O   UNL A   1      33.502  20.098  26.715  1.00  0.00    -0.273 OA
ATOM     23  O   UNL A   1      30.187  24.047  25.792  1.00  0.00    -0.286 OA
ATOM     24  C   UNL A   1      30.665  25.709  24.174  1.00  0.00     0.036 A 
ATOM     25  C   UNL A   1      31.790  26.095  23.459  1.00  0.00     0.036 A 
ATOM     26  O   UNL A   1      33.966  25.217  23.157  1.00  0.00    -0.286 OA
ATOM     27  O   UNL A   1      31.613  21.886  22.862  1.00  0.00    -0.273 OA
ATOM     28  C   UNL A   1      29.456  26.372  24.051  1.00  0.00     0.013 A 
ATOM     29  C   UNL A   1      31.753  27.165  22.583  1.00  0.00     0.013 A 
ATOM     30  C   UNL A   1      29.400  27.453  23.167  1.00  0.00     0.001 A 
ATOM     31  C   UNL A   1      30.539  27.848  22.440  1.00  0.00     0.001 A 
BRANCH  21  32
ATOM     32  C   UNL A   1      32.858  19.331  23.960  1.00  0.00     0.052 A 
ATOM     33  C   UNL A   1      33.877  18.487  24.417  1.00  0.00     0.027 A 
ATOM     34  C   UNL A   1      32.169  18.996  22.788  1.00  0.00     0.027 A 
ATOM     35  C   UNL A   1      34.221  17.338  23.708  1.00  0.00     0.002 A 
ATOM     36  C   UNL A   1      32.543  17.866  22.057  1.00  0.00     0.002 A 
ATOM     37  C   UNL A   1      33.567  17.039  22.517  1.00  0.00     0.000 A 
ENDBRANCH  21  32
ENDBRANCH   7   9
ENDBRANCH   6   7
ENDBRANCH   5   6
ENDBRANCH   4   5
ENDBRANCH   3   4
ENDBRANCH   2   3
ENDBRANCH   1   2
BRANCH   1  38
ATOM     38  O   UNL A   1      42.020  21.143  25.678  1.00  0.00    -0.376 OA
BRANCH  38  39
ATOM     39  C   UNL A   1      43.218  21.889  25.810  1.00  0.00     0.202 C 
BRANCH  39  40
ATOM     40  C   UNL A   1      43.276  23.382  25.429  1.00  0.00     0.261 C 
BRANCH  40  41
ATOM     41  O   UNL A   1      42.864  24.318  26.440  1.00  0.00    -0.460 OA
BRANCH  41  42
ATOM     42  C   UNL A   1      42.447  25.539  26.000  1.00  0.00     0.338 C 
ATOM     43  O   UNL A   1      42.099  25.835  24.870  1.00  0.00    -0.246 OA
BRANCH  42  44
ATOM     44  C   UNL A   1      42.223  26.400  27.189  1.00  0.00     0.060 A 
ATOM     45  C   UNL A   1      43.060  27.482  27.439  1.00  0.00     0.016 A 
ATOM     46  C   UNL A   1      41.204  26.067  28.100  1.00  0.00     0.016 A 
ATOM     47  C   UNL A   1      42.875  28.237  28.602  1.00  0.00     0.010 A 
ATOM     48  C   UNL A   1      41.046  26.798  29.281  1.00  0.00     0.010 A 
ATOM     49  C   UNL A   1      41.869  27.903  29.530  1.00  0.00    -0.014 A 
BRANCH  49  50
ATOM     50  C   UNL A   1      41.543  28.850  30.625  1.00  0.00     0.031 A 
ATOM     51  C   UNL A   1      40.390  29.804  30.556  1.00  0.00     0.074 A 
ATOM     52  C   UNL A   1      42.324  28.809  31.721  1.00  0.00     0.049 A 
ATOM     53  N   UNL A   1      39.919  30.575  31.503  1.00  0.00    -0.248 NA
ATOM     54  C   UNL A   1      39.675  29.915  29.277  1.00  0.00     0.031 C 
ATOM     55  C   UNL A   1      43.486  27.930  31.878  1.00  0.00     0.029 A 
ATOM     56  N   UNL A   1      42.255  29.489  32.910  1.00  0.00    -0.354 N 
ATOM     57  C   UNL A   1      38.833  31.244  30.950  1.00  0.00     0.074 A 
ATOM     58  C   UNL A   1      38.748  30.824  29.566  1.00  0.00     0.031 C 
ATOM     59  C   UNL A   1      43.993  28.092  33.107  1.00  0.00     0.029 A 
ATOM     60  C   UNL A   1      43.220  29.109  33.815  1.00  0.00     0.049 A 
ATOM     61  H   UNL A   1      41.581  30.182  33.098  1.00  0.00     0.167 HD
ATOM     62  C   UNL A   1      37.983  32.109  31.556  1.00  0.00     0.031 A 
ATOM     63  C   UNL A   1      43.455  29.517  35.077  1.00  0.00     0.031 A 
ATOM     64  C   UNL A   1      38.102  32.526  32.935  1.00  0.00     0.049 A 
ATOM     65  C   UNL A   1      42.529  30.516  35.708  1.00  0.00     0.074 A 
ATOM     66  C   UNL A   1      37.254  33.354  33.651  1.00  0.00     0.029 A 
ATOM     67  N   UNL A   1      39.128  32.169  33.799  1.00  0.00    -0.354 N 
ATOM     68  N   UNL A   1      41.443  31.053  35.207  1.00  0.00    -0.248 NA
ATOM     69  C   UNL A   1      42.844  30.953  37.074  1.00  0.00     0.031 C 
ATOM     70  C   UNL A   1      37.812  33.572  34.910  1.00  0.00     0.029 A 
ATOM     71  C   UNL A   1      38.962  32.807  35.021  1.00  0.00     0.049 A 
ATOM     72  H   UNL A   1      39.864  31.555  33.579  1.00  0.00     0.167 HD
ATOM     73  C   UNL A   1      40.939  31.886  36.199  1.00  0.00     0.074 A 
ATOM     74  C   UNL A   1      41.822  31.760  37.340  1.00  0.00     0.031 C 
ATOM     75  C   UNL A   1      39.846  32.687  36.156  1.00  0.00     0.031 A 
BRANCH  62  76
ATOM     76  C   UNL A   1      36.819  32.665  30.769  1.00  0.00    -0.014 A 
ATOM     77  C   UNL A   1      37.021  33.726  29.865  1.00  0.00     0.010 A 
ATOM     78  C   UNL A   1      35.501  32.265  31.059  1.00  0.00     0.010 A 
ATOM     79  C   UNL A   1      35.934  34.405  29.305  1.00  0.00     0.020 A 
ATOM     80  C   UNL A   1      34.412  32.921  30.476  1.00  0.00     0.020 A 
ATOM     81  C   UNL A   1      34.635  34.005  29.625  1.00  0.00     0.054 A 
BRANCH  81  82
ATOM     82  S   UNL A   1      33.237  34.939  28.940  1.00  0.00     0.124 S 
ATOM     83  O   UNL A   1      32.715  34.022  27.932  1.00  0.00    -0.237 OA
ATOM     84  O   UNL A   1      32.384  35.141  30.110  1.00  0.00    -0.237 OA
ATOM     85  O   UNL A   1      33.859  36.154  28.415  1.00  0.00    -0.744 OA
ENDBRANCH  81  82
ENDBRANCH  62  76
BRANCH  63  86
ATOM     86  C   UNL A   1      44.602  28.922  35.819  1.00  0.00    -0.014 A 
ATOM     87  C   UNL A   1      45.909  29.406  35.612  1.00  0.00     0.010 A 
ATOM     88  C   UNL A   1      44.413  27.799  36.644  1.00  0.00     0.010 A 
ATOM     89  C   UNL A   1      47.008  28.735  36.150  1.00  0.00     0.020 A 
ATOM     90  C   UNL A   1      45.511  27.147  37.216  1.00  0.00     0.020 A 
ATOM     91  C   UNL A   1      46.802  27.599  36.935  1.00  0.00     0.054 A 
BRANCH  91  92
ATOM     92  S   UNL A   1      48.250  26.700  37.553  1.00  0.00     0.124 S 
ATOM     93  O   UNL A   1      49.326  27.277  36.751  1.00  0.00    -0.237 OA
ATOM     94  O   UNL A   1      48.263  27.053  38.970  1.00  0.00    -0.237 OA
ATOM     95  O   UNL A   1      47.937  25.303  37.263  1.00  0.00    -0.744 OA
ENDBRANCH  91  92
ENDBRANCH  63  86
BRANCH  75  96
ATOM     96  C   UNL A   1      39.532  33.537  37.364  1.00  0.00    -0.014 A 
ATOM     97  C   UNL A   1      40.120  34.810  37.503  1.00  0.00     0.010 A 
ATOM     98  C   UNL A   1      38.794  33.008  38.437  1.00  0.00     0.010 A 
ATOM     99  C   UNL A   1      40.033  35.505  38.713  1.00  0.00     0.020 A 
ATOM    100  C   UNL A   1      38.676  33.716  39.637  1.00  0.00     0.020 A 
ATOM    101  C   UNL A   1      39.326  34.944  39.779  1.00  0.00     0.054 A 
BRANCH 101 102
ATOM    102  S   UNL A   1      39.306  35.816  41.369  1.00  0.00     0.124 S 
ATOM    103  O   UNL A   1      37.902  35.717  41.758  1.00  0.00    -0.237 OA
ATOM    104  O   UNL A   1      40.239  35.033  42.175  1.00  0.00    -0.237 OA
ATOM    105  O   UNL A   1      39.763  37.162  41.030  1.00  0.00    -0.744 OA
ENDBRANCH 101 102
ENDBRANCH  75  96
ENDBRANCH  49  50
ENDBRANCH  42  44
ENDBRANCH  41  42
ENDBRANCH  40  41
ENDBRANCH  39  40
ENDBRANCH  38  39
ENDBRANCH   1  38
TORSDOF 21
ENDMDL
MODEL 2
REMARK VINA RESULT:     -10.9      5.851      7.802
REMARK SMILES C[C@]1(C(=O)OCCOCCOCCOC(=O)c2ccc(-c3c4nc(c(-c5ccc(S(=O)(=O)[O-])cc5)c5ccc([nH]5)c(-c5ccc(S(=O)(=O)[O-])cc5)c5nc(c(-c6ccc(S(=O)(=O)[O-])cc6)c6ccc3[nH]6)C=C5)C=C4)cc2)[NH2+]C2(C(=O)c3ccccc3C2=O)[C@@H]2C(=O)N(c3ccccc3)C(=O)[C@H]21
REMARK SMILES IDX 10 1 9 2 8 3 7 4 6 5 5 6 3 7 4 8 2 9 1 10 77 11 101 12 78 13
REMARK SMILES IDX 89 16 99 17 79 18 87 19 90 20 92 21 100 22 80 23 81 24 86 25
REMARK SMILES IDX 88 26 91 27 82 28 85 29 83 30 84 31 93 32 94 33 98 34 95 35
REMARK SMILES IDX 97 36 96 37 11 38 12 39 13 40 14 41 15 42 16 43 17 44 18 45
REMARK SMILES IDX 76 46 19 47 75 48 20 49 21 50 22 51 69 52 23 53 74 54 68 55
REMARK SMILES IDX 70 56 24 57 73 58 67 59 66 60 25 62 55 63 36 64 54 65 37 66
REMARK SMILES IDX 40 67 53 68 71 69 38 70 39 71 52 73 72 74 41 75 26 76 27 77
REMARK SMILES IDX 35 78 28 79 34 80 29 81 30 82 31 83 32 84 33 85 56 86 57 87
REMARK SMILES IDX 65 88 58 89 64 90 59 91 60 92 61 93 62 94 63 95 42 96 43 97
REMARK SMILES IDX 51 98 44 99 50 100 45 101 46 102 47 103 48 104 49 105
REMARK H PARENT 77 14 77 15 70 61 40 72
REMARK Flexibility Score: inf
ROOT
ATOM      1  C   UNL A   1      40.681  20.664  26.984  1.00  0.00     0.188 C 
ENDROOT
BRANCH   1   2
ATOM      2  C   UNL A   1      39.937  21.929  26.525  1.00  0.00     0.188 C 
BRANCH   2   3
ATOM      3  O   UNL A   1      39.061  21.765  25.440  1.00  0.00    -0.376 OA
BRANCH   3   4
ATOM      4  C   UNL A   1      37.712  22.181  25.550  1.00  0.00     0.202 C 
BRANCH   4   5
ATOM      5  C   UNL A   1      37.223  23.605  25.886  1.00  0.00     0.261 C 
BRANCH   5   6
ATOM      6  O   UNL A   1      35.815  23.854  25.979  1.00  0.00    -0.459 OA
BRANCH   6   7
ATOM      7  C   UNL A   1      35.096  22.950  26.701  1.00  0.00     0.368 C 
ATOM      8  O   UNL A   1      35.585  21.928  27.167  1.00  0.00    -0.245 OA
BRANCH   7   9
ATOM      9  C   UNL A   1      33.583  23.308  26.852  1.00  0.00     0.205 C 
ATOM     10  C   UNL A   1      33.267  23.314  28.349  1.00  0.00     0.093 C 
ATOM     11  N   UNL A   1      33.143  24.637  26.240  1.00  0.00    -0.313 N 
ATOM     12  C   UNL A   1      32.747  22.361  26.044  1.00  0.00     0.172 C 
ATOM     13  C   UNL A   1      32.500  24.367  24.892  1.00  0.00     0.237 C 
ATOM     14  H   UNL A   1      33.954  25.243  26.118  1.00  0.00     0.348 HD
ATOM     15  H   UNL A   1      32.474  25.097  26.857  1.00  0.00     0.348 HD
ATOM     16  C   UNL A   1      32.922  22.961  24.657  1.00  0.00     0.177 C 
ATOM     17  C   UNL A   1      33.079  20.935  25.786  1.00  0.00     0.244 C 
ATOM     18  C   UNL A   1      31.001  24.661  24.960  1.00  0.00     0.232 C 
ATOM     19  C   UNL A   1      32.994  25.367  23.842  1.00  0.00     0.232 C 
ATOM     20  C   UNL A   1      32.351  21.892  23.810  1.00  0.00     0.245 C 
ATOM     21  N   UNL A   1      32.751  20.720  24.448  1.00  0.00    -0.250 N 
ATOM     22  O   UNL A   1      33.481  20.163  26.629  1.00  0.00    -0.273 OA
ATOM     23  O   UNL A   1      30.168  24.101  25.651  1.00  0.00    -0.286 OA
ATOM     24  C   UNL A   1      30.717  25.828  24.127  1.00  0.00     0.036 A 
ATOM     25  C   UNL A   1      31.878  26.255  23.496  1.00  0.00     0.036 A 
ATOM     26  O   UNL A   1      34.081  25.418  23.295  1.00  0.00    -0.286 OA
ATOM     27  O   UNL A   1      31.802  22.070  22.736  1.00  0.00    -0.273 OA
ATOM     28  C   UNL A   1      29.508  26.480  23.955  1.00  0.00     0.013 A 
ATOM     29  C   UNL A   1      31.877  27.357  22.659  1.00  0.00     0.013 A 
ATOM     30  C   UNL A   1      29.489  27.593  23.108  1.00  0.00     0.001 A 
ATOM     31  C   UNL A   1      30.664  28.029  22.467  1.00  0.00     0.001 A 
BRANCH  21  32
ATOM     32  C   UNL A   1      33.017  19.492  23.814  1.00  0.00     0.052 A 
ATOM     33  C   UNL A   1      32.151  19.002  22.827  1.00  0.00     0.027 A 
ATOM     34  C   UNL A   1      34.045  18.669  24.288  1.00  0.00     0.027 A 
ATOM     35  C   UNL A   1      32.294  17.707  22.336  1.00  0.00     0.002 A 
ATOM     36  C   UNL A   1      34.161  17.357  23.824  1.00  0.00     0.002 A 
ATOM     37  C   UNL A   1      33.286  16.878  22.849  1.00  0.00     0.000 A 
ENDBRANCH  21  32
ENDBRANCH   7   9
ENDBRANCH   6   7
ENDBRANCH   5   6
ENDBRANCH   4   5
ENDBRANCH   3   4
ENDBRANCH   2   3
ENDBRANCH   1   2
BRANCH   1  38
ATOM     38  O   UNL A   1      40.438  19.410  26.383  1.00  0.00    -0.376 OA
BRANCH  38  39
ATOM     39  C   UNL A   1      41.525  18.734  25.774  1.00  0.00     0.202 C 
BRANCH  39  40
ATOM     40  C   UNL A   1      42.907  19.405  25.638  1.00  0.00     0.261 C 
BRANCH  40  41
ATOM     41  O   UNL A   1      43.650  19.107  24.444  1.00  0.00    -0.460 OA
BRANCH  41  42
ATOM     42  C   UNL A   1      44.944  19.534  24.413  1.00  0.00     0.338 C 
ATOM     43  O   UNL A   1      45.902  18.948  23.940  1.00  0.00    -0.246 OA
BRANCH  42  44
ATOM     44  C   UNL A   1      44.961  20.964  24.814  1.00  0.00     0.060 A 
ATOM     45  C   UNL A   1      45.258  21.322  26.125  1.00  0.00     0.016 A 
ATOM     46  C   UNL A   1      44.602  21.948  23.875  1.00  0.00     0.016 A 
ATOM     47  C   UNL A   1      45.200  22.669  26.497  1.00  0.00     0.010 A 
ATOM     48  C   UNL A   1      44.504  23.289  24.259  1.00  0.00     0.010 A 
ATOM     49  C   UNL A   1      44.824  23.661  25.570  1.00  0.00    -0.014 A 
BRANCH  49  50
ATOM     50  C   UNL A   1      44.997  25.092  25.922  1.00  0.00     0.031 A 
ATOM     51  C   UNL A   1      43.872  25.948  26.416  1.00  0.00     0.074 A 
ATOM     52  C   UNL A   1      46.237  25.606  25.802  1.00  0.00     0.049 A 
ATOM     53  N   UNL A   1      43.928  27.167  26.891  1.00  0.00    -0.248 NA
ATOM     54  C   UNL A   1      42.517  25.380  26.374  1.00  0.00     0.031 C 
ATOM     55  C   UNL A   1      47.398  24.860  25.309  1.00  0.00     0.029 A 
ATOM     56  N   UNL A   1      46.737  26.847  26.101  1.00  0.00    -0.354 N 
ATOM     57  C   UNL A   1      42.624  27.506  27.234  1.00  0.00     0.074 A 
ATOM     58  C   UNL A   1      41.791  26.380  26.864  1.00  0.00     0.031 C 
ATOM     59  C   UNL A   1      48.482  25.644  25.382  1.00  0.00     0.029 A 
ATOM     60  C   UNL A   1      48.092  26.957  25.890  1.00  0.00     0.049 A 
ATOM     61  H   UNL A   1      46.181  27.588  26.434  1.00  0.00     0.167 HD
ATOM     62  C   UNL A   1      42.181  28.645  27.821  1.00  0.00     0.031 A 
ATOM     63  C   UNL A   1      48.936  27.987  26.091  1.00  0.00     0.031 A 
ATOM     64  C   UNL A   1      43.033  29.762  28.163  1.00  0.00     0.049 A 
ATOM     65  C   UNL A   1      48.410  29.257  26.696  1.00  0.00     0.074 A 
ATOM     66  C   UNL A   1      42.681  30.933  28.814  1.00  0.00     0.029 A 
ATOM     67  N   UNL A   1      44.387  29.861  27.876  1.00  0.00    -0.354 N 
ATOM     68  N   UNL A   1      47.197  29.519  27.117  1.00  0.00    -0.248 NA
ATOM     69  C   UNL A   1      49.361  30.363  26.868  1.00  0.00     0.031 C 
ATOM     70  C   UNL A   1      43.794  31.774  28.835  1.00  0.00     0.029 A 
ATOM     71  C   UNL A   1      44.869  31.096  28.285  1.00  0.00     0.049 A 
ATOM     72  H   UNL A   1      44.926  29.158  27.447  1.00  0.00     0.167 HD
ATOM     73  C   UNL A   1      47.239  30.817  27.612  1.00  0.00     0.074 A 
ATOM     74  C   UNL A   1      48.604  31.276  27.465  1.00  0.00     0.031 C 
ATOM     75  C   UNL A   1      46.229  31.558  28.132  1.00  0.00     0.031 A 
BRANCH  62  76
ATOM     76  C   UNL A   1      40.716  28.767  28.171  1.00  0.00    -0.014 A 
ATOM     77  C   UNL A   1      39.809  29.301  27.234  1.00  0.00     0.010 A 
ATOM     78  C   UNL A   1      40.270  28.528  29.484  1.00  0.00     0.010 A 
ATOM     79  C   UNL A   1      38.505  29.636  27.612  1.00  0.00     0.020 A 
ATOM     80  C   UNL A   1      38.957  28.833  29.858  1.00  0.00     0.020 A 
ATOM     81  C   UNL A   1      38.091  29.412  28.927  1.00  0.00     0.054 A 
BRANCH  81  82
ATOM     82  S   UNL A   1      36.417  29.914  29.416  1.00  0.00     0.124 S 
ATOM     83  O   UNL A   1      36.287  29.314  30.740  1.00  0.00    -0.237 OA
ATOM     84  O   UNL A   1      36.501  31.373  29.390  1.00  0.00    -0.237 OA
ATOM     85  O   UNL A   1      35.566  29.329  28.381  1.00  0.00    -0.744 OA
ENDBRANCH  81  82
ENDBRANCH  62  76
BRANCH  63  86
ATOM     86  C   UNL A   1      50.376  27.809  25.753  1.00  0.00    -0.014 A 
ATOM     87  C   UNL A   1      50.813  27.946  24.420  1.00  0.00     0.010 A 
ATOM     88  C   UNL A   1      51.294  27.391  26.731  1.00  0.00     0.010 A 
ATOM     89  C   UNL A   1      52.115  27.595  24.060  1.00  0.00     0.020 A 
ATOM     90  C   UNL A   1      52.611  27.074  26.381  1.00  0.00     0.020 A 
ATOM     91  C   UNL A   1      53.000  27.144  25.041  1.00  0.00     0.054 A 
BRANCH  91  92
ATOM     92  S   UNL A   1      54.659  26.617  24.533  1.00  0.00     0.124 S 
ATOM     93  O   UNL A   1      55.502  27.635  25.156  1.00  0.00    -0.237 OA
ATOM     94  O   UNL A   1      54.758  25.279  25.111  1.00  0.00    -0.237 OA
ATOM     95  O   UNL A   1      54.603  26.661  23.075  1.00  0.00    -0.744 OA
ENDBRANCH  91  92
ENDBRANCH  63  86
BRANCH  75  96
ATOM     96  C   UNL A   1      46.526  32.973  28.565  1.00  0.00    -0.014 A 
ATOM     97  C   UNL A   1      46.839  33.248  29.910  1.00  0.00     0.010 A 
ATOM     98  C   UNL A   1      46.326  34.047  27.679  1.00  0.00     0.010 A 
ATOM     99  C   UNL A   1      46.881  34.565  30.376  1.00  0.00     0.020 A 
ATOM    100  C   UNL A   1      46.402  35.368  28.134  1.00  0.00     0.020 A 
ATOM    101  C   UNL A   1      46.644  35.617  29.486  1.00  0.00     0.054 A 
BRANCH 101 102
ATOM    102  S   UNL A   1      46.607  37.313  30.129  1.00  0.00     0.124 S 
ATOM    103  O   UNL A   1      45.409  37.857  29.497  1.00  0.00    -0.237 OA
ATOM    104  O   UNL A   1      46.519  37.106  31.572  1.00  0.00    -0.237 OA
ATOM    105  O   UNL A   1      47.869  37.885  29.664  1.00  0.00    -0.744 OA
ENDBRANCH 101 102
ENDBRANCH  75  96
ENDBRANCH  49  50
ENDBRANCH  42  44
ENDBRANCH  41  42
ENDBRANCH  40  41
ENDBRANCH  39  40
ENDBRANCH  38  39
ENDBRANCH   1  38
TORSDOF 21
ENDMDL
MODEL 3
REMARK VINA RESULT:     -10.1      5.623      9.887
REMARK SMILES C[C@]1(C(=O)OCCOCCOCCOC(=O)c2ccc(-c3c4nc(c(-c5ccc(S(=O)(=O)[O-])cc5)c5ccc([nH]5)c(-c5ccc(S(=O)(=O)[O-])cc5)c5nc(c(-c6ccc(S(=O)(=O)[O-])cc6)c6ccc3[nH]6)C=C5)C=C4)cc2)[NH2+]C2(C(=O)c3ccccc3C2=O)[C@@H]2C(=O)N(c3ccccc3)C(=O)[C@H]21
REMARK SMILES IDX 10 1 9 2 8 3 7 4 6 5 5 6 3 7 4 8 2 9 1 10 77 11 101 12 78 13
REMARK SMILES IDX 89 16 99 17 79 18 87 19 90 20 92 21 100 22 80 23 81 24 86 25
REMARK SMILES IDX 88 26 91 27 82 28 85 29 83 30 84 31 93 32 94 33 98 34 95 35
REMARK SMILES IDX 97 36 96 37 11 38 12 39 13 40 14 41 15 42 16 43 17 44 18 45
REMARK SMILES IDX 76 46 19 47 75 48 20 49 21 50 22 51 69 52 23 53 74 54 68 55
REMARK SMILES IDX 70 56 24 57 73 58 67 59 66 60 25 62 55 63 36 64 54 65 37 66
REMARK SMILES IDX 40 67 53 68 71 69 38 70 39 71 52 73 72 74 41 75 26 76 27 77
REMARK SMILES IDX 35 78 28 79 34 80 29 81 30 82 31 83 32 84 33 85 56 86 57 87
REMARK SMILES IDX 65 88 58 89 64 90 59 91 60 92 61 93 62 94 63 95 42 96 43 97
REMARK SMILES IDX 51 98 44 99 50 100 45 101 46 102 47 103 48 104 49 105
REMARK H PARENT 77 14 77 15 70 61 40 72
REMARK Flexibility Score: inf
ROOT
ATOM      1  C   UNL A   1      41.145  21.505  27.963  1.00  0.00     0.188 C 
ENDROOT
BRANCH   1   2
ATOM      2  C   UNL A   1      40.474  22.793  27.459  1.00  0.00     0.188 C 
BRANCH   2   3
ATOM      3  O   UNL A   1      39.724  22.671  26.279  1.00  0.00    -0.376 OA
BRANCH   3   4
ATOM      4  C   UNL A   1      38.309  22.707  26.332  1.00  0.00     0.202 C 
BRANCH   4   5
ATOM      5  C   UNL A   1      37.421  23.946  26.095  1.00  0.00     0.261 C 
BRANCH   5   6
ATOM      6  O   UNL A   1      36.057  23.759  25.696  1.00  0.00    -0.459 OA
BRANCH   6   7
ATOM      7  C   UNL A   1      35.350  22.834  26.404  1.00  0.00     0.368 C 
ATOM      8  O   UNL A   1      35.822  21.759  26.754  1.00  0.00    -0.245 OA
BRANCH   7   9
ATOM      9  C   UNL A   1      33.872  23.244  26.697  1.00  0.00     0.205 C 
ATOM     10  C   UNL A   1      33.720  23.335  28.216  1.00  0.00     0.093 C 
ATOM     11  N   UNL A   1      33.400  24.553  26.065  1.00  0.00    -0.313 N 
ATOM     12  C   UNL A   1      32.931  22.283  26.034  1.00  0.00     0.172 C 
ATOM     13  C   UNL A   1      32.608  24.234  24.810  1.00  0.00     0.237 C 
ATOM     14  H   UNL A   1      34.208  25.127  25.824  1.00  0.00     0.348 HD
ATOM     15  H   UNL A   1      32.813  25.064  26.725  1.00  0.00     0.348 HD
ATOM     16  C   UNL A   1      32.968  22.807  24.607  1.00  0.00     0.177 C 
ATOM     17  C   UNL A   1      33.198  20.837  25.819  1.00  0.00     0.244 C 
ATOM     18  C   UNL A   1      31.133  24.576  25.023  1.00  0.00     0.232 C 
ATOM     19  C   UNL A   1      33.009  25.165  23.662  1.00  0.00     0.232 C 
ATOM     20  C   UNL A   1      32.282  21.713  23.884  1.00  0.00     0.245 C 
ATOM     21  N   UNL A   1      32.721  20.564  24.538  1.00  0.00    -0.250 N 
ATOM     22  O   UNL A   1      33.671  20.097  26.654  1.00  0.00    -0.273 OA
ATOM     23  O   UNL A   1      30.367  24.076  25.828  1.00  0.00    -0.286 OA
ATOM     24  C   UNL A   1      30.788  25.708  24.164  1.00  0.00     0.036 A 
ATOM     25  C   UNL A   1      31.883  26.068  23.391  1.00  0.00     0.036 A 
ATOM     26  O   UNL A   1      34.031  25.156  22.999  1.00  0.00    -0.286 OA
ATOM     27  O   UNL A   1      31.624  21.853  22.867  1.00  0.00    -0.273 OA
ATOM     28  C   UNL A   1      29.583  26.385  24.088  1.00  0.00     0.013 A 
ATOM     29  C   UNL A   1      31.818  27.125  22.501  1.00  0.00     0.013 A 
ATOM     30  C   UNL A   1      29.499  27.454  23.190  1.00  0.00     0.001 A 
ATOM     31  C   UNL A   1      30.608  27.822  22.405  1.00  0.00     0.001 A 
BRANCH  21  32
ATOM     32  C   UNL A   1      32.887  19.298  23.945  1.00  0.00     0.052 A 
ATOM     33  C   UNL A   1      33.919  18.448  24.363  1.00  0.00     0.027 A 
ATOM     34  C   UNL A   1      32.136  18.953  22.814  1.00  0.00     0.027 A 
ATOM     35  C   UNL A   1      34.213  17.285  23.656  1.00  0.00     0.002 A 
ATOM     36  C   UNL A   1      32.460  17.808  22.083  1.00  0.00     0.002 A 
ATOM     37  C   UNL A   1      33.496  16.976  22.504  1.00  0.00     0.000 A 
ENDBRANCH  21  32
ENDBRANCH   7   9
ENDBRANCH   6   7
ENDBRANCH   5   6
ENDBRANCH   4   5
ENDBRANCH   3   4
ENDBRANCH   2   3
ENDBRANCH   1   2
BRANCH   1  38
ATOM     38  O   UNL A   1      40.808  20.243  27.428  1.00  0.00    -0.376 OA
BRANCH  38  39
ATOM     39  C   UNL A   1      41.756  19.587  26.604  1.00  0.00     0.202 C 
BRANCH  39  40
ATOM     40  C   UNL A   1      42.673  20.382  25.652  1.00  0.00     0.261 C 
BRANCH  40  41
ATOM     41  O   UNL A   1      43.399  19.619  24.674  1.00  0.00    -0.460 OA
BRANCH  41  42
ATOM     42  C   UNL A   1      44.684  20.006  24.437  1.00  0.00     0.338 C 
ATOM     43  O   UNL A   1      45.500  19.450  23.722  1.00  0.00    -0.246 OA
BRANCH  42  44
ATOM     44  C   UNL A   1      44.856  21.376  24.981  1.00  0.00     0.060 A 
ATOM     45  C   UNL A   1      45.187  21.565  26.319  1.00  0.00     0.016 A 
ATOM     46  C   UNL A   1      44.608  22.485  24.151  1.00  0.00     0.016 A 
ATOM     47  C   UNL A   1      45.275  22.865  26.827  1.00  0.00     0.010 A 
ATOM     48  C   UNL A   1      44.655  23.782  24.670  1.00  0.00     0.010 A 
ATOM     49  C   UNL A   1      45.011  23.981  26.010  1.00  0.00    -0.014 A 
BRANCH  49  50
ATOM     50  C   UNL A   1      45.338  25.341  26.504  1.00  0.00     0.031 A 
ATOM     51  C   UNL A   1      46.712  25.930  26.412  1.00  0.00     0.074 A 
ATOM     52  C   UNL A   1      44.328  26.058  27.034  1.00  0.00     0.049 A 
ATOM     53  N   UNL A   1      47.089  27.156  26.676  1.00  0.00    -0.248 NA
ATOM     54  C   UNL A   1      47.802  25.046  25.974  1.00  0.00     0.031 C 
ATOM     55  C   UNL A   1      42.957  25.567  27.190  1.00  0.00     0.029 A 
ATOM     56  N   UNL A   1      44.281  27.342  27.513  1.00  0.00    -0.354 N 
ATOM     57  C   UNL A   1      48.452  27.205  26.410  1.00  0.00     0.074 A 
ATOM     58  C   UNL A   1      48.846  25.869  26.011  1.00  0.00     0.031 C 
ATOM     59  C   UNL A   1      42.194  26.551  27.685  1.00  0.00     0.029 A 
ATOM     60  C   UNL A   1      43.024  27.731  27.916  1.00  0.00     0.049 A 
ATOM     61  H   UNL A   1      45.070  27.930  27.563  1.00  0.00     0.167 HD
ATOM     62  C   UNL A   1      49.281  28.275  26.476  1.00  0.00     0.031 A 
ATOM     63  C   UNL A   1      42.577  28.904  28.406  1.00  0.00     0.031 A 
ATOM     64  C   UNL A   1      48.865  29.595  26.895  1.00  0.00     0.049 A 
ATOM     65  C   UNL A   1      43.529  30.060  28.517  1.00  0.00     0.074 A 
ATOM     66  C   UNL A   1      49.622  30.754  26.937  1.00  0.00     0.029 A 
ATOM     67  N   UNL A   1      47.600  29.933  27.356  1.00  0.00    -0.354 N 
ATOM     68  N   UNL A   1      44.787  30.119  28.156  1.00  0.00    -0.248 NA
ATOM     69  C   UNL A   1      43.004  31.308  29.085  1.00  0.00     0.031 C 
ATOM     70  C   UNL A   1      48.848  31.764  27.509  1.00  0.00     0.029 A 
ATOM     71  C   UNL A   1      47.576  31.267  27.737  1.00  0.00     0.049 A 
ATOM     72  H   UNL A   1      46.834  29.318  27.405  1.00  0.00     0.167 HD
ATOM     73  C   UNL A   1      45.204  31.414  28.444  1.00  0.00     0.074 A 
ATOM     74  C   UNL A   1      44.055  32.113  28.983  1.00  0.00     0.031 C 
ATOM     75  C   UNL A   1      46.433  31.963  28.282  1.00  0.00     0.031 A 
BRANCH  62  76
ATOM     76  C   UNL A   1      50.727  28.110  26.067  1.00  0.00    -0.014 A 
ATOM     77  C   UNL A   1      51.092  28.217  24.711  1.00  0.00     0.010 A 
ATOM     78  C   UNL A   1      51.688  27.667  26.994  1.00  0.00     0.010 A 
ATOM     79  C   UNL A   1      52.370  27.842  24.283  1.00  0.00     0.020 A 
ATOM     80  C   UNL A   1      52.977  27.321  26.575  1.00  0.00     0.020 A 
ATOM     81  C   UNL A   1      53.301  27.383  25.218  1.00  0.00     0.054 A 
BRANCH  81  82
ATOM     82  S   UNL A   1      54.932  26.839  24.636  1.00  0.00     0.124 S 
ATOM     83  O   UNL A   1      54.660  26.469  23.251  1.00  0.00    -0.237 OA
ATOM     84  O   UNL A   1      55.751  28.037  24.820  1.00  0.00    -0.237 OA
ATOM     85  O   UNL A   1      55.262  25.727  25.525  1.00  0.00    -0.744 OA
ENDBRANCH  81  82
ENDBRANCH  62  76
BRANCH  63  86
ATOM     86  C   UNL A   1      41.138  29.024  28.772  1.00  0.00    -0.014 A 
ATOM     87  C   UNL A   1      40.151  29.046  27.767  1.00  0.00     0.010 A 
ATOM     88  C   UNL A   1      40.756  29.233  30.108  1.00  0.00     0.010 A 
ATOM     89  C   UNL A   1      38.825  29.351  28.080  1.00  0.00     0.020 A 
ATOM     90  C   UNL A   1      39.421  29.501  30.431  1.00  0.00     0.020 A 
ATOM     91  C   UNL A   1      38.473  29.593  29.410  1.00  0.00     0.054 A 
BRANCH  91  92
ATOM     92  S   UNL A   1      36.762  30.067  29.778  1.00  0.00     0.124 S 
ATOM     93  O   UNL A   1      36.093  29.787  28.510  1.00  0.00    -0.237 OA
ATOM     94  O   UNL A   1      36.416  29.175  30.882  1.00  0.00    -0.237 OA
ATOM     95  O   UNL A   1      36.864  31.481  30.131  1.00  0.00    -0.744 OA
ENDBRANCH  91  92
ENDBRANCH  63  86
BRANCH  75  96
ATOM     96  C   UNL A   1      46.643  33.393  28.717  1.00  0.00    -0.014 A 
ATOM     97  C   UNL A   1      46.949  33.684  30.061  1.00  0.00     0.010 A 
ATOM     98  C   UNL A   1      46.368  34.455  27.837  1.00  0.00     0.010 A 
ATOM     99  C   UNL A   1      46.912  34.999  30.530  1.00  0.00     0.020 A 
ATOM    100  C   UNL A   1      46.364  35.776  28.295  1.00  0.00     0.020 A 
ATOM    101  C   UNL A   1      46.601  36.036  29.647  1.00  0.00     0.054 A 
BRANCH 101 102
ATOM    102  S   UNL A   1      46.463  37.725  30.295  1.00  0.00     0.124 S 
ATOM    103  O   UNL A   1      47.861  38.089  30.507  1.00  0.00    -0.237 OA
ATOM    104  O   UNL A   1      45.787  38.429  29.210  1.00  0.00    -0.237 OA
ATOM    105  O   UNL A   1      45.670  37.563  31.513  1.00  0.00    -0.744 OA
ENDBRANCH 101 102
ENDBRANCH  75  96
ENDBRANCH  49  50
ENDBRANCH  42  44
ENDBRANCH  41  42
ENDBRANCH  40  41
ENDBRANCH  39  40
ENDBRANCH  38  39
ENDBRANCH   1  38
TORSDOF 21
ENDMDL
