MODEL 1
REMARK VINA RESULT:      -9.7      0.000      0.000
REMARK SMILES CCNC(=O)N1[C@@H](C(=O)OCCOCCOCCOC(=O)c2ccc(-c3c4nc(c(-c5ccc(S(=O)(=O)[O-])cc5)c5ccc([nH]5)c(-c5ccc(S(=O)(=O)[O-])cc5)c5nc(c(-c6ccc(S(=O)(=O)[O-])cc6)c6ccc3[nH]6)C=C5)C=C4)cc2)CC[C@@H]2CCCC[C@H]21
REMARK SMILES IDX 15 1 14 2 13 3 12 4 11 5 10 6 8 7 9 8 7 9 6 10 89 11 82 12
REMARK SMILES IDX 84 13 88 14 83 15 85 16 87 17 86 18 4 19 3 20 5 22 2 23 1 24
REMARK SMILES IDX 16 25 17 26 18 27 19 28 20 29 21 30 22 31 23 32 81 33 24 34
REMARK SMILES IDX 80 35 25 36 26 37 27 38 74 39 28 40 79 41 73 42 75 43 29 44
REMARK SMILES IDX 78 45 72 46 71 47 30 49 60 50 41 51 59 52 42 53 45 54 58 55
REMARK SMILES IDX 76 56 43 57 44 58 57 60 77 61 46 62 31 63 32 64 40 65 33 66
REMARK SMILES IDX 39 67 34 68 35 69 36 70 37 71 38 72 61 73 62 74 70 75 63 76
REMARK SMILES IDX 69 77 64 78 65 79 66 80 67 81 68 82 47 83 48 84 56 85 49 86
REMARK SMILES IDX 55 87 50 88 51 89 52 90 53 91 54 92
REMARK H PARENT 3 21 75 48 45 59
REMARK Flexibility Score: inf
ROOT
ATOM      1  C   UNL A   1      37.734  22.717  25.788  1.00  0.00     0.188 C 
ENDROOT
BRANCH   1   2
ATOM      2  C   UNL A   1      37.480  21.455  24.962  1.00  0.00     0.188 C 
BRANCH   2   3
ATOM      3  O   UNL A   1      36.138  21.107  24.740  1.00  0.00    -0.376 OA
BRANCH   3   4
ATOM      4  C   UNL A   1      35.174  22.071  24.363  1.00  0.00     0.202 C 
BRANCH   4   5
ATOM      5  C   UNL A   1      35.364  23.233  23.368  1.00  0.00     0.261 C 
BRANCH   5   6
ATOM      6  O   UNL A   1      34.443  23.426  22.284  1.00  0.00    -0.462 OA
BRANCH   6   7
ATOM      7  C   UNL A   1      33.216  23.894  22.655  1.00  0.00     0.329 C 
ATOM      8  O   UNL A   1      32.158  23.361  22.331  1.00  0.00    -0.250 OA
BRANCH   7   9
ATOM      9  C   UNL A   1      33.248  25.168  23.510  1.00  0.00     0.197 C 
ATOM     10  N   UNL A   1      32.228  25.304  24.571  1.00  0.00    -0.308 N 
ATOM     11  C   UNL A   1      32.393  26.493  25.444  1.00  0.00     0.091 C 
ATOM     12  C   UNL A   1      33.447  26.465  22.713  1.00  0.00     0.038 C 
ATOM     13  C   UNL A   1      32.718  27.798  24.670  1.00  0.00     0.012 C 
ATOM     14  C   UNL A   1      31.230  26.773  26.414  1.00  0.00     0.025 C 
ATOM     15  C   UNL A   1      33.840  27.588  23.662  1.00  0.00     0.008 C 
ATOM     16  C   UNL A   1      33.098  28.922  25.642  1.00  0.00     0.006 C 
ATOM     17  C   UNL A   1      31.554  27.926  27.367  1.00  0.00     0.002 C 
ATOM     18  C   UNL A   1      31.966  29.193  26.623  1.00  0.00     0.000 C 
BRANCH  10  19
ATOM     19  C   UNL A   1      30.991  24.731  24.385  1.00  0.00     0.318 C 
ATOM     20  N   UNL A   1      30.760  23.528  24.991  1.00  0.00    -0.338 N 
ATOM     21  H   UNL A   1      29.849  23.174  24.868  1.00  0.00     0.165 HD
ATOM     22  O   UNL A   1      30.073  25.278  23.778  1.00  0.00    -0.249 OA
BRANCH  20  23
ATOM     23  C   UNL A   1      31.638  22.681  25.789  1.00  0.00     0.114 C 
ATOM     24  C   UNL A   1      31.812  23.113  27.229  1.00  0.00     0.027 C 
ENDBRANCH  20  23
ENDBRANCH  10  19
ENDBRANCH   7   9
ENDBRANCH   6   7
ENDBRANCH   5   6
ENDBRANCH   4   5
ENDBRANCH   3   4
ENDBRANCH   2   3
ENDBRANCH   1   2
BRANCH   1  25
ATOM     25  O   UNL A   1      38.988  22.965  26.382  1.00  0.00    -0.376 OA
BRANCH  25  26
ATOM     26  C   UNL A   1      39.866  21.860  26.513  1.00  0.00     0.202 C 
BRANCH  26  27
ATOM     27  C   UNL A   1      41.399  22.040  26.406  1.00  0.00     0.261 C 
BRANCH  27  28
ATOM     28  O   UNL A   1      42.009  23.063  27.220  1.00  0.00    -0.460 OA
BRANCH  28  29
ATOM     29  C   UNL A   1      42.283  24.250  26.613  1.00  0.00     0.338 C 
ATOM     30  O   UNL A   1      42.525  24.416  25.425  1.00  0.00    -0.246 OA
BRANCH  29  31
ATOM     31  C   UNL A   1      41.992  25.371  27.549  1.00  0.00     0.060 A 
ATOM     32  C   UNL A   1      42.831  26.501  27.552  1.00  0.00     0.016 A 
ATOM     33  C   UNL A   1      40.898  25.326  28.412  1.00  0.00     0.016 A 
ATOM     34  C   UNL A   1      42.572  27.588  28.395  1.00  0.00     0.010 A 
ATOM     35  C   UNL A   1      40.669  26.394  29.291  1.00  0.00     0.010 A 
ATOM     36  C   UNL A   1      41.506  27.527  29.298  1.00  0.00    -0.014 A 
BRANCH  36  37
ATOM     37  C   UNL A   1      41.332  28.562  30.355  1.00  0.00     0.031 A 
ATOM     38  C   UNL A   1      42.188  28.481  31.590  1.00  0.00     0.074 A 
ATOM     39  C   UNL A   1      40.405  29.532  30.251  1.00  0.00     0.049 A 
ATOM     40  N   UNL A   1      42.093  29.148  32.712  1.00  0.00    -0.248 NA
ATOM     41  C   UNL A   1      43.298  27.514  31.555  1.00  0.00     0.031 C 
ATOM     42  C   UNL A   1      39.561  29.781  29.083  1.00  0.00     0.029 A 
ATOM     43  N   UNL A   1      40.001  30.478  31.165  1.00  0.00    -0.354 N 
ATOM     44  C   UNL A   1      43.112  28.666  33.526  1.00  0.00     0.074 A 
ATOM     45  C   UNL A   1      43.806  27.643  32.772  1.00  0.00     0.031 C 
ATOM     46  C   UNL A   1      38.716  30.789  29.364  1.00  0.00     0.029 A 
ATOM     47  C   UNL A   1      38.922  31.223  30.746  1.00  0.00     0.049 A 
ATOM     48  H   UNL A   1      40.441  30.609  32.035  1.00  0.00     0.167 HD
ATOM     49  C   UNL A   1      43.434  29.032  34.790  1.00  0.00     0.031 A 
ATOM     50  C   UNL A   1      38.157  32.114  31.412  1.00  0.00     0.031 A 
ATOM     51  C   UNL A   1      42.731  30.035  35.545  1.00  0.00     0.049 A 
ATOM     52  C   UNL A   1      38.458  32.422  32.860  1.00  0.00     0.074 A 
ATOM     53  C   UNL A   1      42.994  30.485  36.828  1.00  0.00     0.029 A 
ATOM     54  N   UNL A   1      41.618  30.732  35.099  1.00  0.00    -0.354 N 
ATOM     55  N   UNL A   1      39.433  31.973  33.613  1.00  0.00    -0.248 NA
ATOM     56  C   UNL A   1      37.549  33.352  33.548  1.00  0.00     0.031 C 
ATOM     57  C   UNL A   1      41.998  31.401  37.183  1.00  0.00     0.029 A 
ATOM     58  C   UNL A   1      41.156  31.574  36.096  1.00  0.00     0.049 A 
ATOM     59  H   UNL A   1      41.216  30.642  34.205  1.00  0.00     0.167 HD
ATOM     60  C   UNL A   1      39.265  32.580  34.856  1.00  0.00     0.074 A 
ATOM     61  C   UNL A   1      38.108  33.443  34.748  1.00  0.00     0.031 C 
ATOM     62  C   UNL A   1      40.002  32.431  35.985  1.00  0.00     0.031 A 
BRANCH  49  63
ATOM     63  C   UNL A   1      44.572  28.307  35.460  1.00  0.00    -0.014 A 
ATOM     64  C   UNL A   1      44.361  27.117  36.179  1.00  0.00     0.010 A 
ATOM     65  C   UNL A   1      45.883  28.799  35.322  1.00  0.00     0.010 A 
ATOM     66  C   UNL A   1      45.435  26.455  36.781  1.00  0.00     0.020 A 
ATOM     67  C   UNL A   1      46.964  28.124  35.896  1.00  0.00     0.020 A 
ATOM     68  C   UNL A   1      46.730  26.963  36.636  1.00  0.00     0.054 A 
BRANCH  68  69
ATOM     69  S   UNL A   1      48.106  26.070  37.408  1.00  0.00     0.124 S 
ATOM     70  O   UNL A   1      49.254  26.877  37.004  1.00  0.00    -0.237 OA
ATOM     71  O   UNL A   1      47.766  26.129  38.829  1.00  0.00    -0.237 OA
ATOM     72  O   UNL A   1      48.040  24.740  36.809  1.00  0.00    -0.744 OA
ENDBRANCH  68  69
ENDBRANCH  49  63
BRANCH  50  73
ATOM     73  C   UNL A   1      36.987  32.747  30.737  1.00  0.00    -0.014 A 
ATOM     74  C   UNL A   1      35.691  32.229  30.912  1.00  0.00     0.010 A 
ATOM     75  C   UNL A   1      37.166  33.867  29.902  1.00  0.00     0.010 A 
ATOM     76  C   UNL A   1      34.600  32.815  30.262  1.00  0.00     0.020 A 
ATOM     77  C   UNL A   1      36.073  34.472  29.274  1.00  0.00     0.020 A 
ATOM     78  C   UNL A   1      34.797  33.937  29.453  1.00  0.00     0.054 A 
BRANCH  78  79
ATOM     79  S   UNL A   1      33.355  34.716  28.673  1.00  0.00     0.124 S 
ATOM     80  O   UNL A   1      32.896  33.671  27.765  1.00  0.00    -0.237 OA
ATOM     81  O   UNL A   1      32.488  34.987  29.817  1.00  0.00    -0.237 OA
ATOM     82  O   UNL A   1      33.913  35.904  28.030  1.00  0.00    -0.744 OA
ENDBRANCH  78  79
ENDBRANCH  50  73
BRANCH  62  83
ATOM     83  C   UNL A   1      39.601  33.226  37.202  1.00  0.00    -0.014 A 
ATOM     84  C   UNL A   1      38.669  32.720  38.126  1.00  0.00     0.010 A 
ATOM     85  C   UNL A   1      40.233  34.454  37.474  1.00  0.00     0.010 A 
ATOM     86  C   UNL A   1      38.370  33.431  39.292  1.00  0.00     0.020 A 
ATOM     87  C   UNL A   1      39.959  35.153  38.653  1.00  0.00     0.020 A 
ATOM     88  C   UNL A   1      39.024  34.640  39.553  1.00  0.00     0.054 A 
BRANCH  88  89
ATOM     89  S   UNL A   1      38.674  35.501  41.111  1.00  0.00     0.124 S 
ATOM     90  O   UNL A   1      38.572  36.892  40.676  1.00  0.00    -0.237 OA
ATOM     91  O   UNL A   1      37.422  34.884  41.542  1.00  0.00    -0.237 OA
ATOM     92  O   UNL A   1      39.833  35.194  41.947  1.00  0.00    -0.744 OA
ENDBRANCH  88  89
ENDBRANCH  62  83
ENDBRANCH  36  37
ENDBRANCH  29  31
ENDBRANCH  28  29
ENDBRANCH  27  28
ENDBRANCH  26  27
ENDBRANCH  25  26
ENDBRANCH   1  25
TORSDOF 22
ENDMDL
MODEL 2
REMARK VINA RESULT:      -9.3      6.160      8.301
REMARK SMILES CCNC(=O)N1[C@@H](C(=O)OCCOCCOCCOC(=O)c2ccc(-c3c4nc(c(-c5ccc(S(=O)(=O)[O-])cc5)c5ccc([nH]5)c(-c5ccc(S(=O)(=O)[O-])cc5)c5nc(c(-c6ccc(S(=O)(=O)[O-])cc6)c6ccc3[nH]6)C=C5)C=C4)cc2)CC[C@@H]2CCCC[C@H]21
REMARK SMILES IDX 15 1 14 2 13 3 12 4 11 5 10 6 8 7 9 8 7 9 6 10 89 11 82 12
REMARK SMILES IDX 84 13 88 14 83 15 85 16 87 17 86 18 4 19 3 20 5 22 2 23 1 24
REMARK SMILES IDX 16 25 17 26 18 27 19 28 20 29 21 30 22 31 23 32 81 33 24 34
REMARK SMILES IDX 80 35 25 36 26 37 27 38 74 39 28 40 79 41 73 42 75 43 29 44
REMARK SMILES IDX 78 45 72 46 71 47 30 49 60 50 41 51 59 52 42 53 45 54 58 55
REMARK SMILES IDX 76 56 43 57 44 58 57 60 77 61 46 62 31 63 32 64 40 65 33 66
REMARK SMILES IDX 39 67 34 68 35 69 36 70 37 71 38 72 61 73 62 74 70 75 63 76
REMARK SMILES IDX 69 77 64 78 65 79 66 80 67 81 68 82 47 83 48 84 56 85 49 86
REMARK SMILES IDX 55 87 50 88 51 89 52 90 53 91 54 92
REMARK H PARENT 3 21 75 48 45 59
REMARK Flexibility Score: inf
ROOT
ATOM      1  C   UNL A   1      40.485  22.218  27.094  1.00  0.00     0.188 C 
ENDROOT
BRANCH   1   2
ATOM      2  C   UNL A   1      39.157  21.800  26.462  1.00  0.00     0.188 C 
BRANCH   2   3
ATOM      3  O   UNL A   1      38.455  22.791  25.756  1.00  0.00    -0.376 OA
BRANCH   3   4
ATOM      4  C   UNL A   1      37.356  22.471  24.925  1.00  0.00     0.202 C 
BRANCH   4   5
ATOM      5  C   UNL A   1      36.171  23.387  24.561  1.00  0.00     0.261 C 
BRANCH   5   6
ATOM      6  O   UNL A   1      34.953  22.835  24.038  1.00  0.00    -0.462 OA
BRANCH   6   7
ATOM      7  C   UNL A   1      34.284  23.649  23.171  1.00  0.00     0.329 C 
ATOM      8  O   UNL A   1      33.972  23.318  22.030  1.00  0.00    -0.250 OA
BRANCH   7   9
ATOM      9  C   UNL A   1      33.956  25.042  23.725  1.00  0.00     0.197 C 
ATOM     10  N   UNL A   1      33.088  25.115  24.920  1.00  0.00    -0.308 N 
ATOM     11  C   UNL A   1      32.916  26.477  25.481  1.00  0.00     0.091 C 
ATOM     12  C   UNL A   1      33.577  26.079  22.657  1.00  0.00     0.038 C 
ATOM     13  C   UNL A   1      32.655  27.568  24.409  1.00  0.00     0.012 C 
ATOM     14  C   UNL A   1      31.854  26.612  26.588  1.00  0.00     0.025 C 
ATOM     15  C   UNL A   1      33.649  27.475  23.260  1.00  0.00     0.008 C 
ATOM     16  C   UNL A   1      32.715  28.967  25.035  1.00  0.00     0.006 C 
ATOM     17  C   UNL A   1      31.851  28.014  27.202  1.00  0.00     0.002 C 
ATOM     18  C   UNL A   1      31.687  29.106  26.149  1.00  0.00     0.000 C 
BRANCH  10  19
ATOM     19  C   UNL A   1      32.128  24.147  25.107  1.00  0.00     0.318 C 
ATOM     20  N   UNL A   1      32.323  23.262  26.131  1.00  0.00    -0.338 N 
ATOM     21  H   UNL A   1      31.592  22.613  26.257  1.00  0.00     0.165 HD
ATOM     22  O   UNL A   1      31.084  24.092  24.462  1.00  0.00    -0.249 OA
BRANCH  20  23
ATOM     23  C   UNL A   1      33.431  23.118  27.066  1.00  0.00     0.114 C 
ATOM     24  C   UNL A   1      33.944  21.705  27.240  1.00  0.00     0.027 C 
ENDBRANCH  20  23
ENDBRANCH  10  19
ENDBRANCH   7   9
ENDBRANCH   6   7
ENDBRANCH   5   6
ENDBRANCH   4   5
ENDBRANCH   3   4
ENDBRANCH   2   3
ENDBRANCH   1   2
BRANCH   1  25
ATOM     25  O   UNL A   1      41.641  21.422  26.964  1.00  0.00    -0.376 OA
BRANCH  25  26
ATOM     26  C   UNL A   1      41.449  20.023  26.852  1.00  0.00     0.202 C 
BRANCH  26  27
ATOM     27  C   UNL A   1      42.210  19.195  25.790  1.00  0.00     0.261 C 
BRANCH  27  28
ATOM     28  O   UNL A   1      43.652  19.226  25.827  1.00  0.00    -0.460 OA
BRANCH  28  29
ATOM     29  C   UNL A   1      44.284  19.730  24.732  1.00  0.00     0.338 C 
ATOM     30  O   UNL A   1      44.382  19.188  23.639  1.00  0.00    -0.246 OA
BRANCH  29  31
ATOM     31  C   UNL A   1      44.624  21.161  24.964  1.00  0.00     0.060 A 
ATOM     32  C   UNL A   1      45.185  21.543  26.198  1.00  0.00     0.016 A 
ATOM     33  C   UNL A   1      44.410  22.123  23.980  1.00  0.00     0.016 A 
ATOM     34  C   UNL A   1      45.548  22.873  26.442  1.00  0.00     0.010 A 
ATOM     35  C   UNL A   1      44.728  23.464  24.244  1.00  0.00     0.010 A 
ATOM     36  C   UNL A   1      45.289  23.851  25.477  1.00  0.00    -0.014 A 
BRANCH  36  37
ATOM     37  C   UNL A   1      45.457  25.299  25.784  1.00  0.00     0.031 A 
ATOM     38  C   UNL A   1      46.839  25.892  25.728  1.00  0.00     0.074 A 
ATOM     39  C   UNL A   1      44.417  26.071  26.151  1.00  0.00     0.049 A 
ATOM     40  N   UNL A   1      47.257  27.065  26.127  1.00  0.00    -0.248 NA
ATOM     41  C   UNL A   1      47.892  25.043  25.146  1.00  0.00     0.031 C 
ATOM     42  C   UNL A   1      43.016  25.656  26.173  1.00  0.00     0.029 A 
ATOM     43  N   UNL A   1      44.389  27.370  26.603  1.00  0.00    -0.354 N 
ATOM     44  C   UNL A   1      48.623  27.089  25.870  1.00  0.00     0.074 A 
ATOM     45  C   UNL A   1      48.965  25.807  25.289  1.00  0.00     0.031 C 
ATOM     46  C   UNL A   1      42.269  26.668  26.649  1.00  0.00     0.029 A 
ATOM     47  C   UNL A   1      43.143  27.784  27.013  1.00  0.00     0.049 A 
ATOM     48  H   UNL A   1      45.186  27.948  26.631  1.00  0.00     0.167 HD
ATOM     49  C   UNL A   1      49.514  28.082  26.105  1.00  0.00     0.031 A 
ATOM     50  C   UNL A   1      42.756  28.909  27.653  1.00  0.00     0.031 A 
ATOM     51  C   UNL A   1      49.177  29.347  26.701  1.00  0.00     0.049 A 
ATOM     52  C   UNL A   1      43.785  29.953  28.015  1.00  0.00     0.074 A 
ATOM     53  C   UNL A   1      50.010  30.421  26.965  1.00  0.00     0.029 A 
ATOM     54  N   UNL A   1      47.912  29.707  27.142  1.00  0.00    -0.354 N 
ATOM     55  N   UNL A   1      45.070  29.972  27.752  1.00  0.00    -0.248 NA
ATOM     56  C   UNL A   1      43.310  31.125  28.768  1.00  0.00     0.031 C 
ATOM     57  C   UNL A   1      49.264  31.400  27.630  1.00  0.00     0.029 A 
ATOM     58  C   UNL A   1      47.952  30.966  27.716  1.00  0.00     0.049 A 
ATOM     59  H   UNL A   1      47.105  29.149  27.058  1.00  0.00     0.167 HD
ATOM     60  C   UNL A   1      45.552  31.163  28.289  1.00  0.00     0.074 A 
ATOM     61  C   UNL A   1      44.419  31.848  28.875  1.00  0.00     0.031 C 
ATOM     62  C   UNL A   1      46.820  31.643  28.300  1.00  0.00     0.031 A 
BRANCH  49  63
ATOM     63  C   UNL A   1      50.958  27.820  25.764  1.00  0.00    -0.014 A 
ATOM     64  C   UNL A   1      51.846  27.267  26.704  1.00  0.00     0.010 A 
ATOM     65  C   UNL A   1      51.421  28.087  24.462  1.00  0.00     0.010 A 
ATOM     66  C   UNL A   1      53.178  27.022  26.359  1.00  0.00     0.020 A 
ATOM     67  C   UNL A   1      52.744  27.814  24.103  1.00  0.00     0.020 A 
ATOM     68  C   UNL A   1      53.619  27.297  25.060  1.00  0.00     0.054 A 
BRANCH  68  69
ATOM     69  S   UNL A   1      55.346  26.947  24.636  1.00  0.00     0.124 S 
ATOM     70  O   UNL A   1      55.420  27.421  23.256  1.00  0.00    -0.237 OA
ATOM     71  O   UNL A   1      56.083  27.745  25.614  1.00  0.00    -0.237 OA
ATOM     72  O   UNL A   1      55.461  25.500  24.803  1.00  0.00    -0.744 OA
ENDBRANCH  68  69
ENDBRANCH  49  63
BRANCH  50  73
ATOM     73  C   UNL A   1      41.329  29.090  28.049  1.00  0.00    -0.014 A 
ATOM     74  C   UNL A   1      40.950  29.051  29.403  1.00  0.00     0.010 A 
ATOM     75  C   UNL A   1      40.338  29.290  27.070  1.00  0.00     0.010 A 
ATOM     76  C   UNL A   1      39.608  29.202  29.767  1.00  0.00     0.020 A 
ATOM     77  C   UNL A   1      39.000  29.473  27.433  1.00  0.00     0.020 A 
ATOM     78  C   UNL A   1      38.643  29.420  28.781  1.00  0.00     0.054 A 
BRANCH  78  79
ATOM     79  S   UNL A   1      36.919  29.679  29.287  1.00  0.00     0.124 S 
ATOM     80  O   UNL A   1      36.859  28.953  30.550  1.00  0.00    -0.237 OA
ATOM     81  O   UNL A   1      36.837  31.134  29.386  1.00  0.00    -0.237 OA
ATOM     82  O   UNL A   1      36.149  29.093  28.191  1.00  0.00    -0.744 OA
ENDBRANCH  78  79
ENDBRANCH  50  73
BRANCH  62  83
ATOM     83  C   UNL A   1      47.065  32.982  28.949  1.00  0.00    -0.014 A 
ATOM     84  C   UNL A   1      46.948  34.177  28.218  1.00  0.00     0.010 A 
ATOM     85  C   UNL A   1      47.325  33.051  30.332  1.00  0.00     0.010 A 
ATOM     86  C   UNL A   1      47.096  35.414  28.854  1.00  0.00     0.020 A 
ATOM     87  C   UNL A   1      47.445  34.285  30.976  1.00  0.00     0.020 A 
ATOM     88  C   UNL A   1      47.335  35.461  30.231  1.00  0.00     0.054 A 
BRANCH  88  89
ATOM     89  S   UNL A   1      47.443  37.080  31.042  1.00  0.00     0.124 S 
ATOM     90  O   UNL A   1      48.146  37.877  30.041  1.00  0.00    -0.237 OA
ATOM     91  O   UNL A   1      46.039  37.427  31.249  1.00  0.00    -0.237 OA
ATOM     92  O   UNL A   1      48.198  36.809  32.264  1.00  0.00    -0.744 OA
ENDBRANCH  88  89
ENDBRANCH  62  83
ENDBRANCH  36  37
ENDBRANCH  29  31
ENDBRANCH  28  29
ENDBRANCH  27  28
ENDBRANCH  26  27
ENDBRANCH  25  26
ENDBRANCH   1  25
TORSDOF 22
ENDMDL
MODEL 3
REMARK VINA RESULT:      -9.1      6.154     10.532
REMARK SMILES CCNC(=O)N1[C@@H](C(=O)OCCOCCOCCOC(=O)c2ccc(-c3c4nc(c(-c5ccc(S(=O)(=O)[O-])cc5)c5ccc([nH]5)c(-c5ccc(S(=O)(=O)[O-])cc5)c5nc(c(-c6ccc(S(=O)(=O)[O-])cc6)c6ccc3[nH]6)C=C5)C=C4)cc2)CC[C@@H]2CCCC[C@H]21
REMARK SMILES IDX 15 1 14 2 13 3 12 4 11 5 10 6 8 7 9 8 7 9 6 10 89 11 82 12
REMARK SMILES IDX 84 13 88 14 83 15 85 16 87 17 86 18 4 19 3 20 5 22 2 23 1 24
REMARK SMILES IDX 16 25 17 26 18 27 19 28 20 29 21 30 22 31 23 32 81 33 24 34
REMARK SMILES IDX 80 35 25 36 26 37 27 38 74 39 28 40 79 41 73 42 75 43 29 44
REMARK SMILES IDX 78 45 72 46 71 47 30 49 60 50 41 51 59 52 42 53 45 54 58 55
REMARK SMILES IDX 76 56 43 57 44 58 57 60 77 61 46 62 31 63 32 64 40 65 33 66
REMARK SMILES IDX 39 67 34 68 35 69 36 70 37 71 38 72 61 73 62 74 70 75 63 76
REMARK SMILES IDX 69 77 64 78 65 79 66 80 67 81 68 82 47 83 48 84 56 85 49 86
REMARK SMILES IDX 55 87 50 88 51 89 52 90 53 91 54 92
REMARK H PARENT 3 21 75 48 45 59
REMARK Flexibility Score: inf
ROOT
ATOM      1  C   UNL A   1      40.012  22.039  26.543  1.00  0.00     0.188 C 
ENDROOT
BRANCH   1   2
ATOM      2  C   UNL A   1      38.859  21.404  25.763  1.00  0.00     0.188 C 
BRANCH   2   3
ATOM      3  O   UNL A   1      37.686  22.165  25.640  1.00  0.00    -0.376 OA
BRANCH   3   4
ATOM      4  C   UNL A   1      36.503  21.619  25.089  1.00  0.00     0.202 C 
BRANCH   4   5
ATOM      5  C   UNL A   1      35.644  22.219  23.959  1.00  0.00     0.261 C 
BRANCH   5   6
ATOM      6  O   UNL A   1      35.539  23.642  23.796  1.00  0.00    -0.462 OA
BRANCH   6   7
ATOM      7  C   UNL A   1      34.281  24.092  23.517  1.00  0.00     0.329 C 
ATOM      8  O   UNL A   1      33.450  23.444  22.887  1.00  0.00    -0.250 OA
BRANCH   7   9
ATOM      9  C   UNL A   1      33.975  25.502  24.043  1.00  0.00     0.197 C 
ATOM     10  N   UNL A   1      33.096  25.613  25.226  1.00  0.00    -0.308 N 
ATOM     11  C   UNL A   1      32.945  26.988  25.762  1.00  0.00     0.091 C 
ATOM     12  C   UNL A   1      33.630  26.527  22.953  1.00  0.00     0.038 C 
ATOM     13  C   UNL A   1      32.718  28.065  24.668  1.00  0.00     0.012 C 
ATOM     14  C   UNL A   1      31.873  27.164  26.854  1.00  0.00     0.025 C 
ATOM     15  C   UNL A   1      33.724  27.932  23.532  1.00  0.00     0.008 C 
ATOM     16  C   UNL A   1      32.801  29.473  25.270  1.00  0.00     0.006 C 
ATOM     17  C   UNL A   1      31.892  28.576  27.443  1.00  0.00     0.002 C 
ATOM     18  C   UNL A   1      31.762  29.653  26.369  1.00  0.00     0.000 C 
BRANCH  10  19
ATOM     19  C   UNL A   1      32.113  24.668  25.419  1.00  0.00     0.318 C 
ATOM     20  N   UNL A   1      32.375  23.667  26.313  1.00  0.00    -0.338 N 
ATOM     21  H   UNL A   1      31.630  23.037  26.453  1.00  0.00     0.165 HD
ATOM     22  O   UNL A   1      31.003  24.726  24.897  1.00  0.00    -0.249 OA
BRANCH  20  23
ATOM     23  C   UNL A   1      33.572  23.376  27.092  1.00  0.00     0.114 C 
ATOM     24  C   UNL A   1      33.748  21.924  27.479  1.00  0.00     0.027 C 
ENDBRANCH  20  23
ENDBRANCH  10  19
ENDBRANCH   7   9
ENDBRANCH   6   7
ENDBRANCH   5   6
ENDBRANCH   4   5
ENDBRANCH   3   4
ENDBRANCH   2   3
ENDBRANCH   1   2
BRANCH   1  25
ATOM     25  O   UNL A   1      40.713  21.319  27.531  1.00  0.00    -0.376 OA
BRANCH  25  26
ATOM     26  C   UNL A   1      41.078  19.986  27.217  1.00  0.00     0.202 C 
BRANCH  26  27
ATOM     27  C   UNL A   1      41.709  19.631  25.851  1.00  0.00     0.261 C 
BRANCH  27  28
ATOM     28  O   UNL A   1      43.121  19.339  25.823  1.00  0.00    -0.460 OA
BRANCH  28  29
ATOM     29  C   UNL A   1      43.875  20.032  24.926  1.00  0.00     0.338 C 
ATOM     30  O   UNL A   1      44.133  19.690  23.780  1.00  0.00    -0.246 OA
BRANCH  29  31
ATOM     31  C   UNL A   1      44.135  21.403  25.444  1.00  0.00     0.060 A 
ATOM     32  C   UNL A   1      44.159  22.486  24.545  1.00  0.00     0.016 A 
ATOM     33  C   UNL A   1      44.342  21.635  26.803  1.00  0.00     0.016 A 
ATOM     34  C   UNL A   1      44.368  23.794  24.999  1.00  0.00     0.010 A 
ATOM     35  C   UNL A   1      44.601  22.939  27.249  1.00  0.00     0.010 A 
ATOM     36  C   UNL A   1      44.626  24.026  26.353  1.00  0.00    -0.014 A 
BRANCH  36  37
ATOM     37  C   UNL A   1      45.068  25.364  26.834  1.00  0.00     0.031 A 
ATOM     38  C   UNL A   1      44.031  26.320  27.359  1.00  0.00     0.074 A 
ATOM     39  C   UNL A   1      46.356  25.750  26.770  1.00  0.00     0.049 A 
ATOM     40  N   UNL A   1      44.145  27.588  27.657  1.00  0.00    -0.248 NA
ATOM     41  C   UNL A   1      42.682  25.769  27.571  1.00  0.00     0.031 C 
ATOM     42  C   UNL A   1      47.477  24.907  26.361  1.00  0.00     0.029 A 
ATOM     43  N   UNL A   1      46.932  26.973  27.028  1.00  0.00    -0.354 N 
ATOM     44  C   UNL A   1      42.880  27.996  28.067  1.00  0.00     0.074 A 
ATOM     45  C   UNL A   1      42.012  26.841  27.970  1.00  0.00     0.031 C 
ATOM     46  C   UNL A   1      48.601  25.647  26.361  1.00  0.00     0.029 A 
ATOM     47  C   UNL A   1      48.272  27.027  26.720  1.00  0.00     0.049 A 
ATOM     48  H   UNL A   1      46.432  27.737  27.396  1.00  0.00     0.167 HD
ATOM     49  C   UNL A   1      42.475  29.222  28.478  1.00  0.00     0.031 A 
ATOM     50  C   UNL A   1      49.125  28.073  26.683  1.00  0.00     0.031 A 
ATOM     51  C   UNL A   1      43.334  30.374  28.555  1.00  0.00     0.049 A 
ATOM     52  C   UNL A   1      48.625  29.456  27.029  1.00  0.00     0.074 A 
ATOM     53  C   UNL A   1      43.017  31.655  28.974  1.00  0.00     0.029 A 
ATOM     54  N   UNL A   1      44.672  30.394  28.192  1.00  0.00    -0.354 N 
ATOM     55  N   UNL A   1      47.433  29.826  27.431  1.00  0.00    -0.248 NA
ATOM     56  C   UNL A   1      49.587  30.563  26.907  1.00  0.00     0.031 C 
ATOM     57  C   UNL A   1      44.143  32.465  28.796  1.00  0.00     0.029 A 
ATOM     58  C   UNL A   1      45.182  31.674  28.334  1.00  0.00     0.049 A 
ATOM     59  H   UNL A   1      45.185  29.613  27.881  1.00  0.00     0.167 HD
ATOM     60  C   UNL A   1      47.507  31.203  27.628  1.00  0.00     0.074 A 
ATOM     61  C   UNL A   1      48.866  31.598  27.321  1.00  0.00     0.031 C 
ATOM     62  C   UNL A   1      46.536  32.062  28.025  1.00  0.00     0.031 A 
BRANCH  49  63
ATOM     63  C   UNL A   1      41.021  29.397  28.829  1.00  0.00    -0.014 A 
ATOM     64  C   UNL A   1      40.602  29.559  30.161  1.00  0.00     0.010 A 
ATOM     65  C   UNL A   1      40.062  29.450  27.800  1.00  0.00     0.010 A 
ATOM     66  C   UNL A   1      39.247  29.733  30.460  1.00  0.00     0.020 A 
ATOM     67  C   UNL A   1      38.710  29.654  28.092  1.00  0.00     0.020 A 
ATOM     68  C   UNL A   1      38.310  29.779  29.423  1.00  0.00     0.054 A 
BRANCH  68  69
ATOM     69  S   UNL A   1      36.563  30.028  29.841  1.00  0.00     0.124 S 
ATOM     70  O   UNL A   1      35.890  29.416  28.698  1.00  0.00    -0.237 OA
ATOM     71  O   UNL A   1      36.432  29.308  31.105  1.00  0.00    -0.237 OA
ATOM     72  O   UNL A   1      36.430  31.480  29.936  1.00  0.00    -0.744 OA
ENDBRANCH  68  69
ENDBRANCH  49  63
BRANCH  50  73
ATOM     73  C   UNL A   1      50.537  27.871  26.248  1.00  0.00    -0.014 A 
ATOM     74  C   UNL A   1      50.908  28.060  24.905  1.00  0.00     0.010 A 
ATOM     75  C   UNL A   1      51.519  27.474  27.176  1.00  0.00     0.010 A 
ATOM     76  C   UNL A   1      52.230  27.851  24.499  1.00  0.00     0.020 A 
ATOM     77  C   UNL A   1      52.847  27.294  26.779  1.00  0.00     0.020 A 
ATOM     78  C   UNL A   1      53.193  27.476  25.440  1.00  0.00     0.054 A 
BRANCH  78  79
ATOM     79  S   UNL A   1      54.913  27.275  24.898  1.00  0.00     0.124 S 
ATOM     80  O   UNL A   1      55.657  27.687  26.082  1.00  0.00    -0.237 OA
ATOM     81  O   UNL A   1      54.975  25.852  24.572  1.00  0.00    -0.237 OA
ATOM     82  O   UNL A   1      55.017  28.173  23.749  1.00  0.00    -0.744 OA
ENDBRANCH  78  79
ENDBRANCH  50  73
BRANCH  62  83
ATOM     83  C   UNL A   1      46.895  33.520  28.169  1.00  0.00    -0.014 A 
ATOM     84  C   UNL A   1      46.696  34.425  27.112  1.00  0.00     0.010 A 
ATOM     85  C   UNL A   1      47.350  34.008  29.409  1.00  0.00     0.010 A 
ATOM     86  C   UNL A   1      46.956  35.788  27.287  1.00  0.00     0.020 A 
ATOM     87  C   UNL A   1      47.582  35.373  29.597  1.00  0.00     0.020 A 
ATOM     88  C   UNL A   1      47.389  36.255  28.533  1.00  0.00     0.054 A 
BRANCH  88  89
ATOM     89  S   UNL A   1      47.641  38.038  28.755  1.00  0.00     0.124 S 
ATOM     90  O   UNL A   1      48.786  38.296  27.886  1.00  0.00    -0.237 OA
ATOM     91  O   UNL A   1      46.370  38.598  28.302  1.00  0.00    -0.237 OA
ATOM     92  O   UNL A   1      47.902  38.178  30.186  1.00  0.00    -0.744 OA
ENDBRANCH  88  89
ENDBRANCH  62  83
ENDBRANCH  36  37
ENDBRANCH  29  31
ENDBRANCH  28  29
ENDBRANCH  27  28
ENDBRANCH  26  27
ENDBRANCH  25  26
ENDBRANCH   1  25
TORSDOF 22
ENDMDL
