MODEL 1
REMARK VINA RESULT:      -9.5      0.000      0.000
REMARK SMILES Cc1c(C(=O)Nc2ccc(C(=O)Nc3ccccc3C(=O)OCCOCCOCCOC(=O)c3ccc(-c4c5nc(c(-c6ccc(S(=O)(=O)[O-])cc6)c6ccc([nH]6)c(-c6ccc(S(=O)(=O)[O-])cc6)c6nc(c(-c7ccc(S(=O)(=O)[O-])cc7)c7ccc4[nH]7)C=C6)C=C5)cc3)cc2)cccc1[N+](=O)[O-]
REMARK SMILES IDX 26 1 25 2 24 3 23 4 22 5 20 6 21 7 19 8 14 9 15 10 16 11
REMARK SMILES IDX 18 12 17 13 13 14 11 15 12 16 10 18 7 19 8 20 95 21 9 22
REMARK SMILES IDX 94 23 6 24 4 25 5 26 3 28 1 29 2 30 99 31 96 32 98 33 97 34
REMARK SMILES IDX 100 35 101 36 102 37 27 38 28 39 29 40 30 41 31 42 32 43
REMARK SMILES IDX 33 44 34 45 35 46 93 47 36 48 92 49 37 50 38 51 39 52 86 53
REMARK SMILES IDX 40 54 91 55 85 56 87 57 41 58 90 59 84 60 83 61 42 63 72 64
REMARK SMILES IDX 53 65 71 66 54 67 57 68 70 69 88 70 55 71 56 72 69 74 89 75
REMARK SMILES IDX 58 76 43 77 44 78 52 79 45 80 51 81 46 82 47 83 48 84 49 85
REMARK SMILES IDX 50 86 73 87 74 88 82 89 75 90 81 91 76 92 77 93 78 94 79 95
REMARK SMILES IDX 80 96 59 97 60 98 68 99 61 100 67 101 62 102 63 103 64 104
REMARK SMILES IDX 65 105 66 106
REMARK H PARENT 13 17 6 27 87 62 57 73
REMARK Flexibility Score: inf
ROOT
ATOM      1  C   UNL A   1      33.853  26.451  25.562  1.00  0.00     0.188 C 
ENDROOT
BRANCH   1   2
ATOM      2  O   UNL A   1      33.654  25.399  24.658  1.00  0.00    -0.376 OA
BRANCH   2   3
ATOM      3  C   UNL A   1      34.459  24.270  24.843  1.00  0.00     0.202 C 
BRANCH   3   4
ATOM      4  C   UNL A   1      35.758  24.251  25.710  1.00  0.00     0.261 C 
BRANCH   4   5
ATOM      5  O   UNL A   1      37.308  23.368  25.606  1.00  0.00    -0.460 OA
BRANCH   5   6
ATOM      6  C   UNL A   1      38.772  23.147  26.329  1.00  0.00     0.340 C 
ATOM      7  O   UNL A   1      38.907  23.785  27.372  1.00  0.00    -0.246 OA
BRANCH   6   8
ATOM      8  C   UNL A   1      39.921  22.123  26.333  1.00  0.00     0.083 A 
ATOM      9  C   UNL A   1      41.146  22.748  26.087  1.00  0.00     0.056 A 
ATOM     10  C   UNL A   1      42.335  21.972  25.995  1.00  0.00     0.027 A 
ATOM     11  C   UNL A   1      42.358  20.612  26.338  1.00  0.00     0.002 A 
ATOM     12  C   UNL A   1      39.959  20.704  26.481  1.00  0.00     0.018 A 
ATOM     13  C   UNL A   1      41.162  19.973  26.601  1.00  0.00     0.001 A 
BRANCH   9  14
ATOM     14  N   UNL A   1      41.287  24.169  26.102  1.00  0.00    -0.321 N 
ATOM     15  C   UNL A   1      42.253  25.070  26.711  1.00  0.00     0.255 C 
ATOM     16  O   UNL A   1      42.603  25.872  25.838  1.00  0.00    -0.269 OA
ATOM     17  H   UNL A   1      40.584  24.637  25.593  1.00  0.00     0.170 HD
BRANCH  15  18
ATOM     18  C   UNL A   1      43.202  24.839  28.083  1.00  0.00     0.040 A 
ATOM     19  C   UNL A   1      46.974  25.464  28.691  1.00  0.00     0.041 A 
ATOM     20  C   UNL A   1      46.410  24.228  27.620  1.00  0.00     0.027 A 
ATOM     21  C   UNL A   1      45.694  26.229  29.605  1.00  0.00     0.027 A 
ATOM     22  C   UNL A   1      44.421  23.956  27.469  1.00  0.00     0.016 A 
ATOM     23  C   UNL A   1      43.844  25.871  29.323  1.00  0.00     0.016 A 
BRANCH  19  24
ATOM     24  N   UNL A   1      48.159  26.176  28.667  1.00  0.00    -0.322 N 
ATOM     25  C   UNL A   1      48.599  27.167  27.810  1.00  0.00     0.256 C 
ATOM     26  O   UNL A   1      49.515  27.885  28.221  1.00  0.00    -0.269 OA
ATOM     27  H   UNL A   1      48.797  25.939  29.379  1.00  0.00     0.170 HD
BRANCH  25  28
ATOM     28  C   UNL A   1      48.116  27.407  26.414  1.00  0.00     0.049 A 
ATOM     29  C   UNL A   1      49.725  25.919  25.229  1.00  0.00     0.053 C 
ATOM     30  C   UNL A   1      48.728  27.017  25.207  1.00  0.00     0.039 A 
ATOM     31  C   UNL A   1      48.192  27.457  23.973  1.00  0.00     0.273 A 
ATOM     32  C   UNL A   1      46.787  27.818  26.334  1.00  0.00     0.014 A 
ATOM     33  C   UNL A   1      46.904  27.973  23.929  1.00  0.00     0.086 A 
ATOM     34  C   UNL A   1      46.170  28.051  25.104  1.00  0.00     0.008 A 
BRANCH  31  35
ATOM     35  N   UNL A   1      48.935  27.476  22.694  1.00  0.00     0.063 N 
ATOM     36  O   UNL A   1      49.882  28.278  22.623  1.00  0.00    -0.258 OA
ATOM     37  O   UNL A   1      48.586  26.729  21.777  1.00  0.00    -0.258 OA
ENDBRANCH  31  35
ENDBRANCH  25  28
ENDBRANCH  19  24
ENDBRANCH  15  18
ENDBRANCH   9  14
ENDBRANCH   6   8
ENDBRANCH   5   6
ENDBRANCH   4   5
ENDBRANCH   3   4
ENDBRANCH   2   3
ENDBRANCH   1   2
BRANCH   1  38
ATOM     38  C   UNL A   1      33.233  27.807  25.312  1.00  0.00     0.188 C 
BRANCH  38  39
ATOM     39  O   UNL A   1      32.763  28.759  26.236  1.00  0.00    -0.376 OA
BRANCH  39  40
ATOM     40  C   UNL A   1      33.658  28.757  27.406  1.00  0.00     0.202 C 
BRANCH  40  41
ATOM     41  C   UNL A   1      35.140  29.594  27.309  1.00  0.00     0.261 C 
BRANCH  41  42
ATOM     42  O   UNL A   1      36.807  29.112  27.646  1.00  0.00    -0.460 OA
BRANCH  42  43
ATOM     43  C   UNL A   1      38.340  29.579  27.947  1.00  0.00     0.338 C 
ATOM     44  O   UNL A   1      39.087  29.228  27.040  1.00  0.00    -0.246 OA
BRANCH  43  45
ATOM     45  C   UNL A   1      38.904  30.489  29.545  1.00  0.00     0.060 A 
ATOM     46  C   UNL A   1      38.390  32.141  30.246  1.00  0.00     0.016 A 
ATOM     47  C   UNL A   1      40.540  29.804  30.523  1.00  0.00     0.016 A 
ATOM     48  C   UNL A   1      39.503  32.848  31.598  1.00  0.00     0.010 A 
ATOM     49  C   UNL A   1      41.328  30.533  31.848  1.00  0.00     0.010 A 
ATOM     50  C   UNL A   1      41.103  32.055  32.132  1.00  0.00    -0.014 A 
BRANCH  50  51
ATOM     51  C   UNL A   1      42.969  32.311  32.134  1.00  0.00     0.031 A 
ATOM     52  C   UNL A   1      43.026  33.566  31.379  1.00  0.00     0.074 A 
ATOM     53  C   UNL A   1      44.356  31.765  32.705  1.00  0.00     0.049 A 
ATOM     54  N   UNL A   1      43.760  33.742  30.329  1.00  0.00    -0.248 NA
ATOM     55  C   UNL A   1      41.937  34.572  31.514  1.00  0.00     0.031 C 
ATOM     56  C   UNL A   1      45.631  32.394  33.211  1.00  0.00     0.029 A 
ATOM     57  N   UNL A   1      44.807  30.505  33.416  1.00  0.00    -0.354 N 
ATOM     58  C   UNL A   1      43.606  35.085  30.150  1.00  0.00     0.074 A 
ATOM     59  C   UNL A   1      42.212  35.297  30.432  1.00  0.00     0.031 C 
ATOM     60  C   UNL A   1      46.583  31.511  33.717  1.00  0.00     0.029 A 
ATOM     61  C   UNL A   1      46.069  30.154  33.782  1.00  0.00     0.049 A 
ATOM     62  H   UNL A   1      44.098  29.859  33.639  1.00  0.00     0.167 HD
ATOM     63  C   UNL A   1      44.627  35.876  30.604  1.00  0.00     0.031 A 
ATOM     64  C   UNL A   1      46.516  28.891  33.429  1.00  0.00     0.031 A 
ATOM     65  C   UNL A   1      45.831  35.098  31.003  1.00  0.00     0.049 A 
ATOM     66  C   UNL A   1      47.075  29.225  32.060  1.00  0.00     0.074 A 
ATOM     67  C   UNL A   1      46.648  35.102  32.119  1.00  0.00     0.029 A 
ATOM     68  N   UNL A   1      46.190  33.930  30.305  1.00  0.00    -0.354 N 
ATOM     69  N   UNL A   1      46.661  30.268  31.375  1.00  0.00    -0.248 NA
ATOM     70  C   UNL A   1      48.316  28.669  31.552  1.00  0.00     0.031 C 
ATOM     71  C   UNL A   1      47.576  34.010  32.002  1.00  0.00     0.029 A 
ATOM     72  C   UNL A   1      47.204  33.215  30.919  1.00  0.00     0.049 A 
ATOM     73  H   UNL A   1      45.763  33.651  29.463  1.00  0.00     0.167 HD
ATOM     74  C   UNL A   1      47.718  30.765  30.689  1.00  0.00     0.074 A 
ATOM     75  C   UNL A   1      48.692  29.668  30.732  1.00  0.00     0.031 C 
ATOM     76  C   UNL A   1      47.822  32.057  30.241  1.00  0.00     0.031 A 
BRANCH  63  77
ATOM     77  C   UNL A   1      44.391  37.337  30.961  1.00  0.00    -0.014 A 
ATOM     78  C   UNL A   1      44.381  38.282  29.928  1.00  0.00     0.010 A 
ATOM     79  C   UNL A   1      44.125  37.846  32.259  1.00  0.00     0.010 A 
ATOM     80  C   UNL A   1      44.045  39.621  30.155  1.00  0.00     0.020 A 
ATOM     81  C   UNL A   1      43.788  39.179  32.506  1.00  0.00     0.020 A 
ATOM     82  C   UNL A   1      43.713  40.051  31.439  1.00  0.00     0.054 A 
BRANCH  82  83
ATOM     83  S   UNL A   1      43.082  41.723  31.674  1.00  0.00     0.124 S 
ATOM     84  O   UNL A   1      43.382  42.347  30.388  1.00  0.00    -0.237 OA
ATOM     85  O   UNL A   1      41.670  41.479  31.950  1.00  0.00    -0.237 OA
ATOM     86  O   UNL A   1      43.857  42.230  32.805  1.00  0.00    -0.744 OA
ENDBRANCH  82  83
ENDBRANCH  63  77
BRANCH  64  87
ATOM     87  C   UNL A   1      45.742  27.561  33.808  1.00  0.00    -0.014 A 
ATOM     88  C   UNL A   1      45.729  27.096  35.145  1.00  0.00     0.010 A 
ATOM     89  C   UNL A   1      44.837  26.864  32.972  1.00  0.00     0.010 A 
ATOM     90  C   UNL A   1      44.707  26.248  35.667  1.00  0.00     0.020 A 
ATOM     91  C   UNL A   1      43.734  26.110  33.502  1.00  0.00     0.020 A 
ATOM     92  C   UNL A   1      43.640  25.864  34.869  1.00  0.00     0.054 A 
BRANCH  92  93
ATOM     93  S   UNL A   1      42.145  25.142  35.663  1.00  0.00     0.124 S 
ATOM     94  O   UNL A   1      42.189  23.743  35.253  1.00  0.00    -0.237 OA
ATOM     95  O   UNL A   1      42.354  25.387  37.089  1.00  0.00    -0.237 OA
ATOM     96  O   UNL A   1      41.085  25.972  35.124  1.00  0.00    -0.744 OA
ENDBRANCH  92  93
ENDBRANCH  64  87
BRANCH  76  97
ATOM     97  C   UNL A   1      48.629  32.371  29.031  1.00  0.00    -0.014 A 
ATOM     98  C   UNL A   1      48.072  32.513  27.759  1.00  0.00     0.010 A 
ATOM     99  C   UNL A   1      49.994  32.697  29.194  1.00  0.00     0.010 A 
ATOM    100  C   UNL A   1      48.870  32.810  26.671  1.00  0.00     0.020 A 
ATOM    101  C   UNL A   1      50.777  33.108  28.134  1.00  0.00     0.020 A 
ATOM    102  C   UNL A   1      50.215  33.107  26.869  1.00  0.00     0.054 A 
BRANCH 102 103
ATOM    103  S   UNL A   1      51.203  33.513  25.435  1.00  0.00     0.124 S 
ATOM    104  O   UNL A   1      50.323  34.443  24.732  1.00  0.00    -0.237 OA
ATOM    105  O   UNL A   1      52.395  34.104  26.040  1.00  0.00    -0.237 OA
ATOM    106  O   UNL A   1      51.410  32.225  24.781  1.00  0.00    -0.744 OA
ENDBRANCH 102 103
ENDBRANCH  76  97
ENDBRANCH  50  51
ENDBRANCH  43  45
ENDBRANCH  42  43
ENDBRANCH  41  42
ENDBRANCH  40  41
ENDBRANCH  39  40
ENDBRANCH  38  39
ENDBRANCH   1  38
TORSDOF 25
ENDMDL
MODEL 2
REMARK VINA RESULT:      -9.5      4.941     13.060
REMARK SMILES Cc1c(C(=O)Nc2ccc(C(=O)Nc3ccccc3C(=O)OCCOCCOCCOC(=O)c3ccc(-c4c5nc(c(-c6ccc(S(=O)(=O)[O-])cc6)c6ccc([nH]6)c(-c6ccc(S(=O)(=O)[O-])cc6)c6nc(c(-c7ccc(S(=O)(=O)[O-])cc7)c7ccc4[nH]7)C=C6)C=C5)cc3)cc2)cccc1[N+](=O)[O-]
REMARK SMILES IDX 26 1 25 2 24 3 23 4 22 5 20 6 21 7 19 8 14 9 15 10 16 11
REMARK SMILES IDX 18 12 17 13 13 14 11 15 12 16 10 18 7 19 8 20 95 21 9 22
REMARK SMILES IDX 94 23 6 24 4 25 5 26 3 28 1 29 2 30 99 31 96 32 98 33 97 34
REMARK SMILES IDX 100 35 101 36 102 37 27 38 28 39 29 40 30 41 31 42 32 43
REMARK SMILES IDX 33 44 34 45 35 46 93 47 36 48 92 49 37 50 38 51 39 52 86 53
REMARK SMILES IDX 40 54 91 55 85 56 87 57 41 58 90 59 84 60 83 61 42 63 72 64
REMARK SMILES IDX 53 65 71 66 54 67 57 68 70 69 88 70 55 71 56 72 69 74 89 75
REMARK SMILES IDX 58 76 43 77 44 78 52 79 45 80 51 81 46 82 47 83 48 84 49 85
REMARK SMILES IDX 50 86 73 87 74 88 82 89 75 90 81 91 76 92 77 93 78 94 79 95
REMARK SMILES IDX 80 96 59 97 60 98 68 99 61 100 67 101 62 102 63 103 64 104
REMARK SMILES IDX 65 105 66 106
REMARK H PARENT 13 17 6 27 87 62 57 73
REMARK Flexibility Score: inf
ROOT
ATOM      1  C   UNL A   1      42.424  43.551  32.048  1.00  0.00     0.188 C 
ENDROOT
BRANCH   1   2
ATOM      2  O   UNL A   1      43.498  42.998  31.338  1.00  0.00    -0.376 OA
BRANCH   2   3
ATOM      3  C   UNL A   1      44.460  43.903  30.878  1.00  0.00     0.202 C 
BRANCH   3   4
ATOM      4  C   UNL A   1      45.638  43.524  29.924  1.00  0.00     0.261 C 
BRANCH   4   5
ATOM      5  O   UNL A   1      45.827  43.457  28.149  1.00  0.00    -0.460 OA
BRANCH   5   6
ATOM      6  C   UNL A   1      45.379  44.163  26.729  1.00  0.00     0.340 C 
ATOM      7  O   UNL A   1      45.901  45.260  26.539  1.00  0.00    -0.246 OA
BRANCH   6   8
ATOM      8  C   UNL A   1      44.792  43.755  25.366  1.00  0.00     0.083 A 
ATOM      9  C   UNL A   1      43.937  42.659  25.499  1.00  0.00     0.056 A 
ATOM     10  C   UNL A   1      43.328  42.087  24.347  1.00  0.00     0.027 A 
ATOM     11  C   UNL A   1      43.396  42.707  23.091  1.00  0.00     0.002 A 
ATOM     12  C   UNL A   1      44.994  44.236  24.037  1.00  0.00     0.018 A 
ATOM     13  C   UNL A   1      44.223  43.802  22.935  1.00  0.00     0.001 A 
BRANCH   9  14
ATOM     14  N   UNL A   1      43.499  42.192  26.776  1.00  0.00    -0.321 N 
ATOM     15  C   UNL A   1      43.354  40.867  27.358  1.00  0.00     0.255 C 
ATOM     16  O   UNL A   1      43.887  40.899  28.473  1.00  0.00    -0.269 OA
ATOM     17  H   UNL A   1      43.245  42.918  27.391  1.00  0.00     0.170 HD
BRANCH  15  18
ATOM     18  C   UNL A   1      43.079  39.393  26.590  1.00  0.00     0.040 A 
ATOM     19  C   UNL A   1      44.148  35.797  27.544  1.00  0.00     0.041 A 
ATOM     20  C   UNL A   1      45.297  36.999  27.066  1.00  0.00     0.027 A 
ATOM     21  C   UNL A   1      42.487  36.305  27.345  1.00  0.00     0.027 A 
ATOM     22  C   UNL A   1      44.591  38.801  26.510  1.00  0.00     0.016 A 
ATOM     23  C   UNL A   1      41.983  38.068  26.826  1.00  0.00     0.016 A 
BRANCH  19  24
ATOM     24  N   UNL A   1      44.313  34.704  28.375  1.00  0.00    -0.322 N 
ATOM     25  C   UNL A   1      44.405  34.623  29.752  1.00  0.00     0.256 C 
ATOM     26  O   UNL A   1      44.176  33.519  30.254  1.00  0.00    -0.269 OA
ATOM     27  H   UNL A   1      44.374  33.838  27.909  1.00  0.00     0.170 HD
BRANCH  25  28
ATOM     28  C   UNL A   1      44.817  35.724  30.677  1.00  0.00     0.049 A 
ATOM     29  C   UNL A   1      47.284  35.501  30.406  1.00  0.00     0.053 C 
ATOM     30  C   UNL A   1      46.110  36.017  31.151  1.00  0.00     0.039 A 
ATOM     31  C   UNL A   1      46.287  37.019  32.136  1.00  0.00     0.273 A 
ATOM     32  C   UNL A   1      43.849  36.711  30.854  1.00  0.00     0.014 A 
ATOM     33  C   UNL A   1      45.265  37.926  32.384  1.00  0.00     0.086 A 
ATOM     34  C   UNL A   1      44.087  37.826  31.659  1.00  0.00     0.008 A 
BRANCH  31  35
ATOM     35  N   UNL A   1      47.481  37.145  33.000  1.00  0.00     0.063 N 
ATOM     36  O   UNL A   1      48.123  38.205  32.896  1.00  0.00    -0.258 OA
ATOM     37  O   UNL A   1      47.787  36.219  33.754  1.00  0.00    -0.258 OA
ENDBRANCH  31  35
ENDBRANCH  25  28
ENDBRANCH  19  24
ENDBRANCH  15  18
ENDBRANCH   9  14
ENDBRANCH   6   8
ENDBRANCH   5   6
ENDBRANCH   4   5
ENDBRANCH   3   4
ENDBRANCH   2   3
ENDBRANCH   1   2
BRANCH   1  38
ATOM     38  C   UNL A   1      42.335  43.396  33.550  1.00  0.00     0.188 C 
BRANCH  38  39
ATOM     39  O   UNL A   1      42.430  42.233  34.336  1.00  0.00    -0.376 OA
BRANCH  39  40
ATOM     40  C   UNL A   1      43.375  42.487  35.436  1.00  0.00     0.202 C 
BRANCH  40  41
ATOM     41  C   UNL A   1      44.048  41.157  36.265  1.00  0.00     0.261 C 
BRANCH  41  42
ATOM     42  O   UNL A   1      44.592  39.565  35.724  1.00  0.00    -0.460 OA
BRANCH  42  43
ATOM     43  C   UNL A   1      44.555  37.950  35.944  1.00  0.00     0.338 C 
ATOM     44  O   UNL A   1      45.691  37.496  36.029  1.00  0.00    -0.246 OA
BRANCH  43  45
ATOM     45  C   UNL A   1      42.946  36.897  35.987  1.00  0.00     0.060 A 
ATOM     46  C   UNL A   1      42.007  36.175  37.430  1.00  0.00     0.016 A 
ATOM     47  C   UNL A   1      42.258  36.109  34.253  1.00  0.00     0.016 A 
ATOM     48  C   UNL A   1      40.731  34.849  37.006  1.00  0.00     0.010 A 
ATOM     49  C   UNL A   1      40.965  35.013  34.063  1.00  0.00     0.010 A 
ATOM     50  C   UNL A   1      40.488  34.168  35.289  1.00  0.00    -0.014 A 
BRANCH  50  51
ATOM     51  C   UNL A   1      40.684  32.601  34.263  1.00  0.00     0.031 A 
ATOM     52  C   UNL A   1      42.121  32.385  34.452  1.00  0.00     0.074 A 
ATOM     53  C   UNL A   1      39.902  31.478  33.440  1.00  0.00     0.049 A 
ATOM     54  N   UNL A   1      42.960  32.225  33.481  1.00  0.00    -0.248 NA
ATOM     55  C   UNL A   1      42.771  32.756  35.739  1.00  0.00     0.031 C 
ATOM     56  C   UNL A   1      40.034  29.984  33.270  1.00  0.00     0.029 A 
ATOM     57  N   UNL A   1      38.493  31.320  32.906  1.00  0.00    -0.354 N 
ATOM     58  C   UNL A   1      44.075  31.870  34.182  1.00  0.00     0.074 A 
ATOM     59  C   UNL A   1      44.036  32.740  35.325  1.00  0.00     0.031 C 
ATOM     60  C   UNL A   1      39.044  29.373  32.503  1.00  0.00     0.029 A 
ATOM     61  C   UNL A   1      37.992  30.308  32.146  1.00  0.00     0.049 A 
ATOM     62  H   UNL A   1      37.861  32.039  33.136  1.00  0.00     0.167 HD
ATOM     63  C   UNL A   1      44.361  30.531  34.224  1.00  0.00     0.031 A 
ATOM     64  C   UNL A   1      37.295  30.648  30.997  1.00  0.00     0.031 A 
ATOM     65  C   UNL A   1      43.521  29.728  33.294  1.00  0.00     0.049 A 
ATOM     66  C   UNL A   1      38.464  30.708  30.035  1.00  0.00     0.074 A 
ATOM     67  C   UNL A   1      42.778  28.569  33.432  1.00  0.00     0.029 A 
ATOM     68  N   UNL A   1      43.126  30.258  32.052  1.00  0.00    -0.354 N 
ATOM     69  N   UNL A   1      39.695  30.915  30.446  1.00  0.00    -0.248 NA
ATOM     70  C   UNL A   1      38.399  30.204  28.674  1.00  0.00     0.031 C 
ATOM     71  C   UNL A   1      42.051  28.352  32.211  1.00  0.00     0.029 A 
ATOM     72  C   UNL A   1      42.187  29.477  31.398  1.00  0.00     0.049 A 
ATOM     73  H   UNL A   1      43.482  31.098  31.684  1.00  0.00     0.167 HD
ATOM     74  C   UNL A   1      40.529  30.201  29.653  1.00  0.00     0.074 A 
ATOM     75  C   UNL A   1      39.691  29.875  28.493  1.00  0.00     0.031 C 
ATOM     76  C   UNL A   1      41.787  29.790  30.011  1.00  0.00     0.031 A 
BRANCH  63  77
ATOM     77  C   UNL A   1      45.202  29.942  35.348  1.00  0.00    -0.014 A 
ATOM     78  C   UNL A   1      44.549  29.497  36.504  1.00  0.00     0.010 A 
ATOM     79  C   UNL A   1      46.607  29.749  35.326  1.00  0.00     0.010 A 
ATOM     80  C   UNL A   1      45.232  28.828  37.527  1.00  0.00     0.020 A 
ATOM     81  C   UNL A   1      47.306  29.084  36.335  1.00  0.00     0.020 A 
ATOM     82  C   UNL A   1      46.601  28.593  37.415  1.00  0.00     0.054 A 
BRANCH  82  83
ATOM     83  S   UNL A   1      47.420  27.551  38.637  1.00  0.00     0.124 S 
ATOM     84  O   UNL A   1      46.292  26.861  39.257  1.00  0.00    -0.237 OA
ATOM     85  O   UNL A   1      48.289  26.728  37.802  1.00  0.00    -0.237 OA
ATOM     86  O   UNL A   1      48.112  28.507  39.500  1.00  0.00    -0.744 OA
ENDBRANCH  82  83
ENDBRANCH  63  77
BRANCH  64  87
ATOM     87  C   UNL A   1      36.052  31.631  30.998  1.00  0.00    -0.014 A 
ATOM     88  C   UNL A   1      35.283  31.812  32.173  1.00  0.00     0.010 A 
ATOM     89  C   UNL A   1      35.731  32.560  29.979  1.00  0.00     0.010 A 
ATOM     90  C   UNL A   1      34.504  32.981  32.424  1.00  0.00     0.020 A 
ATOM     91  C   UNL A   1      35.053  33.796  30.258  1.00  0.00     0.020 A 
ATOM     92  C   UNL A   1      34.499  34.028  31.514  1.00  0.00     0.054 A 
BRANCH  92  93
ATOM     93  S   UNL A   1      33.849  35.667  32.042  1.00  0.00     0.124 S 
ATOM     94  O   UNL A   1      34.905  36.185  32.904  1.00  0.00    -0.237 OA
ATOM     95  O   UNL A   1      33.652  36.386  30.785  1.00  0.00    -0.237 OA
ATOM     96  O   UNL A   1      32.587  35.307  32.659  1.00  0.00    -0.744 OA
ENDBRANCH  92  93
ENDBRANCH  64  87
BRANCH  76  97
ATOM     97  C   UNL A   1      42.836  29.590  28.974  1.00  0.00    -0.014 A 
ATOM     98  C   UNL A   1      44.059  30.262  28.987  1.00  0.00     0.010 A 
ATOM     99  C   UNL A   1      42.659  28.561  28.021  1.00  0.00     0.010 A 
ATOM    100  C   UNL A   1      44.998  30.032  28.000  1.00  0.00     0.020 A 
ATOM    101  C   UNL A   1      43.637  28.243  27.101  1.00  0.00     0.020 A 
ATOM    102  C   UNL A   1      44.779  29.023  27.067  1.00  0.00     0.054 A 
BRANCH 102 103
ATOM    103  S   UNL A   1      46.035  28.744  25.826  1.00  0.00     0.124 S 
ATOM    104  O   UNL A   1      45.323  27.889  24.881  1.00  0.00    -0.237 OA
ATOM    105  O   UNL A   1      46.317  30.101  25.363  1.00  0.00    -0.237 OA
ATOM    106  O   UNL A   1      47.117  28.102  26.566  1.00  0.00    -0.744 OA
ENDBRANCH 102 103
ENDBRANCH  76  97
ENDBRANCH  50  51
ENDBRANCH  43  45
ENDBRANCH  42  43
ENDBRANCH  41  42
ENDBRANCH  40  41
ENDBRANCH  39  40
ENDBRANCH  38  39
ENDBRANCH   1  38
TORSDOF 25
ENDMDL
MODEL 3
REMARK VINA RESULT:      -9.4      9.512     15.641
REMARK SMILES Cc1c(C(=O)Nc2ccc(C(=O)Nc3ccccc3C(=O)OCCOCCOCCOC(=O)c3ccc(-c4c5nc(c(-c6ccc(S(=O)(=O)[O-])cc6)c6ccc([nH]6)c(-c6ccc(S(=O)(=O)[O-])cc6)c6nc(c(-c7ccc(S(=O)(=O)[O-])cc7)c7ccc4[nH]7)C=C6)C=C5)cc3)cc2)cccc1[N+](=O)[O-]
REMARK SMILES IDX 26 1 25 2 24 3 23 4 22 5 20 6 21 7 19 8 14 9 15 10 16 11
REMARK SMILES IDX 18 12 17 13 13 14 11 15 12 16 10 18 7 19 8 20 95 21 9 22
REMARK SMILES IDX 94 23 6 24 4 25 5 26 3 28 1 29 2 30 99 31 96 32 98 33 97 34
REMARK SMILES IDX 100 35 101 36 102 37 27 38 28 39 29 40 30 41 31 42 32 43
REMARK SMILES IDX 33 44 34 45 35 46 93 47 36 48 92 49 37 50 38 51 39 52 86 53
REMARK SMILES IDX 40 54 91 55 85 56 87 57 41 58 90 59 84 60 83 61 42 63 72 64
REMARK SMILES IDX 53 65 71 66 54 67 57 68 70 69 88 70 55 71 56 72 69 74 89 75
REMARK SMILES IDX 58 76 43 77 44 78 52 79 45 80 51 81 46 82 47 83 48 84 49 85
REMARK SMILES IDX 50 86 73 87 74 88 82 89 75 90 81 91 76 92 77 93 78 94 79 95
REMARK SMILES IDX 80 96 59 97 60 98 68 99 61 100 67 101 62 102 63 103 64 104
REMARK SMILES IDX 65 105 66 106
REMARK H PARENT 13 17 6 27 87 62 57 73
REMARK Flexibility Score: inf
ROOT
ATOM      1  C   UNL A   1      52.915  19.410  35.044  1.00  0.00     0.188 C 
ENDROOT
BRANCH   1   2
ATOM      2  O   UNL A   1      51.621  19.068  35.461  1.00  0.00    -0.376 OA
BRANCH   2   3
ATOM      3  C   UNL A   1      51.474  18.769  36.819  1.00  0.00     0.202 C 
BRANCH   3   4
ATOM      4  C   UNL A   1      50.439  19.459  37.763  1.00  0.00     0.261 C 
BRANCH   4   5
ATOM      5  O   UNL A   1      50.494  20.045  39.451  1.00  0.00    -0.460 OA
BRANCH   5   6
ATOM      6  C   UNL A   1      50.890  19.636  40.996  1.00  0.00     0.340 C 
ATOM      7  O   UNL A   1      50.936  18.422  41.187  1.00  0.00    -0.246 OA
BRANCH   6   8
ATOM      8  C   UNL A   1      51.581  20.262  42.222  1.00  0.00     0.083 A 
ATOM      9  C   UNL A   1      50.700  20.343  43.302  1.00  0.00     0.056 A 
ATOM     10  C   UNL A   1      51.123  20.941  44.521  1.00  0.00     0.027 A 
ATOM     11  C   UNL A   1      52.464  21.281  44.751  1.00  0.00     0.002 A 
ATOM     12  C   UNL A   1      52.885  20.803  42.432  1.00  0.00     0.018 A 
ATOM     13  C   UNL A   1      53.360  21.196  43.703  1.00  0.00     0.001 A 
BRANCH   9  14
ATOM     14  N   UNL A   1      49.434  19.681  43.297  1.00  0.00    -0.321 N 
ATOM     15  C   UNL A   1      48.602  19.111  44.345  1.00  0.00     0.255 C 
ATOM     16  O   UNL A   1      47.453  19.533  44.168  1.00  0.00    -0.269 OA
ATOM     17  H   UNL A   1      49.041  19.595  42.398  1.00  0.00     0.170 HD
BRANCH  15  18
ATOM     18  C   UNL A   1      49.057  18.490  45.843  1.00  0.00     0.040 A 
ATOM     19  C   UNL A   1      52.553  18.030  47.441  1.00  0.00     0.041 A 
ATOM     20  C   UNL A   1      52.045  17.111  46.066  1.00  0.00     0.027 A 
ATOM     21  C   UNL A   1      51.277  19.000  48.139  1.00  0.00     0.027 A 
ATOM     22  C   UNL A   1      50.167  17.390  45.395  1.00  0.00     0.016 A 
ATOM     23  C   UNL A   1      49.546  19.174  47.362  1.00  0.00     0.016 A 
BRANCH  19  24
ATOM     24  N   UNL A   1      53.828  18.403  47.827  1.00  0.00    -0.322 N 
ATOM     25  C   UNL A   1      55.016  18.418  47.122  1.00  0.00     0.256 C 
ATOM     26  O   UNL A   1      55.915  19.134  47.573  1.00  0.00    -0.269 OA
ATOM     27  H   UNL A   1      53.902  18.711  48.760  1.00  0.00     0.170 HD
BRANCH  25  28
ATOM     28  C   UNL A   1      55.335  17.602  45.909  1.00  0.00     0.049 A 
ATOM     29  C   UNL A   1      55.301  15.354  46.982  1.00  0.00     0.053 C 
ATOM     30  C   UNL A   1      55.670  16.236  45.848  1.00  0.00     0.039 A 
ATOM     31  C   UNL A   1      56.078  15.666  44.618  1.00  0.00     0.273 A 
ATOM     32  C   UNL A   1      54.990  18.214  44.705  1.00  0.00     0.014 A 
ATOM     33  C   UNL A   1      55.830  16.344  43.432  1.00  0.00     0.086 A 
ATOM     34  C   UNL A   1      55.188  17.572  43.481  1.00  0.00     0.008 A 
BRANCH  31  35
ATOM     35  N   UNL A   1      56.830  14.399  44.488  1.00  0.00     0.063 N 
ATOM     36  O   UNL A   1      57.962  14.379  45.001  1.00  0.00    -0.258 OA
ATOM     37  O   UNL A   1      56.324  13.450  43.884  1.00  0.00    -0.258 OA
ENDBRANCH  31  35
ENDBRANCH  25  28
ENDBRANCH  19  24
ENDBRANCH  15  18
ENDBRANCH   9  14
ENDBRANCH   6   8
ENDBRANCH   5   6
ENDBRANCH   4   5
ENDBRANCH   3   4
ENDBRANCH   2   3
ENDBRANCH   1   2
BRANCH   1  38
ATOM     38  C   UNL A   1      53.205  19.678  33.584  1.00  0.00     0.188 C 
BRANCH  38  39
ATOM     39  O   UNL A   1      53.114  20.881  32.860  1.00  0.00    -0.376 OA
BRANCH  39  40
ATOM     40  C   UNL A   1      52.638  21.938  33.768  1.00  0.00     0.202 C 
BRANCH  40  41
ATOM     41  C   UNL A   1      51.048  22.527  33.582  1.00  0.00     0.261 C 
BRANCH  41  42
ATOM     42  O   UNL A   1      50.404  24.137  33.238  1.00  0.00    -0.460 OA
BRANCH  42  43
ATOM     43  C   UNL A   1      50.716  25.685  32.831  1.00  0.00     0.338 C 
ATOM     44  O   UNL A   1      51.071  26.329  33.813  1.00  0.00    -0.246 OA
BRANCH  43  45
ATOM     45  C   UNL A   1      50.482  26.411  31.066  1.00  0.00     0.060 A 
ATOM     46  C   UNL A   1      51.180  27.958  30.288  1.00  0.00     0.016 A 
ATOM     47  C   UNL A   1      49.017  25.649  29.892  1.00  0.00     0.016 A 
ATOM     48  C   UNL A   1      50.354  28.523  28.687  1.00  0.00     0.010 A 
ATOM     49  C   UNL A   1      48.508  26.234  28.373  1.00  0.00     0.010 A 
ATOM     50  C   UNL A   1      48.843  27.707  27.965  1.00  0.00    -0.014 A 
BRANCH  50  51
ATOM     51  C   UNL A   1      47.019  28.000  27.597  1.00  0.00     0.031 A 
ATOM     52  C   UNL A   1      46.841  29.259  28.324  1.00  0.00     0.074 A 
ATOM     53  C   UNL A   1      45.760  27.477  26.767  1.00  0.00     0.049 A 
ATOM     54  N   UNL A   1      45.920  29.456  29.210  1.00  0.00    -0.248 NA
ATOM     55  C   UNL A   1      47.956  30.243  28.403  1.00  0.00     0.031 C 
ATOM     56  C   UNL A   1      44.621  28.129  26.019  1.00  0.00     0.029 A 
ATOM     57  N   UNL A   1      45.431  26.222  25.984  1.00  0.00    -0.354 N 
ATOM     58  C   UNL A   1      46.063  30.797  29.413  1.00  0.00     0.074 A 
ATOM     59  C   UNL A   1      47.489  30.980  29.409  1.00  0.00     0.031 C 
ATOM     60  C   UNL A   1      43.769  27.261  25.339  1.00  0.00     0.029 A 
ATOM     61  C   UNL A   1      44.258  25.895  25.377  1.00  0.00     0.049 A 
ATOM     62  H   UNL A   1      46.156  25.561  25.904  1.00  0.00     0.167 HD
ATOM     63  C   UNL A   1      45.167  31.605  28.767  1.00  0.00     0.031 A 
ATOM     64  C   UNL A   1      43.725  24.642  25.639  1.00  0.00     0.031 A 
ATOM     65  C   UNL A   1      44.049  30.848  28.141  1.00  0.00     0.049 A 
ATOM     66  C   UNL A   1      42.916  24.995  26.870  1.00  0.00     0.074 A 
ATOM     67  C   UNL A   1      43.466  30.862  26.886  1.00  0.00     0.029 A 
ATOM     68  N   UNL A   1      43.536  29.692  28.757  1.00  0.00    -0.354 N 
ATOM     69  N   UNL A   1      43.209  26.033  27.622  1.00  0.00    -0.248 NA
ATOM     70  C   UNL A   1      41.588  24.467  27.127  1.00  0.00     0.031 C 
ATOM     71  C   UNL A   1      42.511  29.789  26.821  1.00  0.00     0.029 A 
ATOM     72  C   UNL A   1      42.648  28.993  27.957  1.00  0.00     0.049 A 
ATOM     73  H   UNL A   1      43.784  29.409  29.666  1.00  0.00     0.167 HD
ATOM     74  C   UNL A   1      42.049  26.556  28.087  1.00  0.00     0.074 A 
ATOM     75  C   UNL A   1      41.080  25.478  27.856  1.00  0.00     0.031 C 
ATOM     76  C   UNL A   1      41.885  27.852  28.503  1.00  0.00     0.031 A 
BRANCH  63  77
ATOM     77  C   UNL A   1      45.498  33.059  28.460  1.00  0.00    -0.014 A 
ATOM     78  C   UNL A   1      45.233  34.023  29.440  1.00  0.00     0.010 A 
ATOM     79  C   UNL A   1      46.107  33.544  27.274  1.00  0.00     0.010 A 
ATOM     80  C   UNL A   1      45.624  35.358  29.287  1.00  0.00     0.020 A 
ATOM     81  C   UNL A   1      46.505  34.871  27.102  1.00  0.00     0.020 A 
ATOM     82  C   UNL A   1      46.293  35.763  28.134  1.00  0.00     0.054 A 
BRANCH  82  83
ATOM     83  S   UNL A   1      46.972  37.431  28.048  1.00  0.00     0.124 S 
ATOM     84  O   UNL A   1      46.575  37.991  29.336  1.00  0.00    -0.237 OA
ATOM     85  O   UNL A   1      48.398  37.170  27.879  1.00  0.00    -0.237 OA
ATOM     86  O   UNL A   1      46.307  38.017  26.885  1.00  0.00    -0.744 OA
ENDBRANCH  82  83
ENDBRANCH  63  77
BRANCH  64  87
ATOM     87  C   UNL A   1      44.531  23.296  25.421  1.00  0.00    -0.014 A 
ATOM     88  C   UNL A   1      44.398  22.224  26.336  1.00  0.00     0.010 A 
ATOM     89  C   UNL A   1      45.237  22.935  24.248  1.00  0.00     0.010 A 
ATOM     90  C   UNL A   1      44.659  20.864  25.992  1.00  0.00     0.020 A 
ATOM     91  C   UNL A   1      45.391  21.565  23.840  1.00  0.00     0.020 A 
ATOM     92  C   UNL A   1      45.032  20.529  24.699  1.00  0.00     0.054 A 
BRANCH  92  93
ATOM     93  S   UNL A   1      44.948  18.767  24.173  1.00  0.00     0.124 S 
ATOM     94  O   UNL A   1      46.085  18.159  24.854  1.00  0.00    -0.237 OA
ATOM     95  O   UNL A   1      43.631  18.329  24.631  1.00  0.00    -0.237 OA
ATOM     96  O   UNL A   1      45.005  18.880  22.728  1.00  0.00    -0.744 OA
ENDBRANCH  92  93
ENDBRANCH  64  87
BRANCH  76  97
ATOM     97  C   UNL A   1      40.864  28.188  29.531  1.00  0.00    -0.014 A 
ATOM     98  C   UNL A   1      41.153  28.274  30.894  1.00  0.00     0.010 A 
ATOM     99  C   UNL A   1      39.580  28.595  29.102  1.00  0.00     0.010 A 
ATOM    100  C   UNL A   1      40.164  28.596  31.804  1.00  0.00     0.020 A 
ATOM    101  C   UNL A   1      38.618  29.029  29.991  1.00  0.00     0.020 A 
ATOM    102  C   UNL A   1      38.906  28.973  31.344  1.00  0.00     0.054 A 
BRANCH 102 103
ATOM    103  S   UNL A   1      37.667  29.408  32.557  1.00  0.00     0.124 S 
ATOM    104  O   UNL A   1      38.375  30.409  33.349  1.00  0.00    -0.237 OA
ATOM    105  O   UNL A   1      36.582  29.915  31.719  1.00  0.00    -0.237 OA
ATOM    106  O   UNL A   1      37.390  28.146  33.237  1.00  0.00    -0.744 OA
ENDBRANCH 102 103
ENDBRANCH  76  97
ENDBRANCH  50  51
ENDBRANCH  43  45
ENDBRANCH  42  43
ENDBRANCH  41  42
ENDBRANCH  40  41
ENDBRANCH  39  40
ENDBRANCH  38  39
ENDBRANCH   1  38
TORSDOF 25
ENDMDL
