MODEL 1
REMARK VINA RESULT:     -10.0      0.000      0.000
REMARK SMILES C[C@@H]1CCC[C@H]1NC(=O)c1csc(/C=C/C(=O)OCCOCCOCCOC(=O)c2ccc(-c3c4nc(c(-c5ccc(S(=O)(=O)[O-])cc5)c5ccc([nH]5)c(-c5ccc(S(=O)(=O)[O-])cc5)c5nc(c(-c6ccc(S(=O)(=O)[O-])cc6)c6ccc3[nH]6)C=C5)C=C4)cc2)c1
REMARK SMILES IDX 22 1 21 2 20 3 19 4 18 5 16 6 17 7 15 8 14 9 13 10 10 11
REMARK SMILES IDX 11 12 90 13 12 14 8 15 7 16 9 18 6 19 1 20 2 21 3 22 4 23
REMARK SMILES IDX 5 24 23 25 24 26 25 27 26 28 27 29 28 30 29 31 30 32 31 33
REMARK SMILES IDX 89 34 32 35 88 36 33 37 34 38 35 39 82 40 36 41 87 42 81 43
REMARK SMILES IDX 83 44 37 45 86 46 80 47 79 48 38 50 68 51 49 52 67 53 50 54
REMARK SMILES IDX 53 55 66 56 84 57 51 58 52 59 65 61 85 62 54 63 39 64 40 65
REMARK SMILES IDX 48 66 41 67 47 68 42 69 43 70 44 71 45 72 46 73 69 74 70 75
REMARK SMILES IDX 78 76 71 77 77 78 72 79 73 80 74 81 75 82 76 83 55 84 56 85
REMARK SMILES IDX 64 86 57 87 63 88 58 89 59 90 60 91 61 92 62 93
REMARK H PARENT 7 17 83 49 53 60
REMARK Flexibility Score: inf
ROOT
ATOM      1  C   UNL A   1      32.946  30.726  27.194  1.00  0.00     0.188 C 
ENDROOT
BRANCH   1   2
ATOM      2  O   UNL A   1      33.003  29.974  26.002  1.00  0.00    -0.376 OA
BRANCH   2   3
ATOM      3  C   UNL A   1      32.162  28.852  25.807  1.00  0.00     0.202 C 
BRANCH   3   4
ATOM      4  C   UNL A   1      32.100  28.013  24.518  1.00  0.00     0.261 C 
BRANCH   4   5
ATOM      5  O   UNL A   1      33.010  28.360  23.470  1.00  0.00    -0.460 OA
BRANCH   5   6
ATOM      6  C   UNL A   1      33.465  27.313  22.739  1.00  0.00     0.330 C 
ATOM      7  O   UNL A   1      33.997  27.375  21.642  1.00  0.00    -0.247 OA
BRANCH   6   8
ATOM      8  C   UNL A   1      33.368  26.033  23.467  1.00  0.00     0.095 C 
ATOM      9  C   UNL A   1      34.001  24.901  23.127  1.00  0.00     0.026 C 
BRANCH   9  10
ATOM     10  C   UNL A   1      33.908  23.705  23.907  1.00  0.00     0.028 A 
ATOM     11  C   UNL A   1      34.450  21.583  24.835  1.00  0.00     0.051 A 
ATOM     12  C   UNL A   1      33.373  21.974  25.604  1.00  0.00     0.079 A 
ATOM     13  C   UNL A   1      34.740  22.599  23.854  1.00  0.00     0.033 A 
ATOM     14  S   UNL A   1      32.674  23.439  25.080  1.00  0.00    -0.144 S 
BRANCH  11  15
ATOM     15  C   UNL A   1      35.280  20.400  25.041  1.00  0.00     0.252 C 
ATOM     16  N   UNL A   1      34.747  19.137  25.022  1.00  0.00    -0.349 N 
ATOM     17  H   UNL A   1      35.352  18.437  25.358  1.00  0.00     0.164 HD
ATOM     18  O   UNL A   1      36.491  20.502  25.230  1.00  0.00    -0.269 OA
BRANCH  16  19
ATOM     19  C   UNL A   1      33.440  18.645  24.591  1.00  0.00     0.085 C 
ATOM     20  C   UNL A   1      32.146  18.094  22.482  1.00  0.00     0.010 C 
ATOM     21  C   UNL A   1      33.514  18.082  23.163  1.00  0.00     0.008 C 
ATOM     22  C   UNL A   1      34.031  16.659  23.372  1.00  0.00     0.005 C 
ATOM     23  C   UNL A   1      33.407  16.192  24.683  1.00  0.00     0.002 C 
ATOM     24  C   UNL A   1      33.014  17.454  25.454  1.00  0.00     0.025 C 
ENDBRANCH  16  19
ENDBRANCH  11  15
ENDBRANCH   9  10
ENDBRANCH   6   8
ENDBRANCH   5   6
ENDBRANCH   4   5
ENDBRANCH   3   4
ENDBRANCH   2   3
ENDBRANCH   1   2
BRANCH   1  25
ATOM     25  C   UNL A   1      34.219  31.427  27.703  1.00  0.00     0.188 C 
BRANCH  25  26
ATOM     26  O   UNL A   1      34.097  32.455  28.659  1.00  0.00    -0.376 OA
BRANCH  26  27
ATOM     27  C   UNL A   1      35.124  32.681  29.609  1.00  0.00     0.202 C 
BRANCH  27  28
ATOM     28  C   UNL A   1      35.572  31.710  30.721  1.00  0.00     0.261 C 
BRANCH  28  29
ATOM     29  O   UNL A   1      36.164  30.469  30.340  1.00  0.00    -0.460 OA
BRANCH  29  30
ATOM     30  C   UNL A   1      37.001  29.918  31.256  1.00  0.00     0.338 C 
ATOM     31  O   UNL A   1      36.705  29.427  32.327  1.00  0.00    -0.246 OA
BRANCH  30  32
ATOM     32  C   UNL A   1      38.352  29.855  30.669  1.00  0.00     0.060 A 
ATOM     33  C   UNL A   1      38.496  29.973  29.280  1.00  0.00     0.016 A 
ATOM     34  C   UNL A   1      39.464  29.656  31.486  1.00  0.00     0.016 A 
ATOM     35  C   UNL A   1      39.762  29.891  28.702  1.00  0.00     0.010 A 
ATOM     36  C   UNL A   1      40.728  29.549  30.902  1.00  0.00     0.010 A 
ATOM     37  C   UNL A   1      40.882  29.649  29.507  1.00  0.00    -0.014 A 
BRANCH  37  38
ATOM     38  C   UNL A   1      42.197  29.352  28.894  1.00  0.00     0.031 A 
ATOM     39  C   UNL A   1      42.472  27.950  28.423  1.00  0.00     0.074 A 
ATOM     40  C   UNL A   1      43.137  30.306  28.769  1.00  0.00     0.049 A 
ATOM     41  N   UNL A   1      43.581  27.434  27.962  1.00  0.00    -0.248 NA
ATOM     42  C   UNL A   1      41.343  27.006  28.483  1.00  0.00     0.031 C 
ATOM     43  C   UNL A   1      42.971  31.714  29.130  1.00  0.00     0.029 A 
ATOM     44  N   UNL A   1      44.430  30.227  28.312  1.00  0.00    -0.354 N 
ATOM     45  C   UNL A   1      43.289  26.104  27.684  1.00  0.00     0.074 A 
ATOM     46  C   UNL A   1      41.907  25.886  28.054  1.00  0.00     0.031 C 
ATOM     47  C   UNL A   1      44.125  32.363  28.893  1.00  0.00     0.029 A 
ATOM     48  C   UNL A   1      45.123  31.411  28.410  1.00  0.00     0.049 A 
ATOM     49  H   UNL A   1      44.824  29.400  27.950  1.00  0.00     0.167 HD
ATOM     50  C   UNL A   1      44.096  25.151  27.162  1.00  0.00     0.031 A 
ATOM     51  C   UNL A   1      46.421  31.683  28.168  1.00  0.00     0.031 A 
ATOM     52  C   UNL A   1      45.477  25.367  26.818  1.00  0.00     0.049 A 
ATOM     53  C   UNL A   1      47.333  30.576  27.701  1.00  0.00     0.074 A 
ATOM     54  C   UNL A   1      46.381  24.464  26.288  1.00  0.00     0.029 A 
ATOM     55  N   UNL A   1      46.154  26.566  26.977  1.00  0.00    -0.354 N 
ATOM     56  N   UNL A   1      47.042  29.325  27.429  1.00  0.00    -0.248 NA
ATOM     57  C   UNL A   1      48.752  30.916  27.508  1.00  0.00     0.031 C 
ATOM     58  C   UNL A   1      47.622  25.101  26.183  1.00  0.00     0.029 A 
ATOM     59  C   UNL A   1      47.473  26.419  26.583  1.00  0.00     0.049 A 
ATOM     60  H   UNL A   1      45.756  27.399  27.319  1.00  0.00     0.167 HD
ATOM     61  C   UNL A   1      48.232  28.741  27.002  1.00  0.00     0.074 A 
ATOM     62  C   UNL A   1      49.243  29.777  27.040  1.00  0.00     0.031 C 
ATOM     63  C   UNL A   1      48.467  27.463  26.615  1.00  0.00     0.031 A 
BRANCH  50  64
ATOM     64  C   UNL A   1      43.514  23.777  26.959  1.00  0.00    -0.014 A 
ATOM     65  C   UNL A   1      43.061  23.359  25.695  1.00  0.00     0.010 A 
ATOM     66  C   UNL A   1      43.460  22.876  28.038  1.00  0.00     0.010 A 
ATOM     67  C   UNL A   1      42.532  22.077  25.522  1.00  0.00     0.020 A 
ATOM     68  C   UNL A   1      42.960  21.582  27.862  1.00  0.00     0.020 A 
ATOM     69  C   UNL A   1      42.486  21.197  26.607  1.00  0.00     0.054 A 
BRANCH  69  70
ATOM     70  S   UNL A   1      41.823  19.530  26.342  1.00  0.00     0.124 S 
ATOM     71  O   UNL A   1      40.393  19.794  26.198  1.00  0.00    -0.237 OA
ATOM     72  O   UNL A   1      42.507  19.104  25.124  1.00  0.00    -0.237 OA
ATOM     73  O   UNL A   1      42.204  18.807  27.553  1.00  0.00    -0.744 OA
ENDBRANCH  69  70
ENDBRANCH  50  64
BRANCH  51  74
ATOM     74  C   UNL A   1      46.957  33.056  28.391  1.00  0.00    -0.014 A 
ATOM     75  C   UNL A   1      47.132  33.554  29.695  1.00  0.00     0.010 A 
ATOM     76  C   UNL A   1      47.266  33.888  27.299  1.00  0.00     0.010 A 
ATOM     77  C   UNL A   1      47.579  34.862  29.902  1.00  0.00     0.020 A 
ATOM     78  C   UNL A   1      47.744  35.186  27.501  1.00  0.00     0.020 A 
ATOM     79  C   UNL A   1      47.883  35.671  28.802  1.00  0.00     0.054 A 
BRANCH  79  80
ATOM     80  S   UNL A   1      48.484  37.357  29.098  1.00  0.00     0.124 S 
ATOM     81  O   UNL A   1      47.445  38.165  28.468  1.00  0.00    -0.237 OA
ATOM     82  O   UNL A   1      48.538  37.420  30.556  1.00  0.00    -0.237 OA
ATOM     83  O   UNL A   1      49.785  37.378  28.432  1.00  0.00    -0.744 OA
ENDBRANCH  79  80
ENDBRANCH  51  74
BRANCH  63  84
ATOM     84  C   UNL A   1      49.859  27.111  26.156  1.00  0.00    -0.014 A 
ATOM     85  C   UNL A   1      50.244  27.253  24.812  1.00  0.00     0.010 A 
ATOM     86  C   UNL A   1      50.820  26.711  27.104  1.00  0.00     0.010 A 
ATOM     87  C   UNL A   1      51.560  26.985  24.422  1.00  0.00     0.020 A 
ATOM     88  C   UNL A   1      52.143  26.472  26.723  1.00  0.00     0.020 A 
ATOM     89  C   UNL A   1      52.502  26.602  25.380  1.00  0.00     0.054 A 
BRANCH  89  90
ATOM     90  S   UNL A   1      54.217  26.330  24.857  1.00  0.00     0.124 S 
ATOM     91  O   UNL A   1      54.081  26.217  23.408  1.00  0.00    -0.237 OA
ATOM     92  O   UNL A   1      54.891  27.536  25.334  1.00  0.00    -0.237 OA
ATOM     93  O   UNL A   1      54.600  25.099  25.545  1.00  0.00    -0.744 OA
ENDBRANCH  89  90
ENDBRANCH  63  84
ENDBRANCH  37  38
ENDBRANCH  30  32
ENDBRANCH  29  30
ENDBRANCH  28  29
ENDBRANCH  27  28
ENDBRANCH  26  27
ENDBRANCH  25  26
ENDBRANCH   1  25
TORSDOF 23
ENDMDL
MODEL 2
REMARK VINA RESULT:      -9.7      5.962     12.341
REMARK SMILES C[C@@H]1CCC[C@H]1NC(=O)c1csc(/C=C/C(=O)OCCOCCOCCOC(=O)c2ccc(-c3c4nc(c(-c5ccc(S(=O)(=O)[O-])cc5)c5ccc([nH]5)c(-c5ccc(S(=O)(=O)[O-])cc5)c5nc(c(-c6ccc(S(=O)(=O)[O-])cc6)c6ccc3[nH]6)C=C5)C=C4)cc2)c1
REMARK SMILES IDX 22 1 21 2 20 3 19 4 18 5 16 6 17 7 15 8 14 9 13 10 10 11
REMARK SMILES IDX 11 12 90 13 12 14 8 15 7 16 9 18 6 19 1 20 2 21 3 22 4 23
REMARK SMILES IDX 5 24 23 25 24 26 25 27 26 28 27 29 28 30 29 31 30 32 31 33
REMARK SMILES IDX 89 34 32 35 88 36 33 37 34 38 35 39 82 40 36 41 87 42 81 43
REMARK SMILES IDX 83 44 37 45 86 46 80 47 79 48 38 50 68 51 49 52 67 53 50 54
REMARK SMILES IDX 53 55 66 56 84 57 51 58 52 59 65 61 85 62 54 63 39 64 40 65
REMARK SMILES IDX 48 66 41 67 47 68 42 69 43 70 44 71 45 72 46 73 69 74 70 75
REMARK SMILES IDX 78 76 71 77 77 78 72 79 73 80 74 81 75 82 76 83 55 84 56 85
REMARK SMILES IDX 64 86 57 87 63 88 58 89 59 90 60 91 61 92 62 93
REMARK H PARENT 7 17 83 49 53 60
REMARK Flexibility Score: inf
ROOT
ATOM      1  C   UNL A   1      45.462  19.436  24.971  1.00  0.00     0.188 C 
ENDROOT
BRANCH   1   2
ATOM      2  O   UNL A   1      44.123  19.080  24.706  1.00  0.00    -0.376 OA
BRANCH   2   3
ATOM      3  C   UNL A   1      43.314  18.490  25.707  1.00  0.00     0.202 C 
BRANCH   3   4
ATOM      4  C   UNL A   1      42.362  19.264  26.637  1.00  0.00     0.261 C 
BRANCH   4   5
ATOM      5  O   UNL A   1      42.094  20.630  26.304  1.00  0.00    -0.460 OA
BRANCH   5   6
ATOM      6  C   UNL A   1      41.596  21.377  27.320  1.00  0.00     0.330 C 
ATOM      7  O   UNL A   1      42.230  21.833  28.259  1.00  0.00    -0.247 OA
BRANCH   6   8
ATOM      8  C   UNL A   1      40.173  21.713  27.127  1.00  0.00     0.095 C 
ATOM      9  C   UNL A   1      39.618  22.090  25.966  1.00  0.00     0.026 C 
BRANCH   9  10
ATOM     10  C   UNL A   1      38.218  22.350  25.833  1.00  0.00     0.028 A 
ATOM     11  C   UNL A   1      35.882  21.982  25.581  1.00  0.00     0.051 A 
ATOM     12  C   UNL A   1      35.937  23.330  25.869  1.00  0.00     0.079 A 
ATOM     13  C   UNL A   1      37.215  21.434  25.560  1.00  0.00     0.033 A 
ATOM     14  S   UNL A   1      37.533  23.923  25.983  1.00  0.00    -0.144 S 
BRANCH  11  15
ATOM     15  C   UNL A   1      34.674  21.172  25.451  1.00  0.00     0.252 C 
ATOM     16  N   UNL A   1      33.453  21.628  25.877  1.00  0.00    -0.349 N 
ATOM     17  H   UNL A   1      32.754  20.936  25.916  1.00  0.00     0.164 HD
ATOM     18  O   UNL A   1      34.716  20.051  24.943  1.00  0.00    -0.269 OA
BRANCH  16  19
ATOM     19  C   UNL A   1      33.007  22.958  26.282  1.00  0.00     0.085 C 
ATOM     20  C   UNL A   1      32.463  25.233  25.303  1.00  0.00     0.010 C 
ATOM     21  C   UNL A   1      32.410  23.720  25.088  1.00  0.00     0.008 C 
ATOM     22  C   UNL A   1      30.972  23.206  25.026  1.00  0.00     0.005 C 
ATOM     23  C   UNL A   1      30.559  22.986  26.478  1.00  0.00     0.002 C 
ATOM     24  C   UNL A   1      31.853  22.845  27.284  1.00  0.00     0.025 C 
ENDBRANCH  16  19
ENDBRANCH  11  15
ENDBRANCH   9  10
ENDBRANCH   6   8
ENDBRANCH   5   6
ENDBRANCH   4   5
ENDBRANCH   3   4
ENDBRANCH   2   3
ENDBRANCH   1   2
BRANCH   1  25
ATOM     25  C   UNL A   1      45.873  20.919  24.900  1.00  0.00     0.188 C 
BRANCH  25  26
ATOM     26  O   UNL A   1      44.878  21.892  24.674  1.00  0.00    -0.376 OA
BRANCH  26  27
ATOM     27  C   UNL A   1      44.712  22.975  25.574  1.00  0.00     0.202 C 
BRANCH  27  28
ATOM     28  C   UNL A   1      43.467  23.876  25.699  1.00  0.00     0.261 C 
BRANCH  28  29
ATOM     29  O   UNL A   1      43.659  25.284  25.835  1.00  0.00    -0.460 OA
BRANCH  29  30
ATOM     30  C   UNL A   1      42.525  26.029  25.829  1.00  0.00     0.338 C 
ATOM     31  O   UNL A   1      41.686  26.091  24.952  1.00  0.00    -0.246 OA
BRANCH  30  32
ATOM     32  C   UNL A   1      42.372  26.653  27.156  1.00  0.00     0.060 A 
ATOM     33  C   UNL A   1      41.494  26.073  28.082  1.00  0.00     0.016 A 
ATOM     34  C   UNL A   1      43.075  27.814  27.471  1.00  0.00     0.016 A 
ATOM     35  C   UNL A   1      41.315  26.660  29.334  1.00  0.00     0.010 A 
ATOM     36  C   UNL A   1      42.876  28.414  28.717  1.00  0.00     0.010 A 
ATOM     37  C   UNL A   1      41.983  27.850  29.647  1.00  0.00    -0.014 A 
BRANCH  37  38
ATOM     38  C   UNL A   1      41.648  28.596  30.883  1.00  0.00     0.031 A 
ATOM     39  C   UNL A   1      40.501  29.568  30.849  1.00  0.00     0.074 A 
ATOM     40  C   UNL A   1      42.358  28.424  32.013  1.00  0.00     0.049 A 
ATOM     41  N   UNL A   1      40.098  30.407  31.767  1.00  0.00    -0.248 NA
ATOM     42  C   UNL A   1      39.703  29.597  29.611  1.00  0.00     0.031 C 
ATOM     43  C   UNL A   1      43.452  27.469  32.191  1.00  0.00     0.029 A 
ATOM     44  N   UNL A   1      42.270  29.063  33.225  1.00  0.00    -0.354 N 
ATOM     45  C   UNL A   1      39.007  31.069  31.219  1.00  0.00     0.074 A 
ATOM     46  C   UNL A   1      38.828  30.555  29.878  1.00  0.00     0.031 C 
ATOM     47  C   UNL A   1      43.941  27.595  33.437  1.00  0.00     0.029 A 
ATOM     48  C   UNL A   1      43.230  28.669  34.128  1.00  0.00     0.049 A 
ATOM     49  H   UNL A   1      41.583  29.739  33.429  1.00  0.00     0.167 HD
ATOM     50  C   UNL A   1      38.221  32.016  31.782  1.00  0.00     0.031 A 
ATOM     51  C   UNL A   1      43.520  29.146  35.355  1.00  0.00     0.031 A 
ATOM     52  C   UNL A   1      38.418  32.541  33.107  1.00  0.00     0.049 A 
ATOM     53  C   UNL A   1      42.705  30.285  35.916  1.00  0.00     0.074 A 
ATOM     54  C   UNL A   1      37.679  33.507  33.767  1.00  0.00     0.029 A 
ATOM     55  N   UNL A   1      39.431  32.151  33.970  1.00  0.00    -0.354 N 
ATOM     56  N   UNL A   1      41.666  30.895  35.393  1.00  0.00    -0.248 NA
ATOM     57  C   UNL A   1      43.102  30.803  37.235  1.00  0.00     0.031 C 
ATOM     58  C   UNL A   1      38.282  33.744  35.007  1.00  0.00     0.029 A 
ATOM     59  C   UNL A   1      39.354  32.878  35.146  1.00  0.00     0.049 A 
ATOM     60  H   UNL A   1      40.104  31.460  33.776  1.00  0.00     0.167 HD
ATOM     61  C   UNL A   1      41.268  31.842  36.332  1.00  0.00     0.074 A 
ATOM     62  C   UNL A   1      42.168  31.718  37.459  1.00  0.00     0.031 C 
ATOM     63  C   UNL A   1      40.250  32.735  36.267  1.00  0.00     0.031 A 
BRANCH  50  64
ATOM     64  C   UNL A   1      37.091  32.569  30.954  1.00  0.00    -0.014 A 
ATOM     65  C   UNL A   1      35.757  32.208  31.212  1.00  0.00     0.010 A 
ATOM     66  C   UNL A   1      37.364  33.495  29.931  1.00  0.00     0.010 A 
ATOM     67  C   UNL A   1      34.719  32.738  30.441  1.00  0.00     0.020 A 
ATOM     68  C   UNL A   1      36.326  34.050  29.176  1.00  0.00     0.020 A 
ATOM     69  C   UNL A   1      35.010  33.656  29.428  1.00  0.00     0.054 A 
BRANCH  69  70
ATOM     70  S   UNL A   1      33.639  34.348  28.465  1.00  0.00     0.124 S 
ATOM     71  O   UNL A   1      32.654  34.634  29.506  1.00  0.00    -0.237 OA
ATOM     72  O   UNL A   1      34.248  35.520  27.839  1.00  0.00    -0.237 OA
ATOM     73  O   UNL A   1      33.279  33.270  27.546  1.00  0.00    -0.744 OA
ENDBRANCH  69  70
ENDBRANCH  50  64
BRANCH  51  74
ATOM     74  C   UNL A   1      44.654  28.575  36.137  1.00  0.00    -0.014 A 
ATOM     75  C   UNL A   1      45.957  29.080  35.982  1.00  0.00     0.010 A 
ATOM     76  C   UNL A   1      44.442  27.498  37.019  1.00  0.00     0.010 A 
ATOM     77  C   UNL A   1      47.028  28.505  36.671  1.00  0.00     0.020 A 
ATOM     78  C   UNL A   1      45.505  26.941  37.735  1.00  0.00     0.020 A 
ATOM     79  C   UNL A   1      46.795  27.438  37.544  1.00  0.00     0.054 A 
BRANCH  79  80
ATOM     80  S   UNL A   1      48.199  26.725  38.445  1.00  0.00     0.124 S 
ATOM     81  O   UNL A   1      49.219  27.756  38.284  1.00  0.00    -0.237 OA
ATOM     82  O   UNL A   1      47.661  26.572  39.795  1.00  0.00    -0.237 OA
ATOM     83  O   UNL A   1      48.458  25.472  37.740  1.00  0.00    -0.744 OA
ENDBRANCH  79  80
ENDBRANCH  51  74
BRANCH  63  84
ATOM     84  C   UNL A   1      40.017  33.625  37.461  1.00  0.00    -0.014 A 
ATOM     85  C   UNL A   1      40.595  34.903  37.546  1.00  0.00     0.010 A 
ATOM     86  C   UNL A   1      39.135  33.204  38.475  1.00  0.00     0.010 A 
ATOM     87  C   UNL A   1      40.309  35.737  38.632  1.00  0.00     0.020 A 
ATOM     88  C   UNL A   1      38.823  34.047  39.545  1.00  0.00     0.020 A 
ATOM     89  C   UNL A   1      39.421  35.306  39.621  1.00  0.00     0.054 A 
BRANCH  89  90
ATOM     90  S   UNL A   1      39.013  36.436  40.980  1.00  0.00     0.124 S 
ATOM     91  O   UNL A   1      40.304  36.595  41.643  1.00  0.00    -0.237 OA
ATOM     92  O   UNL A   1      38.519  37.617  40.275  1.00  0.00    -0.237 OA
ATOM     93  O   UNL A   1      38.004  35.709  41.747  1.00  0.00    -0.744 OA
ENDBRANCH  89  90
ENDBRANCH  63  84
ENDBRANCH  37  38
ENDBRANCH  30  32
ENDBRANCH  29  30
ENDBRANCH  28  29
ENDBRANCH  27  28
ENDBRANCH  26  27
ENDBRANCH  25  26
ENDBRANCH   1  25
TORSDOF 23
ENDMDL
MODEL 3
REMARK VINA RESULT:      -9.6      6.711     12.493
REMARK SMILES C[C@@H]1CCC[C@H]1NC(=O)c1csc(/C=C/C(=O)OCCOCCOCCOC(=O)c2ccc(-c3c4nc(c(-c5ccc(S(=O)(=O)[O-])cc5)c5ccc([nH]5)c(-c5ccc(S(=O)(=O)[O-])cc5)c5nc(c(-c6ccc(S(=O)(=O)[O-])cc6)c6ccc3[nH]6)C=C5)C=C4)cc2)c1
REMARK SMILES IDX 22 1 21 2 20 3 19 4 18 5 16 6 17 7 15 8 14 9 13 10 10 11
REMARK SMILES IDX 11 12 90 13 12 14 8 15 7 16 9 18 6 19 1 20 2 21 3 22 4 23
REMARK SMILES IDX 5 24 23 25 24 26 25 27 26 28 27 29 28 30 29 31 30 32 31 33
REMARK SMILES IDX 89 34 32 35 88 36 33 37 34 38 35 39 82 40 36 41 87 42 81 43
REMARK SMILES IDX 83 44 37 45 86 46 80 47 79 48 38 50 68 51 49 52 67 53 50 54
REMARK SMILES IDX 53 55 66 56 84 57 51 58 52 59 65 61 85 62 54 63 39 64 40 65
REMARK SMILES IDX 48 66 41 67 47 68 42 69 43 70 44 71 45 72 46 73 69 74 70 75
REMARK SMILES IDX 78 76 71 77 77 78 72 79 73 80 74 81 75 82 76 83 55 84 56 85
REMARK SMILES IDX 64 86 57 87 63 88 58 89 59 90 60 91 61 92 62 93
REMARK H PARENT 7 17 83 49 53 60
REMARK Flexibility Score: inf
ROOT
ATOM      1  C   UNL A   1      35.643  21.350  25.051  1.00  0.00     0.188 C 
ENDROOT
BRANCH   1   2
ATOM      2  O   UNL A   1      34.993  20.098  25.020  1.00  0.00    -0.376 OA
BRANCH   2   3
ATOM      3  C   UNL A   1      33.611  19.988  25.305  1.00  0.00     0.202 C 
BRANCH   3   4
ATOM      4  C   UNL A   1      32.486  20.100  24.261  1.00  0.00     0.261 C 
BRANCH   4   5
ATOM      5  O   UNL A   1      31.810  21.358  24.164  1.00  0.00    -0.460 OA
BRANCH   5   6
ATOM      6  C   UNL A   1      32.017  22.030  23.005  1.00  0.00     0.330 C 
ATOM      7  O   UNL A   1      32.214  21.532  21.908  1.00  0.00    -0.247 OA
BRANCH   6   8
ATOM      8  C   UNL A   1      31.860  23.488  23.163  1.00  0.00     0.095 C 
ATOM      9  C   UNL A   1      30.688  24.134  23.252  1.00  0.00     0.026 C 
BRANCH   9  10
ATOM     10  C   UNL A   1      30.604  25.547  23.459  1.00  0.00     0.028 A 
ATOM     11  C   UNL A   1      30.875  27.884  23.116  1.00  0.00     0.051 A 
ATOM     12  C   UNL A   1      29.978  27.844  24.163  1.00  0.00     0.079 A 
ATOM     13  C   UNL A   1      31.229  26.542  22.726  1.00  0.00     0.033 A 
ATOM     14  S   UNL A   1      29.678  26.261  24.725  1.00  0.00    -0.144 S 
BRANCH  11  15
ATOM     15  C   UNL A   1      31.314  29.077  22.396  1.00  0.00     0.252 C 
ATOM     16  N   UNL A   1      30.417  29.985  21.896  1.00  0.00    -0.349 N 
ATOM     17  H   UNL A   1      30.808  30.638  21.272  1.00  0.00     0.164 HD
ATOM     18  O   UNL A   1      32.511  29.306  22.223  1.00  0.00    -0.269 OA
BRANCH  16  19
ATOM     19  C   UNL A   1      28.984  30.155  22.125  1.00  0.00     0.085 C 
ATOM     20  C   UNL A   1      27.367  31.142  23.809  1.00  0.00     0.010 C 
ATOM     21  C   UNL A   1      28.724  31.294  23.123  1.00  0.00     0.008 C 
ATOM     22  C   UNL A   1      28.779  32.547  22.248  1.00  0.00     0.005 C 
ATOM     23  C   UNL A   1      28.180  32.130  20.909  1.00  0.00     0.002 C 
ATOM     24  C   UNL A   1      28.293  30.606  20.834  1.00  0.00     0.025 C 
ENDBRANCH  16  19
ENDBRANCH  11  15
ENDBRANCH   9  10
ENDBRANCH   6   8
ENDBRANCH   5   6
ENDBRANCH   4   5
ENDBRANCH   3   4
ENDBRANCH   2   3
ENDBRANCH   1   2
BRANCH   1  25
ATOM     25  C   UNL A   1      37.120  21.440  24.624  1.00  0.00     0.188 C 
BRANCH  25  26
ATOM     26  O   UNL A   1      38.024  22.148  25.442  1.00  0.00    -0.376 OA
BRANCH  26  27
ATOM     27  C   UNL A   1      37.920  23.555  25.581  1.00  0.00     0.202 C 
BRANCH  27  28
ATOM     28  C   UNL A   1      38.674  24.431  26.604  1.00  0.00     0.261 C 
BRANCH  28  29
ATOM     29  O   UNL A   1      40.101  24.429  26.577  1.00  0.00    -0.460 OA
BRANCH  29  30
ATOM     30  C   UNL A   1      40.680  25.636  26.357  1.00  0.00     0.338 C 
ATOM     31  O   UNL A   1      40.997  26.121  25.289  1.00  0.00    -0.246 OA
BRANCH  30  32
ATOM     32  C   UNL A   1      40.723  26.369  27.637  1.00  0.00     0.060 A 
ATOM     33  C   UNL A   1      39.750  26.098  28.607  1.00  0.00     0.016 A 
ATOM     34  C   UNL A   1      41.705  27.333  27.861  1.00  0.00     0.016 A 
ATOM     35  C   UNL A   1      39.756  26.795  29.814  1.00  0.00     0.010 A 
ATOM     36  C   UNL A   1      41.695  28.048  29.061  1.00  0.00     0.010 A 
ATOM     37  C   UNL A   1      40.712  27.796  30.035  1.00  0.00    -0.014 A 
BRANCH  37  38
ATOM     38  C   UNL A   1      40.607  28.687  31.215  1.00  0.00     0.031 A 
ATOM     39  C   UNL A   1      39.590  29.794  31.193  1.00  0.00     0.074 A 
ATOM     40  C   UNL A   1      41.409  28.523  32.282  1.00  0.00     0.049 A 
ATOM     41  N   UNL A   1      39.395  30.757  32.055  1.00  0.00    -0.248 NA
ATOM     42  C   UNL A   1      38.672  29.818  30.041  1.00  0.00     0.031 C 
ATOM     43  C   UNL A   1      42.391  27.452  32.450  1.00  0.00     0.029 A 
ATOM     44  N   UNL A   1      41.532  29.274  33.426  1.00  0.00    -0.354 N 
ATOM     45  C   UNL A   1      38.340  31.506  31.550  1.00  0.00     0.074 A 
ATOM     46  C   UNL A   1      37.955  30.903  30.292  1.00  0.00     0.031 C 
ATOM     47  C   UNL A   1      43.025  27.622  33.624  1.00  0.00     0.029 A 
ATOM     48  C   UNL A   1      42.530  28.838  34.267  1.00  0.00     0.049 A 
ATOM     49  H   UNL A   1      40.960  30.050  33.625  1.00  0.00     0.167 HD
ATOM     50  C   UNL A   1      37.741  32.596  32.087  1.00  0.00     0.031 A 
ATOM     51  C   UNL A   1      43.008  29.379  35.405  1.00  0.00     0.031 A 
ATOM     52  C   UNL A   1      38.145  33.206  33.327  1.00  0.00     0.049 A 
ATOM     53  C   UNL A   1      42.404  30.662  35.923  1.00  0.00     0.074 A 
ATOM     54  C   UNL A   1      37.606  34.315  33.953  1.00  0.00     0.029 A 
ATOM     55  N   UNL A   1      39.190  32.764  34.123  1.00  0.00    -0.354 N 
ATOM     56  N   UNL A   1      41.397  31.354  35.443  1.00  0.00    -0.248 NA
ATOM     57  C   UNL A   1      43.003  31.238  37.137  1.00  0.00     0.031 C 
ATOM     58  C   UNL A   1      38.364  34.580  35.097  1.00  0.00     0.029 A 
ATOM     59  C   UNL A   1      39.331  33.596  35.220  1.00  0.00     0.049 A 
ATOM     60  H   UNL A   1      39.749  31.975  33.936  1.00  0.00     0.167 HD
ATOM     61  C   UNL A   1      41.223  32.426  36.315  1.00  0.00     0.074 A 
ATOM     62  C   UNL A   1      42.218  32.284  37.357  1.00  0.00     0.031 C 
ATOM     63  C   UNL A   1      40.321  33.436  36.258  1.00  0.00     0.031 A 
BRANCH  50  64
ATOM     64  C   UNL A   1      36.604  33.217  31.320  1.00  0.00    -0.014 A 
ATOM     65  C   UNL A   1      35.296  33.222  31.837  1.00  0.00     0.010 A 
ATOM     66  C   UNL A   1      36.855  33.841  30.085  1.00  0.00     0.010 A 
ATOM     67  C   UNL A   1      34.254  33.812  31.117  1.00  0.00     0.020 A 
ATOM     68  C   UNL A   1      35.821  34.459  29.375  1.00  0.00     0.020 A 
ATOM     69  C   UNL A   1      34.523  34.427  29.891  1.00  0.00     0.054 A 
BRANCH  69  70
ATOM     70  S   UNL A   1      33.154  35.210  28.995  1.00  0.00     0.124 S 
ATOM     71  O   UNL A   1      32.211  35.493  30.075  1.00  0.00    -0.237 OA
ATOM     72  O   UNL A   1      33.792  36.380  28.397  1.00  0.00    -0.237 OA
ATOM     73  O   UNL A   1      32.725  34.183  28.048  1.00  0.00    -0.744 OA
ENDBRANCH  69  70
ENDBRANCH  50  64
BRANCH  51  74
ATOM     74  C   UNL A   1      44.142  28.735  36.128  1.00  0.00    -0.014 A 
ATOM     75  C   UNL A   1      45.459  29.190  35.943  1.00  0.00     0.010 A 
ATOM     76  C   UNL A   1      43.914  27.640  36.982  1.00  0.00     0.010 A 
ATOM     77  C   UNL A   1      46.528  28.548  36.576  1.00  0.00     0.020 A 
ATOM     78  C   UNL A   1      44.976  27.015  37.642  1.00  0.00     0.020 A 
ATOM     79  C   UNL A   1      46.279  27.463  37.422  1.00  0.00     0.054 A 
BRANCH  79  80
ATOM     80  S   UNL A   1      47.680  26.662  38.250  1.00  0.00     0.124 S 
ATOM     81  O   UNL A   1      48.353  26.000  37.136  1.00  0.00    -0.237 OA
ATOM     82  O   UNL A   1      48.390  27.797  38.834  1.00  0.00    -0.237 OA
ATOM     83  O   UNL A   1      47.042  25.770  39.216  1.00  0.00    -0.744 OA
ENDBRANCH  79  80
ENDBRANCH  51  74
BRANCH  63  84
ATOM     84  C   UNL A   1      40.329  34.451  37.371  1.00  0.00    -0.014 A 
ATOM     85  C   UNL A   1      39.570  34.262  38.539  1.00  0.00     0.010 A 
ATOM     86  C   UNL A   1      41.176  35.573  37.280  1.00  0.00     0.010 A 
ATOM     87  C   UNL A   1      39.645  35.184  39.588  1.00  0.00     0.020 A 
ATOM     88  C   UNL A   1      41.277  36.479  38.339  1.00  0.00     0.020 A 
ATOM     89  C   UNL A   1      40.503  36.283  39.484  1.00  0.00     0.054 A 
BRANCH  89  90
ATOM     90  S   UNL A   1      40.635  37.423  40.888  1.00  0.00     0.124 S 
ATOM     91  O   UNL A   1      39.420  37.123  41.641  1.00  0.00    -0.237 OA
ATOM     92  O   UNL A   1      41.885  37.008  41.520  1.00  0.00    -0.237 OA
ATOM     93  O   UNL A   1      40.670  38.744  40.263  1.00  0.00    -0.744 OA
ENDBRANCH  89  90
ENDBRANCH  63  84
ENDBRANCH  37  38
ENDBRANCH  30  32
ENDBRANCH  29  30
ENDBRANCH  28  29
ENDBRANCH  27  28
ENDBRANCH  26  27
ENDBRANCH  25  26
ENDBRANCH   1  25
TORSDOF 23
ENDMDL
