MODEL 1
REMARK VINA RESULT:      -9.6      0.000      0.000
REMARK SMILES C[C@H]1CN(c2ccc(C(=O)OCCOCCOCCOC(=O)c3ccc(-c4c5nc(c(-c6ccc(S(=O)(=O)[O-])cc6)c6ccc([nH]6)c(-c6ccc(S(=O)(=O)[O-])cc6)c6nc(c(-c7ccc(S(=O)(=O)[O-])cc7)c7ccc4[nH]7)C=C6)C=C5)cc3)cc2[N+](=O)[O-])C[C@@H]1C
REMARK SMILES IDX 16 1 15 2 14 3 13 4 12 5 11 6 9 7 10 8 8 9 5 10 6 11 84 12
REMARK SMILES IDX 7 13 83 14 4 15 1 16 2 17 3 18 89 19 88 20 90 21 85 22 86 23
REMARK SMILES IDX 87 24 17 25 18 26 19 27 20 28 21 29 22 30 23 31 24 32 82 33
REMARK SMILES IDX 25 34 81 35 26 36 27 37 28 38 75 39 29 40 80 41 74 42 76 43
REMARK SMILES IDX 30 44 79 45 73 46 72 47 31 49 61 50 42 51 60 52 43 53 46 54
REMARK SMILES IDX 59 55 77 56 44 57 45 58 58 60 78 61 47 62 32 63 33 64 41 65
REMARK SMILES IDX 34 66 40 67 35 68 36 69 37 70 38 71 39 72 62 73 63 74 71 75
REMARK SMILES IDX 64 76 70 77 65 78 66 79 67 80 68 81 69 82 48 83 49 84 57 85
REMARK SMILES IDX 50 86 56 87 51 88 52 89 53 90 54 91 55 92
REMARK H PARENT 76 48 46 59
REMARK Flexibility Score: inf
ROOT
ATOM      1  C   UNL A   1      36.343  21.092  24.940  1.00  0.00     0.188 C 
ENDROOT
BRANCH   1   2
ATOM      2  C   UNL A   1      35.066  20.299  25.295  1.00  0.00     0.188 C 
BRANCH   2   3
ATOM      3  O   UNL A   1      34.893  18.977  24.796  1.00  0.00    -0.376 OA
BRANCH   3   4
ATOM      4  C   UNL A   1      33.587  18.467  24.564  1.00  0.00     0.202 C 
BRANCH   4   5
ATOM      5  C   UNL A   1      32.532  19.353  23.887  1.00  0.00     0.261 C 
BRANCH   5   6
ATOM      6  O   UNL A   1      32.982  20.673  23.537  1.00  0.00    -0.460 OA
BRANCH   6   7
ATOM      7  C   UNL A   1      32.134  21.387  22.762  1.00  0.00     0.338 C 
ATOM      8  O   UNL A   1      31.559  21.001  21.751  1.00  0.00    -0.246 OA
BRANCH   7   9
ATOM      9  C   UNL A   1      31.851  22.702  23.374  1.00  0.00     0.067 A 
ATOM     10  C   UNL A   1      31.550  25.270  24.553  1.00  0.00     0.116 A 
ATOM     11  C   UNL A   1      32.181  25.108  23.309  1.00  0.00     0.034 A 
ATOM     12  C   UNL A   1      31.000  24.109  25.140  1.00  0.00     0.293 A 
ATOM     13  C   UNL A   1      32.344  23.843  22.733  1.00  0.00     0.018 A 
ATOM     14  C   UNL A   1      31.139  22.830  24.564  1.00  0.00     0.103 A 
BRANCH  10  15
ATOM     15  N   UNL A   1      31.624  26.484  25.199  1.00  0.00    -0.365 N 
ATOM     16  C   UNL A   1      31.662  28.250  27.757  1.00  0.00     0.010 C 
ATOM     17  C   UNL A   1      32.573  28.176  26.528  1.00  0.00     0.010 C 
ATOM     18  C   UNL A   1      32.770  26.730  26.071  1.00  0.00     0.120 C 
ATOM     19  C   UNL A   1      31.930  28.842  25.298  1.00  0.00     0.010 C 
ATOM     20  C   UNL A   1      31.036  27.732  24.703  1.00  0.00     0.120 C 
ATOM     21  C   UNL A   1      32.983  29.301  24.285  1.00  0.00     0.010 C 
ENDBRANCH  10  15
BRANCH  12  22
ATOM     22  N   UNL A   1      30.259  24.189  26.398  1.00  0.00     0.065 N 
ATOM     23  O   UNL A   1      29.660  25.251  26.627  1.00  0.00    -0.258 OA
ATOM     24  O   UNL A   1      30.310  23.230  27.181  1.00  0.00    -0.258 OA
ENDBRANCH  12  22
ENDBRANCH   7   9
ENDBRANCH   6   7
ENDBRANCH   5   6
ENDBRANCH   4   5
ENDBRANCH   3   4
ENDBRANCH   2   3
ENDBRANCH   1   2
BRANCH   1  25
ATOM     25  O   UNL A   1      37.473  20.277  24.727  1.00  0.00    -0.376 OA
BRANCH  25  26
ATOM     26  C   UNL A   1      38.677  20.589  25.407  1.00  0.00     0.202 C 
BRANCH  26  27
ATOM     27  C   UNL A   1      39.663  19.507  25.890  1.00  0.00     0.261 C 
BRANCH  27  28
ATOM     28  O   UNL A   1      41.026  19.597  25.455  1.00  0.00    -0.460 OA
BRANCH  28  29
ATOM     29  C   UNL A   1      41.977  19.598  26.410  1.00  0.00     0.338 C 
ATOM     30  O   UNL A   1      42.586  18.623  26.840  1.00  0.00    -0.246 OA
BRANCH  29  31
ATOM     31  C   UNL A   1      42.309  20.997  26.741  1.00  0.00     0.060 A 
ATOM     32  C   UNL A   1      42.290  21.952  25.717  1.00  0.00     0.016 A 
ATOM     33  C   UNL A   1      42.656  21.366  28.044  1.00  0.00     0.016 A 
ATOM     34  C   UNL A   1      42.661  23.270  25.985  1.00  0.00     0.010 A 
ATOM     35  C   UNL A   1      43.044  22.684  28.308  1.00  0.00     0.010 A 
ATOM     36  C   UNL A   1      43.085  23.634  27.271  1.00  0.00    -0.014 A 
BRANCH  36  37
ATOM     37  C   UNL A   1      43.746  24.949  27.471  1.00  0.00     0.031 A 
ATOM     38  C   UNL A   1      42.918  26.100  27.982  1.00  0.00     0.074 A 
ATOM     39  C   UNL A   1      45.065  25.111  27.258  1.00  0.00     0.049 A 
ATOM     40  N   UNL A   1      43.285  27.321  28.275  1.00  0.00    -0.248 NA
ATOM     41  C   UNL A   1      41.486  25.834  28.193  1.00  0.00     0.031 C 
ATOM     42  C   UNL A   1      45.984  24.072  26.796  1.00  0.00     0.029 A 
ATOM     43  N   UNL A   1      45.860  26.221  27.411  1.00  0.00    -0.354 N 
ATOM     44  C   UNL A   1      42.132  27.968  28.704  1.00  0.00     0.074 A 
ATOM     45  C   UNL A   1      41.048  27.017  28.600  1.00  0.00     0.031 C 
ATOM     46  C   UNL A   1      47.221  24.594  26.704  1.00  0.00     0.029 A 
ATOM     47  C   UNL A   1      47.176  26.008  27.078  1.00  0.00     0.049 A 
ATOM     48  H   UNL A   1      45.519  27.088  27.730  1.00  0.00     0.167 HD
ATOM     49  C   UNL A   1      41.986  29.237  29.154  1.00  0.00     0.031 A 
ATOM     50  C   UNL A   1      48.223  26.857  27.068  1.00  0.00     0.031 A 
ATOM     51  C   UNL A   1      43.058  30.193  29.238  1.00  0.00     0.049 A 
ATOM     52  C   UNL A   1      48.025  28.283  27.515  1.00  0.00     0.074 A 
ATOM     53  C   UNL A   1      43.011  31.502  29.688  1.00  0.00     0.029 A 
ATOM     54  N   UNL A   1      44.368  29.949  28.856  1.00  0.00    -0.354 N 
ATOM     55  N   UNL A   1      46.934  28.871  27.948  1.00  0.00    -0.248 NA
ATOM     56  C   UNL A   1      49.207  29.156  27.489  1.00  0.00     0.031 C 
ATOM     57  C   UNL A   1      44.282  32.065  29.526  1.00  0.00     0.029 A 
ATOM     58  C   UNL A   1      45.135  31.088  29.039  1.00  0.00     0.049 A 
ATOM     59  H   UNL A   1      44.704  29.092  28.506  1.00  0.00     0.167 HD
ATOM     60  C   UNL A   1      47.307  30.171  28.277  1.00  0.00     0.074 A 
ATOM     61  C   UNL A   1      48.727  30.278  28.008  1.00  0.00     0.031 C 
ATOM     62  C   UNL A   1      46.546  31.185  28.762  1.00  0.00     0.031 A 
BRANCH  49  63
ATOM     63  C   UNL A   1      40.602  29.672  29.559  1.00  0.00    -0.014 A 
ATOM     64  C   UNL A   1      39.709  30.230  28.626  1.00  0.00     0.010 A 
ATOM     65  C   UNL A   1      40.179  29.495  30.889  1.00  0.00     0.010 A 
ATOM     66  C   UNL A   1      38.435  30.641  29.024  1.00  0.00     0.020 A 
ATOM     67  C   UNL A   1      38.895  29.879  31.286  1.00  0.00     0.020 A 
ATOM     68  C   UNL A   1      38.037  30.465  30.354  1.00  0.00     0.054 A 
BRANCH  68  69
ATOM     69  S   UNL A   1      36.370  30.991  30.839  1.00  0.00     0.124 S 
ATOM     70  O   UNL A   1      35.595  30.680  29.641  1.00  0.00    -0.237 OA
ATOM     71  O   UNL A   1      36.094  30.149  32.001  1.00  0.00    -0.237 OA
ATOM     72  O   UNL A   1      36.526  32.415  31.128  1.00  0.00    -0.744 OA
ENDBRANCH  68  69
ENDBRANCH  49  63
BRANCH  50  73
ATOM     73  C   UNL A   1      49.563  26.385  26.617  1.00  0.00    -0.014 A 
ATOM     74  C   UNL A   1      50.473  25.822  27.530  1.00  0.00     0.010 A 
ATOM     75  C   UNL A   1      49.940  26.512  25.268  1.00  0.00     0.010 A 
ATOM     76  C   UNL A   1      51.741  25.413  27.105  1.00  0.00     0.020 A 
ATOM     77  C   UNL A   1      51.196  26.078  24.834  1.00  0.00     0.020 A 
ATOM     78  C   UNL A   1      52.093  25.542  25.759  1.00  0.00     0.054 A 
BRANCH  78  79
ATOM     79  S   UNL A   1      53.726  24.959  25.222  1.00  0.00     0.124 S 
ATOM     80  O   UNL A   1      53.918  25.699  23.978  1.00  0.00    -0.237 OA
ATOM     81  O   UNL A   1      54.584  25.358  26.335  1.00  0.00    -0.237 OA
ATOM     82  O   UNL A   1      53.542  23.518  25.072  1.00  0.00    -0.744 OA
ENDBRANCH  78  79
ENDBRANCH  50  73
BRANCH  62  83
ATOM     83  C   UNL A   1      47.243  32.483  29.079  1.00  0.00    -0.014 A 
ATOM     84  C   UNL A   1      47.821  32.722  30.339  1.00  0.00     0.010 A 
ATOM     85  C   UNL A   1      47.339  33.476  28.085  1.00  0.00     0.010 A 
ATOM     86  C   UNL A   1      48.429  33.950  30.617  1.00  0.00     0.020 A 
ATOM     87  C   UNL A   1      47.974  34.693  28.349  1.00  0.00     0.020 A 
ATOM     88  C   UNL A   1      48.495  34.931  29.622  1.00  0.00     0.054 A 
BRANCH  88  89
ATOM     89  S   UNL A   1      49.288  36.517  30.005  1.00  0.00     0.124 S 
ATOM     90  O   UNL A   1      49.109  36.604  31.451  1.00  0.00    -0.237 OA
ATOM     91  O   UNL A   1      50.662  36.308  29.552  1.00  0.00    -0.237 OA
ATOM     92  O   UNL A   1      48.522  37.484  29.222  1.00  0.00    -0.744 OA
ENDBRANCH  88  89
ENDBRANCH  62  83
ENDBRANCH  36  37
ENDBRANCH  29  31
ENDBRANCH  28  29
ENDBRANCH  27  28
ENDBRANCH  26  27
ENDBRANCH  25  26
ENDBRANCH   1  25
TORSDOF 22
ENDMDL
MODEL 2
REMARK VINA RESULT:      -9.0      5.344     11.332
REMARK SMILES C[C@H]1CN(c2ccc(C(=O)OCCOCCOCCOC(=O)c3ccc(-c4c5nc(c(-c6ccc(S(=O)(=O)[O-])cc6)c6ccc([nH]6)c(-c6ccc(S(=O)(=O)[O-])cc6)c6nc(c(-c7ccc(S(=O)(=O)[O-])cc7)c7ccc4[nH]7)C=C6)C=C5)cc3)cc2[N+](=O)[O-])C[C@@H]1C
REMARK SMILES IDX 16 1 15 2 14 3 13 4 12 5 11 6 9 7 10 8 8 9 5 10 6 11 84 12
REMARK SMILES IDX 7 13 83 14 4 15 1 16 2 17 3 18 89 19 88 20 90 21 85 22 86 23
REMARK SMILES IDX 87 24 17 25 18 26 19 27 20 28 21 29 22 30 23 31 24 32 82 33
REMARK SMILES IDX 25 34 81 35 26 36 27 37 28 38 75 39 29 40 80 41 74 42 76 43
REMARK SMILES IDX 30 44 79 45 73 46 72 47 31 49 61 50 42 51 60 52 43 53 46 54
REMARK SMILES IDX 59 55 77 56 44 57 45 58 58 60 78 61 47 62 32 63 33 64 41 65
REMARK SMILES IDX 34 66 40 67 35 68 36 69 37 70 38 71 39 72 62 73 63 74 71 75
REMARK SMILES IDX 64 76 70 77 65 78 66 79 67 80 68 81 69 82 48 83 49 84 57 85
REMARK SMILES IDX 50 86 56 87 51 88 52 89 53 90 54 91 55 92
REMARK H PARENT 76 48 46 59
REMARK Flexibility Score: inf
ROOT
ATOM      1  C   UNL A   1      34.240  33.952  29.116  1.00  0.00     0.188 C 
ENDROOT
BRANCH   1   2
ATOM      2  C   UNL A   1      33.238  35.076  29.457  1.00  0.00     0.188 C 
BRANCH   2   3
ATOM      3  O   UNL A   1      32.755  35.213  30.789  1.00  0.00    -0.376 OA
BRANCH   3   4
ATOM      4  C   UNL A   1      32.946  36.432  31.495  1.00  0.00     0.202 C 
BRANCH   4   5
ATOM      5  C   UNL A   1      33.847  36.458  32.738  1.00  0.00     0.261 C 
BRANCH   5   6
ATOM      6  O   UNL A   1      35.103  35.774  32.593  1.00  0.00    -0.460 OA
BRANCH   6   7
ATOM      7  C   UNL A   1      35.153  34.537  33.136  1.00  0.00     0.338 C 
ATOM      8  O   UNL A   1      34.233  33.931  33.676  1.00  0.00    -0.246 OA
BRANCH   7   9
ATOM      9  C   UNL A   1      36.463  33.904  32.873  1.00  0.00     0.067 A 
ATOM     10  C   UNL A   1      39.039  32.737  32.599  1.00  0.00     0.116 A 
ATOM     11  C   UNL A   1      38.115  32.254  33.540  1.00  0.00     0.034 A 
ATOM     12  C   UNL A   1      38.590  33.767  31.743  1.00  0.00     0.293 A 
ATOM     13  C   UNL A   1      36.852  32.836  33.688  1.00  0.00     0.018 A 
ATOM     14  C   UNL A   1      37.314  34.353  31.866  1.00  0.00     0.103 A 
BRANCH  10  15
ATOM     15  N   UNL A   1      40.346  32.306  32.648  1.00  0.00    -0.365 N 
ATOM     16  C   UNL A   1      43.413  32.769  32.432  1.00  0.00     0.010 C 
ATOM     17  C   UNL A   1      42.531  32.109  33.495  1.00  0.00     0.010 C 
ATOM     18  C   UNL A   1      41.217  32.870  33.677  1.00  0.00     0.120 C 
ATOM     19  C   UNL A   1      42.061  30.709  33.059  1.00  0.00     0.010 C 
ATOM     20  C   UNL A   1      40.811  30.991  32.198  1.00  0.00     0.120 C 
ATOM     21  C   UNL A   1      41.711  29.827  34.262  1.00  0.00     0.010 C 
ENDBRANCH  10  15
BRANCH  12  22
ATOM     22  N   UNL A   1      39.454  34.284  30.682  1.00  0.00     0.065 N 
ATOM     23  O   UNL A   1      40.536  34.780  31.034  1.00  0.00    -0.258 OA
ATOM     24  O   UNL A   1      39.046  34.251  29.512  1.00  0.00    -0.258 OA
ENDBRANCH  12  22
ENDBRANCH   7   9
ENDBRANCH   6   7
ENDBRANCH   5   6
ENDBRANCH   4   5
ENDBRANCH   3   4
ENDBRANCH   2   3
ENDBRANCH   1   2
BRANCH   1  25
ATOM     25  O   UNL A   1      34.400  33.005  30.147  1.00  0.00    -0.376 OA
BRANCH  25  26
ATOM     26  C   UNL A   1      35.309  31.935  29.956  1.00  0.00     0.202 C 
BRANCH  26  27
ATOM     27  C   UNL A   1      35.246  30.998  28.733  1.00  0.00     0.261 C 
BRANCH  27  28
ATOM     28  O   UNL A   1      36.416  30.237  28.409  1.00  0.00    -0.460 OA
BRANCH  28  29
ATOM     29  C   UNL A   1      36.950  29.482  29.391  1.00  0.00     0.338 C 
ATOM     30  O   UNL A   1      36.360  29.016  30.361  1.00  0.00    -0.246 OA
BRANCH  29  31
ATOM     31  C   UNL A   1      38.338  29.145  29.021  1.00  0.00     0.060 A 
ATOM     32  C   UNL A   1      39.206  28.686  30.019  1.00  0.00     0.016 A 
ATOM     33  C   UNL A   1      38.790  29.296  27.707  1.00  0.00     0.016 A 
ATOM     34  C   UNL A   1      40.541  28.420  29.714  1.00  0.00     0.010 A 
ATOM     35  C   UNL A   1      40.133  29.044  27.406  1.00  0.00     0.010 A 
ATOM     36  C   UNL A   1      41.024  28.642  28.416  1.00  0.00    -0.014 A 
BRANCH  36  37
ATOM     37  C   UNL A   1      42.491  28.635  28.178  1.00  0.00     0.031 A 
ATOM     38  C   UNL A   1      43.118  27.394  27.597  1.00  0.00     0.074 A 
ATOM     39  C   UNL A   1      43.246  29.722  28.418  1.00  0.00     0.049 A 
ATOM     40  N   UNL A   1      44.363  27.173  27.262  1.00  0.00    -0.248 NA
ATOM     41  C   UNL A   1      42.219  26.253  27.359  1.00  0.00     0.031 C 
ATOM     42  C   UNL A   1      42.758  30.994  28.949  1.00  0.00     0.029 A 
ATOM     43  N   UNL A   1      44.593  29.926  28.239  1.00  0.00    -0.354 N 
ATOM     44  C   UNL A   1      44.397  25.871  26.775  1.00  0.00     0.074 A 
ATOM     45  C   UNL A   1      43.057  25.340  26.891  1.00  0.00     0.031 C 
ATOM     46  C   UNL A   1      43.792  31.849  29.051  1.00  0.00     0.029 A 
ATOM     47  C   UNL A   1      45.017  31.178  28.615  1.00  0.00     0.049 A 
ATOM     48  H   UNL A   1      45.197  29.239  27.874  1.00  0.00     0.167 HD
ATOM     49  C   UNL A   1      45.445  25.179  26.267  1.00  0.00     0.031 A 
ATOM     50  C   UNL A   1      46.252  31.717  28.617  1.00  0.00     0.031 A 
ATOM     51  C   UNL A   1      46.784  25.696  26.171  1.00  0.00     0.049 A 
ATOM     52  C   UNL A   1      47.416  30.907  28.104  1.00  0.00     0.074 A 
ATOM     53  C   UNL A   1      47.913  25.074  25.665  1.00  0.00     0.029 A 
ATOM     54  N   UNL A   1      47.179  26.954  26.597  1.00  0.00    -0.354 N 
ATOM     55  N   UNL A   1      47.425  29.688  27.618  1.00  0.00    -0.248 NA
ATOM     56  C   UNL A   1      48.734  31.555  28.124  1.00  0.00     0.031 C 
ATOM     57  C   UNL A   1      49.001  25.937  25.835  1.00  0.00     0.029 A 
ATOM     58  C   UNL A   1      48.538  27.122  26.386  1.00  0.00     0.049 A 
ATOM     59  H   UNL A   1      46.582  27.631  26.993  1.00  0.00     0.167 HD
ATOM     60  C   UNL A   1      48.742  29.437  27.244  1.00  0.00     0.074 A 
ATOM     61  C   UNL A   1      49.496  30.637  27.545  1.00  0.00     0.031 C 
ATOM     62  C   UNL A   1      49.280  28.318  26.696  1.00  0.00     0.031 A 
BRANCH  49  63
ATOM     63  C   UNL A   1      45.184  23.769  25.807  1.00  0.00    -0.014 A 
ATOM     64  C   UNL A   1      44.798  22.764  26.714  1.00  0.00     0.010 A 
ATOM     65  C   UNL A   1      45.302  23.449  24.443  1.00  0.00     0.010 A 
ATOM     66  C   UNL A   1      44.575  21.458  26.272  1.00  0.00     0.020 A 
ATOM     67  C   UNL A   1      45.052  22.150  23.991  1.00  0.00     0.020 A 
ATOM     68  C   UNL A   1      44.707  21.159  24.911  1.00  0.00     0.054 A 
BRANCH  68  69
ATOM     69  S   UNL A   1      44.394  19.459  24.361  1.00  0.00     0.124 S 
ATOM     70  O   UNL A   1      44.308  19.623  22.912  1.00  0.00    -0.237 OA
ATOM     71  O   UNL A   1      45.573  18.744  24.844  1.00  0.00    -0.237 OA
ATOM     72  O   UNL A   1      43.140  19.106  25.024  1.00  0.00    -0.744 OA
ENDBRANCH  68  69
ENDBRANCH  49  63
BRANCH  50  73
ATOM     73  C   UNL A   1      46.461  33.104  29.122  1.00  0.00    -0.014 A 
ATOM     74  C   UNL A   1      46.723  33.341  30.483  1.00  0.00     0.010 A 
ATOM     75  C   UNL A   1      46.384  34.197  28.241  1.00  0.00     0.010 A 
ATOM     76  C   UNL A   1      46.884  34.648  30.956  1.00  0.00     0.020 A 
ATOM     77  C   UNL A   1      46.573  35.502  28.704  1.00  0.00     0.020 A 
ATOM     78  C   UNL A   1      46.810  35.720  30.063  1.00  0.00     0.054 A 
BRANCH  78  79
ATOM     79  S   UNL A   1      47.071  37.402  30.690  1.00  0.00     0.124 S 
ATOM     80  O   UNL A   1      45.707  37.917  30.755  1.00  0.00    -0.237 OA
ATOM     81  O   UNL A   1      47.718  37.161  31.977  1.00  0.00    -0.237 OA
ATOM     82  O   UNL A   1      47.926  38.016  29.677  1.00  0.00    -0.744 OA
ENDBRANCH  78  79
ENDBRANCH  50  73
BRANCH  62  83
ATOM     83  C   UNL A   1      50.745  28.355  26.342  1.00  0.00    -0.014 A 
ATOM     84  C   UNL A   1      51.742  28.118  27.305  1.00  0.00     0.010 A 
ATOM     85  C   UNL A   1      51.127  28.613  25.012  1.00  0.00     0.010 A 
ATOM     86  C   UNL A   1      53.094  28.195  26.956  1.00  0.00     0.020 A 
ATOM     87  C   UNL A   1      52.477  28.659  24.652  1.00  0.00     0.020 A 
ATOM     88  C   UNL A   1      53.453  28.473  25.633  1.00  0.00     0.054 A 
BRANCH  88  89
ATOM     89  S   UNL A   1      55.213  28.569  25.203  1.00  0.00     0.124 S 
ATOM     90  O   UNL A   1      55.843  28.632  26.519  1.00  0.00    -0.237 OA
ATOM     91  O   UNL A   1      55.431  27.331  24.459  1.00  0.00    -0.237 OA
ATOM     92  O   UNL A   1      55.308  29.791  24.408  1.00  0.00    -0.744 OA
ENDBRANCH  88  89
ENDBRANCH  62  83
ENDBRANCH  36  37
ENDBRANCH  29  31
ENDBRANCH  28  29
ENDBRANCH  27  28
ENDBRANCH  26  27
ENDBRANCH  25  26
ENDBRANCH   1  25
TORSDOF 22
ENDMDL
MODEL 3
REMARK VINA RESULT:      -8.9      2.713      8.814
REMARK SMILES C[C@H]1CN(c2ccc(C(=O)OCCOCCOCCOC(=O)c3ccc(-c4c5nc(c(-c6ccc(S(=O)(=O)[O-])cc6)c6ccc([nH]6)c(-c6ccc(S(=O)(=O)[O-])cc6)c6nc(c(-c7ccc(S(=O)(=O)[O-])cc7)c7ccc4[nH]7)C=C6)C=C5)cc3)cc2[N+](=O)[O-])C[C@@H]1C
REMARK SMILES IDX 16 1 15 2 14 3 13 4 12 5 11 6 9 7 10 8 8 9 5 10 6 11 84 12
REMARK SMILES IDX 7 13 83 14 4 15 1 16 2 17 3 18 89 19 88 20 90 21 85 22 86 23
REMARK SMILES IDX 87 24 17 25 18 26 19 27 20 28 21 29 22 30 23 31 24 32 82 33
REMARK SMILES IDX 25 34 81 35 26 36 27 37 28 38 75 39 29 40 80 41 74 42 76 43
REMARK SMILES IDX 30 44 79 45 73 46 72 47 31 49 61 50 42 51 60 52 43 53 46 54
REMARK SMILES IDX 59 55 77 56 44 57 45 58 58 60 78 61 47 62 32 63 33 64 41 65
REMARK SMILES IDX 34 66 40 67 35 68 36 69 37 70 38 71 39 72 62 73 63 74 71 75
REMARK SMILES IDX 64 76 70 77 65 78 66 79 67 80 68 81 69 82 48 83 49 84 57 85
REMARK SMILES IDX 50 86 56 87 51 88 52 89 53 90 54 91 55 92
REMARK H PARENT 76 48 46 59
REMARK Flexibility Score: inf
ROOT
ATOM      1  C   UNL A   1      37.574  22.243  25.649  1.00  0.00     0.188 C 
ENDROOT
BRANCH   1   2
ATOM      2  C   UNL A   1      36.229  21.502  25.489  1.00  0.00     0.188 C 
BRANCH   2   3
ATOM      3  O   UNL A   1      35.233  21.617  26.500  1.00  0.00    -0.376 OA
BRANCH   3   4
ATOM      4  C   UNL A   1      33.941  21.061  26.296  1.00  0.00     0.202 C 
BRANCH   4   5
ATOM      5  C   UNL A   1      33.593  20.417  24.946  1.00  0.00     0.261 C 
BRANCH   5   6
ATOM      6  O   UNL A   1      32.666  21.162  24.140  1.00  0.00    -0.460 OA
BRANCH   6   7
ATOM      7  C   UNL A   1      31.723  21.847  24.825  1.00  0.00     0.338 C 
ATOM      8  O   UNL A   1      30.961  21.400  25.676  1.00  0.00    -0.246 OA
BRANCH   7   9
ATOM      9  C   UNL A   1      31.806  23.292  24.526  1.00  0.00     0.067 A 
ATOM     10  C   UNL A   1      31.728  26.085  24.005  1.00  0.00     0.116 A 
ATOM     11  C   UNL A   1      31.390  25.567  25.266  1.00  0.00     0.034 A 
ATOM     12  C   UNL A   1      32.191  25.158  23.045  1.00  0.00     0.293 A 
ATOM     13  C   UNL A   1      31.413  24.192  25.521  1.00  0.00     0.018 A 
ATOM     14  C   UNL A   1      32.237  23.770  23.291  1.00  0.00     0.103 A 
BRANCH  10  15
ATOM     15  N   UNL A   1      31.462  27.405  23.719  1.00  0.00    -0.365 N 
ATOM     16  C   UNL A   1      30.110  29.644  22.038  1.00  0.00     0.010 C 
ATOM     17  C   UNL A   1      30.175  29.365  23.542  1.00  0.00     0.010 C 
ATOM     18  C   UNL A   1      30.080  27.867  23.833  1.00  0.00     0.120 C 
ATOM     19  C   UNL A   1      31.544  29.745  24.136  1.00  0.00     0.010 C 
ATOM     20  C   UNL A   1      32.421  28.503  23.868  1.00  0.00     0.120 C 
ATOM     21  C   UNL A   1      31.450  30.038  25.637  1.00  0.00     0.010 C 
ENDBRANCH  10  15
BRANCH  12  22
ATOM     22  N   UNL A   1      32.637  25.609  21.728  1.00  0.00     0.065 N 
ATOM     23  O   UNL A   1      33.828  25.943  21.625  1.00  0.00    -0.258 OA
ATOM     24  O   UNL A   1      31.807  25.686  20.811  1.00  0.00    -0.258 OA
ENDBRANCH  12  22
ENDBRANCH   7   9
ENDBRANCH   6   7
ENDBRANCH   5   6
ENDBRANCH   4   5
ENDBRANCH   3   4
ENDBRANCH   2   3
ENDBRANCH   1   2
BRANCH   1  25
ATOM     25  O   UNL A   1      38.686  21.382  25.739  1.00  0.00    -0.376 OA
BRANCH  25  26
ATOM     26  C   UNL A   1      39.937  21.921  26.133  1.00  0.00     0.202 C 
BRANCH  26  27
ATOM     27  C   UNL A   1      40.417  21.923  27.598  1.00  0.00     0.261 C 
BRANCH  27  28
ATOM     28  O   UNL A   1      41.822  21.792  27.844  1.00  0.00    -0.460 OA
BRANCH  28  29
ATOM     29  C   UNL A   1      42.651  22.534  27.083  1.00  0.00     0.338 C 
ATOM     30  O   UNL A   1      43.243  22.168  26.071  1.00  0.00    -0.246 OA
BRANCH  29  31
ATOM     31  C   UNL A   1      42.600  23.931  27.557  1.00  0.00     0.060 A 
ATOM     32  C   UNL A   1      42.355  24.947  26.626  1.00  0.00     0.016 A 
ATOM     33  C   UNL A   1      42.809  24.241  28.904  1.00  0.00     0.016 A 
ATOM     34  C   UNL A   1      42.364  26.282  27.032  1.00  0.00     0.010 A 
ATOM     35  C   UNL A   1      42.834  25.582  29.306  1.00  0.00     0.010 A 
ATOM     36  C   UNL A   1      42.649  26.610  28.365  1.00  0.00    -0.014 A 
BRANCH  36  37
ATOM     37  C   UNL A   1      42.940  28.024  28.717  1.00  0.00     0.031 A 
ATOM     38  C   UNL A   1      44.368  28.501  28.652  1.00  0.00     0.074 A 
ATOM     39  C   UNL A   1      41.957  28.885  29.035  1.00  0.00     0.049 A 
ATOM     40  N   UNL A   1      44.854  29.696  28.868  1.00  0.00    -0.248 NA
ATOM     41  C   UNL A   1      45.381  27.495  28.291  1.00  0.00     0.031 C 
ATOM     42  C   UNL A   1      40.533  28.559  29.102  1.00  0.00     0.029 A 
ATOM     43  N   UNL A   1      42.013  30.219  29.357  1.00  0.00    -0.354 N 
ATOM     44  C   UNL A   1      46.226  29.587  28.670  1.00  0.00     0.074 A 
ATOM     45  C   UNL A   1      46.499  28.202  28.351  1.00  0.00     0.031 C 
ATOM     46  C   UNL A   1      39.849  29.666  29.443  1.00  0.00     0.029 A 
ATOM     47  C   UNL A   1      40.787  30.771  29.640  1.00  0.00     0.049 A 
ATOM     48  H   UNL A   1      42.853  30.732  29.381  1.00  0.00     0.167 HD
ATOM     49  C   UNL A   1      47.175  30.550  28.737  1.00  0.00     0.031 A 
ATOM     50  C   UNL A   1      40.460  32.022  30.023  1.00  0.00     0.031 A 
ATOM     51  C   UNL A   1      46.910  31.923  29.076  1.00  0.00     0.049 A 
ATOM     52  C   UNL A   1      41.541  33.065  30.152  1.00  0.00     0.074 A 
ATOM     53  C   UNL A   1      47.805  32.976  29.163  1.00  0.00     0.029 A 
ATOM     54  N   UNL A   1      45.661  32.433  29.392  1.00  0.00    -0.354 N 
ATOM     55  N   UNL A   1      42.830  32.952  29.930  1.00  0.00    -0.248 NA
ATOM     56  C   UNL A   1      41.118  34.410  30.564  1.00  0.00     0.031 C 
ATOM     57  C   UNL A   1      47.104  34.111  29.585  1.00  0.00     0.029 A 
ATOM     58  C   UNL A   1      45.763  33.781  29.696  1.00  0.00     0.049 A 
ATOM     59  H   UNL A   1      44.824  31.914  29.401  1.00  0.00     0.167 HD
ATOM     60  C   UNL A   1      43.365  34.219  30.144  1.00  0.00     0.074 A 
ATOM     61  C   UNL A   1      42.258  35.085  30.496  1.00  0.00     0.031 C 
ATOM     62  C   UNL A   1      44.655  34.632  30.053  1.00  0.00     0.031 A 
BRANCH  49  63
ATOM     63  C   UNL A   1      48.599  30.138  28.469  1.00  0.00    -0.014 A 
ATOM     64  C   UNL A   1      49.434  29.678  29.503  1.00  0.00     0.010 A 
ATOM     65  C   UNL A   1      49.102  30.187  27.155  1.00  0.00     0.010 A 
ATOM     66  C   UNL A   1      50.756  29.314  29.238  1.00  0.00     0.020 A 
ATOM     67  C   UNL A   1      50.415  29.797  26.880  1.00  0.00     0.020 A 
ATOM     68  C   UNL A   1      51.240  29.379  27.927  1.00  0.00     0.054 A 
BRANCH  68  69
ATOM     69  S   UNL A   1      52.955  28.884  27.607  1.00  0.00     0.124 S 
ATOM     70  O   UNL A   1      53.095  29.185  26.185  1.00  0.00    -0.237 OA
ATOM     71  O   UNL A   1      53.711  29.748  28.510  1.00  0.00    -0.237 OA
ATOM     72  O   UNL A   1      52.974  27.463  27.948  1.00  0.00    -0.744 OA
ENDBRANCH  68  69
ENDBRANCH  49  63
BRANCH  50  73
ATOM     73  C   UNL A   1      39.040  32.365  30.318  1.00  0.00    -0.014 A 
ATOM     74  C   UNL A   1      38.159  32.733  29.285  1.00  0.00     0.010 A 
ATOM     75  C   UNL A   1      38.566  32.339  31.641  1.00  0.00     0.010 A 
ATOM     76  C   UNL A   1      36.837  33.087  29.573  1.00  0.00     0.020 A 
ATOM     77  C   UNL A   1      37.237  32.664  31.931  1.00  0.00     0.020 A 
ATOM     78  C   UNL A   1      36.384  33.048  30.895  1.00  0.00     0.054 A 
BRANCH  78  79
ATOM     79  S   UNL A   1      34.652  33.463  31.239  1.00  0.00     0.124 S 
ATOM     80  O   UNL A   1      34.773  34.779  31.860  1.00  0.00    -0.237 OA
ATOM     81  O   UNL A   1      34.053  33.444  29.907  1.00  0.00    -0.237 OA
ATOM     82  O   UNL A   1      34.213  32.389  32.126  1.00  0.00    -0.744 OA
ENDBRANCH  78  79
ENDBRANCH  50  73
BRANCH  62  83
ATOM     83  C   UNL A   1      44.933  36.094  30.291  1.00  0.00    -0.014 A 
ATOM     84  C   UNL A   1      45.275  36.581  31.565  1.00  0.00     0.010 A 
ATOM     85  C   UNL A   1      44.869  36.994  29.211  1.00  0.00     0.010 A 
ATOM     86  C   UNL A   1      45.491  37.949  31.765  1.00  0.00     0.020 A 
ATOM     87  C   UNL A   1      45.115  38.357  29.400  1.00  0.00     0.020 A 
ATOM     88  C   UNL A   1      45.402  38.829  30.681  1.00  0.00     0.054 A 
BRANCH  88  89
ATOM     89  S   UNL A   1      45.686  40.598  30.964  1.00  0.00     0.124 S 
ATOM     90  O   UNL A   1      46.250  40.604  32.310  1.00  0.00    -0.237 OA
ATOM     91  O   UNL A   1      46.614  40.951  29.891  1.00  0.00    -0.237 OA
ATOM     92  O   UNL A   1      44.354  41.185  30.844  1.00  0.00    -0.744 OA
ENDBRANCH  88  89
ENDBRANCH  62  83
ENDBRANCH  36  37
ENDBRANCH  29  31
ENDBRANCH  28  29
ENDBRANCH  27  28
ENDBRANCH  26  27
ENDBRANCH  25  26
ENDBRANCH   1  25
TORSDOF 22
ENDMDL
