MODEL 1
REMARK VINA RESULT:     -12.0      0.000      0.000
REMARK SMILES O=C(C[C@]12CSc3[nH]c(=O)sc3[C@H]1c1cc(Cl)ccc1OC2=O)OCCOCCOCCOC(=O)c1ccc(-c2c3nc(c(-c4ccc(S(=O)(=O)[O-])cc4)c4ccc([nH]4)c(-c4ccc(S(=O)(=O)[O-])cc4)c4nc(c(-c5ccc(S(=O)(=O)[O-])cc5)c5ccc2[nH]5)C=C4)C=C3)cc1
REMARK SMILES IDX 29 1 28 2 27 3 26 4 25 5 24 6 2 7 1 8 3 9 4 10 5 11 13 12
REMARK SMILES IDX 22 13 6 14 12 15 14 16 21 17 23 18 7 19 11 20 15 21 20 22
REMARK SMILES IDX 8 23 9 24 16 25 19 26 10 28 17 29 18 30 30 31 31 32 32 33
REMARK SMILES IDX 33 34 34 35 35 36 36 37 37 38 95 39 38 40 94 41 39 42 40 43
REMARK SMILES IDX 41 44 88 45 42 46 93 47 87 48 89 49 43 50 92 51 86 52 85 53
REMARK SMILES IDX 44 55 74 56 55 57 73 58 56 59 59 60 72 61 90 62 57 63 58 64
REMARK SMILES IDX 71 66 91 67 60 68 45 69 46 70 54 71 47 72 53 73 48 74 49 75
REMARK SMILES IDX 50 76 51 77 52 78 75 79 76 80 84 81 77 82 83 83 78 84 79 85
REMARK SMILES IDX 80 86 81 87 82 88 61 89 62 90 70 91 63 92 69 93 64 94 65 95
REMARK SMILES IDX 66 96 67 97 68 98
REMARK H PARENT 8 27 89 54 59 65
REMARK Flexibility Score: inf
ROOT
ATOM      1  C   UNL A   1      40.534  19.969  26.303  1.00  0.00     0.188 C 
ENDROOT
BRANCH   1   2
ATOM      2  C   UNL A   1      40.735  21.241  27.185  1.00  0.00     0.188 C 
BRANCH   2   3
ATOM      3  O   UNL A   1      40.015  22.402  26.789  1.00  0.00    -0.376 OA
BRANCH   3   4
ATOM      4  C   UNL A   1      38.839  22.219  25.998  1.00  0.00     0.202 C 
BRANCH   4   5
ATOM      5  C   UNL A   1      37.665  23.220  26.118  1.00  0.00     0.261 C 
BRANCH   5   6
ATOM      6  O   UNL A   1      37.302  23.841  24.887  1.00  0.00    -0.463 OA
BRANCH   6   7
ATOM      7  C   UNL A   1      36.202  23.366  24.293  1.00  0.00     0.307 C 
ATOM      8  O   UNL A   1      36.204  22.723  23.253  1.00  0.00    -0.252 OA
BRANCH   7   9
ATOM      9  C   UNL A   1      34.976  23.974  24.920  1.00  0.00     0.143 C 
BRANCH   9  10
ATOM     10  C   UNL A   1      33.902  23.101  25.632  1.00  0.00     0.100 C 
ATOM     11  C   UNL A   1      34.589  22.422  26.807  1.00  0.00     0.097 C 
ATOM     12  C   UNL A   1      33.403  22.048  24.556  1.00  0.00     0.085 C 
ATOM     13  C   UNL A   1      32.664  23.901  26.196  1.00  0.00     0.319 C 
ATOM     14  S   UNL A   1      33.420  21.319  27.615  1.00  0.00    -0.106 SA
ATOM     15  C   UNL A   1      33.006  20.697  25.040  1.00  0.00     0.049 A 
ATOM     16  C   UNL A   1      32.344  22.774  23.748  1.00  0.00     0.006 A 
ATOM     17  O   UNL A   1      31.416  23.431  25.808  1.00  0.00    -0.426 OA
ATOM     18  O   UNL A   1      32.715  24.816  27.010  1.00  0.00    -0.251 OA
ATOM     19  C   UNL A   1      33.075  20.302  26.312  1.00  0.00     0.090 A 
ATOM     20  S   UNL A   1      32.699  19.337  23.991  1.00  0.00    -0.077 S 
ATOM     21  C   UNL A   1      32.668  23.140  22.467  1.00  0.00     0.028 A 
ATOM     22  C   UNL A   1      31.408  23.541  24.433  1.00  0.00     0.134 A 
ATOM     23  N   UNL A   1      32.928  18.972  26.510  1.00  0.00    -0.307 N 
ATOM     24  C   UNL A   1      32.734  18.212  25.378  1.00  0.00     0.305 A 
ATOM     25  C   UNL A   1      32.411  24.465  22.164  1.00  0.00     0.041 A 
ATOM     26  C   UNL A   1      30.777  24.652  23.870  1.00  0.00     0.049 A 
ATOM     27  H   UNL A   1      32.959  18.571  27.408  1.00  0.00     0.171 HD
ATOM     28  O   UNL A   1      32.600  17.020  25.284  1.00  0.00    -0.257 OA
ATOM     29  Cl  UNL A   1      33.895  25.327  22.007  1.00  0.00    -0.084 Cl
ATOM     30  C   UNL A   1      31.344  25.167  22.719  1.00  0.00     0.024 A 
ENDBRANCH   9  10
ENDBRANCH   7   9
ENDBRANCH   6   7
ENDBRANCH   5   6
ENDBRANCH   4   5
ENDBRANCH   3   4
ENDBRANCH   2   3
ENDBRANCH   1   2
BRANCH   1  31
ATOM     31  O   UNL A   1      41.547  19.553  25.384  1.00  0.00    -0.376 OA
BRANCH  31  32
ATOM     32  C   UNL A   1      42.559  18.654  25.862  1.00  0.00     0.202 C 
BRANCH  32  33
ATOM     33  C   UNL A   1      44.042  18.876  25.388  1.00  0.00     0.261 C 
BRANCH  33  34
ATOM     34  O   UNL A   1      44.136  19.954  24.424  1.00  0.00    -0.460 OA
BRANCH  34  35
ATOM     35  C   UNL A   1      44.878  21.085  24.510  1.00  0.00     0.338 C 
ATOM     36  O   UNL A   1      45.896  21.340  23.899  1.00  0.00    -0.246 OA
BRANCH  35  37
ATOM     37  C   UNL A   1      44.083  22.041  25.373  1.00  0.00     0.060 A 
ATOM     38  C   UNL A   1      43.152  22.954  24.872  1.00  0.00     0.016 A 
ATOM     39  C   UNL A   1      44.519  22.211  26.697  1.00  0.00     0.016 A 
ATOM     40  C   UNL A   1      42.816  24.098  25.650  1.00  0.00     0.010 A 
ATOM     41  C   UNL A   1      44.203  23.371  27.447  1.00  0.00     0.010 A 
ATOM     42  C   UNL A   1      43.425  24.392  26.905  1.00  0.00    -0.014 A 
BRANCH  42  43
ATOM     43  C   UNL A   1      43.060  25.673  27.634  1.00  0.00     0.031 A 
ATOM     44  C   UNL A   1      44.138  26.685  27.513  1.00  0.00     0.074 A 
ATOM     45  C   UNL A   1      41.931  26.097  28.285  1.00  0.00     0.049 A 
ATOM     46  N   UNL A   1      44.827  27.216  28.470  1.00  0.00    -0.248 NA
ATOM     47  C   UNL A   1      44.603  27.014  26.155  1.00  0.00     0.031 C 
ATOM     48  C   UNL A   1      40.673  25.364  28.409  1.00  0.00     0.029 A 
ATOM     49  N   UNL A   1      41.619  27.296  28.945  1.00  0.00    -0.354 N 
ATOM     50  C   UNL A   1      45.663  28.121  27.833  1.00  0.00     0.074 A 
ATOM     51  C   UNL A   1      45.645  27.797  26.428  1.00  0.00     0.031 C 
ATOM     52  C   UNL A   1      39.696  26.179  28.874  1.00  0.00     0.029 A 
ATOM     53  C   UNL A   1      40.245  27.491  29.181  1.00  0.00     0.049 A 
ATOM     54  H   UNL A   1      42.304  27.948  29.219  1.00  0.00     0.167 HD
ATOM     55  C   UNL A   1      46.065  29.267  28.436  1.00  0.00     0.031 A 
ATOM     56  C   UNL A   1      39.541  28.592  29.592  1.00  0.00     0.031 A 
ATOM     57  C   UNL A   1      45.877  29.272  29.857  1.00  0.00     0.049 A 
ATOM     58  C   UNL A   1      40.427  29.539  30.293  1.00  0.00     0.074 A 
ATOM     59  C   UNL A   1      46.613  28.974  30.977  1.00  0.00     0.029 A 
ATOM     60  N   UNL A   1      44.590  29.476  30.265  1.00  0.00    -0.354 N 
ATOM     61  N   UNL A   1      40.852  29.353  31.507  1.00  0.00    -0.248 NA
ATOM     62  C   UNL A   1      41.070  30.619  29.553  1.00  0.00     0.031 C 
ATOM     63  C   UNL A   1      45.718  29.035  32.084  1.00  0.00     0.029 A 
ATOM     64  C   UNL A   1      44.452  29.384  31.627  1.00  0.00     0.049 A 
ATOM     65  H   UNL A   1      43.846  29.671  29.651  1.00  0.00     0.167 HD
ATOM     66  C   UNL A   1      42.085  29.964  31.521  1.00  0.00     0.074 A 
ATOM     67  C   UNL A   1      42.109  30.845  30.360  1.00  0.00     0.031 C 
ATOM     68  C   UNL A   1      43.123  29.421  32.216  1.00  0.00     0.031 A 
BRANCH  55  69
ATOM     69  C   UNL A   1      46.238  30.553  27.669  1.00  0.00    -0.014 A 
ATOM     70  C   UNL A   1      45.182  31.148  26.944  1.00  0.00     0.010 A 
ATOM     71  C   UNL A   1      47.397  31.326  27.859  1.00  0.00     0.010 A 
ATOM     72  C   UNL A   1      45.298  32.408  26.362  1.00  0.00     0.020 A 
ATOM     73  C   UNL A   1      47.509  32.613  27.315  1.00  0.00     0.020 A 
ATOM     74  C   UNL A   1      46.466  33.135  26.552  1.00  0.00     0.054 A 
BRANCH  74  75
ATOM     75  S   UNL A   1      46.557  34.789  25.825  1.00  0.00     0.124 S 
ATOM     76  O   UNL A   1      46.632  35.633  27.014  1.00  0.00    -0.237 OA
ATOM     77  O   UNL A   1      47.779  34.714  25.029  1.00  0.00    -0.237 OA
ATOM     78  O   UNL A   1      45.319  34.897  25.058  1.00  0.00    -0.744 OA
ENDBRANCH  74  75
ENDBRANCH  55  69
BRANCH  56  79
ATOM     79  C   UNL A   1      38.136  29.024  29.268  1.00  0.00    -0.014 A 
ATOM     80  C   UNL A   1      37.844  29.438  27.957  1.00  0.00     0.010 A 
ATOM     81  C   UNL A   1      37.200  29.375  30.276  1.00  0.00     0.010 A 
ATOM     82  C   UNL A   1      36.769  30.292  27.681  1.00  0.00     0.020 A 
ATOM     83  C   UNL A   1      36.112  30.234  30.005  1.00  0.00     0.020 A 
ATOM     84  C   UNL A   1      35.950  30.740  28.716  1.00  0.00     0.054 A 
BRANCH  84  85
ATOM     85  S   UNL A   1      34.802  32.105  28.358  1.00  0.00     0.124 S 
ATOM     86  O   UNL A   1      33.713  31.406  27.679  1.00  0.00    -0.237 OA
ATOM     87  O   UNL A   1      34.482  32.612  29.691  1.00  0.00    -0.237 OA
ATOM     88  O   UNL A   1      35.581  33.012  27.520  1.00  0.00    -0.744 OA
ENDBRANCH  84  85
ENDBRANCH  56  79
BRANCH  68  89
ATOM     89  C   UNL A   1      42.857  28.706  33.519  1.00  0.00    -0.014 A 
ATOM     90  C   UNL A   1      43.204  27.345  33.572  1.00  0.00     0.010 A 
ATOM     91  C   UNL A   1      42.239  29.267  34.653  1.00  0.00     0.010 A 
ATOM     92  C   UNL A   1      42.847  26.541  34.652  1.00  0.00     0.020 A 
ATOM     93  C   UNL A   1      41.928  28.476  35.775  1.00  0.00     0.020 A 
ATOM     94  C   UNL A   1      42.192  27.106  35.741  1.00  0.00     0.054 A 
BRANCH  94  95
ATOM     95  S   UNL A   1      41.549  25.956  36.993  1.00  0.00     0.124 S 
ATOM     96  O   UNL A   1      42.748  25.709  37.798  1.00  0.00    -0.237 OA
ATOM     97  O   UNL A   1      40.517  26.748  37.653  1.00  0.00    -0.237 OA
ATOM     98  O   UNL A   1      41.057  24.822  36.214  1.00  0.00    -0.744 OA
ENDBRANCH  94  95
ENDBRANCH  68  89
ENDBRANCH  42  43
ENDBRANCH  35  37
ENDBRANCH  34  35
ENDBRANCH  33  34
ENDBRANCH  32  33
ENDBRANCH  31  32
ENDBRANCH   1  31
TORSDOF 21
ENDMDL
MODEL 2
REMARK VINA RESULT:     -11.9      2.076      3.231
REMARK SMILES O=C(C[C@]12CSc3[nH]c(=O)sc3[C@H]1c1cc(Cl)ccc1OC2=O)OCCOCCOCCOC(=O)c1ccc(-c2c3nc(c(-c4ccc(S(=O)(=O)[O-])cc4)c4ccc([nH]4)c(-c4ccc(S(=O)(=O)[O-])cc4)c4nc(c(-c5ccc(S(=O)(=O)[O-])cc5)c5ccc2[nH]5)C=C4)C=C3)cc1
REMARK SMILES IDX 29 1 28 2 27 3 26 4 25 5 24 6 2 7 1 8 3 9 4 10 5 11 13 12
REMARK SMILES IDX 22 13 6 14 12 15 14 16 21 17 23 18 7 19 11 20 15 21 20 22
REMARK SMILES IDX 8 23 9 24 16 25 19 26 10 28 17 29 18 30 30 31 31 32 32 33
REMARK SMILES IDX 33 34 34 35 35 36 36 37 37 38 95 39 38 40 94 41 39 42 40 43
REMARK SMILES IDX 41 44 88 45 42 46 93 47 87 48 89 49 43 50 92 51 86 52 85 53
REMARK SMILES IDX 44 55 74 56 55 57 73 58 56 59 59 60 72 61 90 62 57 63 58 64
REMARK SMILES IDX 71 66 91 67 60 68 45 69 46 70 54 71 47 72 53 73 48 74 49 75
REMARK SMILES IDX 50 76 51 77 52 78 75 79 76 80 84 81 77 82 83 83 78 84 79 85
REMARK SMILES IDX 80 86 81 87 82 88 61 89 62 90 70 91 63 92 69 93 64 94 65 95
REMARK SMILES IDX 66 96 67 97 68 98
REMARK H PARENT 8 27 89 54 59 65
REMARK Flexibility Score: inf
ROOT
ATOM      1  C   UNL A   1      40.604  20.644  26.302  1.00  0.00     0.188 C 
ENDROOT
BRANCH   1   2
ATOM      2  C   UNL A   1      40.091  22.098  26.545  1.00  0.00     0.188 C 
BRANCH   2   3
ATOM      3  O   UNL A   1      38.791  22.397  26.055  1.00  0.00    -0.376 OA
BRANCH   3   4
ATOM      4  C   UNL A   1      38.056  21.343  25.429  1.00  0.00     0.202 C 
BRANCH   4   5
ATOM      5  C   UNL A   1      36.970  21.679  24.379  1.00  0.00     0.261 C 
BRANCH   5   6
ATOM      6  O   UNL A   1      36.241  22.872  24.657  1.00  0.00    -0.463 OA
BRANCH   6   7
ATOM      7  C   UNL A   1      35.516  23.365  23.648  1.00  0.00     0.307 C 
ATOM      8  O   UNL A   1      35.771  23.186  22.464  1.00  0.00    -0.252 OA
BRANCH   7   9
ATOM      9  C   UNL A   1      34.539  24.387  24.166  1.00  0.00     0.143 C 
BRANCH   9  10
ATOM     10  C   UNL A   1      33.229  24.730  23.399  1.00  0.00     0.100 C 
ATOM     11  C   UNL A   1      33.638  25.431  22.112  1.00  0.00     0.097 C 
ATOM     12  C   UNL A   1      32.398  25.690  24.351  1.00  0.00     0.085 C 
ATOM     13  C   UNL A   1      32.344  23.484  23.009  1.00  0.00     0.319 C 
ATOM     14  S   UNL A   1      32.158  25.941  21.226  1.00  0.00    -0.106 SA
ATOM     15  C   UNL A   1      31.558  26.741  23.713  1.00  0.00     0.049 A 
ATOM     16  C   UNL A   1      31.657  24.767  25.300  1.00  0.00     0.006 A 
ATOM     17  O   UNL A   1      31.010  23.548  23.393  1.00  0.00    -0.426 OA
ATOM     18  O   UNL A   1      32.706  22.537  22.321  1.00  0.00    -0.251 OA
ATOM     19  C   UNL A   1      31.484  26.951  22.398  1.00  0.00     0.090 A 
ATOM     20  S   UNL A   1      30.801  28.047  24.588  1.00  0.00    -0.077 S 
ATOM     21  C   UNL A   1      32.088  24.718  26.599  1.00  0.00     0.028 A 
ATOM     22  C   UNL A   1      31.042  23.637  24.769  1.00  0.00     0.134 A 
ATOM     23  N   UNL A   1      30.886  28.109  22.035  1.00  0.00    -0.307 N 
ATOM     24  C   UNL A   1      30.443  28.908  23.065  1.00  0.00     0.305 A 
ATOM     25  C   UNL A   1      32.306  23.442  27.087  1.00  0.00     0.041 A 
ATOM     26  C   UNL A   1      30.835  22.469  25.504  1.00  0.00     0.049 A 
ATOM     27  H   UNL A   1      30.775  28.366  21.091  1.00  0.00     0.171 HD
ATOM     28  O   UNL A   1      29.905  29.984  23.007  1.00  0.00    -0.257 OA
ATOM     29  Cl  UNL A   1      33.997  23.171  27.282  1.00  0.00    -0.084 Cl
ATOM     30  C   UNL A   1      31.547  22.346  26.684  1.00  0.00     0.024 A 
ENDBRANCH   9  10
ENDBRANCH   7   9
ENDBRANCH   6   7
ENDBRANCH   5   6
ENDBRANCH   4   5
ENDBRANCH   3   4
ENDBRANCH   2   3
ENDBRANCH   1   2
BRANCH   1  31
ATOM     31  O   UNL A   1      41.905  20.248  26.742  1.00  0.00    -0.376 OA
BRANCH  31  32
ATOM     32  C   UNL A   1      42.380  18.951  26.354  1.00  0.00     0.202 C 
BRANCH  32  33
ATOM     33  C   UNL A   1      43.819  18.837  25.728  1.00  0.00     0.261 C 
BRANCH  33  34
ATOM     34  O   UNL A   1      44.475  20.127  25.667  1.00  0.00    -0.460 OA
BRANCH  34  35
ATOM     35  C   UNL A   1      44.623  20.936  24.588  1.00  0.00     0.338 C 
ATOM     36  O   UNL A   1      44.616  20.605  23.420  1.00  0.00    -0.246 OA
BRANCH  35  37
ATOM     37  C   UNL A   1      44.605  22.351  25.123  1.00  0.00     0.060 A 
ATOM     38  C   UNL A   1      45.306  22.764  26.259  1.00  0.00     0.016 A 
ATOM     39  C   UNL A   1      43.610  23.206  24.622  1.00  0.00     0.016 A 
ATOM     40  C   UNL A   1      44.879  23.933  26.950  1.00  0.00     0.010 A 
ATOM     41  C   UNL A   1      43.172  24.348  25.338  1.00  0.00     0.010 A 
ATOM     42  C   UNL A   1      43.728  24.684  26.572  1.00  0.00    -0.014 A 
BRANCH  42  43
ATOM     43  C   UNL A   1      43.300  25.876  27.408  1.00  0.00     0.031 A 
ATOM     44  C   UNL A   1      44.331  26.943  27.388  1.00  0.00     0.074 A 
ATOM     45  C   UNL A   1      42.148  26.189  28.083  1.00  0.00     0.049 A 
ATOM     46  N   UNL A   1      44.988  27.418  28.396  1.00  0.00    -0.248 NA
ATOM     47  C   UNL A   1      44.788  27.413  26.070  1.00  0.00     0.031 C 
ATOM     48  C   UNL A   1      40.925  25.392  28.129  1.00  0.00     0.029 A 
ATOM     49  N   UNL A   1      41.777  27.309  28.843  1.00  0.00    -0.354 N 
ATOM     50  C   UNL A   1      45.786  28.413  27.850  1.00  0.00     0.074 A 
ATOM     51  C   UNL A   1      45.790  28.215  26.422  1.00  0.00     0.031 C 
ATOM     52  C   UNL A   1      39.908  26.116  28.653  1.00  0.00     0.029 A 
ATOM     53  C   UNL A   1      40.394  27.419  29.081  1.00  0.00     0.049 A 
ATOM     54  H   UNL A   1      42.429  27.964  29.181  1.00  0.00     0.167 HD
ATOM     55  C   UNL A   1      46.130  29.519  28.557  1.00  0.00     0.031 A 
ATOM     56  C   UNL A   1      39.637  28.446  29.581  1.00  0.00     0.031 A 
ATOM     57  C   UNL A   1      45.933  29.388  29.970  1.00  0.00     0.049 A 
ATOM     58  C   UNL A   1      40.474  29.366  30.372  1.00  0.00     0.074 A 
ATOM     59  C   UNL A   1      46.675  29.026  31.067  1.00  0.00     0.029 A 
ATOM     60  N   UNL A   1      44.636  29.496  30.382  1.00  0.00    -0.354 N 
ATOM     61  N   UNL A   1      40.900  29.092  31.570  1.00  0.00    -0.248 NA
ATOM     62  C   UNL A   1      41.071  30.536  29.738  1.00  0.00     0.031 C 
ATOM     63  C   UNL A   1      45.771  28.946  32.166  1.00  0.00     0.029 A 
ATOM     64  C   UNL A   1      44.493  29.276  31.729  1.00  0.00     0.049 A 
ATOM     65  H   UNL A   1      43.887  29.710  29.780  1.00  0.00     0.167 HD
ATOM     66  C   UNL A   1      42.103  29.755  31.651  1.00  0.00     0.074 A 
ATOM     67  C   UNL A   1      42.093  30.736  30.572  1.00  0.00     0.031 C 
ATOM     68  C   UNL A   1      43.161  29.200  32.305  1.00  0.00     0.031 A 
BRANCH  55  69
ATOM     69  C   UNL A   1      46.248  30.874  27.909  1.00  0.00    -0.014 A 
ATOM     70  C   UNL A   1      47.494  31.507  27.702  1.00  0.00     0.010 A 
ATOM     71  C   UNL A   1      45.131  31.438  27.267  1.00  0.00     0.010 A 
ATOM     72  C   UNL A   1      47.616  32.686  26.971  1.00  0.00     0.020 A 
ATOM     73  C   UNL A   1      45.249  32.600  26.491  1.00  0.00     0.020 A 
ATOM     74  C   UNL A   1      46.489  33.227  26.368  1.00  0.00     0.054 A 
BRANCH  74  75
ATOM     75  S   UNL A   1      46.698  34.729  25.384  1.00  0.00     0.124 S 
ATOM     76  O   UNL A   1      45.642  34.581  24.386  1.00  0.00    -0.237 OA
ATOM     77  O   UNL A   1      46.486  35.784  26.371  1.00  0.00    -0.237 OA
ATOM     78  O   UNL A   1      48.061  34.619  24.872  1.00  0.00    -0.744 OA
ENDBRANCH  74  75
ENDBRANCH  55  69
BRANCH  56  79
ATOM     79  C   UNL A   1      38.216  28.841  29.282  1.00  0.00    -0.014 A 
ATOM     80  C   UNL A   1      37.881  29.209  27.968  1.00  0.00     0.010 A 
ATOM     81  C   UNL A   1      37.300  29.204  30.305  1.00  0.00     0.010 A 
ATOM     82  C   UNL A   1      36.782  30.033  27.695  1.00  0.00     0.020 A 
ATOM     83  C   UNL A   1      36.188  30.033  30.037  1.00  0.00     0.020 A 
ATOM     84  C   UNL A   1      35.982  30.496  28.738  1.00  0.00     0.054 A 
BRANCH  84  85
ATOM     85  S   UNL A   1      34.797  31.827  28.370  1.00  0.00     0.124 S 
ATOM     86  O   UNL A   1      35.595  32.708  27.521  1.00  0.00    -0.237 OA
ATOM     87  O   UNL A   1      33.717  31.115  27.689  1.00  0.00    -0.237 OA
ATOM     88  O   UNL A   1      34.453  32.366  29.683  1.00  0.00    -0.744 OA
ENDBRANCH  84  85
ENDBRANCH  56  79
BRANCH  68  89
ATOM     89  C   UNL A   1      42.920  28.361  33.536  1.00  0.00    -0.014 A 
ATOM     90  C   UNL A   1      43.218  26.991  33.432  1.00  0.00     0.010 A 
ATOM     91  C   UNL A   1      42.369  28.818  34.749  1.00  0.00     0.010 A 
ATOM     92  C   UNL A   1      42.875  26.090  34.437  1.00  0.00     0.020 A 
ATOM     93  C   UNL A   1      42.073  27.924  35.795  1.00  0.00     0.020 A 
ATOM     94  C   UNL A   1      42.285  26.557  35.607  1.00  0.00     0.054 A 
BRANCH  94  95
ATOM     95  S   UNL A   1      41.649  25.303  36.758  1.00  0.00     0.124 S 
ATOM     96  O   UNL A   1      42.875  24.909  37.458  1.00  0.00    -0.237 OA
ATOM     97  O   UNL A   1      40.699  26.062  37.563  1.00  0.00    -0.237 OA
ATOM     98  O   UNL A   1      41.056  24.290  35.889  1.00  0.00    -0.744 OA
ENDBRANCH  94  95
ENDBRANCH  68  89
ENDBRANCH  42  43
ENDBRANCH  35  37
ENDBRANCH  34  35
ENDBRANCH  33  34
ENDBRANCH  32  33
ENDBRANCH  31  32
ENDBRANCH   1  31
TORSDOF 21
ENDMDL
MODEL 3
REMARK VINA RESULT:     -11.7      3.401     10.234
REMARK SMILES O=C(C[C@]12CSc3[nH]c(=O)sc3[C@H]1c1cc(Cl)ccc1OC2=O)OCCOCCOCCOC(=O)c1ccc(-c2c3nc(c(-c4ccc(S(=O)(=O)[O-])cc4)c4ccc([nH]4)c(-c4ccc(S(=O)(=O)[O-])cc4)c4nc(c(-c5ccc(S(=O)(=O)[O-])cc5)c5ccc2[nH]5)C=C4)C=C3)cc1
REMARK SMILES IDX 29 1 28 2 27 3 26 4 25 5 24 6 2 7 1 8 3 9 4 10 5 11 13 12
REMARK SMILES IDX 22 13 6 14 12 15 14 16 21 17 23 18 7 19 11 20 15 21 20 22
REMARK SMILES IDX 8 23 9 24 16 25 19 26 10 28 17 29 18 30 30 31 31 32 32 33
REMARK SMILES IDX 33 34 34 35 35 36 36 37 37 38 95 39 38 40 94 41 39 42 40 43
REMARK SMILES IDX 41 44 88 45 42 46 93 47 87 48 89 49 43 50 92 51 86 52 85 53
REMARK SMILES IDX 44 55 74 56 55 57 73 58 56 59 59 60 72 61 90 62 57 63 58 64
REMARK SMILES IDX 71 66 91 67 60 68 45 69 46 70 54 71 47 72 53 73 48 74 49 75
REMARK SMILES IDX 50 76 51 77 52 78 75 79 76 80 84 81 77 82 83 83 78 84 79 85
REMARK SMILES IDX 80 86 81 87 82 88 61 89 62 90 70 91 63 92 69 93 64 94 65 95
REMARK SMILES IDX 66 96 67 97 68 98
REMARK H PARENT 8 27 89 54 59 65
REMARK Flexibility Score: inf
ROOT
ATOM      1  C   UNL A   1      34.484  33.081  28.711  1.00  0.00     0.188 C 
ENDROOT
BRANCH   1   2
ATOM      2  C   UNL A   1      35.487  32.177  27.927  1.00  0.00     0.188 C 
BRANCH   2   3
ATOM      3  O   UNL A   1      34.994  30.915  27.498  1.00  0.00    -0.376 OA
BRANCH   3   4
ATOM      4  C   UNL A   1      33.649  30.853  27.017  1.00  0.00     0.202 C 
BRANCH   4   5
ATOM      5  C   UNL A   1      32.717  29.707  27.480  1.00  0.00     0.261 C 
BRANCH   5   6
ATOM      6  O   UNL A   1      33.300  28.410  27.386  1.00  0.00    -0.463 OA
BRANCH   6   7
ATOM      7  C   UNL A   1      32.480  27.426  27.000  1.00  0.00     0.307 C 
ATOM      8  O   UNL A   1      31.457  27.109  27.591  1.00  0.00    -0.252 OA
BRANCH   7   9
ATOM      9  C   UNL A   1      33.139  26.599  25.928  1.00  0.00     0.143 C 
BRANCH   9  10
ATOM     10  C   UNL A   1      32.969  26.932  24.417  1.00  0.00     0.100 C 
ATOM     11  C   UNL A   1      33.707  28.239  24.164  1.00  0.00     0.097 C 
ATOM     12  C   UNL A   1      31.409  27.083  24.169  1.00  0.00     0.085 C 
ATOM     13  C   UNL A   1      33.555  25.850  23.429  1.00  0.00     0.319 C 
ATOM     14  S   UNL A   1      33.465  28.729  22.451  1.00  0.00    -0.106 SA
ATOM     15  C   UNL A   1      30.962  28.068  23.146  1.00  0.00     0.049 A 
ATOM     16  C   UNL A   1      30.900  25.669  23.963  1.00  0.00     0.006 A 
ATOM     17  O   UNL A   1      32.682  25.393  22.450  1.00  0.00    -0.426 OA
ATOM     18  O   UNL A   1      34.719  25.469  23.395  1.00  0.00    -0.251 OA
ATOM     19  C   UNL A   1      31.781  28.855  22.449  1.00  0.00     0.090 A 
ATOM     20  S   UNL A   1      29.303  28.565  22.933  1.00  0.00    -0.077 S 
ATOM     21  C   UNL A   1      30.154  25.113  24.969  1.00  0.00     0.028 A 
ATOM     22  C   UNL A   1      31.639  24.819  23.146  1.00  0.00     0.134 A 
ATOM     23  N   UNL A   1      31.177  29.858  21.772  1.00  0.00    -0.307 N 
ATOM     24  C   UNL A   1      29.807  29.931  21.898  1.00  0.00     0.305 A 
ATOM     25  C   UNL A   1      30.572  23.858  25.371  1.00  0.00     0.041 A 
ATOM     26  C   UNL A   1      31.640  23.431  23.299  1.00  0.00     0.049 A 
ATOM     27  H   UNL A   1      31.684  30.498  21.223  1.00  0.00     0.171 HD
ATOM     28  O   UNL A   1      29.048  30.733  21.421  1.00  0.00    -0.257 OA
ATOM     29  Cl  UNL A   1      31.282  23.952  26.939  1.00  0.00    -0.084 Cl
ATOM     30  C   UNL A   1      31.139  22.940  24.491  1.00  0.00     0.024 A 
ENDBRANCH   9  10
ENDBRANCH   7   9
ENDBRANCH   6   7
ENDBRANCH   5   6
ENDBRANCH   4   5
ENDBRANCH   3   4
ENDBRANCH   2   3
ENDBRANCH   1   2
BRANCH   1  31
ATOM     31  O   UNL A   1      34.388  34.478  28.425  1.00  0.00    -0.376 OA
BRANCH  31  32
ATOM     32  C   UNL A   1      33.149  35.140  28.718  1.00  0.00     0.202 C 
BRANCH  32  33
ATOM     33  C   UNL A   1      32.928  35.708  30.168  1.00  0.00     0.261 C 
BRANCH  33  34
ATOM     34  O   UNL A   1      33.390  34.779  31.179  1.00  0.00    -0.460 OA
BRANCH  34  35
ATOM     35  C   UNL A   1      33.882  35.065  32.409  1.00  0.00     0.338 C 
ATOM     36  O   UNL A   1      33.383  35.789  33.247  1.00  0.00    -0.246 OA
BRANCH  35  37
ATOM     37  C   UNL A   1      35.075  34.154  32.602  1.00  0.00     0.060 A 
ATOM     38  C   UNL A   1      36.390  34.608  32.733  1.00  0.00     0.016 A 
ATOM     39  C   UNL A   1      34.878  32.788  32.345  1.00  0.00     0.016 A 
ATOM     40  C   UNL A   1      37.463  33.720  32.438  1.00  0.00     0.010 A 
ATOM     41  C   UNL A   1      35.953  31.923  32.020  1.00  0.00     0.010 A 
ATOM     42  C   UNL A   1      37.265  32.392  31.960  1.00  0.00    -0.014 A 
BRANCH  42  43
ATOM     43  C   UNL A   1      38.465  31.537  31.600  1.00  0.00     0.031 A 
ATOM     44  C   UNL A   1      39.368  31.362  32.764  1.00  0.00     0.074 A 
ATOM     45  C   UNL A   1      38.823  30.841  30.474  1.00  0.00     0.049 A 
ATOM     46  N   UNL A   1      40.603  31.735  32.862  1.00  0.00    -0.248 NA
ATOM     47  C   UNL A   1      38.770  30.859  34.011  1.00  0.00     0.031 C 
ATOM     48  C   UNL A   1      38.039  30.711  29.248  1.00  0.00     0.029 A 
ATOM     49  N   UNL A   1      39.940  30.046  30.172  1.00  0.00    -0.354 N 
ATOM     50  C   UNL A   1      40.996  31.303  34.120  1.00  0.00     0.074 A 
ATOM     51  C   UNL A   1      39.794  30.984  34.851  1.00  0.00     0.031 C 
ATOM     52  C   UNL A   1      38.560  29.745  28.454  1.00  0.00     0.029 A 
ATOM     53  C   UNL A   1      39.780  29.219  29.045  1.00  0.00     0.049 A 
ATOM     54  H   UNL A   1      40.767  30.065  30.706  1.00  0.00     0.167 HD
ATOM     55  C   UNL A   1      42.273  30.928  34.379  1.00  0.00     0.031 A 
ATOM     56  C   UNL A   1      40.533  28.178  28.568  1.00  0.00     0.031 A 
ATOM     57  C   UNL A   1      43.217  31.368  33.395  1.00  0.00     0.049 A 
ATOM     58  C   UNL A   1      41.912  28.261  29.081  1.00  0.00     0.074 A 
ATOM     59  C   UNL A   1      44.061  32.435  33.206  1.00  0.00     0.029 A 
ATOM     60  N   UNL A   1      43.214  30.650  32.233  1.00  0.00    -0.354 N 
ATOM     61  N   UNL A   1      42.791  29.107  28.632  1.00  0.00    -0.248 NA
ATOM     62  C   UNL A   1      42.280  27.552  30.302  1.00  0.00     0.031 C 
ATOM     63  C   UNL A   1      44.588  32.313  31.887  1.00  0.00     0.029 A 
ATOM     64  C   UNL A   1      44.071  31.167  31.295  1.00  0.00     0.049 A 
ATOM     65  H   UNL A   1      42.659  29.850  32.087  1.00  0.00     0.167 HD
ATOM     66  C   UNL A   1      43.588  29.366  29.723  1.00  0.00     0.074 A 
ATOM     67  C   UNL A   1      43.330  28.287  30.671  1.00  0.00     0.031 C 
ATOM     68  C   UNL A   1      44.076  30.616  29.950  1.00  0.00     0.031 A 
BRANCH  55  69
ATOM     69  C   UNL A   1      42.597  29.793  35.315  1.00  0.00    -0.014 A 
ATOM     70  C   UNL A   1      41.856  28.590  35.330  1.00  0.00     0.010 A 
ATOM     71  C   UNL A   1      43.806  29.806  36.033  1.00  0.00     0.010 A 
ATOM     72  C   UNL A   1      42.245  27.487  36.085  1.00  0.00     0.020 A 
ATOM     73  C   UNL A   1      44.231  28.686  36.762  1.00  0.00     0.020 A 
ATOM     74  C   UNL A   1      43.434  27.542  36.799  1.00  0.00     0.054 A 
BRANCH  74  75
ATOM     75  S   UNL A   1      43.931  26.070  37.725  1.00  0.00     0.124 S 
ATOM     76  O   UNL A   1      45.269  25.822  37.193  1.00  0.00    -0.237 OA
ATOM     77  O   UNL A   1      43.881  26.537  39.107  1.00  0.00    -0.237 OA
ATOM     78  O   UNL A   1      42.921  25.078  37.364  1.00  0.00    -0.744 OA
ENDBRANCH  74  75
ENDBRANCH  55  69
BRANCH  56  79
ATOM     79  C   UNL A   1      40.117  26.944  27.814  1.00  0.00    -0.014 A 
ATOM     80  C   UNL A   1      39.312  25.995  28.467  1.00  0.00     0.010 A 
ATOM     81  C   UNL A   1      40.777  26.521  26.630  1.00  0.00     0.010 A 
ATOM     82  C   UNL A   1      39.288  24.654  28.065  1.00  0.00     0.020 A 
ATOM     83  C   UNL A   1      40.756  25.171  26.217  1.00  0.00     0.020 A 
ATOM     84  C   UNL A   1      40.063  24.236  26.985  1.00  0.00     0.054 A 
BRANCH  84  85
ATOM     85  S   UNL A   1      40.264  22.446  26.728  1.00  0.00     0.124 S 
ATOM     86  O   UNL A   1      38.973  22.082  26.149  1.00  0.00    -0.237 OA
ATOM     87  O   UNL A   1      41.400  22.380  25.811  1.00  0.00    -0.237 OA
ATOM     88  O   UNL A   1      40.518  21.923  28.068  1.00  0.00    -0.744 OA
ENDBRANCH  84  85
ENDBRANCH  56  79
BRANCH  68  89
ATOM     89  C   UNL A   1      44.458  31.491  28.780  1.00  0.00    -0.014 A 
ATOM     90  C   UNL A   1      43.773  32.712  28.656  1.00  0.00     0.010 A 
ATOM     91  C   UNL A   1      45.392  31.163  27.778  1.00  0.00     0.010 A 
ATOM     92  C   UNL A   1      43.912  33.517  27.529  1.00  0.00     0.020 A 
ATOM     93  C   UNL A   1      45.585  31.999  26.663  1.00  0.00     0.020 A 
ATOM     94  C   UNL A   1      44.803  33.148  26.526  1.00  0.00     0.054 A 
BRANCH  94  95
ATOM     95  S   UNL A   1      44.750  34.115  24.989  1.00  0.00     0.124 S 
ATOM     96  O   UNL A   1      44.419  33.077  24.008  1.00  0.00    -0.237 OA
ATOM     97  O   UNL A   1      43.683  35.074  25.252  1.00  0.00    -0.237 OA
ATOM     98  O   UNL A   1      46.089  34.690  24.883  1.00  0.00    -0.744 OA
ENDBRANCH  94  95
ENDBRANCH  68  89
ENDBRANCH  42  43
ENDBRANCH  35  37
ENDBRANCH  34  35
ENDBRANCH  33  34
ENDBRANCH  32  33
ENDBRANCH  31  32
ENDBRANCH   1  31
TORSDOF 21
ENDMDL
