MODEL 1
REMARK VINA RESULT:     -10.2      0.000      0.000
REMARK SMILES [NH3+]Cc1c(-c2ccccc2)c(C(=O)OCCOCCOCCOC(=O)c2ccc(-c3c4nc(c(-c5ccc(S(=O)(=O)[O-])cc5)c5ccc([nH]5)c(-c5ccc(S(=O)(=O)[O-])cc5)c5nc(c(-c6ccc(S(=O)(=O)[O-])cc6)c6ccc3[nH]6)C=C5)C=C4)cc2)c2ccccn12
REMARK SMILES IDX 19 1 18 2 17 3 16 4 15 5 14 6 12 7 13 8 11 9 3 10 4 11 91 12
REMARK SMILES IDX 86 13 90 14 87 15 89 16 88 17 2 18 1 19 5 23 6 24 10 25 7 26
REMARK SMILES IDX 9 27 8 28 20 29 21 30 22 31 23 32 24 33 25 34 26 35 27 36
REMARK SMILES IDX 85 37 28 38 84 39 29 40 30 41 31 42 78 43 32 44 83 45 77 46
REMARK SMILES IDX 79 47 33 48 82 49 76 50 75 51 34 53 64 54 45 55 63 56 46 57
REMARK SMILES IDX 49 58 62 59 80 60 47 61 48 62 61 64 81 65 50 66 35 67 36 68
REMARK SMILES IDX 44 69 37 70 43 71 38 72 39 73 40 74 41 75 42 76 65 77 66 78
REMARK SMILES IDX 74 79 67 80 73 81 68 82 69 83 70 84 71 85 72 86 51 87 52 88
REMARK SMILES IDX 60 89 53 90 59 91 54 92 55 93 56 94 57 95 58 96
REMARK H PARENT 1 20 1 21 1 22 79 52 49 63
REMARK Flexibility Score: inf
ROOT
ATOM      1  C   UNL A   1      40.375  21.575  26.563  1.00  0.00     0.188 C 
ENDROOT
BRANCH   1   2
ATOM      2  C   UNL A   1      38.923  21.833  26.126  1.00  0.00     0.188 C 
BRANCH   2   3
ATOM      3  O   UNL A   1      38.682  23.178  25.717  1.00  0.00    -0.376 OA
BRANCH   3   4
ATOM      4  C   UNL A   1      37.305  23.544  25.651  1.00  0.00     0.202 C 
BRANCH   4   5
ATOM      5  C   UNL A   1      36.411  22.305  25.666  1.00  0.00     0.261 C 
BRANCH   5   6
ATOM      6  O   UNL A   1      35.885  21.963  24.375  1.00  0.00    -0.460 OA
BRANCH   6   7
ATOM      7  C   UNL A   1      35.110  22.899  23.759  1.00  0.00     0.341 C 
ATOM      8  O   UNL A   1      35.385  23.384  22.669  1.00  0.00    -0.246 OA
BRANCH   7   9
ATOM      9  C   UNL A   1      33.889  23.196  24.507  1.00  0.00     0.093 A 
ATOM     10  C   UNL A   1      31.846  22.958  25.536  1.00  0.00     0.086 A 
ATOM     11  C   UNL A   1      32.826  22.284  24.812  1.00  0.00     0.024 A 
ATOM     12  N   UNL A   1      32.269  24.280  25.659  1.00  0.00    -0.314 N 
ATOM     13  C   UNL A   1      33.540  24.404  25.092  1.00  0.00     0.061 A 
ATOM     14  C   UNL A   1      31.612  25.374  26.242  1.00  0.00     0.092 A 
ATOM     15  C   UNL A   1      34.187  25.676  25.195  1.00  0.00     0.027 A 
ATOM     16  C   UNL A   1      32.214  26.573  26.304  1.00  0.00     0.018 A 
ATOM     17  C   UNL A   1      33.556  26.710  25.779  1.00  0.00     0.004 A 
BRANCH  10  18
ATOM     18  C   UNL A   1      30.540  22.481  26.095  1.00  0.00     0.315 C 
BRANCH  18  19
ATOM     19  N   UNL A   1      30.380  22.832  27.497  1.00  0.00    -0.353 N 
ATOM     20  H   UNL A   1      29.387  22.908  27.716  1.00  0.00     0.344 HD
ATOM     21  H   UNL A   1      30.838  23.725  27.678  1.00  0.00     0.344 HD
ATOM     22  H   UNL A   1      30.801  22.109  28.078  1.00  0.00     0.344 HD
ENDBRANCH  18  19
ENDBRANCH  10  18
BRANCH  11  23
ATOM     23  C   UNL A   1      32.813  20.858  24.535  1.00  0.00    -0.015 A 
ATOM     24  C   UNL A   1      32.465  20.426  23.249  1.00  0.00     0.009 A 
ATOM     25  C   UNL A   1      33.053  19.916  25.537  1.00  0.00     0.009 A 
ATOM     26  C   UNL A   1      32.258  19.073  22.992  1.00  0.00     0.001 A 
ATOM     27  C   UNL A   1      32.906  18.555  25.259  1.00  0.00     0.001 A 
ATOM     28  C   UNL A   1      32.486  18.137  23.996  1.00  0.00     0.000 A 
ENDBRANCH  11  23
ENDBRANCH   7   9
ENDBRANCH   6   7
ENDBRANCH   5   6
ENDBRANCH   4   5
ENDBRANCH   3   4
ENDBRANCH   2   3
ENDBRANCH   1   2
BRANCH   1  29
ATOM     29  O   UNL A   1      40.967  22.335  27.616  1.00  0.00    -0.376 OA
BRANCH  29  30
ATOM     30  C   UNL A   1      42.209  22.978  27.392  1.00  0.00     0.202 C 
BRANCH  30  31
ATOM     31  C   UNL A   1      42.145  24.341  26.698  1.00  0.00     0.261 C 
BRANCH  31  32
ATOM     32  O   UNL A   1      40.882  25.008  26.835  1.00  0.00    -0.460 OA
BRANCH  32  33
ATOM     33  C   UNL A   1      40.905  26.320  26.490  1.00  0.00     0.338 C 
ATOM     34  O   UNL A   1      41.162  26.782  25.390  1.00  0.00    -0.246 OA
BRANCH  33  35
ATOM     35  C   UNL A   1      40.472  27.163  27.627  1.00  0.00     0.060 A 
ATOM     36  C   UNL A   1      41.060  28.427  27.757  1.00  0.00     0.016 A 
ATOM     37  C   UNL A   1      39.584  26.698  28.604  1.00  0.00     0.016 A 
ATOM     38  C   UNL A   1      40.819  29.200  28.893  1.00  0.00     0.010 A 
ATOM     39  C   UNL A   1      39.351  27.470  29.749  1.00  0.00     0.010 A 
ATOM     40  C   UNL A   1      40.005  28.702  29.920  1.00  0.00    -0.014 A 
BRANCH  40  41
ATOM     41  C   UNL A   1      40.003  29.395  31.235  1.00  0.00     0.031 A 
ATOM     42  C   UNL A   1      41.093  29.082  32.219  1.00  0.00     0.074 A 
ATOM     43  C   UNL A   1      39.088  30.333  31.534  1.00  0.00     0.049 A 
ATOM     44  N   UNL A   1      41.349  29.648  33.369  1.00  0.00    -0.248 NA
ATOM     45  C   UNL A   1      42.018  27.997  31.856  1.00  0.00     0.031 C 
ATOM     46  C   UNL A   1      38.004  30.745  30.655  1.00  0.00     0.029 A 
ATOM     47  N   UNL A   1      38.929  31.114  32.650  1.00  0.00    -0.354 N 
ATOM     48  C   UNL A   1      42.480  29.008  33.857  1.00  0.00     0.074 A 
ATOM     49  C   UNL A   1      42.831  27.980  32.901  1.00  0.00     0.031 C 
ATOM     50  C   UNL A   1      37.281  31.702  31.258  1.00  0.00     0.029 A 
ATOM     51  C   UNL A   1      37.853  31.969  32.574  1.00  0.00     0.049 A 
ATOM     52  H   UNL A   1      39.526  31.069  33.430  1.00  0.00     0.167 HD
ATOM     53  C   UNL A   1      43.175  29.265  34.991  1.00  0.00     0.031 A 
ATOM     54  C   UNL A   1      37.387  32.872  33.457  1.00  0.00     0.031 A 
ATOM     55  C   UNL A   1      42.805  30.258  35.961  1.00  0.00     0.049 A 
ATOM     56  C   UNL A   1      38.135  33.091  34.744  1.00  0.00     0.074 A 
ATOM     57  C   UNL A   1      43.446  30.589  37.142  1.00  0.00     0.029 A 
ATOM     58  N   UNL A   1      41.687  31.074  35.873  1.00  0.00    -0.354 N 
ATOM     59  N   UNL A   1      39.233  32.511  35.166  1.00  0.00    -0.248 NA
ATOM     60  C   UNL A   1      37.597  34.106  35.660  1.00  0.00     0.031 C 
ATOM     61  C   UNL A   1      42.690  31.573  37.791  1.00  0.00     0.029 A 
ATOM     62  C   UNL A   1      41.605  31.890  36.988  1.00  0.00     0.049 A 
ATOM     63  H   UNL A   1      41.046  31.072  35.126  1.00  0.00     0.167 HD
ATOM     64  C   UNL A   1      39.534  33.111  36.383  1.00  0.00     0.074 A 
ATOM     65  C   UNL A   1      38.508  34.106  36.623  1.00  0.00     0.031 C 
ATOM     66  C   UNL A   1      40.573  32.867  37.221  1.00  0.00     0.031 A 
BRANCH  53  67
ATOM     67  C   UNL A   1      44.394  28.423  35.241  1.00  0.00    -0.014 A 
ATOM     68  C   UNL A   1      44.311  27.246  36.009  1.00  0.00     0.010 A 
ATOM     69  C   UNL A   1      45.635  28.812  34.709  1.00  0.00     0.010 A 
ATOM     70  C   UNL A   1      45.459  26.497  36.277  1.00  0.00     0.020 A 
ATOM     71  C   UNL A   1      46.781  28.052  34.957  1.00  0.00     0.020 A 
ATOM     72  C   UNL A   1      46.689  26.910  35.756  1.00  0.00     0.054 A 
BRANCH  72  73
ATOM     73  S   UNL A   1      48.166  25.923  36.118  1.00  0.00     0.124 S 
ATOM     74  O   UNL A   1      48.198  25.002  34.984  1.00  0.00    -0.237 OA
ATOM     75  O   UNL A   1      49.228  26.926  36.142  1.00  0.00    -0.237 OA
ATOM     76  O   UNL A   1      47.865  25.310  37.409  1.00  0.00    -0.744 OA
ENDBRANCH  72  73
ENDBRANCH  53  67
BRANCH  54  77
ATOM     77  C   UNL A   1      36.154  33.647  33.151  1.00  0.00    -0.014 A 
ATOM     78  C   UNL A   1      36.227  34.889  32.497  1.00  0.00     0.010 A 
ATOM     79  C   UNL A   1      34.895  33.141  33.520  1.00  0.00     0.010 A 
ATOM     80  C   UNL A   1      35.065  35.621  32.235  1.00  0.00     0.020 A 
ATOM     81  C   UNL A   1      33.728  33.858  33.239  1.00  0.00     0.020 A 
ATOM     82  C   UNL A   1      33.822  35.100  32.609  1.00  0.00     0.054 A 
BRANCH  82  83
ATOM     83  S   UNL A   1      32.320  36.041  32.216  1.00  0.00     0.124 S 
ATOM     84  O   UNL A   1      32.461  36.251  30.779  1.00  0.00    -0.237 OA
ATOM     85  O   UNL A   1      31.257  35.124  32.622  1.00  0.00    -0.237 OA
ATOM     86  O   UNL A   1      32.445  37.240  33.041  1.00  0.00    -0.744 OA
ENDBRANCH  82  83
ENDBRANCH  54  77
BRANCH  66  87
ATOM     87  C   UNL A   1      40.662  33.711  38.463  1.00  0.00    -0.014 A 
ATOM     88  C   UNL A   1      40.057  33.306  39.666  1.00  0.00     0.010 A 
ATOM     89  C   UNL A   1      41.379  34.921  38.430  1.00  0.00     0.010 A 
ATOM     90  C   UNL A   1      40.129  34.118  40.801  1.00  0.00     0.020 A 
ATOM     91  C   UNL A   1      41.475  35.723  39.569  1.00  0.00     0.020 A 
ATOM     92  C   UNL A   1      40.831  35.325  40.743  1.00  0.00     0.054 A 
BRANCH  92  93
ATOM     93  S   UNL A   1      40.926  36.358  42.230  1.00  0.00     0.124 S 
ATOM     94  O   UNL A   1      42.359  36.623  42.324  1.00  0.00    -0.237 OA
ATOM     95  O   UNL A   1      40.096  37.508  41.882  1.00  0.00    -0.237 OA
ATOM     96  O   UNL A   1      40.381  35.501  43.281  1.00  0.00    -0.744 OA
ENDBRANCH  92  93
ENDBRANCH  66  87
ENDBRANCH  40  41
ENDBRANCH  33  35
ENDBRANCH  32  33
ENDBRANCH  31  32
ENDBRANCH  30  31
ENDBRANCH  29  30
ENDBRANCH   1  29
TORSDOF 23
ENDMDL
MODEL 2
REMARK VINA RESULT:     -10.0      1.803      8.529
REMARK SMILES [NH3+]Cc1c(-c2ccccc2)c(C(=O)OCCOCCOCCOC(=O)c2ccc(-c3c4nc(c(-c5ccc(S(=O)(=O)[O-])cc5)c5ccc([nH]5)c(-c5ccc(S(=O)(=O)[O-])cc5)c5nc(c(-c6ccc(S(=O)(=O)[O-])cc6)c6ccc3[nH]6)C=C5)C=C4)cc2)c2ccccn12
REMARK SMILES IDX 19 1 18 2 17 3 16 4 15 5 14 6 12 7 13 8 11 9 3 10 4 11 91 12
REMARK SMILES IDX 86 13 90 14 87 15 89 16 88 17 2 18 1 19 5 23 6 24 10 25 7 26
REMARK SMILES IDX 9 27 8 28 20 29 21 30 22 31 23 32 24 33 25 34 26 35 27 36
REMARK SMILES IDX 85 37 28 38 84 39 29 40 30 41 31 42 78 43 32 44 83 45 77 46
REMARK SMILES IDX 79 47 33 48 82 49 76 50 75 51 34 53 64 54 45 55 63 56 46 57
REMARK SMILES IDX 49 58 62 59 80 60 47 61 48 62 61 64 81 65 50 66 35 67 36 68
REMARK SMILES IDX 44 69 37 70 43 71 38 72 39 73 40 74 41 75 42 76 65 77 66 78
REMARK SMILES IDX 74 79 67 80 73 81 68 82 69 83 70 84 71 85 72 86 51 87 52 88
REMARK SMILES IDX 60 89 53 90 59 91 54 92 55 93 56 94 57 95 58 96
REMARK H PARENT 1 20 1 21 1 22 79 52 49 63
REMARK Flexibility Score: inf
ROOT
ATOM      1  C   UNL A   1      36.881  21.822  24.741  1.00  0.00     0.188 C 
ENDROOT
BRANCH   1   2
ATOM      2  C   UNL A   1      35.595  22.397  25.360  1.00  0.00     0.188 C 
BRANCH   2   3
ATOM      3  O   UNL A   1      35.061  21.593  26.411  1.00  0.00    -0.376 OA
BRANCH   3   4
ATOM      4  C   UNL A   1      34.742  22.307  27.604  1.00  0.00     0.202 C 
BRANCH   4   5
ATOM      5  C   UNL A   1      33.275  22.105  27.984  1.00  0.00     0.261 C 
BRANCH   5   6
ATOM      6  O   UNL A   1      32.489  23.302  27.885  1.00  0.00    -0.460 OA
BRANCH   6   7
ATOM      7  C   UNL A   1      31.433  23.275  27.025  1.00  0.00     0.341 C 
ATOM      8  O   UNL A   1      30.270  23.168  27.395  1.00  0.00    -0.246 OA
BRANCH   7   9
ATOM      9  C   UNL A   1      31.839  23.462  25.632  1.00  0.00     0.093 A 
ATOM     10  C   UNL A   1      32.489  24.453  23.662  1.00  0.00     0.086 A 
ATOM     11  C   UNL A   1      32.154  24.703  24.990  1.00  0.00     0.024 A 
ATOM     12  N   UNL A   1      32.358  23.080  23.462  1.00  0.00    -0.314 N 
ATOM     13  C   UNL A   1      32.029  22.475  24.678  1.00  0.00     0.061 A 
ATOM     14  C   UNL A   1      32.517  22.332  22.285  1.00  0.00     0.092 A 
ATOM     15  C   UNL A   1      31.934  21.047  24.698  1.00  0.00     0.027 A 
ATOM     16  C   UNL A   1      32.392  20.996  22.308  1.00  0.00     0.018 A 
ATOM     17  C   UNL A   1      32.113  20.341  23.568  1.00  0.00     0.004 A 
BRANCH  10  18
ATOM     18  C   UNL A   1      32.891  25.386  22.561  1.00  0.00     0.315 C 
BRANCH  18  19
ATOM     19  N   UNL A   1      31.804  25.640  21.629  1.00  0.00    -0.353 N 
ATOM     20  H   UNL A   1      30.937  25.775  22.148  1.00  0.00     0.344 HD
ATOM     21  H   UNL A   1      31.704  24.845  20.999  1.00  0.00     0.344 HD
ATOM     22  H   UNL A   1      32.009  26.480  21.089  1.00  0.00     0.344 HD
ENDBRANCH  18  19
ENDBRANCH  10  18
BRANCH  11  23
ATOM     23  C   UNL A   1      32.242  26.004  25.631  1.00  0.00    -0.015 A 
ATOM     24  C   UNL A   1      33.505  26.582  25.808  1.00  0.00     0.009 A 
ATOM     25  C   UNL A   1      31.113  26.642  26.148  1.00  0.00     0.009 A 
ATOM     26  C   UNL A   1      33.651  27.732  26.580  1.00  0.00     0.001 A 
ATOM     27  C   UNL A   1      31.257  27.830  26.868  1.00  0.00     0.001 A 
ATOM     28  C   UNL A   1      32.525  28.360  27.104  1.00  0.00     0.000 A 
ENDBRANCH  11  23
ENDBRANCH   7   9
ENDBRANCH   6   7
ENDBRANCH   5   6
ENDBRANCH   4   5
ENDBRANCH   3   4
ENDBRANCH   2   3
ENDBRANCH   1   2
BRANCH   1  29
ATOM     29  O   UNL A   1      38.162  22.328  25.117  1.00  0.00    -0.376 OA
BRANCH  29  30
ATOM     30  C   UNL A   1      38.964  21.581  26.013  1.00  0.00     0.202 C 
BRANCH  30  31
ATOM     31  C   UNL A   1      39.897  22.391  26.917  1.00  0.00     0.261 C 
BRANCH  31  32
ATOM     32  O   UNL A   1      39.739  23.812  26.796  1.00  0.00    -0.460 OA
BRANCH  32  33
ATOM     33  C   UNL A   1      40.872  24.521  27.030  1.00  0.00     0.338 C 
ATOM     34  O   UNL A   1      41.981  24.298  26.573  1.00  0.00    -0.246 OA
BRANCH  33  35
ATOM     35  C   UNL A   1      40.579  25.706  27.869  1.00  0.00     0.060 A 
ATOM     36  C   UNL A   1      41.521  26.741  27.878  1.00  0.00     0.016 A 
ATOM     37  C   UNL A   1      39.458  25.767  28.705  1.00  0.00     0.016 A 
ATOM     38  C   UNL A   1      41.385  27.805  28.769  1.00  0.00     0.010 A 
ATOM     39  C   UNL A   1      39.328  26.831  29.607  1.00  0.00     0.010 A 
ATOM     40  C   UNL A   1      40.316  27.829  29.675  1.00  0.00    -0.014 A 
BRANCH  40  41
ATOM     41  C   UNL A   1      40.352  28.795  30.804  1.00  0.00     0.031 A 
ATOM     42  C   UNL A   1      39.384  29.943  30.804  1.00  0.00     0.074 A 
ATOM     43  C   UNL A   1      41.185  28.631  31.846  1.00  0.00     0.049 A 
ATOM     44  N   UNL A   1      39.163  30.832  31.737  1.00  0.00    -0.248 NA
ATOM     45  C   UNL A   1      38.550  30.103  29.602  1.00  0.00     0.031 C 
ATOM     46  C   UNL A   1      42.146  27.545  31.975  1.00  0.00     0.029 A 
ATOM     47  N   UNL A   1      41.352  29.363  32.993  1.00  0.00    -0.354 N 
ATOM     48  C   UNL A   1      38.148  31.643  31.247  1.00  0.00     0.074 A 
ATOM     49  C   UNL A   1      37.830  31.169  29.917  1.00  0.00     0.031 C 
ATOM     50  C   UNL A   1      42.812  27.677  33.134  1.00  0.00     0.029 A 
ATOM     51  C   UNL A   1      42.322  28.863  33.829  1.00  0.00     0.049 A 
ATOM     52  H   UNL A   1      40.827  30.170  33.198  1.00  0.00     0.167 HD
ATOM     53  C   UNL A   1      37.524  32.678  31.857  1.00  0.00     0.031 A 
ATOM     54  C   UNL A   1      42.762  29.302  35.024  1.00  0.00     0.031 A 
ATOM     55  C   UNL A   1      37.865  33.177  33.162  1.00  0.00     0.049 A 
ATOM     56  C   UNL A   1      42.101  30.498  35.652  1.00  0.00     0.074 A 
ATOM     57  C   UNL A   1      37.290  34.223  33.861  1.00  0.00     0.029 A 
ATOM     58  N   UNL A   1      38.881  32.674  33.960  1.00  0.00    -0.354 N 
ATOM     59  N   UNL A   1      41.107  31.223  35.196  1.00  0.00    -0.248 NA
ATOM     60  C   UNL A   1      42.602  30.919  36.968  1.00  0.00     0.031 C 
ATOM     61  C   UNL A   1      37.990  34.382  35.064  1.00  0.00     0.029 A 
ATOM     62  C   UNL A   1      38.967  33.403  35.134  1.00  0.00     0.049 A 
ATOM     63  H   UNL A   1      39.456  31.910  33.726  1.00  0.00     0.167 HD
ATOM     64  C   UNL A   1      40.844  32.166  36.182  1.00  0.00     0.074 A 
ATOM     65  C   UNL A   1      41.777  31.914  37.262  1.00  0.00     0.031 C 
ATOM     66  C   UNL A   1      39.907  33.148  36.196  1.00  0.00     0.031 A 
BRANCH  53  67
ATOM     67  C   UNL A   1      36.424  33.352  31.087  1.00  0.00    -0.014 A 
ATOM     68  C   UNL A   1      36.697  34.031  29.885  1.00  0.00     0.010 A 
ATOM     69  C   UNL A   1      35.105  33.311  31.570  1.00  0.00     0.010 A 
ATOM     70  C   UNL A   1      35.676  34.696  29.203  1.00  0.00     0.020 A 
ATOM     71  C   UNL A   1      34.077  33.957  30.877  1.00  0.00     0.020 A 
ATOM     72  C   UNL A   1      34.373  34.661  29.709  1.00  0.00     0.054 A 
BRANCH  72  73
ATOM     73  S   UNL A   1      33.063  35.533  28.807  1.00  0.00     0.124 S 
ATOM     74  O   UNL A   1      32.441  34.445  28.055  1.00  0.00    -0.237 OA
ATOM     75  O   UNL A   1      32.251  36.098  29.882  1.00  0.00    -0.237 OA
ATOM     76  O   UNL A   1      33.790  36.511  28.001  1.00  0.00    -0.744 OA
ENDBRANCH  72  73
ENDBRANCH  53  67
BRANCH  54  77
ATOM     77  C   UNL A   1      43.878  28.600  35.713  1.00  0.00    -0.014 A 
ATOM     78  C   UNL A   1      45.205  29.041  35.570  1.00  0.00     0.010 A 
ATOM     79  C   UNL A   1      43.614  27.476  36.516  1.00  0.00     0.010 A 
ATOM     80  C   UNL A   1      46.250  28.360  36.202  1.00  0.00     0.020 A 
ATOM     81  C   UNL A   1      44.653  26.806  37.169  1.00  0.00     0.020 A 
ATOM     82  C   UNL A   1      45.967  27.245  36.997  1.00  0.00     0.054 A 
BRANCH  82  83
ATOM     83  S   UNL A   1      47.330  26.404  37.850  1.00  0.00     0.124 S 
ATOM     84  O   UNL A   1      47.180  26.890  39.217  1.00  0.00    -0.237 OA
ATOM     85  O   UNL A   1      47.012  24.993  37.639  1.00  0.00    -0.237 OA
ATOM     86  O   UNL A   1      48.517  26.878  37.142  1.00  0.00    -0.744 OA
ENDBRANCH  82  83
ENDBRANCH  54  77
BRANCH  66  87
ATOM     87  C   UNL A   1      39.831  34.004  37.431  1.00  0.00    -0.014 A 
ATOM     88  C   UNL A   1      40.659  35.129  37.592  1.00  0.00     0.010 A 
ATOM     89  C   UNL A   1      38.902  33.686  38.438  1.00  0.00     0.010 A 
ATOM     90  C   UNL A   1      40.591  35.894  38.759  1.00  0.00     0.020 A 
ATOM     91  C   UNL A   1      38.813  34.463  39.595  1.00  0.00     0.020 A 
ATOM     92  C   UNL A   1      39.673  35.552  39.757  1.00  0.00     0.054 A 
BRANCH  92  93
ATOM     93  S   UNL A   1      39.589  36.566  41.258  1.00  0.00     0.124 S 
ATOM     94  O   UNL A   1      38.955  37.785  40.764  1.00  0.00    -0.237 OA
ATOM     95  O   UNL A   1      38.773  35.753  42.155  1.00  0.00    -0.237 OA
ATOM     96  O   UNL A   1      40.987  36.709  41.657  1.00  0.00    -0.744 OA
ENDBRANCH  92  93
ENDBRANCH  66  87
ENDBRANCH  40  41
ENDBRANCH  33  35
ENDBRANCH  32  33
ENDBRANCH  31  32
ENDBRANCH  30  31
ENDBRANCH  29  30
ENDBRANCH   1  29
TORSDOF 23
ENDMDL
MODEL 3
REMARK VINA RESULT:      -9.7      1.210      2.926
REMARK SMILES [NH3+]Cc1c(-c2ccccc2)c(C(=O)OCCOCCOCCOC(=O)c2ccc(-c3c4nc(c(-c5ccc(S(=O)(=O)[O-])cc5)c5ccc([nH]5)c(-c5ccc(S(=O)(=O)[O-])cc5)c5nc(c(-c6ccc(S(=O)(=O)[O-])cc6)c6ccc3[nH]6)C=C5)C=C4)cc2)c2ccccn12
REMARK SMILES IDX 19 1 18 2 17 3 16 4 15 5 14 6 12 7 13 8 11 9 3 10 4 11 91 12
REMARK SMILES IDX 86 13 90 14 87 15 89 16 88 17 2 18 1 19 5 23 6 24 10 25 7 26
REMARK SMILES IDX 9 27 8 28 20 29 21 30 22 31 23 32 24 33 25 34 26 35 27 36
REMARK SMILES IDX 85 37 28 38 84 39 29 40 30 41 31 42 78 43 32 44 83 45 77 46
REMARK SMILES IDX 79 47 33 48 82 49 76 50 75 51 34 53 64 54 45 55 63 56 46 57
REMARK SMILES IDX 49 58 62 59 80 60 47 61 48 62 61 64 81 65 50 66 35 67 36 68
REMARK SMILES IDX 44 69 37 70 43 71 38 72 39 73 40 74 41 75 42 76 65 77 66 78
REMARK SMILES IDX 74 79 67 80 73 81 68 82 69 83 70 84 71 85 72 86 51 87 52 88
REMARK SMILES IDX 60 89 53 90 59 91 54 92 55 93 56 94 57 95 58 96
REMARK H PARENT 1 20 1 21 1 22 79 52 49 63
REMARK Flexibility Score: inf
ROOT
ATOM      1  C   UNL A   1      38.457  21.866  25.901  1.00  0.00     0.188 C 
ENDROOT
BRANCH   1   2
ATOM      2  C   UNL A   1      37.221  21.656  25.010  1.00  0.00     0.188 C 
BRANCH   2   3
ATOM      3  O   UNL A   1      36.024  21.413  25.746  1.00  0.00    -0.376 OA
BRANCH   3   4
ATOM      4  C   UNL A   1      35.322  22.588  26.148  1.00  0.00     0.202 C 
BRANCH   4   5
ATOM      5  C   UNL A   1      34.634  22.377  27.497  1.00  0.00     0.261 C 
BRANCH   5   6
ATOM      6  O   UNL A   1      33.343  21.755  27.389  1.00  0.00    -0.460 OA
BRANCH   6   7
ATOM      7  C   UNL A   1      32.299  22.563  27.055  1.00  0.00     0.341 C 
ATOM      8  O   UNL A   1      31.554  23.072  27.883  1.00  0.00    -0.246 OA
BRANCH   7   9
ATOM      9  C   UNL A   1      32.218  22.808  25.615  1.00  0.00     0.093 A 
ATOM     10  C   UNL A   1      32.078  23.885  23.589  1.00  0.00     0.086 A 
ATOM     11  C   UNL A   1      32.145  24.083  24.965  1.00  0.00     0.024 A 
ATOM     12  N   UNL A   1      32.078  22.508  23.375  1.00  0.00    -0.314 N 
ATOM     13  C   UNL A   1      32.232  21.860  24.604  1.00  0.00     0.061 A 
ATOM     14  C   UNL A   1      31.959  21.793  22.174  1.00  0.00     0.092 A 
ATOM     15  C   UNL A   1      32.341  20.433  24.587  1.00  0.00     0.027 A 
ATOM     16  C   UNL A   1      32.029  20.452  22.173  1.00  0.00     0.018 A 
ATOM     17  C   UNL A   1      32.251  19.762  23.425  1.00  0.00     0.004 A 
BRANCH  10  18
ATOM     18  C   UNL A   1      31.985  24.868  22.461  1.00  0.00     0.315 C 
BRANCH  18  19
ATOM     19  N   UNL A   1      32.948  24.592  21.408  1.00  0.00    -0.353 N 
ATOM     20  H   UNL A   1      33.801  25.124  21.580  1.00  0.00     0.344 HD
ATOM     21  H   UNL A   1      32.553  24.862  20.508  1.00  0.00     0.344 HD
ATOM     22  H   UNL A   1      33.166  23.596  21.399  1.00  0.00     0.344 HD
ENDBRANCH  18  19
ENDBRANCH  10  18
BRANCH  11  23
ATOM     23  C   UNL A   1      32.253  25.382  25.607  1.00  0.00    -0.015 A 
ATOM     24  C   UNL A   1      31.084  26.011  26.052  1.00  0.00     0.009 A 
ATOM     25  C   UNL A   1      33.476  26.047  25.710  1.00  0.00     0.009 A 
ATOM     26  C   UNL A   1      31.120  27.329  26.501  1.00  0.00     0.001 A 
ATOM     27  C   UNL A   1      33.518  27.347  26.221  1.00  0.00     0.001 A 
ATOM     28  C   UNL A   1      32.339  27.994  26.591  1.00  0.00     0.000 A 
ENDBRANCH  11  23
ENDBRANCH   7   9
ENDBRANCH   6   7
ENDBRANCH   5   6
ENDBRANCH   4   5
ENDBRANCH   3   4
ENDBRANCH   2   3
ENDBRANCH   1   2
BRANCH   1  29
ATOM     29  O   UNL A   1      38.816  23.170  26.357  1.00  0.00    -0.376 OA
BRANCH  29  30
ATOM     30  C   UNL A   1      39.890  23.312  27.269  1.00  0.00     0.202 C 
BRANCH  30  31
ATOM     31  C   UNL A   1      41.220  23.783  26.674  1.00  0.00     0.261 C 
BRANCH  31  32
ATOM     32  O   UNL A   1      41.710  25.009  27.235  1.00  0.00    -0.460 OA
BRANCH  32  33
ATOM     33  C   UNL A   1      41.110  26.124  26.749  1.00  0.00     0.338 C 
ATOM     34  O   UNL A   1      40.877  26.377  25.578  1.00  0.00    -0.246 OA
BRANCH  33  35
ATOM     35  C   UNL A   1      40.665  26.999  27.858  1.00  0.00     0.060 A 
ATOM     36  C   UNL A   1      41.270  28.256  27.972  1.00  0.00     0.016 A 
ATOM     37  C   UNL A   1      39.750  26.569  28.824  1.00  0.00     0.016 A 
ATOM     38  C   UNL A   1      41.016  29.058  29.085  1.00  0.00     0.010 A 
ATOM     39  C   UNL A   1      39.503  27.370  29.947  1.00  0.00     0.010 A 
ATOM     40  C   UNL A   1      40.172  28.596  30.104  1.00  0.00    -0.014 A 
BRANCH  40  41
ATOM     41  C   UNL A   1      40.152  29.319  31.403  1.00  0.00     0.031 A 
ATOM     42  C   UNL A   1      41.233  29.035  32.405  1.00  0.00     0.074 A 
ATOM     43  C   UNL A   1      39.228  30.257  31.672  1.00  0.00     0.049 A 
ATOM     44  N   UNL A   1      41.474  29.629  33.545  1.00  0.00    -0.248 NA
ATOM     45  C   UNL A   1      42.169  27.948  32.077  1.00  0.00     0.031 C 
ATOM     46  C   UNL A   1      38.150  30.642  30.772  1.00  0.00     0.029 A 
ATOM     47  N   UNL A   1      39.052  31.062  32.767  1.00  0.00    -0.354 N 
ATOM     48  C   UNL A   1      42.604  29.007  34.058  1.00  0.00     0.074 A 
ATOM     49  C   UNL A   1      42.972  27.960  33.130  1.00  0.00     0.031 C 
ATOM     50  C   UNL A   1      37.415  31.607  31.346  1.00  0.00     0.029 A 
ATOM     51  C   UNL A   1      37.972  31.908  32.661  1.00  0.00     0.049 A 
ATOM     52  H   UNL A   1      39.642  31.038  33.555  1.00  0.00     0.167 HD
ATOM     53  C   UNL A   1      43.285  29.294  35.193  1.00  0.00     0.031 A 
ATOM     54  C   UNL A   1      37.491  32.828  33.519  1.00  0.00     0.031 A 
ATOM     55  C   UNL A   1      42.900  30.307  36.137  1.00  0.00     0.049 A 
ATOM     56  C   UNL A   1      38.224  33.081  34.808  1.00  0.00     0.074 A 
ATOM     57  C   UNL A   1      43.526  30.669  37.317  1.00  0.00     0.029 A 
ATOM     58  N   UNL A   1      41.777  31.113  36.019  1.00  0.00    -0.354 N 
ATOM     59  N   UNL A   1      39.322  32.517  35.254  1.00  0.00    -0.248 NA
ATOM     60  C   UNL A   1      37.670  34.113  35.695  1.00  0.00     0.031 C 
ATOM     61  C   UNL A   1      42.757  31.662  37.935  1.00  0.00     0.029 A 
ATOM     62  C   UNL A   1      41.679  31.954  37.114  1.00  0.00     0.049 A 
ATOM     63  H   UNL A   1      41.144  31.090  35.266  1.00  0.00     0.167 HD
ATOM     64  C   UNL A   1      39.606  33.147  36.460  1.00  0.00     0.074 A 
ATOM     65  C   UNL A   1      38.571  34.141  36.667  1.00  0.00     0.031 C 
ATOM     66  C   UNL A   1      40.637  32.929  37.314  1.00  0.00     0.031 A 
BRANCH  53  67
ATOM     67  C   UNL A   1      44.507  28.466  35.475  1.00  0.00    -0.014 A 
ATOM     68  C   UNL A   1      44.412  27.270  36.210  1.00  0.00     0.010 A 
ATOM     69  C   UNL A   1      45.763  28.888  35.006  1.00  0.00     0.010 A 
ATOM     70  C   UNL A   1      45.561  26.533  36.509  1.00  0.00     0.020 A 
ATOM     71  C   UNL A   1      46.910  28.141  35.284  1.00  0.00     0.020 A 
ATOM     72  C   UNL A   1      46.804  26.979  36.050  1.00  0.00     0.054 A 
BRANCH  72  73
ATOM     73  S   UNL A   1      48.281  26.007  36.452  1.00  0.00     0.124 S 
ATOM     74  O   UNL A   1      49.354  26.887  35.992  1.00  0.00    -0.237 OA
ATOM     75  O   UNL A   1      48.179  25.846  37.900  1.00  0.00    -0.237 OA
ATOM     76  O   UNL A   1      48.109  24.780  35.679  1.00  0.00    -0.744 OA
ENDBRANCH  72  73
ENDBRANCH  53  67
BRANCH  54  77
ATOM     77  C   UNL A   1      36.256  33.587  33.183  1.00  0.00    -0.014 A 
ATOM     78  C   UNL A   1      36.332  34.874  32.623  1.00  0.00     0.010 A 
ATOM     79  C   UNL A   1      34.992  33.021  33.429  1.00  0.00     0.010 A 
ATOM     80  C   UNL A   1      35.166  35.590  32.332  1.00  0.00     0.020 A 
ATOM     81  C   UNL A   1      33.824  33.724  33.118  1.00  0.00     0.020 A 
ATOM     82  C   UNL A   1      33.919  35.009  32.582  1.00  0.00     0.054 A 
BRANCH  82  83
ATOM     83  S   UNL A   1      32.417  35.933  32.153  1.00  0.00     0.124 S 
ATOM     84  O   UNL A   1      32.558  36.087  30.709  1.00  0.00    -0.237 OA
ATOM     85  O   UNL A   1      31.354  35.031  32.593  1.00  0.00    -0.237 OA
ATOM     86  O   UNL A   1      32.540  37.163  32.931  1.00  0.00    -0.744 OA
ENDBRANCH  82  83
ENDBRANCH  54  77
BRANCH  66  87
ATOM     87  C   UNL A   1      40.708  33.801  38.538  1.00  0.00    -0.014 A 
ATOM     88  C   UNL A   1      40.079  33.427  39.738  1.00  0.00     0.010 A 
ATOM     89  C   UNL A   1      41.433  35.006  38.489  1.00  0.00     0.010 A 
ATOM     90  C   UNL A   1      40.134  34.265  40.855  1.00  0.00     0.020 A 
ATOM     91  C   UNL A   1      41.512  35.834  39.611  1.00  0.00     0.020 A 
ATOM     92  C   UNL A   1      40.844  35.468  40.782  1.00  0.00     0.054 A 
BRANCH  92  93
ATOM     93  S   UNL A   1      40.918  36.535  42.246  1.00  0.00     0.124 S 
ATOM     94  O   UNL A   1      41.603  35.679  43.210  1.00  0.00    -0.237 OA
ATOM     95  O   UNL A   1      41.682  37.685  41.773  1.00  0.00    -0.237 OA
ATOM     96  O   UNL A   1      39.514  36.809  42.544  1.00  0.00    -0.744 OA
ENDBRANCH  92  93
ENDBRANCH  66  87
ENDBRANCH  40  41
ENDBRANCH  33  35
ENDBRANCH  32  33
ENDBRANCH  31  32
ENDBRANCH  30  31
ENDBRANCH  29  30
ENDBRANCH   1  29
TORSDOF 23
ENDMDL
