MODEL 1
REMARK VINA RESULT:      -9.5      0.000      0.000
REMARK SMILES Cc1nsc(N[C@@H](C)C2CCCC2)c1C(=O)OCCOCCOCCOC(=O)c1ccc(-c2c3nc(c(-c4ccc(S(=O)(=O)[O-])cc4)c4ccc([nH]4)c(-c4ccc(S(=O)(=O)[O-])cc4)c4nc(c(-c5ccc(S(=O)(=O)[O-])cc5)c5ccc2[nH]5)C=C4)C=C3)cc1
REMARK SMILES IDX 21 1 20 2 19 3 18 4 17 5 15 6 16 7 14 8 1 9 2 10 3 11 4 12
REMARK SMILES IDX 5 13 6 14 7 16 8 17 9 18 10 19 13 20 11 21 12 22 22 23 23 24
REMARK SMILES IDX 24 25 25 26 26 27 27 28 28 29 29 30 30 31 88 32 31 33 87 34
REMARK SMILES IDX 32 35 33 36 34 37 81 38 35 39 86 40 80 41 82 42 36 43 85 44
REMARK SMILES IDX 79 45 78 46 37 48 67 49 48 50 66 51 49 52 52 53 65 54 83 55
REMARK SMILES IDX 50 56 51 57 64 59 84 60 53 61 38 62 39 63 47 64 40 65 46 66
REMARK SMILES IDX 41 67 42 68 43 69 44 70 45 71 68 72 69 73 77 74 70 75 76 76
REMARK SMILES IDX 71 77 72 78 73 79 74 80 75 81 54 82 55 83 63 84 56 85 62 86
REMARK SMILES IDX 57 87 58 88 59 89 60 90 61 91
REMARK H PARENT 6 15 82 47 52 58
REMARK Flexibility Score: inf
ROOT
ATOM      1  C   UNL A   1      40.378  21.631  26.371  1.00  0.00     0.188 C 
ENDROOT
BRANCH   1   2
ATOM      2  O   UNL A   1      40.308  23.029  26.581  1.00  0.00    -0.376 OA
BRANCH   2   3
ATOM      3  C   UNL A   1      39.073  23.724  26.522  1.00  0.00     0.202 C 
BRANCH   3   4
ATOM      4  C   UNL A   1      37.756  23.102  26.005  1.00  0.00     0.261 C 
BRANCH   4   5
ATOM      5  O   UNL A   1      36.691  24.003  25.685  1.00  0.00    -0.460 OA
BRANCH   5   6
ATOM      6  C   UNL A   1      35.736  23.529  24.826  1.00  0.00     0.343 C 
ATOM      7  O   UNL A   1      35.962  23.147  23.704  1.00  0.00    -0.246 OA
BRANCH   6   8
ATOM      8  C   UNL A   1      34.430  23.396  25.477  1.00  0.00     0.117 A 
ATOM      9  C   UNL A   1      33.750  25.923  25.739  1.00  0.00     0.069 C 
ATOM     10  C   UNL A   1      33.518  24.454  25.848  1.00  0.00     0.068 A 
ATOM     11  N   UNL A   1      32.360  24.064  26.380  1.00  0.00    -0.195 NA
ATOM     12  S   UNL A   1      32.376  22.430  26.563  1.00  0.00    -0.018 S 
ATOM     13  C   UNL A   1      33.966  22.166  25.952  1.00  0.00     0.124 A 
BRANCH  13  14
ATOM     14  N   UNL A   1      34.654  20.984  25.994  1.00  0.00    -0.372 N 
ATOM     15  H   UNL A   1      34.964  20.669  26.874  1.00  0.00     0.161 HD
BRANCH  14  16
ATOM     16  C   UNL A   1      34.962  20.155  24.834  1.00  0.00     0.080 C 
ATOM     17  C   UNL A   1      36.413  19.678  24.998  1.00  0.00     0.031 C 
BRANCH  16  18
ATOM     18  C   UNL A   1      34.022  18.934  24.686  1.00  0.00     0.011 C 
ATOM     19  C   UNL A   1      32.874  19.056  23.679  1.00  0.00     0.006 C 
ATOM     20  C   UNL A   1      34.787  17.712  24.160  1.00  0.00     0.006 C 
ATOM     21  C   UNL A   1      32.559  17.629  23.219  1.00  0.00     0.000 C 
ATOM     22  C   UNL A   1      33.705  16.749  23.703  1.00  0.00     0.000 C 
ENDBRANCH  16  18
ENDBRANCH  14  16
ENDBRANCH  13  14
ENDBRANCH   6   8
ENDBRANCH   5   6
ENDBRANCH   4   5
ENDBRANCH   3   4
ENDBRANCH   2   3
ENDBRANCH   1   2
BRANCH   1  23
ATOM     23  C   UNL A   1      40.779  20.671  27.512  1.00  0.00     0.188 C 
BRANCH  23  24
ATOM     24  O   UNL A   1      41.985  19.966  27.311  1.00  0.00    -0.376 OA
BRANCH  24  25
ATOM     25  C   UNL A   1      42.276  19.284  26.102  1.00  0.00     0.202 C 
BRANCH  25  26
ATOM     26  C   UNL A   1      43.483  19.560  25.203  1.00  0.00     0.261 C 
BRANCH  26  27
ATOM     27  O   UNL A   1      43.852  20.911  25.060  1.00  0.00    -0.460 OA
BRANCH  27  28
ATOM     28  C   UNL A   1      45.175  21.099  24.894  1.00  0.00     0.338 C 
ATOM     29  O   UNL A   1      46.025  20.242  24.719  1.00  0.00    -0.246 OA
BRANCH  28  30
ATOM     30  C   UNL A   1      45.442  22.533  24.965  1.00  0.00     0.060 A 
ATOM     31  C   UNL A   1      46.514  22.935  25.764  1.00  0.00     0.016 A 
ATOM     32  C   UNL A   1      44.443  23.415  24.531  1.00  0.00     0.016 A 
ATOM     33  C   UNL A   1      46.421  24.158  26.376  1.00  0.00     0.010 A 
ATOM     34  C   UNL A   1      44.342  24.626  25.156  1.00  0.00     0.010 A 
ATOM     35  C   UNL A   1      45.267  24.913  26.155  1.00  0.00    -0.014 A 
BRANCH  35  36
ATOM     36  C   UNL A   1      44.991  25.991  27.073  1.00  0.00     0.031 A 
ATOM     37  C   UNL A   1      46.009  27.057  27.040  1.00  0.00     0.074 A 
ATOM     38  C   UNL A   1      43.858  25.984  27.802  1.00  0.00     0.049 A 
ATOM     39  N   UNL A   1      46.838  27.385  27.971  1.00  0.00    -0.248 NA
ATOM     40  C   UNL A   1      46.260  27.711  25.745  1.00  0.00     0.031 C 
ATOM     41  C   UNL A   1      42.695  25.097  27.671  1.00  0.00     0.029 A 
ATOM     42  N   UNL A   1      43.453  26.865  28.749  1.00  0.00    -0.354 N 
ATOM     43  C   UNL A   1      47.574  28.441  27.452  1.00  0.00     0.074 A 
ATOM     44  C   UNL A   1      47.323  28.459  26.034  1.00  0.00     0.031 C 
ATOM     45  C   UNL A   1      41.639  25.655  28.310  1.00  0.00     0.029 A 
ATOM     46  C   UNL A   1      42.086  26.855  28.996  1.00  0.00     0.049 A 
ATOM     47  H   UNL A   1      44.077  27.462  29.223  1.00  0.00     0.167 HD
ATOM     48  C   UNL A   1      48.119  29.391  28.258  1.00  0.00     0.031 A 
ATOM     49  C   UNL A   1      41.379  27.830  29.625  1.00  0.00     0.031 A 
ATOM     50  C   UNL A   1      48.192  28.953  29.626  1.00  0.00     0.049 A 
ATOM     51  C   UNL A   1      42.361  28.657  30.380  1.00  0.00     0.074 A 
ATOM     52  C   UNL A   1      48.845  27.923  30.273  1.00  0.00     0.029 A 
ATOM     53  N   UNL A   1      47.189  29.365  30.474  1.00  0.00    -0.354 N 
ATOM     54  N   UNL A   1      43.054  28.202  31.388  1.00  0.00    -0.248 NA
ATOM     55  C   UNL A   1      42.940  29.809  29.700  1.00  0.00     0.031 C 
ATOM     56  C   UNL A   1      47.922  27.460  31.254  1.00  0.00     0.029 A 
ATOM     57  C   UNL A   1      46.788  28.273  31.203  1.00  0.00     0.049 A 
ATOM     58  H   UNL A   1      46.826  30.276  30.544  1.00  0.00     0.167 HD
ATOM     59  C   UNL A   1      44.331  28.719  31.212  1.00  0.00     0.074 A 
ATOM     60  C   UNL A   1      44.180  29.763  30.198  1.00  0.00     0.031 C 
ATOM     61  C   UNL A   1      45.435  28.065  31.684  1.00  0.00     0.031 A 
BRANCH  48  62
ATOM     62  C   UNL A   1      48.191  30.842  27.863  1.00  0.00    -0.014 A 
ATOM     63  C   UNL A   1      47.006  31.600  27.836  1.00  0.00     0.010 A 
ATOM     64  C   UNL A   1      49.333  31.412  27.256  1.00  0.00     0.010 A 
ATOM     65  C   UNL A   1      46.954  32.836  27.180  1.00  0.00     0.020 A 
ATOM     66  C   UNL A   1      49.303  32.660  26.639  1.00  0.00     0.020 A 
ATOM     67  C   UNL A   1      48.102  33.350  26.573  1.00  0.00     0.054 A 
BRANCH  67  68
ATOM     68  S   UNL A   1      48.000  34.889  25.632  1.00  0.00     0.124 S 
ATOM     69  O   UNL A   1      46.815  34.659  24.811  1.00  0.00    -0.237 OA
ATOM     70  O   UNL A   1      47.859  35.887  26.689  1.00  0.00    -0.237 OA
ATOM     71  O   UNL A   1      49.267  34.932  24.906  1.00  0.00    -0.744 OA
ENDBRANCH  67  68
ENDBRANCH  48  62
BRANCH  49  72
ATOM     72  C   UNL A   1      40.016  28.312  29.269  1.00  0.00    -0.014 A 
ATOM     73  C   UNL A   1      38.889  27.988  30.046  1.00  0.00     0.010 A 
ATOM     74  C   UNL A   1      39.862  29.324  28.296  1.00  0.00     0.010 A 
ATOM     75  C   UNL A   1      37.673  28.681  29.889  1.00  0.00     0.020 A 
ATOM     76  C   UNL A   1      38.656  30.013  28.129  1.00  0.00     0.020 A 
ATOM     77  C   UNL A   1      37.570  29.704  28.941  1.00  0.00     0.054 A 
BRANCH  77  78
ATOM     78  S   UNL A   1      36.055  30.707  28.851  1.00  0.00     0.124 S 
ATOM     79  O   UNL A   1      36.213  31.396  27.574  1.00  0.00    -0.237 OA
ATOM     80  O   UNL A   1      35.002  29.697  28.899  1.00  0.00    -0.237 OA
ATOM     81  O   UNL A   1      36.140  31.565  30.032  1.00  0.00    -0.744 OA
ENDBRANCH  77  78
ENDBRANCH  49  72
BRANCH  61  82
ATOM     82  C   UNL A   1      45.232  26.888  32.613  1.00  0.00    -0.014 A 
ATOM     83  C   UNL A   1      44.688  26.993  33.909  1.00  0.00     0.010 A 
ATOM     84  C   UNL A   1      45.452  25.605  32.082  1.00  0.00     0.010 A 
ATOM     85  C   UNL A   1      44.398  25.842  34.661  1.00  0.00     0.020 A 
ATOM     86  C   UNL A   1      45.149  24.457  32.818  1.00  0.00     0.020 A 
ATOM     87  C   UNL A   1      44.632  24.579  34.108  1.00  0.00     0.054 A 
BRANCH  87  88
ATOM     88  S   UNL A   1      44.226  23.091  35.064  1.00  0.00     0.124 S 
ATOM     89  O   UNL A   1      42.775  23.189  35.204  1.00  0.00    -0.237 OA
ATOM     90  O   UNL A   1      44.704  22.010  34.205  1.00  0.00    -0.237 OA
ATOM     91  O   UNL A   1      44.979  23.259  36.308  1.00  0.00    -0.744 OA
ENDBRANCH  87  88
ENDBRANCH  61  82
ENDBRANCH  35  36
ENDBRANCH  28  30
ENDBRANCH  27  28
ENDBRANCH  26  27
ENDBRANCH  25  26
ENDBRANCH  24  25
ENDBRANCH  23  24
ENDBRANCH   1  23
TORSDOF 23
ENDMDL
MODEL 2
REMARK VINA RESULT:      -9.1      3.443     10.033
REMARK SMILES Cc1nsc(N[C@@H](C)C2CCCC2)c1C(=O)OCCOCCOCCOC(=O)c1ccc(-c2c3nc(c(-c4ccc(S(=O)(=O)[O-])cc4)c4ccc([nH]4)c(-c4ccc(S(=O)(=O)[O-])cc4)c4nc(c(-c5ccc(S(=O)(=O)[O-])cc5)c5ccc2[nH]5)C=C4)C=C3)cc1
REMARK SMILES IDX 21 1 20 2 19 3 18 4 17 5 15 6 16 7 14 8 1 9 2 10 3 11 4 12
REMARK SMILES IDX 5 13 6 14 7 16 8 17 9 18 10 19 13 20 11 21 12 22 22 23 23 24
REMARK SMILES IDX 24 25 25 26 26 27 27 28 28 29 29 30 30 31 88 32 31 33 87 34
REMARK SMILES IDX 32 35 33 36 34 37 81 38 35 39 86 40 80 41 82 42 36 43 85 44
REMARK SMILES IDX 79 45 78 46 37 48 67 49 48 50 66 51 49 52 52 53 65 54 83 55
REMARK SMILES IDX 50 56 51 57 64 59 84 60 53 61 38 62 39 63 47 64 40 65 46 66
REMARK SMILES IDX 41 67 42 68 43 69 44 70 45 71 68 72 69 73 77 74 70 75 76 76
REMARK SMILES IDX 71 77 72 78 73 79 74 80 75 81 54 82 55 83 63 84 56 85 62 86
REMARK SMILES IDX 57 87 58 88 59 89 60 90 61 91
REMARK H PARENT 6 15 82 47 52 58
REMARK Flexibility Score: inf
ROOT
ATOM      1  C   UNL A   1      36.251  29.924  27.644  1.00  0.00     0.188 C 
ENDROOT
BRANCH   1   2
ATOM      2  O   UNL A   1      35.206  29.210  27.009  1.00  0.00    -0.376 OA
BRANCH   2   3
ATOM      3  C   UNL A   1      33.847  29.575  27.189  1.00  0.00     0.202 C 
BRANCH   3   4
ATOM      4  C   UNL A   1      32.669  28.578  27.124  1.00  0.00     0.261 C 
BRANCH   4   5
ATOM      5  O   UNL A   1      31.817  28.649  25.975  1.00  0.00    -0.460 OA
BRANCH   5   6
ATOM      6  C   UNL A   1      32.426  28.485  24.760  1.00  0.00     0.343 C 
ATOM      7  O   UNL A   1      33.145  29.307  24.245  1.00  0.00    -0.246 OA
BRANCH   6   8
ATOM      8  C   UNL A   1      32.229  27.136  24.225  1.00  0.00     0.117 A 
ATOM      9  C   UNL A   1      34.136  25.826  25.476  1.00  0.00     0.069 C 
ATOM     10  C   UNL A   1      32.957  25.935  24.570  1.00  0.00     0.068 A 
ATOM     11  N   UNL A   1      32.544  24.815  23.979  1.00  0.00    -0.195 NA
ATOM     12  S   UNL A   1      31.354  25.180  22.905  1.00  0.00    -0.018 S 
ATOM     13  C   UNL A   1      31.351  26.883  23.167  1.00  0.00     0.124 A 
BRANCH  13  14
ATOM     14  N   UNL A   1      30.666  27.806  22.425  1.00  0.00    -0.372 N 
ATOM     15  H   UNL A   1      31.150  28.252  21.693  1.00  0.00     0.161 HD
BRANCH  14  16
ATOM     16  C   UNL A   1      29.271  28.179  22.636  1.00  0.00     0.080 C 
ATOM     17  C   UNL A   1      28.726  27.263  23.742  1.00  0.00     0.031 C 
BRANCH  16  18
ATOM     18  C   UNL A   1      29.087  29.662  23.044  1.00  0.00     0.011 C 
ATOM     19  C   UNL A   1      29.367  30.720  21.972  1.00  0.00     0.006 C 
ATOM     20  C   UNL A   1      27.627  29.951  23.415  1.00  0.00     0.006 C 
ATOM     21  C   UNL A   1      28.507  31.934  22.339  1.00  0.00     0.000 C 
ATOM     22  C   UNL A   1      27.522  31.467  23.404  1.00  0.00     0.000 C 
ENDBRANCH  16  18
ENDBRANCH  14  16
ENDBRANCH  13  14
ENDBRANCH   6   8
ENDBRANCH   5   6
ENDBRANCH   4   5
ENDBRANCH   3   4
ENDBRANCH   2   3
ENDBRANCH   1   2
BRANCH   1  23
ATOM     23  C   UNL A   1      35.966  30.877  28.824  1.00  0.00     0.188 C 
BRANCH  23  24
ATOM     24  O   UNL A   1      36.024  32.253  28.516  1.00  0.00    -0.376 OA
BRANCH  24  25
ATOM     25  C   UNL A   1      36.691  33.191  29.345  1.00  0.00     0.202 C 
BRANCH  25  26
ATOM     26  C   UNL A   1      36.446  33.374  30.844  1.00  0.00     0.261 C 
BRANCH  26  27
ATOM     27  O   UNL A   1      37.233  32.580  31.701  1.00  0.00    -0.460 OA
BRANCH  27  28
ATOM     28  C   UNL A   1      36.576  31.525  32.219  1.00  0.00     0.338 C 
ATOM     29  O   UNL A   1      35.369  31.370  32.290  1.00  0.00    -0.246 OA
BRANCH  28  30
ATOM     30  C   UNL A   1      37.567  30.569  32.706  1.00  0.00     0.060 A 
ATOM     31  C   UNL A   1      38.763  31.097  33.196  1.00  0.00     0.016 A 
ATOM     32  C   UNL A   1      37.418  29.221  32.350  1.00  0.00     0.016 A 
ATOM     33  C   UNL A   1      39.896  30.340  33.045  1.00  0.00     0.010 A 
ATOM     34  C   UNL A   1      38.551  28.474  32.183  1.00  0.00     0.010 A 
ATOM     35  C   UNL A   1      39.772  29.097  32.418  1.00  0.00    -0.014 A 
BRANCH  35  36
ATOM     36  C   UNL A   1      40.977  28.483  31.917  1.00  0.00     0.031 A 
ATOM     37  C   UNL A   1      42.028  28.344  32.942  1.00  0.00     0.074 A 
ATOM     38  C   UNL A   1      41.033  28.042  30.645  1.00  0.00     0.049 A 
ATOM     39  N   UNL A   1      43.167  28.945  32.990  1.00  0.00    -0.248 NA
ATOM     40  C   UNL A   1      41.689  27.587  34.159  1.00  0.00     0.031 C 
ATOM     41  C   UNL A   1      39.935  27.908  29.678  1.00  0.00     0.029 A 
ATOM     42  N   UNL A   1      42.081  27.497  29.980  1.00  0.00    -0.354 N 
ATOM     43  C   UNL A   1      43.785  28.471  34.139  1.00  0.00     0.074 A 
ATOM     44  C   UNL A   1      42.763  27.812  34.912  1.00  0.00     0.031 C 
ATOM     45  C   UNL A   1      40.325  27.084  28.677  1.00  0.00     0.029 A 
ATOM     46  C   UNL A   1      41.726  26.748  28.866  1.00  0.00     0.049 A 
ATOM     47  H   UNL A   1      43.015  27.623  30.264  1.00  0.00     0.167 HD
ATOM     48  C   UNL A   1      45.139  28.413  34.246  1.00  0.00     0.031 A 
ATOM     49  C   UNL A   1      42.512  25.840  28.229  1.00  0.00     0.031 A 
ATOM     50  C   UNL A   1      45.788  29.242  33.266  1.00  0.00     0.049 A 
ATOM     51  C   UNL A   1      43.916  26.121  28.639  1.00  0.00     0.074 A 
ATOM     52  C   UNL A   1      45.791  30.597  33.002  1.00  0.00     0.029 A 
ATOM     53  N   UNL A   1      46.242  28.627  32.122  1.00  0.00    -0.354 N 
ATOM     54  N   UNL A   1      44.547  27.218  28.323  1.00  0.00    -0.248 NA
ATOM     55  C   UNL A   1      44.430  25.427  29.813  1.00  0.00     0.031 C 
ATOM     56  C   UNL A   1      45.796  30.696  31.581  1.00  0.00     0.029 A 
ATOM     57  C   UNL A   1      45.866  29.404  31.055  1.00  0.00     0.049 A 
ATOM     58  H   UNL A   1      46.744  27.782  32.077  1.00  0.00     0.167 HD
ATOM     59  C   UNL A   1      45.243  27.579  29.470  1.00  0.00     0.074 A 
ATOM     60  C   UNL A   1      45.194  26.396  30.329  1.00  0.00     0.031 C 
ATOM     61  C   UNL A   1      45.544  28.884  29.740  1.00  0.00     0.031 A 
BRANCH  48  62
ATOM     62  C   UNL A   1      45.846  27.294  34.963  1.00  0.00    -0.014 A 
ATOM     63  C   UNL A   1      45.690  25.978  34.492  1.00  0.00     0.010 A 
ATOM     64  C   UNL A   1      46.434  27.456  36.237  1.00  0.00     0.010 A 
ATOM     65  C   UNL A   1      46.046  24.880  35.285  1.00  0.00     0.020 A 
ATOM     66  C   UNL A   1      46.832  26.372  37.016  1.00  0.00     0.020 A 
ATOM     67  C   UNL A   1      46.602  25.087  36.549  1.00  0.00     0.054 A 
BRANCH  67  68
ATOM     68  S   UNL A   1      46.953  23.667  37.611  1.00  0.00     0.124 S 
ATOM     69  O   UNL A   1      45.742  23.595  38.423  1.00  0.00    -0.237 OA
ATOM     70  O   UNL A   1      47.133  22.593  36.639  1.00  0.00    -0.237 OA
ATOM     71  O   UNL A   1      48.164  24.065  38.326  1.00  0.00    -0.744 OA
ENDBRANCH  67  68
ENDBRANCH  48  62
BRANCH  49  72
ATOM     72  C   UNL A   1      42.080  24.536  27.654  1.00  0.00    -0.014 A 
ATOM     73  C   UNL A   1      42.440  24.144  26.352  1.00  0.00     0.010 A 
ATOM     74  C   UNL A   1      41.524  23.549  28.497  1.00  0.00     0.010 A 
ATOM     75  C   UNL A   1      42.294  22.809  25.927  1.00  0.00     0.020 A 
ATOM     76  C   UNL A   1      41.370  22.221  28.081  1.00  0.00     0.020 A 
ATOM     77  C   UNL A   1      41.776  21.850  26.803  1.00  0.00     0.054 A 
BRANCH  77  78
ATOM     78  S   UNL A   1      41.741  20.099  26.313  1.00  0.00     0.124 S 
ATOM     79  O   UNL A   1      40.370  19.935  25.839  1.00  0.00    -0.237 OA
ATOM     80  O   UNL A   1      42.777  20.035  25.287  1.00  0.00    -0.237 OA
ATOM     81  O   UNL A   1      42.056  19.388  27.552  1.00  0.00    -0.744 OA
ENDBRANCH  77  78
ENDBRANCH  49  72
BRANCH  61  82
ATOM     82  C   UNL A   1      45.319  29.914  28.654  1.00  0.00    -0.014 A 
ATOM     83  C   UNL A   1      44.056  30.447  28.323  1.00  0.00     0.010 A 
ATOM     84  C   UNL A   1      46.460  30.482  28.060  1.00  0.00     0.010 A 
ATOM     85  C   UNL A   1      43.942  31.502  27.403  1.00  0.00     0.020 A 
ATOM     86  C   UNL A   1      46.353  31.542  27.157  1.00  0.00     0.020 A 
ATOM     87  C   UNL A   1      45.094  32.042  26.824  1.00  0.00     0.054 A 
BRANCH  87  88
ATOM     88  S   UNL A   1      44.951  33.428  25.660  1.00  0.00     0.124 S 
ATOM     89  O   UNL A   1      44.311  32.807  24.503  1.00  0.00    -0.237 OA
ATOM     90  O   UNL A   1      44.130  34.388  26.395  1.00  0.00    -0.237 OA
ATOM     91  O   UNL A   1      46.336  33.849  25.447  1.00  0.00    -0.744 OA
ENDBRANCH  87  88
ENDBRANCH  61  82
ENDBRANCH  35  36
ENDBRANCH  28  30
ENDBRANCH  27  28
ENDBRANCH  26  27
ENDBRANCH  25  26
ENDBRANCH  24  25
ENDBRANCH  23  24
ENDBRANCH   1  23
TORSDOF 23
ENDMDL
MODEL 3
REMARK VINA RESULT:      -8.7      3.485      5.733
REMARK SMILES Cc1nsc(N[C@@H](C)C2CCCC2)c1C(=O)OCCOCCOCCOC(=O)c1ccc(-c2c3nc(c(-c4ccc(S(=O)(=O)[O-])cc4)c4ccc([nH]4)c(-c4ccc(S(=O)(=O)[O-])cc4)c4nc(c(-c5ccc(S(=O)(=O)[O-])cc5)c5ccc2[nH]5)C=C4)C=C3)cc1
REMARK SMILES IDX 21 1 20 2 19 3 18 4 17 5 15 6 16 7 14 8 1 9 2 10 3 11 4 12
REMARK SMILES IDX 5 13 6 14 7 16 8 17 9 18 10 19 13 20 11 21 12 22 22 23 23 24
REMARK SMILES IDX 24 25 25 26 26 27 27 28 28 29 29 30 30 31 88 32 31 33 87 34
REMARK SMILES IDX 32 35 33 36 34 37 81 38 35 39 86 40 80 41 82 42 36 43 85 44
REMARK SMILES IDX 79 45 78 46 37 48 67 49 48 50 66 51 49 52 52 53 65 54 83 55
REMARK SMILES IDX 50 56 51 57 64 59 84 60 53 61 38 62 39 63 47 64 40 65 46 66
REMARK SMILES IDX 41 67 42 68 43 69 44 70 45 71 68 72 69 73 77 74 70 75 76 76
REMARK SMILES IDX 71 77 72 78 73 79 74 80 75 81 54 82 55 83 63 84 56 85 62 86
REMARK SMILES IDX 57 87 58 88 59 89 60 90 61 91
REMARK H PARENT 6 15 82 47 52 58
REMARK Flexibility Score: inf
ROOT
ATOM      1  C   UNL A   1      36.074  23.295  24.838  1.00  0.00     0.188 C 
ENDROOT
BRANCH   1   2
ATOM      2  O   UNL A   1      34.665  23.171  24.766  1.00  0.00    -0.376 OA
BRANCH   2   3
ATOM      3  C   UNL A   1      33.813  24.267  25.055  1.00  0.00     0.202 C 
BRANCH   3   4
ATOM      4  C   UNL A   1      34.261  25.745  25.013  1.00  0.00     0.261 C 
BRANCH   4   5
ATOM      5  O   UNL A   1      33.293  26.708  24.585  1.00  0.00    -0.460 OA
BRANCH   5   6
ATOM      6  C   UNL A   1      33.752  27.985  24.399  1.00  0.00     0.343 C 
ATOM      7  O   UNL A   1      34.444  28.328  23.471  1.00  0.00    -0.246 OA
BRANCH   6   8
ATOM      8  C   UNL A   1      33.182  28.920  25.371  1.00  0.00     0.117 A 
ATOM      9  C   UNL A   1      35.208  29.205  27.025  1.00  0.00     0.069 C 
ATOM     10  C   UNL A   1      33.836  29.503  26.521  1.00  0.00     0.068 A 
ATOM     11  N   UNL A   1      33.113  30.376  27.222  1.00  0.00    -0.195 NA
ATOM     12  S   UNL A   1      31.592  30.434  26.600  1.00  0.00    -0.018 S 
ATOM     13  C   UNL A   1      31.827  29.261  25.360  1.00  0.00     0.124 A 
BRANCH  13  14
ATOM     14  N   UNL A   1      30.848  28.724  24.570  1.00  0.00    -0.372 N 
ATOM     15  H   UNL A   1      30.194  28.124  24.997  1.00  0.00     0.161 HD
BRANCH  14  16
ATOM     16  C   UNL A   1      30.697  28.975  23.140  1.00  0.00     0.080 C 
ATOM     17  C   UNL A   1      30.787  27.613  22.436  1.00  0.00     0.031 C 
BRANCH  16  18
ATOM     18  C   UNL A   1      29.361  29.668  22.776  1.00  0.00     0.011 C 
ATOM     19  C   UNL A   1      28.832  30.721  23.754  1.00  0.00     0.006 C 
ATOM     20  C   UNL A   1      29.497  30.470  21.475  1.00  0.00     0.006 C 
ATOM     21  C   UNL A   1      27.983  31.686  22.921  1.00  0.00     0.000 C 
ATOM     22  C   UNL A   1      28.280  31.381  21.458  1.00  0.00     0.000 C 
ENDBRANCH  16  18
ENDBRANCH  14  16
ENDBRANCH  13  14
ENDBRANCH   6   8
ENDBRANCH   5   6
ENDBRANCH   4   5
ENDBRANCH   3   4
ENDBRANCH   2   3
ENDBRANCH   1   2
BRANCH   1  23
ATOM     23  C   UNL A   1      36.999  22.105  24.503  1.00  0.00     0.188 C 
BRANCH  23  24
ATOM     24  O   UNL A   1      37.678  21.539  25.602  1.00  0.00    -0.376 OA
BRANCH  24  25
ATOM     25  C   UNL A   1      38.907  22.057  26.087  1.00  0.00     0.202 C 
BRANCH  25  26
ATOM     26  C   UNL A   1      40.294  21.555  25.685  1.00  0.00     0.261 C 
BRANCH  26  27
ATOM     27  O   UNL A   1      41.382  22.111  26.387  1.00  0.00    -0.460 OA
BRANCH  27  28
ATOM     28  C   UNL A   1      41.688  23.367  26.008  1.00  0.00     0.338 C 
ATOM     29  O   UNL A   1      42.462  23.704  25.129  1.00  0.00    -0.246 OA
BRANCH  28  30
ATOM     30  C   UNL A   1      40.928  24.290  26.847  1.00  0.00     0.060 A 
ATOM     31  C   UNL A   1      40.510  25.482  26.253  1.00  0.00     0.016 A 
ATOM     32  C   UNL A   1      40.959  24.101  28.236  1.00  0.00     0.016 A 
ATOM     33  C   UNL A   1      40.408  26.587  27.057  1.00  0.00     0.010 A 
ATOM     34  C   UNL A   1      40.876  25.208  29.035  1.00  0.00     0.010 A 
ATOM     35  C   UNL A   1      40.726  26.442  28.410  1.00  0.00    -0.014 A 
BRANCH  35  36
ATOM     36  C   UNL A   1      40.993  27.642  29.163  1.00  0.00     0.031 A 
ATOM     37  C   UNL A   1      42.183  28.372  28.689  1.00  0.00     0.074 A 
ATOM     38  C   UNL A   1      40.152  28.027  30.142  1.00  0.00     0.049 A 
ATOM     39  N   UNL A   1      43.299  28.550  29.310  1.00  0.00    -0.248 NA
ATOM     40  C   UNL A   1      42.199  28.793  27.278  1.00  0.00     0.031 C 
ATOM     41  C   UNL A   1      38.823  27.492  30.465  1.00  0.00     0.029 A 
ATOM     42  N   UNL A   1      40.261  29.079  30.990  1.00  0.00    -0.354 N 
ATOM     43  C   UNL A   1      44.085  29.300  28.445  1.00  0.00     0.074 A 
ATOM     44  C   UNL A   1      43.447  29.241  27.155  1.00  0.00     0.031 C 
ATOM     45  C   UNL A   1      38.162  28.385  31.239  1.00  0.00     0.029 A 
ATOM     46  C   UNL A   1      39.062  29.476  31.569  1.00  0.00     0.049 A 
ATOM     47  H   UNL A   1      41.119  29.524  31.180  1.00  0.00     0.167 HD
ATOM     48  C   UNL A   1      45.050  30.137  28.908  1.00  0.00     0.031 A 
ATOM     49  C   UNL A   1      38.823  30.669  32.174  1.00  0.00     0.031 A 
ATOM     50  C   UNL A   1      45.407  29.840  30.270  1.00  0.00     0.049 A 
ATOM     51  C   UNL A   1      40.148  31.263  32.500  1.00  0.00     0.074 A 
ATOM     52  C   UNL A   1      45.952  28.741  30.903  1.00  0.00     0.029 A 
ATOM     53  N   UNL A   1      44.821  30.600  31.255  1.00  0.00    -0.354 N 
ATOM     54  N   UNL A   1      40.972  30.739  33.366  1.00  0.00    -0.248 NA
ATOM     55  C   UNL A   1      40.766  32.131  31.505  1.00  0.00     0.031 C 
ATOM     56  C   UNL A   1      45.269  28.658  32.150  1.00  0.00     0.029 A 
ATOM     57  C   UNL A   1      44.398  29.745  32.243  1.00  0.00     0.049 A 
ATOM     58  H   UNL A   1      44.723  31.579  31.252  1.00  0.00     0.167 HD
ATOM     59  C   UNL A   1      42.229  30.858  32.788  1.00  0.00     0.074 A 
ATOM     60  C   UNL A   1      42.048  31.792  31.677  1.00  0.00     0.031 C 
ATOM     61  C   UNL A   1      43.232  29.974  33.075  1.00  0.00     0.031 A 
BRANCH  48  62
ATOM     62  C   UNL A   1      45.351  31.462  28.259  1.00  0.00    -0.014 A 
ATOM     63  C   UNL A   1      44.528  31.908  27.209  1.00  0.00     0.010 A 
ATOM     64  C   UNL A   1      46.568  32.151  28.459  1.00  0.00     0.010 A 
ATOM     65  C   UNL A   1      44.936  32.949  26.364  1.00  0.00     0.020 A 
ATOM     66  C   UNL A   1      46.962  33.216  27.653  1.00  0.00     0.020 A 
ATOM     67  C   UNL A   1      46.158  33.586  26.586  1.00  0.00     0.054 A 
BRANCH  67  68
ATOM     68  S   UNL A   1      46.728  34.849  25.426  1.00  0.00     0.124 S 
ATOM     69  O   UNL A   1      46.593  36.066  26.220  1.00  0.00    -0.237 OA
ATOM     70  O   UNL A   1      48.095  34.418  25.149  1.00  0.00    -0.237 OA
ATOM     71  O   UNL A   1      45.801  34.727  24.303  1.00  0.00    -0.744 OA
ENDBRANCH  67  68
ENDBRANCH  48  62
BRANCH  49  72
ATOM     72  C   UNL A   1      37.572  31.473  32.091  1.00  0.00    -0.014 A 
ATOM     73  C   UNL A   1      36.793  31.750  33.230  1.00  0.00     0.010 A 
ATOM     74  C   UNL A   1      37.282  32.200  30.915  1.00  0.00     0.010 A 
ATOM     75  C   UNL A   1      35.797  32.747  33.205  1.00  0.00     0.020 A 
ATOM     76  C   UNL A   1      36.290  33.187  30.881  1.00  0.00     0.020 A 
ATOM     77  C   UNL A   1      35.564  33.473  32.032  1.00  0.00     0.054 A 
BRANCH  77  78
ATOM     78  S   UNL A   1      34.397  34.867  32.046  1.00  0.00     0.124 S 
ATOM     79  O   UNL A   1      35.134  35.884  32.790  1.00  0.00    -0.237 OA
ATOM     80  O   UNL A   1      34.207  35.137  30.624  1.00  0.00    -0.237 OA
ATOM     81  O   UNL A   1      33.224  34.327  32.733  1.00  0.00    -0.744 OA
ENDBRANCH  77  78
ENDBRANCH  49  72
BRANCH  61  82
ATOM     82  C   UNL A   1      43.030  29.003  34.218  1.00  0.00    -0.014 A 
ATOM     83  C   UNL A   1      42.140  27.910  34.174  1.00  0.00     0.010 A 
ATOM     84  C   UNL A   1      43.900  29.112  35.316  1.00  0.00     0.010 A 
ATOM     85  C   UNL A   1      42.109  26.968  35.216  1.00  0.00     0.020 A 
ATOM     86  C   UNL A   1      43.885  28.170  36.347  1.00  0.00     0.020 A 
ATOM     87  C   UNL A   1      42.983  27.107  36.299  1.00  0.00     0.054 A 
BRANCH  87  88
ATOM     88  S   UNL A   1      42.967  25.873  37.630  1.00  0.00     0.124 S 
ATOM     89  O   UNL A   1      43.506  26.620  38.763  1.00  0.00    -0.237 OA
ATOM     90  O   UNL A   1      41.554  25.514  37.726  1.00  0.00    -0.237 OA
ATOM     91  O   UNL A   1      43.834  24.806  37.126  1.00  0.00    -0.744 OA
ENDBRANCH  87  88
ENDBRANCH  61  82
ENDBRANCH  35  36
ENDBRANCH  28  30
ENDBRANCH  27  28
ENDBRANCH  26  27
ENDBRANCH  25  26
ENDBRANCH  24  25
ENDBRANCH  23  24
ENDBRANCH   1  23
TORSDOF 23
ENDMDL
