MODEL 1
REMARK VINA RESULT:      -8.4      0.000      0.000
REMARK SMILES CCC(CC)(Nc1nc(Cl)nc(OC)n1)C(=O)OCCOCCOCCOC(=O)c1ccc(-c2c3nc(c(-c4ccc(S(=O)(=O)[O-])cc4)c4ccc([nH]4)c(-c4ccc(S(=O)(=O)[O-])cc4)c4nc(c(-c5ccc(S(=O)(=O)[O-])cc5)c5ccc2[nH]5)C=C4)C=C3)cc1
REMARK SMILES IDX 22 1 21 2 20 3 19 4 18 5 16 6 17 7 3 8 2 9 1 10 4 11 5 12
REMARK SMILES IDX 6 13 7 15 8 16 15 17 9 18 12 19 10 20 11 21 13 22 14 23
REMARK SMILES IDX 23 24 24 25 25 26 26 27 27 28 28 29 29 30 30 31 31 32 89 33
REMARK SMILES IDX 32 34 88 35 33 36 34 37 35 38 82 39 36 40 87 41 81 42 83 43
REMARK SMILES IDX 37 44 86 45 80 46 79 47 38 49 68 50 49 51 67 52 50 53 53 54
REMARK SMILES IDX 66 55 84 56 51 57 52 58 65 60 85 61 54 62 39 63 40 64 48 65
REMARK SMILES IDX 41 66 47 67 42 68 43 69 44 70 45 71 46 72 69 73 70 74 78 75
REMARK SMILES IDX 71 76 77 77 72 78 73 79 74 80 75 81 76 82 55 83 56 84 64 85
REMARK SMILES IDX 57 86 63 87 58 88 59 89 60 90 61 91 62 92
REMARK H PARENT 6 14 83 48 53 59
REMARK Flexibility Score: inf
ROOT
ATOM      1  C   UNL A   1      34.377  21.276  26.597  1.00  0.00     0.188 C 
ENDROOT
BRANCH   1   2
ATOM      2  O   UNL A   1      33.037  21.723  26.741  1.00  0.00    -0.376 OA
BRANCH   2   3
ATOM      3  C   UNL A   1      32.742  23.031  26.245  1.00  0.00     0.202 C 
BRANCH   3   4
ATOM      4  C   UNL A   1      31.559  23.739  26.902  1.00  0.00     0.261 C 
BRANCH   4   5
ATOM      5  O   UNL A   1      31.846  25.142  27.077  1.00  0.00    -0.461 OA
BRANCH   5   6
ATOM      6  C   UNL A   1      31.184  25.978  26.246  1.00  0.00     0.331 C 
ATOM      7  O   UNL A   1      29.962  25.922  26.101  1.00  0.00    -0.249 OA
BRANCH   6   8
ATOM      8  C   UNL A   1      32.040  27.053  25.518  1.00  0.00     0.137 C 
BRANCH   8   9
ATOM      9  C   UNL A   1      33.519  26.940  26.020  1.00  0.00     0.037 C 
ATOM     10  C   UNL A   1      34.149  28.151  26.687  1.00  0.00     0.007 C 
ENDBRANCH   8   9
BRANCH   8  11
ATOM     11  C   UNL A   1      31.357  28.397  25.894  1.00  0.00     0.037 C 
ATOM     12  C   UNL A   1      31.227  29.433  24.790  1.00  0.00     0.007 C 
ENDBRANCH   8  11
BRANCH   8  13
ATOM     13  N   UNL A   1      32.185  27.012  24.050  1.00  0.00    -0.338 N 
ATOM     14  H   UNL A   1      32.148  27.907  23.642  1.00  0.00     0.164 HD
BRANCH  13  15
ATOM     15  C   UNL A   1      32.357  26.029  23.132  1.00  0.00     0.231 A 
ATOM     16  N   UNL A   1      32.292  24.752  23.437  1.00  0.00    -0.182 NA
ATOM     17  N   UNL A   1      32.563  26.491  21.902  1.00  0.00    -0.159 NA
ATOM     18  C   UNL A   1      32.584  23.954  22.417  1.00  0.00     0.230 A 
ATOM     19  C   UNL A   1      32.841  25.579  20.972  1.00  0.00     0.322 A 
ATOM     20  Cl  UNL A   1      32.581  22.277  22.766  1.00  0.00    -0.041 Cl
ATOM     21  N   UNL A   1      32.855  24.274  21.163  1.00  0.00    -0.164 NA
BRANCH  19  22
ATOM     22  O   UNL A   1      33.104  25.967  19.676  1.00  0.00    -0.467 OA
ATOM     23  C   UNL A   1      32.296  25.331  18.694  1.00  0.00     0.282 C 
ENDBRANCH  19  22
ENDBRANCH  13  15
ENDBRANCH   8  13
ENDBRANCH   6   8
ENDBRANCH   5   6
ENDBRANCH   4   5
ENDBRANCH   3   4
ENDBRANCH   2   3
ENDBRANCH   1   2
BRANCH   1  24
ATOM     24  C   UNL A   1      34.931  21.167  25.171  1.00  0.00     0.188 C 
BRANCH  24  25
ATOM     25  O   UNL A   1      35.831  20.101  24.881  1.00  0.00    -0.376 OA
BRANCH  25  26
ATOM     26  C   UNL A   1      37.178  20.346  25.308  1.00  0.00     0.202 C 
BRANCH  26  27
ATOM     27  C   UNL A   1      37.750  21.658  24.760  1.00  0.00     0.261 C 
BRANCH  27  28
ATOM     28  O   UNL A   1      38.375  22.404  25.818  1.00  0.00    -0.460 OA
BRANCH  28  29
ATOM     29  C   UNL A   1      37.860  23.637  26.042  1.00  0.00     0.338 C 
ATOM     30  O   UNL A   1      36.695  23.980  25.950  1.00  0.00    -0.246 OA
BRANCH  29  31
ATOM     31  C   UNL A   1      38.907  24.491  26.640  1.00  0.00     0.060 A 
ATOM     32  C   UNL A   1      39.071  24.466  28.035  1.00  0.00     0.016 A 
ATOM     33  C   UNL A   1      39.739  25.276  25.840  1.00  0.00     0.016 A 
ATOM     34  C   UNL A   1      40.036  25.271  28.642  1.00  0.00     0.010 A 
ATOM     35  C   UNL A   1      40.693  26.087  26.447  1.00  0.00     0.010 A 
ATOM     36  C   UNL A   1      40.816  26.118  27.849  1.00  0.00    -0.014 A 
BRANCH  36  37
ATOM     37  C   UNL A   1      41.597  27.226  28.441  1.00  0.00     0.031 A 
ATOM     38  C   UNL A   1      40.826  28.384  29.005  1.00  0.00     0.074 A 
ATOM     39  C   UNL A   1      42.938  27.255  28.376  1.00  0.00     0.049 A 
ATOM     40  N   UNL A   1      41.238  29.580  29.326  1.00  0.00    -0.248 NA
ATOM     41  C   UNL A   1      39.382  28.165  29.200  1.00  0.00     0.031 C 
ATOM     42  C   UNL A   1      43.789  26.168  27.898  1.00  0.00     0.029 A 
ATOM     43  N   UNL A   1      43.813  28.269  28.676  1.00  0.00    -0.354 N 
ATOM     44  C   UNL A   1      40.097  30.272  29.719  1.00  0.00     0.074 A 
ATOM     45  C   UNL A   1      38.980  29.364  29.587  1.00  0.00     0.031 C 
ATOM     46  C   UNL A   1      45.066  26.590  27.896  1.00  0.00     0.029 A 
ATOM     47  C   UNL A   1      45.110  27.989  28.319  1.00  0.00     0.049 A 
ATOM     48  H   UNL A   1      43.539  29.112  29.103  1.00  0.00     0.167 HD
ATOM     49  C   UNL A   1      39.992  31.555  30.134  1.00  0.00     0.031 A 
ATOM     50  C   UNL A   1      46.194  28.789  28.288  1.00  0.00     0.031 A 
ATOM     51  C   UNL A   1      41.113  32.450  30.233  1.00  0.00     0.049 A 
ATOM     52  C   UNL A   1      46.056  30.231  28.703  1.00  0.00     0.074 A 
ATOM     53  C   UNL A   1      41.130  33.766  30.655  1.00  0.00     0.029 A 
ATOM     54  N   UNL A   1      42.416  32.118  29.889  1.00  0.00    -0.354 N 
ATOM     55  N   UNL A   1      44.978  30.879  29.082  1.00  0.00    -0.248 NA
ATOM     56  C   UNL A   1      47.277  31.048  28.692  1.00  0.00     0.031 C 
ATOM     57  C   UNL A   1      42.437  34.246  30.516  1.00  0.00     0.029 A 
ATOM     58  C   UNL A   1      43.244  33.210  30.072  1.00  0.00     0.049 A 
ATOM     59  H   UNL A   1      42.707  31.236  29.563  1.00  0.00     0.167 HD
ATOM     60  C   UNL A   1      45.397  32.169  29.386  1.00  0.00     0.074 A 
ATOM     61  C   UNL A   1      46.825  32.211  29.145  1.00  0.00     0.031 C 
ATOM     62  C   UNL A   1      44.668  33.223  29.835  1.00  0.00     0.031 A 
BRANCH  49  63
ATOM     63  C   UNL A   1      38.609  32.067  30.442  1.00  0.00    -0.014 A 
ATOM     64  C   UNL A   1      37.838  32.732  29.472  1.00  0.00     0.010 A 
ATOM     65  C   UNL A   1      38.083  31.900  31.736  1.00  0.00     0.010 A 
ATOM     66  C   UNL A   1      36.596  33.278  29.807  1.00  0.00     0.020 A 
ATOM     67  C   UNL A   1      36.826  32.416  32.066  1.00  0.00     0.020 A 
ATOM     68  C   UNL A   1      36.103  33.125  31.106  1.00  0.00     0.054 A 
BRANCH  68  69
ATOM     69  S   UNL A   1      34.499  33.862  31.522  1.00  0.00     0.124 S 
ATOM     70  O   UNL A   1      33.889  34.014  30.203  1.00  0.00    -0.237 OA
ATOM     71  O   UNL A   1      33.893  32.848  32.379  1.00  0.00    -0.237 OA
ATOM     72  O   UNL A   1      34.853  35.111  32.192  1.00  0.00    -0.744 OA
ENDBRANCH  68  69
ENDBRANCH  49  63
BRANCH  50  73
ATOM     73  C   UNL A   1      47.497  28.237  27.822  1.00  0.00    -0.014 A 
ATOM     74  C   UNL A   1      48.392  27.656  28.737  1.00  0.00     0.010 A 
ATOM     75  C   UNL A   1      47.821  28.234  26.453  1.00  0.00     0.010 A 
ATOM     76  C   UNL A   1      49.581  27.072  28.290  1.00  0.00     0.020 A 
ATOM     77  C   UNL A   1      48.997  27.629  25.999  1.00  0.00     0.020 A 
ATOM     78  C   UNL A   1      49.870  27.051  26.922  1.00  0.00     0.054 A 
BRANCH  78  79
ATOM     79  S   UNL A   1      51.368  26.194  26.361  1.00  0.00     0.124 S 
ATOM     80  O   UNL A   1      52.422  26.953  27.028  1.00  0.00    -0.237 OA
ATOM     81  O   UNL A   1      51.156  24.836  26.856  1.00  0.00    -0.237 OA
ATOM     82  O   UNL A   1      51.318  26.333  24.908  1.00  0.00    -0.744 OA
ENDBRANCH  78  79
ENDBRANCH  50  73
BRANCH  62  83
ATOM     83  C   UNL A   1      45.400  34.499  30.158  1.00  0.00    -0.014 A 
ATOM     84  C   UNL A   1      45.974  34.718  31.421  1.00  0.00     0.010 A 
ATOM     85  C   UNL A   1      45.600  35.446  29.136  1.00  0.00     0.010 A 
ATOM     86  C   UNL A   1      46.728  35.871  31.659  1.00  0.00     0.020 A 
ATOM     87  C   UNL A   1      46.374  36.586  29.364  1.00  0.00     0.020 A 
ATOM     88  C   UNL A   1      46.928  36.795  30.627  1.00  0.00     0.054 A 
BRANCH  88  89
ATOM     89  S   UNL A   1      47.973  38.244  30.940  1.00  0.00     0.124 S 
ATOM     90  O   UNL A   1      49.244  37.629  31.309  1.00  0.00    -0.237 OA
ATOM     91  O   UNL A   1      47.958  38.934  29.652  1.00  0.00    -0.237 OA
ATOM     92  O   UNL A   1      47.281  38.943  32.022  1.00  0.00    -0.744 OA
ENDBRANCH  88  89
ENDBRANCH  62  83
ENDBRANCH  36  37
ENDBRANCH  29  31
ENDBRANCH  28  29
ENDBRANCH  27  28
ENDBRANCH  26  27
ENDBRANCH  25  26
ENDBRANCH  24  25
ENDBRANCH   1  24
TORSDOF 25
ENDMDL
MODEL 2
REMARK VINA RESULT:      -8.4      3.036      9.153
REMARK SMILES CCC(CC)(Nc1nc(Cl)nc(OC)n1)C(=O)OCCOCCOCCOC(=O)c1ccc(-c2c3nc(c(-c4ccc(S(=O)(=O)[O-])cc4)c4ccc([nH]4)c(-c4ccc(S(=O)(=O)[O-])cc4)c4nc(c(-c5ccc(S(=O)(=O)[O-])cc5)c5ccc2[nH]5)C=C4)C=C3)cc1
REMARK SMILES IDX 22 1 21 2 20 3 19 4 18 5 16 6 17 7 3 8 2 9 1 10 4 11 5 12
REMARK SMILES IDX 6 13 7 15 8 16 15 17 9 18 12 19 10 20 11 21 13 22 14 23
REMARK SMILES IDX 23 24 24 25 25 26 26 27 27 28 28 29 29 30 30 31 31 32 89 33
REMARK SMILES IDX 32 34 88 35 33 36 34 37 35 38 82 39 36 40 87 41 81 42 83 43
REMARK SMILES IDX 37 44 86 45 80 46 79 47 38 49 68 50 49 51 67 52 50 53 53 54
REMARK SMILES IDX 66 55 84 56 51 57 52 58 65 60 85 61 54 62 39 63 40 64 48 65
REMARK SMILES IDX 41 66 47 67 42 68 43 69 44 70 45 71 46 72 69 73 70 74 78 75
REMARK SMILES IDX 71 76 77 77 72 78 73 79 74 80 75 81 76 82 55 83 56 84 64 85
REMARK SMILES IDX 57 86 63 87 58 88 59 89 60 90 61 91 62 92
REMARK H PARENT 6 14 83 48 53 59
REMARK Flexibility Score: inf
ROOT
ATOM      1  C   UNL A   1      39.186  22.119  26.112  1.00  0.00     0.188 C 
ENDROOT
BRANCH   1   2
ATOM      2  O   UNL A   1      38.563  21.081  25.370  1.00  0.00    -0.376 OA
BRANCH   2   3
ATOM      3  C   UNL A   1      37.387  21.435  24.638  1.00  0.00     0.202 C 
BRANCH   3   4
ATOM      4  C   UNL A   1      36.161  21.784  25.479  1.00  0.00     0.261 C 
BRANCH   4   5
ATOM      5  O   UNL A   1      35.600  23.043  25.052  1.00  0.00    -0.461 OA
BRANCH   5   6
ATOM      6  C   UNL A   1      34.795  22.983  23.969  1.00  0.00     0.331 C 
ATOM      7  O   UNL A   1      35.232  23.107  22.823  1.00  0.00    -0.249 OA
BRANCH   6   8
ATOM      8  C   UNL A   1      33.290  22.697  24.237  1.00  0.00     0.137 C 
BRANCH   8   9
ATOM      9  C   UNL A   1      32.952  23.133  25.703  1.00  0.00     0.037 C 
ATOM     10  C   UNL A   1      31.673  22.609  26.334  1.00  0.00     0.007 C 
ENDBRANCH   8   9
BRANCH   8  11
ATOM     11  C   UNL A   1      33.148  21.169  23.995  1.00  0.00     0.037 C 
ATOM     12  C   UNL A   1      32.158  20.732  22.928  1.00  0.00     0.007 C 
ENDBRANCH   8  11
BRANCH   8  13
ATOM     13  N   UNL A   1      32.255  23.382  23.440  1.00  0.00    -0.338 N 
ATOM     14  H   UNL A   1      31.778  22.769  22.835  1.00  0.00     0.164 HD
BRANCH  13  15
ATOM     15  C   UNL A   1      31.806  24.658  23.347  1.00  0.00     0.231 A 
ATOM     16  N   UNL A   1      30.597  25.015  23.717  1.00  0.00    -0.182 NA
ATOM     17  N   UNL A   1      32.721  25.503  22.879  1.00  0.00    -0.159 NA
ATOM     18  C   UNL A   1      30.322  26.288  23.457  1.00  0.00     0.230 A 
ATOM     19  C   UNL A   1      32.311  26.752  22.667  1.00  0.00     0.322 A 
ATOM     20  Cl  UNL A   1      28.737  26.799  23.855  1.00  0.00    -0.041 Cl
ATOM     21  N   UNL A   1      31.112  27.220  22.951  1.00  0.00    -0.164 NA
BRANCH  19  22
ATOM     22  O   UNL A   1      33.180  27.688  22.150  1.00  0.00    -0.467 OA
ATOM     23  C   UNL A   1      33.201  28.925  22.852  1.00  0.00     0.282 C 
ENDBRANCH  19  22
ENDBRANCH  13  15
ENDBRANCH   8  13
ENDBRANCH   6   8
ENDBRANCH   5   6
ENDBRANCH   4   5
ENDBRANCH   3   4
ENDBRANCH   2   3
ENDBRANCH   1   2
BRANCH   1  24
ATOM     24  C   UNL A   1      40.714  22.073  26.236  1.00  0.00     0.188 C 
BRANCH  24  25
ATOM     25  O   UNL A   1      41.276  21.430  27.376  1.00  0.00    -0.376 OA
BRANCH  25  26
ATOM     26  C   UNL A   1      41.218  19.999  27.323  1.00  0.00     0.202 C 
BRANCH  26  27
ATOM     27  C   UNL A   1      41.817  19.423  26.034  1.00  0.00     0.261 C 
BRANCH  27  28
ATOM     28  O   UNL A   1      43.252  19.404  26.123  1.00  0.00    -0.460 OA
BRANCH  28  29
ATOM     29  C   UNL A   1      43.909  19.776  24.998  1.00  0.00     0.338 C 
ATOM     30  O   UNL A   1      43.981  19.164  23.947  1.00  0.00    -0.246 OA
BRANCH  29  31
ATOM     31  C   UNL A   1      44.368  21.171  25.152  1.00  0.00     0.060 A 
ATOM     32  C   UNL A   1      44.769  21.604  26.428  1.00  0.00     0.016 A 
ATOM     33  C   UNL A   1      44.441  22.030  24.055  1.00  0.00     0.016 A 
ATOM     34  C   UNL A   1      45.192  22.919  26.621  1.00  0.00     0.010 A 
ATOM     35  C   UNL A   1      44.853  23.345  24.250  1.00  0.00     0.010 A 
ATOM     36  C   UNL A   1      45.189  23.804  25.538  1.00  0.00    -0.014 A 
BRANCH  36  37
ATOM     37  C   UNL A   1      45.290  25.266  25.736  1.00  0.00     0.031 A 
ATOM     38  C   UNL A   1      46.661  25.874  25.673  1.00  0.00     0.074 A 
ATOM     39  C   UNL A   1      44.222  26.006  26.073  1.00  0.00     0.049 A 
ATOM     40  N   UNL A   1      47.070  27.048  26.071  1.00  0.00    -0.248 NA
ATOM     41  C   UNL A   1      47.722  25.019  25.112  1.00  0.00     0.031 C 
ATOM     42  C   UNL A   1      42.840  25.534  26.115  1.00  0.00     0.029 A 
ATOM     43  N   UNL A   1      44.150  27.312  26.493  1.00  0.00    -0.354 N 
ATOM     44  C   UNL A   1      48.443  27.057  25.851  1.00  0.00     0.074 A 
ATOM     45  C   UNL A   1      48.795  25.770  25.293  1.00  0.00     0.031 C 
ATOM     46  C   UNL A   1      42.059  26.525  26.579  1.00  0.00     0.029 A 
ATOM     47  C   UNL A   1      42.895  27.676  26.917  1.00  0.00     0.049 A 
ATOM     48  H   UNL A   1      44.920  27.924  26.490  1.00  0.00     0.167 HD
ATOM     49  C   UNL A   1      49.331  28.045  26.108  1.00  0.00     0.031 A 
ATOM     50  C   UNL A   1      42.483  28.791  27.553  1.00  0.00     0.031 A 
ATOM     51  C   UNL A   1      48.964  29.308  26.689  1.00  0.00     0.049 A 
ATOM     52  C   UNL A   1      43.490  29.863  27.882  1.00  0.00     0.074 A 
ATOM     53  C   UNL A   1      49.773  30.390  26.980  1.00  0.00     0.029 A 
ATOM     54  N   UNL A   1      47.676  29.649  27.077  1.00  0.00    -0.354 N 
ATOM     55  N   UNL A   1      44.785  29.872  27.664  1.00  0.00    -0.248 NA
ATOM     56  C   UNL A   1      42.981  31.076  28.537  1.00  0.00     0.031 C 
ATOM     57  C   UNL A   1      48.982  31.366  27.596  1.00  0.00     0.029 A 
ATOM     58  C   UNL A   1      47.670  30.919  27.624  1.00  0.00     0.049 A 
ATOM     59  H   UNL A   1      46.884  29.072  26.978  1.00  0.00     0.167 HD
ATOM     60  C   UNL A   1      45.240  31.103  28.124  1.00  0.00     0.074 A 
ATOM     61  C   UNL A   1      44.083  31.810  28.634  1.00  0.00     0.031 C 
ATOM     62  C   UNL A   1      46.501  31.607  28.116  1.00  0.00     0.031 A 
BRANCH  49  63
ATOM     63  C   UNL A   1      50.782  27.758  25.822  1.00  0.00    -0.014 A 
ATOM     64  C   UNL A   1      51.631  27.213  26.803  1.00  0.00     0.010 A 
ATOM     65  C   UNL A   1      51.310  28.062  24.554  1.00  0.00     0.010 A 
ATOM     66  C   UNL A   1      52.993  27.041  26.543  1.00  0.00     0.020 A 
ATOM     67  C   UNL A   1      52.665  27.859  24.279  1.00  0.00     0.020 A 
ATOM     68  C   UNL A   1      53.503  27.376  25.285  1.00  0.00     0.054 A 
BRANCH  68  69
ATOM     69  S   UNL A   1      55.278  27.163  24.980  1.00  0.00     0.124 S 
ATOM     70  O   UNL A   1      55.720  28.546  24.811  1.00  0.00    -0.237 OA
ATOM     71  O   UNL A   1      55.737  26.504  26.199  1.00  0.00    -0.237 OA
ATOM     72  O   UNL A   1      55.327  26.342  23.773  1.00  0.00    -0.744 OA
ENDBRANCH  68  69
ENDBRANCH  49  63
BRANCH  50  73
ATOM     73  C   UNL A   1      41.051  28.927  27.936  1.00  0.00    -0.014 A 
ATOM     74  C   UNL A   1      40.647  28.714  29.265  1.00  0.00     0.010 A 
ATOM     75  C   UNL A   1      40.094  29.329  26.987  1.00  0.00     0.010 A 
ATOM     76  C   UNL A   1      39.315  28.913  29.640  1.00  0.00     0.020 A 
ATOM     77  C   UNL A   1      38.766  29.554  27.363  1.00  0.00     0.020 A 
ATOM     78  C   UNL A   1      38.385  29.344  28.690  1.00  0.00     0.054 A 
BRANCH  78  79
ATOM     79  S   UNL A   1      36.687  29.695  29.227  1.00  0.00     0.124 S 
ATOM     80  O   UNL A   1      35.899  29.102  28.152  1.00  0.00    -0.237 OA
ATOM     81  O   UNL A   1      36.619  29.011  30.515  1.00  0.00    -0.237 OA
ATOM     82  O   UNL A   1      36.647  31.153  29.303  1.00  0.00    -0.744 OA
ENDBRANCH  78  79
ENDBRANCH  50  73
BRANCH  62  83
ATOM     83  C   UNL A   1      46.699  33.014  28.616  1.00  0.00    -0.014 A 
ATOM     84  C   UNL A   1      47.118  33.276  29.931  1.00  0.00     0.010 A 
ATOM     85  C   UNL A   1      46.558  34.084  27.711  1.00  0.00     0.010 A 
ATOM     86  C   UNL A   1      47.384  34.588  30.335  1.00  0.00     0.020 A 
ATOM     87  C   UNL A   1      46.848  35.392  28.105  1.00  0.00     0.020 A 
ATOM     88  C   UNL A   1      47.252  35.637  29.417  1.00  0.00     0.054 A 
BRANCH  88  89
ATOM     89  S   UNL A   1      47.676  37.319  29.946  1.00  0.00     0.124 S 
ATOM     90  O   UNL A   1      49.057  37.159  30.393  1.00  0.00    -0.237 OA
ATOM     91  O   UNL A   1      47.499  38.094  28.720  1.00  0.00    -0.237 OA
ATOM     92  O   UNL A   1      46.708  37.605  31.002  1.00  0.00    -0.744 OA
ENDBRANCH  88  89
ENDBRANCH  62  83
ENDBRANCH  36  37
ENDBRANCH  29  31
ENDBRANCH  28  29
ENDBRANCH  27  28
ENDBRANCH  26  27
ENDBRANCH  25  26
ENDBRANCH  24  25
ENDBRANCH   1  24
TORSDOF 25
ENDMDL
MODEL 3
REMARK VINA RESULT:      -8.4      3.619      9.129
REMARK SMILES CCC(CC)(Nc1nc(Cl)nc(OC)n1)C(=O)OCCOCCOCCOC(=O)c1ccc(-c2c3nc(c(-c4ccc(S(=O)(=O)[O-])cc4)c4ccc([nH]4)c(-c4ccc(S(=O)(=O)[O-])cc4)c4nc(c(-c5ccc(S(=O)(=O)[O-])cc5)c5ccc2[nH]5)C=C4)C=C3)cc1
REMARK SMILES IDX 22 1 21 2 20 3 19 4 18 5 16 6 17 7 3 8 2 9 1 10 4 11 5 12
REMARK SMILES IDX 6 13 7 15 8 16 15 17 9 18 12 19 10 20 11 21 13 22 14 23
REMARK SMILES IDX 23 24 24 25 25 26 26 27 27 28 28 29 29 30 30 31 31 32 89 33
REMARK SMILES IDX 32 34 88 35 33 36 34 37 35 38 82 39 36 40 87 41 81 42 83 43
REMARK SMILES IDX 37 44 86 45 80 46 79 47 38 49 68 50 49 51 67 52 50 53 53 54
REMARK SMILES IDX 66 55 84 56 51 57 52 58 65 60 85 61 54 62 39 63 40 64 48 65
REMARK SMILES IDX 41 66 47 67 42 68 43 69 44 70 45 71 46 72 69 73 70 74 78 75
REMARK SMILES IDX 71 76 77 77 72 78 73 79 74 80 75 81 76 82 55 83 56 84 64 85
REMARK SMILES IDX 57 86 63 87 58 88 59 89 60 90 61 91 62 92
REMARK H PARENT 6 14 83 48 53 59
REMARK Flexibility Score: inf
ROOT
ATOM      1  C   UNL A   1      33.815  26.218  25.448  1.00  0.00     0.188 C 
ENDROOT
BRANCH   1   2
ATOM      2  O   UNL A   1      32.799  25.949  26.404  1.00  0.00    -0.376 OA
BRANCH   2   3
ATOM      3  C   UNL A   1      31.462  26.291  26.030  1.00  0.00     0.202 C 
BRANCH   3   4
ATOM      4  C   UNL A   1      30.510  25.115  25.822  1.00  0.00     0.261 C 
BRANCH   4   5
ATOM      5  O   UNL A   1      31.161  24.067  25.073  1.00  0.00    -0.461 OA
BRANCH   5   6
ATOM      6  C   UNL A   1      31.044  22.824  25.590  1.00  0.00     0.331 C 
ATOM      7  O   UNL A   1      30.036  22.463  26.201  1.00  0.00    -0.249 OA
BRANCH   6   8
ATOM      8  C   UNL A   1      32.228  21.850  25.330  1.00  0.00     0.137 C 
BRANCH   8   9
ATOM      9  C   UNL A   1      33.289  22.038  26.467  1.00  0.00     0.037 C 
ATOM     10  C   UNL A   1      32.794  22.207  27.894  1.00  0.00     0.007 C 
ENDBRANCH   8   9
BRANCH   8  11
ATOM     11  C   UNL A   1      32.748  22.255  23.923  1.00  0.00     0.037 C 
ATOM     12  C   UNL A   1      31.832  21.966  22.745  1.00  0.00     0.007 C 
ENDBRANCH   8  11
BRANCH   8  13
ATOM     13  N   UNL A   1      31.999  20.393  25.329  1.00  0.00    -0.338 N 
ATOM     14  H   UNL A   1      31.042  20.161  25.338  1.00  0.00     0.164 HD
BRANCH  13  15
ATOM     15  C   UNL A   1      32.799  19.298  25.317  1.00  0.00     0.231 A 
ATOM     16  N   UNL A   1      34.062  19.344  24.956  1.00  0.00    -0.182 NA
ATOM     17  N   UNL A   1      32.184  18.195  25.736  1.00  0.00    -0.159 NA
ATOM     18  C   UNL A   1      34.642  18.150  24.922  1.00  0.00     0.230 A 
ATOM     19  C   UNL A   1      32.884  17.066  25.651  1.00  0.00     0.322 A 
ATOM     20  Cl  UNL A   1      36.272  18.135  24.396  1.00  0.00    -0.041 Cl
ATOM     21  N   UNL A   1      34.140  16.974  25.260  1.00  0.00    -0.164 NA
BRANCH  19  22
ATOM     22  O   UNL A   1      32.317  15.868  26.028  1.00  0.00    -0.467 OA
ATOM     23  C   UNL A   1      32.838  14.729  25.352  1.00  0.00     0.282 C 
ENDBRANCH  19  22
ENDBRANCH  13  15
ENDBRANCH   8  13
ENDBRANCH   6   8
ENDBRANCH   5   6
ENDBRANCH   4   5
ENDBRANCH   3   4
ENDBRANCH   2   3
ENDBRANCH   1   2
BRANCH   1  24
ATOM     24  C   UNL A   1      34.607  25.020  24.911  1.00  0.00     0.188 C 
BRANCH  24  25
ATOM     25  O   UNL A   1      35.837  24.688  25.549  1.00  0.00    -0.376 OA
BRANCH  25  26
ATOM     26  C   UNL A   1      36.442  23.487  25.054  1.00  0.00     0.202 C 
BRANCH  26  27
ATOM     27  C   UNL A   1      37.337  22.796  26.089  1.00  0.00     0.261 C 
BRANCH  27  28
ATOM     28  O   UNL A   1      38.721  22.959  25.733  1.00  0.00    -0.460 OA
BRANCH  28  29
ATOM     29  C   UNL A   1      39.590  22.970  26.771  1.00  0.00     0.338 C 
ATOM     30  O   UNL A   1      40.307  22.057  27.145  1.00  0.00    -0.246 OA
BRANCH  29  31
ATOM     31  C   UNL A   1      39.713  24.351  27.279  1.00  0.00     0.060 A 
ATOM     32  C   UNL A   1      40.376  25.298  26.480  1.00  0.00     0.016 A 
ATOM     33  C   UNL A   1      39.153  24.720  28.502  1.00  0.00     0.016 A 
ATOM     34  C   UNL A   1      40.530  26.610  26.930  1.00  0.00     0.010 A 
ATOM     35  C   UNL A   1      39.317  26.026  28.956  1.00  0.00     0.010 A 
ATOM     36  C   UNL A   1      40.040  26.961  28.192  1.00  0.00    -0.014 A 
BRANCH  36  37
ATOM     37  C   UNL A   1      40.464  28.210  28.863  1.00  0.00     0.031 A 
ATOM     38  C   UNL A   1      41.790  28.194  29.567  1.00  0.00     0.074 A 
ATOM     39  C   UNL A   1      39.652  29.276  28.942  1.00  0.00     0.049 A 
ATOM     40  N   UNL A   1      42.276  29.029  30.445  1.00  0.00    -0.248 NA
ATOM     41  C   UNL A   1      42.673  27.056  29.256  1.00  0.00     0.031 C 
ATOM     42  C   UNL A   1      38.369  29.420  28.258  1.00  0.00     0.029 A 
ATOM     43  N   UNL A   1      39.778  30.426  29.681  1.00  0.00    -0.354 N 
ATOM     44  C   UNL A   1      43.501  28.494  30.826  1.00  0.00     0.074 A 
ATOM     45  C   UNL A   1      43.678  27.262  30.090  1.00  0.00     0.031 C 
ATOM     46  C   UNL A   1      37.803  30.577  28.643  1.00  0.00     0.029 A 
ATOM     47  C   UNL A   1      38.658  31.222  29.639  1.00  0.00     0.049 A 
ATOM     48  H   UNL A   1      40.588  30.657  30.190  1.00  0.00     0.167 HD
ATOM     49  C   UNL A   1      44.389  28.981  31.723  1.00  0.00     0.031 A 
ATOM     50  C   UNL A   1      38.341  32.314  30.364  1.00  0.00     0.031 A 
ATOM     51  C   UNL A   1      44.182  30.195  32.465  1.00  0.00     0.049 A 
ATOM     52  C   UNL A   1      39.315  32.818  31.397  1.00  0.00     0.074 A 
ATOM     53  C   UNL A   1      45.017  30.794  33.389  1.00  0.00     0.029 A 
ATOM     54  N   UNL A   1      43.046  30.988  32.372  1.00  0.00    -0.354 N 
ATOM     55  N   UNL A   1      40.476  32.315  31.749  1.00  0.00    -0.248 NA
ATOM     56  C   UNL A   1      38.940  34.035  32.129  1.00  0.00     0.031 C 
ATOM     57  C   UNL A   1      44.362  31.922  33.895  1.00  0.00     0.029 A 
ATOM     58  C   UNL A   1      43.150  32.062  33.236  1.00  0.00     0.049 A 
ATOM     59  H   UNL A   1      42.280  30.810  31.779  1.00  0.00     0.167 HD
ATOM     60  C   UNL A   1      40.986  33.174  32.717  1.00  0.00     0.074 A 
ATOM     61  C   UNL A   1      40.005  34.225  32.898  1.00  0.00     0.031 C 
ATOM     62  C   UNL A   1      42.163  33.104  33.390  1.00  0.00     0.031 A 
BRANCH  49  63
ATOM     63  C   UNL A   1      45.621  28.156  31.988  1.00  0.00    -0.014 A 
ATOM     64  C   UNL A   1      45.664  27.211  33.030  1.00  0.00     0.010 A 
ATOM     65  C   UNL A   1      46.766  28.349  31.194  1.00  0.00     0.010 A 
ATOM     66  C   UNL A   1      46.847  26.524  33.313  1.00  0.00     0.020 A 
ATOM     67  C   UNL A   1      47.942  27.639  31.454  1.00  0.00     0.020 A 
ATOM     68  C   UNL A   1      47.982  26.751  32.529  1.00  0.00     0.054 A 
BRANCH  68  69
ATOM     69  S   UNL A   1      49.511  25.862  32.932  1.00  0.00     0.124 S 
ATOM     70  O   UNL A   1      50.267  25.990  31.687  1.00  0.00    -0.237 OA
ATOM     71  O   UNL A   1      50.035  26.621  34.064  1.00  0.00    -0.237 OA
ATOM     72  O   UNL A   1      49.055  24.511  33.247  1.00  0.00    -0.744 OA
ENDBRANCH  68  69
ENDBRANCH  49  63
BRANCH  50  73
ATOM     73  C   UNL A   1      37.029  32.982  30.142  1.00  0.00    -0.014 A 
ATOM     74  C   UNL A   1      36.060  33.002  31.160  1.00  0.00     0.010 A 
ATOM     75  C   UNL A   1      36.766  33.654  28.934  1.00  0.00     0.010 A 
ATOM     76  C   UNL A   1      34.858  33.693  30.978  1.00  0.00     0.020 A 
ATOM     77  C   UNL A   1      35.576  34.367  28.759  1.00  0.00     0.020 A 
ATOM     78  C   UNL A   1      34.628  34.381  29.784  1.00  0.00     0.054 A 
BRANCH  78  79
ATOM     79  S   UNL A   1      33.106  35.355  29.616  1.00  0.00     0.124 S 
ATOM     80  O   UNL A   1      32.489  35.183  30.927  1.00  0.00    -0.237 OA
ATOM     81  O   UNL A   1      33.620  36.691  29.328  1.00  0.00    -0.237 OA
ATOM     82  O   UNL A   1      32.409  34.712  28.505  1.00  0.00    -0.744 OA
ENDBRANCH  78  79
ENDBRANCH  50  73
BRANCH  62  83
ATOM     83  C   UNL A   1      42.497  34.223  34.341  1.00  0.00    -0.014 A 
ATOM     84  C   UNL A   1      42.124  34.175  35.694  1.00  0.00     0.010 A 
ATOM     85  C   UNL A   1      43.290  35.291  33.883  1.00  0.00     0.010 A 
ATOM     86  C   UNL A   1      42.530  35.185  36.572  1.00  0.00     0.020 A 
ATOM     87  C   UNL A   1      43.720  36.288  34.762  1.00  0.00     0.020 A 
ATOM     88  C   UNL A   1      43.331  36.232  36.100  1.00  0.00     0.054 A 
BRANCH  88  89
ATOM     89  S   UNL A   1      43.909  37.488  37.274  1.00  0.00     0.124 S 
ATOM     90  O   UNL A   1      45.114  36.867  37.816  1.00  0.00    -0.237 OA
ATOM     91  O   UNL A   1      44.131  38.650  36.417  1.00  0.00    -0.237 OA
ATOM     92  O   UNL A   1      42.798  37.618  38.216  1.00  0.00    -0.744 OA
ENDBRANCH  88  89
ENDBRANCH  62  83
ENDBRANCH  36  37
ENDBRANCH  29  31
ENDBRANCH  28  29
ENDBRANCH  27  28
ENDBRANCH  26  27
ENDBRANCH  25  26
ENDBRANCH  24  25
ENDBRANCH   1  24
TORSDOF 25
ENDMDL
