MODEL 1
REMARK VINA RESULT:     -10.5      0.000      0.000
REMARK SMILES O=C(Nc1ccc(N2CCCCC2)cc1C(=O)OCCOCCOCCOC(=O)c1ccc(-c2c3nc(c(-c4ccc(S(=O)(=O)[O-])cc4)c4ccc([nH]4)c(-c4ccc(S(=O)(=O)[O-])cc4)c4nc(c(-c5ccc(S(=O)(=O)[O-])cc5)c5ccc2[nH]5)C=C4)C=C3)cc1)c1ccccc1
REMARK SMILES IDX 23 1 22 2 21 3 20 4 19 5 18 6 16 7 17 8 15 9 4 10 5 11 6 12
REMARK SMILES IDX 14 13 7 14 3 15 1 16 2 17 90 19 91 20 95 21 92 22 94 23
REMARK SMILES IDX 93 24 8 25 9 26 13 27 10 28 12 29 11 30 24 31 25 32 26 33
REMARK SMILES IDX 27 34 28 35 29 36 30 37 31 38 89 39 32 40 88 41 33 42 34 43
REMARK SMILES IDX 35 44 82 45 36 46 87 47 81 48 83 49 37 50 86 51 80 52 79 53
REMARK SMILES IDX 38 55 68 56 49 57 67 58 50 59 53 60 66 61 84 62 51 63 52 64
REMARK SMILES IDX 65 66 85 67 54 68 39 69 40 70 48 71 41 72 47 73 42 74 43 75
REMARK SMILES IDX 44 76 45 77 46 78 69 79 70 80 78 81 71 82 77 83 72 84 73 85
REMARK SMILES IDX 74 86 75 87 76 88 55 89 56 90 64 91 57 92 63 93 58 94 59 95
REMARK SMILES IDX 60 96 61 97 62 98
REMARK H PARENT 3 18 83 54 53 65
REMARK Flexibility Score: inf
ROOT
ATOM      1  C   UNL A   1      32.383  28.393  27.249  1.00  0.00     0.188 C 
ENDROOT
BRANCH   1   2
ATOM      2  C   UNL A   1      31.687  27.615  26.110  1.00  0.00     0.188 C 
BRANCH   2   3
ATOM      3  O   UNL A   1      30.885  26.553  26.570  1.00  0.00    -0.376 OA
BRANCH   3   4
ATOM      4  C   UNL A   1      30.992  25.298  25.936  1.00  0.00     0.202 C 
BRANCH   4   5
ATOM      5  C   UNL A   1      30.448  23.998  26.546  1.00  0.00     0.261 C 
BRANCH   5   6
ATOM      6  O   UNL A   1      30.652  22.757  25.859  1.00  0.00    -0.460 OA
BRANCH   6   7
ATOM      7  C   UNL A   1      31.904  22.235  25.901  1.00  0.00     0.340 C 
ATOM      8  O   UNL A   1      32.683  22.342  26.836  1.00  0.00    -0.246 OA
BRANCH   7   9
ATOM      9  C   UNL A   1      32.157  21.370  24.715  1.00  0.00     0.085 A 
ATOM     10  C   UNL A   1      32.093  21.786  23.369  1.00  0.00     0.056 A 
ATOM     11  C   UNL A   1      32.158  20.805  22.369  1.00  0.00     0.029 A 
ATOM     12  C   UNL A   1      32.422  19.474  22.685  1.00  0.00     0.028 A 
ATOM     13  C   UNL A   1      32.405  20.008  25.016  1.00  0.00     0.043 A 
ATOM     14  C   UNL A   1      32.575  19.058  24.008  1.00  0.00     0.038 A 
BRANCH  10  15
ATOM     15  N   UNL A   1      32.012  23.103  22.862  1.00  0.00    -0.321 N 
ATOM     16  O   UNL A   1      32.475  25.282  22.520  1.00  0.00    -0.269 OA
ATOM     17  C   UNL A   1      32.855  24.188  22.939  1.00  0.00     0.255 C 
ATOM     18  H   UNL A   1      31.189  23.278  22.350  1.00  0.00     0.170 HD
BRANCH  17  19
ATOM     19  C   UNL A   1      34.237  24.065  23.452  1.00  0.00     0.040 A 
ATOM     20  C   UNL A   1      35.221  23.339  22.773  1.00  0.00     0.014 A 
ATOM     21  C   UNL A   1      34.521  24.635  24.699  1.00  0.00     0.014 A 
ATOM     22  C   UNL A   1      36.423  23.043  23.417  1.00  0.00     0.001 A 
ATOM     23  C   UNL A   1      35.725  24.341  25.335  1.00  0.00     0.001 A 
ATOM     24  C   UNL A   1      36.659  23.517  24.708  1.00  0.00     0.000 A 
ENDBRANCH  17  19
ENDBRANCH  10  15
BRANCH  14  25
ATOM     25  N   UNL A   1      32.907  17.744  24.253  1.00  0.00    -0.372 N 
ATOM     26  C   UNL A   1      31.890  16.878  24.848  1.00  0.00     0.116 C 
ATOM     27  C   UNL A   1      33.992  17.076  23.544  1.00  0.00     0.116 C 
ATOM     28  C   UNL A   1      32.565  15.964  25.868  1.00  0.00     0.021 C 
ATOM     29  C   UNL A   1      34.712  16.158  24.538  1.00  0.00     0.021 C 
ATOM     30  C   UNL A   1      33.742  15.208  25.248  1.00  0.00     0.004 C 
ENDBRANCH  14  25
ENDBRANCH   7   9
ENDBRANCH   6   7
ENDBRANCH   5   6
ENDBRANCH   4   5
ENDBRANCH   3   4
ENDBRANCH   2   3
ENDBRANCH   1   2
BRANCH   1  31
ATOM     31  O   UNL A   1      32.464  29.814  27.212  1.00  0.00    -0.376 OA
BRANCH  31  32
ATOM     32  C   UNL A   1      33.727  30.439  27.030  1.00  0.00     0.202 C 
BRANCH  32  33
ATOM     33  C   UNL A   1      34.653  30.666  28.237  1.00  0.00     0.261 C 
BRANCH  33  34
ATOM     34  O   UNL A   1      36.034  30.330  28.024  1.00  0.00    -0.460 OA
BRANCH  34  35
ATOM     35  C   UNL A   1      36.705  29.877  29.114  1.00  0.00     0.338 C 
ATOM     36  O   UNL A   1      36.256  29.711  30.237  1.00  0.00    -0.246 OA
BRANCH  35  37
ATOM     37  C   UNL A   1      38.036  29.379  28.698  1.00  0.00     0.060 A 
ATOM     38  C   UNL A   1      38.821  28.720  29.658  1.00  0.00     0.016 A 
ATOM     39  C   UNL A   1      38.504  29.532  27.392  1.00  0.00     0.016 A 
ATOM     40  C   UNL A   1      40.084  28.235  29.323  1.00  0.00     0.010 A 
ATOM     41  C   UNL A   1      39.787  29.076  27.065  1.00  0.00     0.010 A 
ATOM     42  C   UNL A   1      40.594  28.454  28.038  1.00  0.00    -0.014 A 
BRANCH  42  43
ATOM     43  C   UNL A   1      42.047  28.278  27.799  1.00  0.00     0.031 A 
ATOM     44  C   UNL A   1      42.949  29.444  28.103  1.00  0.00     0.074 A 
ATOM     45  C   UNL A   1      42.565  27.118  27.356  1.00  0.00     0.049 A 
ATOM     46  N   UNL A   1      44.243  29.553  27.957  1.00  0.00    -0.248 NA
ATOM     47  C   UNL A   1      42.300  30.649  28.652  1.00  0.00     0.031 C 
ATOM     48  C   UNL A   1      41.812  25.895  27.083  1.00  0.00     0.029 A 
ATOM     49  N   UNL A   1      43.864  26.787  27.053  1.00  0.00    -0.354 N 
ATOM     50  C   UNL A   1      44.561  30.838  28.383  1.00  0.00     0.074 A 
ATOM     51  C   UNL A   1      43.325  31.475  28.778  1.00  0.00     0.031 C 
ATOM     52  C   UNL A   1      42.662  24.950  26.641  1.00  0.00     0.029 A 
ATOM     53  C   UNL A   1      44.012  25.510  26.568  1.00  0.00     0.049 A 
ATOM     54  H   UNL A   1      44.619  27.408  27.173  1.00  0.00     0.167 HD
ATOM     55  C   UNL A   1      45.772  31.437  28.439  1.00  0.00     0.031 A 
ATOM     56  C   UNL A   1      45.107  24.877  26.099  1.00  0.00     0.031 A 
ATOM     57  C   UNL A   1      46.999  30.815  28.026  1.00  0.00     0.049 A 
ATOM     58  C   UNL A   1      46.432  25.601  26.082  1.00  0.00     0.074 A 
ATOM     59  C   UNL A   1      48.279  31.339  28.056  1.00  0.00     0.029 A 
ATOM     60  N   UNL A   1      47.098  29.540  27.493  1.00  0.00    -0.354 N 
ATOM     61  N   UNL A   1      46.722  26.805  26.516  1.00  0.00    -0.248 NA
ATOM     62  C   UNL A   1      47.580  24.876  25.514  1.00  0.00     0.031 C 
ATOM     63  C   UNL A   1      49.145  30.400  27.486  1.00  0.00     0.029 A 
ATOM     64  C   UNL A   1      48.413  29.269  27.162  1.00  0.00     0.049 A 
ATOM     65  H   UNL A   1      46.343  28.919  27.370  1.00  0.00     0.167 HD
ATOM     66  C   UNL A   1      48.089  26.966  26.305  1.00  0.00     0.074 A 
ATOM     67  C   UNL A   1      48.570  25.736  25.713  1.00  0.00     0.031 C 
ATOM     68  C   UNL A   1      48.878  28.035  26.581  1.00  0.00     0.031 A 
BRANCH  55  69
ATOM     69  C   UNL A   1      45.817  32.861  28.924  1.00  0.00    -0.014 A 
ATOM     70  C   UNL A   1      46.029  33.163  30.281  1.00  0.00     0.010 A 
ATOM     71  C   UNL A   1      45.668  33.910  28.000  1.00  0.00     0.010 A 
ATOM     72  C   UNL A   1      46.059  34.493  30.710  1.00  0.00     0.020 A 
ATOM     73  C   UNL A   1      45.724  35.241  28.421  1.00  0.00     0.020 A 
ATOM     74  C   UNL A   1      45.904  35.523  29.777  1.00  0.00     0.054 A 
BRANCH  74  75
ATOM     75  S   UNL A   1      45.975  37.240  30.355  1.00  0.00     0.124 S 
ATOM     76  O   UNL A   1      45.232  37.940  29.310  1.00  0.00    -0.237 OA
ATOM     77  O   UNL A   1      45.312  37.168  31.655  1.00  0.00    -0.237 OA
ATOM     78  O   UNL A   1      47.405  37.531  30.404  1.00  0.00    -0.744 OA
ENDBRANCH  74  75
ENDBRANCH  55  69
BRANCH  56  79
ATOM     79  C   UNL A   1      45.008  23.484  25.578  1.00  0.00    -0.014 A 
ATOM     80  C   UNL A   1      45.186  22.384  26.437  1.00  0.00     0.010 A 
ATOM     81  C   UNL A   1      44.770  23.250  24.212  1.00  0.00     0.010 A 
ATOM     82  C   UNL A   1      45.148  21.079  25.937  1.00  0.00     0.020 A 
ATOM     83  C   UNL A   1      44.705  21.945  23.712  1.00  0.00     0.020 A 
ATOM     84  C   UNL A   1      44.907  20.868  24.576  1.00  0.00     0.054 A 
BRANCH  84  85
ATOM     85  S   UNL A   1      44.824  19.164  23.955  1.00  0.00     0.124 S 
ATOM     86  O   UNL A   1      46.143  18.648  24.308  1.00  0.00    -0.237 OA
ATOM     87  O   UNL A   1      43.704  18.608  24.712  1.00  0.00    -0.237 OA
ATOM     88  O   UNL A   1      44.577  19.333  22.525  1.00  0.00    -0.744 OA
ENDBRANCH  84  85
ENDBRANCH  56  79
BRANCH  68  89
ATOM     89  C   UNL A   1      50.352  27.914  26.293  1.00  0.00    -0.014 A 
ATOM     90  C   UNL A   1      50.894  28.311  25.058  1.00  0.00     0.010 A 
ATOM     91  C   UNL A   1      51.217  27.460  27.306  1.00  0.00     0.010 A 
ATOM     92  C   UNL A   1      52.272  28.228  24.832  1.00  0.00     0.020 A 
ATOM     93  C   UNL A   1      52.596  27.402  27.094  1.00  0.00     0.020 A 
ATOM     94  C   UNL A   1      53.113  27.774  25.852  1.00  0.00     0.054 A 
BRANCH  94  95
ATOM     95  S   UNL A   1      54.903  27.721  25.551  1.00  0.00     0.124 S 
ATOM     96  O   UNL A   1      55.239  26.363  25.970  1.00  0.00    -0.237 OA
ATOM     97  O   UNL A   1      54.995  27.978  24.116  1.00  0.00    -0.237 OA
ATOM     98  O   UNL A   1      55.429  28.784  26.404  1.00  0.00    -0.744 OA
ENDBRANCH  94  95
ENDBRANCH  68  89
ENDBRANCH  42  43
ENDBRANCH  35  37
ENDBRANCH  34  35
ENDBRANCH  33  34
ENDBRANCH  32  33
ENDBRANCH  31  32
ENDBRANCH   1  31
TORSDOF 23
ENDMDL
MODEL 2
REMARK VINA RESULT:     -10.2      6.275      8.345
REMARK SMILES O=C(Nc1ccc(N2CCCCC2)cc1C(=O)OCCOCCOCCOC(=O)c1ccc(-c2c3nc(c(-c4ccc(S(=O)(=O)[O-])cc4)c4ccc([nH]4)c(-c4ccc(S(=O)(=O)[O-])cc4)c4nc(c(-c5ccc(S(=O)(=O)[O-])cc5)c5ccc2[nH]5)C=C4)C=C3)cc1)c1ccccc1
REMARK SMILES IDX 23 1 22 2 21 3 20 4 19 5 18 6 16 7 17 8 15 9 4 10 5 11 6 12
REMARK SMILES IDX 14 13 7 14 3 15 1 16 2 17 90 19 91 20 95 21 92 22 94 23
REMARK SMILES IDX 93 24 8 25 9 26 13 27 10 28 12 29 11 30 24 31 25 32 26 33
REMARK SMILES IDX 27 34 28 35 29 36 30 37 31 38 89 39 32 40 88 41 33 42 34 43
REMARK SMILES IDX 35 44 82 45 36 46 87 47 81 48 83 49 37 50 86 51 80 52 79 53
REMARK SMILES IDX 38 55 68 56 49 57 67 58 50 59 53 60 66 61 84 62 51 63 52 64
REMARK SMILES IDX 65 66 85 67 54 68 39 69 40 70 48 71 41 72 47 73 42 74 43 75
REMARK SMILES IDX 44 76 45 77 46 78 69 79 70 80 78 81 71 82 77 83 72 84 73 85
REMARK SMILES IDX 74 86 75 87 76 88 55 89 56 90 64 91 57 92 63 93 58 94 59 95
REMARK SMILES IDX 60 96 61 97 62 98
REMARK H PARENT 3 18 83 54 53 65
REMARK Flexibility Score: inf
ROOT
ATOM      1  C   UNL A   1      34.864  30.142  27.662  1.00  0.00     0.188 C 
ENDROOT
BRANCH   1   2
ATOM      2  C   UNL A   1      33.933  28.921  27.483  1.00  0.00     0.188 C 
BRANCH   2   3
ATOM      3  O   UNL A   1      34.230  28.158  26.337  1.00  0.00    -0.376 OA
BRANCH   3   4
ATOM      4  C   UNL A   1      33.590  26.913  26.166  1.00  0.00     0.202 C 
BRANCH   4   5
ATOM      5  C   UNL A   1      32.191  26.603  26.716  1.00  0.00     0.261 C 
BRANCH   5   6
ATOM      6  O   UNL A   1      31.932  25.324  27.308  1.00  0.00    -0.460 OA
BRANCH   6   7
ATOM      7  C   UNL A   1      31.033  24.529  26.673  1.00  0.00     0.340 C 
ATOM      8  O   UNL A   1      29.907  24.276  27.073  1.00  0.00    -0.246 OA
BRANCH   7   9
ATOM      9  C   UNL A   1      31.539  24.125  25.331  1.00  0.00     0.085 A 
ATOM     10  C   UNL A   1      30.846  24.282  24.113  1.00  0.00     0.056 A 
ATOM     11  C   UNL A   1      31.373  23.668  22.968  1.00  0.00     0.029 A 
ATOM     12  C   UNL A   1      32.618  23.042  22.997  1.00  0.00     0.028 A 
ATOM     13  C   UNL A   1      32.794  23.466  25.343  1.00  0.00     0.043 A 
ATOM     14  C   UNL A   1      33.359  22.953  24.175  1.00  0.00     0.038 A 
BRANCH  10  15
ATOM     15  N   UNL A   1      29.675  25.032  23.861  1.00  0.00    -0.321 N 
ATOM     16  O   UNL A   1      28.300  26.795  23.576  1.00  0.00    -0.269 OA
ATOM     17  C   UNL A   1      29.454  26.370  23.626  1.00  0.00     0.255 C 
ATOM     18  H   UNL A   1      28.853  24.490  23.851  1.00  0.00     0.170 HD
BRANCH  17  19
ATOM     19  C   UNL A   1      30.568  27.309  23.364  1.00  0.00     0.040 A 
ATOM     20  C   UNL A   1      31.582  27.021  22.446  1.00  0.00     0.014 A 
ATOM     21  C   UNL A   1      30.627  28.478  24.133  1.00  0.00     0.014 A 
ATOM     22  C   UNL A   1      32.732  27.813  22.423  1.00  0.00     0.001 A 
ATOM     23  C   UNL A   1      31.774  29.268  24.101  1.00  0.00     0.001 A 
ATOM     24  C   UNL A   1      32.839  28.914  23.272  1.00  0.00     0.000 A 
ENDBRANCH  17  19
ENDBRANCH  10  15
BRANCH  14  25
ATOM     25  N   UNL A   1      34.613  22.387  24.125  1.00  0.00    -0.372 N 
ATOM     26  C   UNL A   1      34.765  21.011  24.592  1.00  0.00     0.116 C 
ATOM     27  C   UNL A   1      35.650  22.885  23.229  1.00  0.00     0.116 C 
ATOM     28  C   UNL A   1      36.080  20.898  25.360  1.00  0.00     0.021 C 
ATOM     29  C   UNL A   1      36.991  22.807  23.967  1.00  0.00     0.021 C 
ATOM     30  C   UNL A   1      37.258  21.407  24.526  1.00  0.00     0.004 C 
ENDBRANCH  14  25
ENDBRANCH   7   9
ENDBRANCH   6   7
ENDBRANCH   5   6
ENDBRANCH   4   5
ENDBRANCH   3   4
ENDBRANCH   2   3
ENDBRANCH   1   2
BRANCH   1  31
ATOM     31  O   UNL A   1      34.324  31.454  27.764  1.00  0.00    -0.376 OA
BRANCH  31  32
ATOM     32  C   UNL A   1      33.006  31.709  27.297  1.00  0.00     0.202 C 
BRANCH  32  33
ATOM     33  C   UNL A   1      32.370  33.093  27.508  1.00  0.00     0.261 C 
BRANCH  33  34
ATOM     34  O   UNL A   1      33.291  34.197  27.520  1.00  0.00    -0.460 OA
BRANCH  34  35
ATOM     35  C   UNL A   1      33.317  34.930  28.663  1.00  0.00     0.338 C 
ATOM     36  O   UNL A   1      32.473  35.724  29.046  1.00  0.00    -0.246 OA
BRANCH  35  37
ATOM     37  C   UNL A   1      34.427  34.459  29.523  1.00  0.00     0.060 A 
ATOM     38  C   UNL A   1      35.721  34.448  28.979  1.00  0.00     0.016 A 
ATOM     39  C   UNL A   1      34.215  34.054  30.842  1.00  0.00     0.016 A 
ATOM     40  C   UNL A   1      36.802  34.010  29.741  1.00  0.00     0.010 A 
ATOM     41  C   UNL A   1      35.295  33.580  31.596  1.00  0.00     0.010 A 
ATOM     42  C   UNL A   1      36.587  33.526  31.038  1.00  0.00    -0.014 A 
BRANCH  42  43
ATOM     43  C   UNL A   1      37.651  32.729  31.695  1.00  0.00     0.031 A 
ATOM     44  C   UNL A   1      38.139  33.195  33.040  1.00  0.00     0.074 A 
ATOM     45  C   UNL A   1      38.154  31.611  31.142  1.00  0.00     0.049 A 
ATOM     46  N   UNL A   1      39.072  32.692  33.806  1.00  0.00    -0.248 NA
ATOM     47  C   UNL A   1      37.479  34.389  33.600  1.00  0.00     0.031 C 
ATOM     48  C   UNL A   1      37.726  31.017  29.876  1.00  0.00     0.029 A 
ATOM     49  N   UNL A   1      39.149  30.774  31.585  1.00  0.00    -0.354 N 
ATOM     50  C   UNL A   1      39.120  33.512  34.927  1.00  0.00     0.074 A 
ATOM     51  C   UNL A   1      38.134  34.553  34.737  1.00  0.00     0.031 C 
ATOM     52  C   UNL A   1      38.465  29.917  29.640  1.00  0.00     0.029 A 
ATOM     53  C   UNL A   1      39.439  29.748  30.719  1.00  0.00     0.049 A 
ATOM     54  H   UNL A   1      39.613  30.899  32.446  1.00  0.00     0.167 HD
ATOM     55  C   UNL A   1      39.913  33.412  36.018  1.00  0.00     0.031 A 
ATOM     56  C   UNL A   1      40.394  28.797  30.781  1.00  0.00     0.031 A 
ATOM     57  C   UNL A   1      40.909  32.393  36.200  1.00  0.00     0.049 A 
ATOM     58  C   UNL A   1      41.331  28.764  31.965  1.00  0.00     0.074 A 
ATOM     59  C   UNL A   1      41.754  32.203  37.277  1.00  0.00     0.029 A 
ATOM     60  N   UNL A   1      41.203  31.404  35.275  1.00  0.00    -0.354 N 
ATOM     61  N   UNL A   1      41.344  29.528  33.031  1.00  0.00    -0.248 NA
ATOM     62  C   UNL A   1      42.383  27.734  31.952  1.00  0.00     0.031 C 
ATOM     63  C   UNL A   1      42.602  31.131  36.979  1.00  0.00     0.029 A 
ATOM     64  C   UNL A   1      42.240  30.617  35.744  1.00  0.00     0.049 A 
ATOM     65  H   UNL A   1      40.743  31.280  34.414  1.00  0.00     0.167 HD
ATOM     66  C   UNL A   1      42.380  29.049  33.830  1.00  0.00     0.074 A 
ATOM     67  C   UNL A   1      42.965  27.925  33.129  1.00  0.00     0.031 C 
ATOM     68  C   UNL A   1      42.806  29.496  35.038  1.00  0.00     0.031 A 
BRANCH  55  69
ATOM     69  C   UNL A   1      39.764  34.468  37.080  1.00  0.00    -0.014 A 
ATOM     70  C   UNL A   1      38.878  34.298  38.158  1.00  0.00     0.010 A 
ATOM     71  C   UNL A   1      40.543  35.637  37.006  1.00  0.00     0.010 A 
ATOM     72  C   UNL A   1      38.751  35.296  39.129  1.00  0.00     0.020 A 
ATOM     73  C   UNL A   1      40.438  36.624  37.988  1.00  0.00     0.020 A 
ATOM     74  C   UNL A   1      39.531  36.453  39.036  1.00  0.00     0.054 A 
BRANCH  74  75
ATOM     75  S   UNL A   1      39.366  37.719  40.323  1.00  0.00     0.124 S 
ATOM     76  O   UNL A   1      40.604  38.478  40.158  1.00  0.00    -0.237 OA
ATOM     77  O   UNL A   1      38.145  38.419  39.931  1.00  0.00    -0.237 OA
ATOM     78  O   UNL A   1      39.269  36.948  41.559  1.00  0.00    -0.744 OA
ENDBRANCH  74  75
ENDBRANCH  55  69
BRANCH  56  79
ATOM     79  C   UNL A   1      40.540  27.802  29.681  1.00  0.00    -0.014 A 
ATOM     80  C   UNL A   1      39.689  26.684  29.609  1.00  0.00     0.010 A 
ATOM     81  C   UNL A   1      41.556  27.948  28.720  1.00  0.00     0.010 A 
ATOM     82  C   UNL A   1      39.863  25.723  28.609  1.00  0.00     0.020 A 
ATOM     83  C   UNL A   1      41.717  27.002  27.702  1.00  0.00     0.020 A 
ATOM     84  C   UNL A   1      40.878  25.888  27.660  1.00  0.00     0.054 A 
BRANCH  84  85
ATOM     85  S   UNL A   1      41.061  24.648  26.348  1.00  0.00     0.124 S 
ATOM     86  O   UNL A   1      41.398  25.475  25.194  1.00  0.00    -0.237 OA
ATOM     87  O   UNL A   1      42.140  23.806  26.860  1.00  0.00    -0.237 OA
ATOM     88  O   UNL A   1      39.749  24.007  26.300  1.00  0.00    -0.744 OA
ENDBRANCH  84  85
ENDBRANCH  56  79
BRANCH  68  89
ATOM     89  C   UNL A   1      43.928  28.746  35.709  1.00  0.00    -0.014 A 
ATOM     90  C   UNL A   1      45.271  29.125  35.535  1.00  0.00     0.010 A 
ATOM     91  C   UNL A   1      43.623  27.686  36.584  1.00  0.00     0.010 A 
ATOM     92  C   UNL A   1      46.290  28.439  36.203  1.00  0.00     0.020 A 
ATOM     93  C   UNL A   1      44.636  27.017  37.274  1.00  0.00     0.020 A 
ATOM     94  C   UNL A   1      45.965  27.390  37.068  1.00  0.00     0.054 A 
BRANCH  94  95
ATOM     95  S   UNL A   1      47.302  26.546  37.960  1.00  0.00     0.124 S 
ATOM     96  O   UNL A   1      46.672  26.254  39.244  1.00  0.00    -0.237 OA
ATOM     97  O   UNL A   1      47.571  25.386  37.113  1.00  0.00    -0.237 OA
ATOM     98  O   UNL A   1      48.372  27.541  38.003  1.00  0.00    -0.744 OA
ENDBRANCH  94  95
ENDBRANCH  68  89
ENDBRANCH  42  43
ENDBRANCH  35  37
ENDBRANCH  34  35
ENDBRANCH  33  34
ENDBRANCH  32  33
ENDBRANCH  31  32
ENDBRANCH   1  31
TORSDOF 23
ENDMDL
MODEL 3
REMARK VINA RESULT:      -9.9      3.298      4.080
REMARK SMILES O=C(Nc1ccc(N2CCCCC2)cc1C(=O)OCCOCCOCCOC(=O)c1ccc(-c2c3nc(c(-c4ccc(S(=O)(=O)[O-])cc4)c4ccc([nH]4)c(-c4ccc(S(=O)(=O)[O-])cc4)c4nc(c(-c5ccc(S(=O)(=O)[O-])cc5)c5ccc2[nH]5)C=C4)C=C3)cc1)c1ccccc1
REMARK SMILES IDX 23 1 22 2 21 3 20 4 19 5 18 6 16 7 17 8 15 9 4 10 5 11 6 12
REMARK SMILES IDX 14 13 7 14 3 15 1 16 2 17 90 19 91 20 95 21 92 22 94 23
REMARK SMILES IDX 93 24 8 25 9 26 13 27 10 28 12 29 11 30 24 31 25 32 26 33
REMARK SMILES IDX 27 34 28 35 29 36 30 37 31 38 89 39 32 40 88 41 33 42 34 43
REMARK SMILES IDX 35 44 82 45 36 46 87 47 81 48 83 49 37 50 86 51 80 52 79 53
REMARK SMILES IDX 38 55 68 56 49 57 67 58 50 59 53 60 66 61 84 62 51 63 52 64
REMARK SMILES IDX 65 66 85 67 54 68 39 69 40 70 48 71 41 72 47 73 42 74 43 75
REMARK SMILES IDX 44 76 45 77 46 78 69 79 70 80 78 81 71 82 77 83 72 84 73 85
REMARK SMILES IDX 74 86 75 87 76 88 55 89 56 90 64 91 57 92 63 93 58 94 59 95
REMARK SMILES IDX 60 96 61 97 62 98
REMARK H PARENT 3 18 83 54 53 65
REMARK Flexibility Score: inf
ROOT
ATOM      1  C   UNL A   1      31.234  27.901  24.959  1.00  0.00     0.188 C 
ENDROOT
BRANCH   1   2
ATOM      2  C   UNL A   1      31.279  26.478  24.358  1.00  0.00     0.188 C 
BRANCH   2   3
ATOM      3  O   UNL A   1      32.460  26.214  23.638  1.00  0.00    -0.376 OA
BRANCH   3   4
ATOM      4  C   UNL A   1      32.412  25.301  22.565  1.00  0.00     0.202 C 
BRANCH   4   5
ATOM      5  C   UNL A   1      31.390  24.159  22.476  1.00  0.00     0.261 C 
BRANCH   5   6
ATOM      6  O   UNL A   1      31.423  23.106  23.448  1.00  0.00    -0.460 OA
BRANCH   6   7
ATOM      7  C   UNL A   1      32.003  21.940  23.065  1.00  0.00     0.340 C 
ATOM      8  O   UNL A   1      32.206  21.599  21.910  1.00  0.00    -0.246 OA
BRANCH   7   9
ATOM      9  C   UNL A   1      32.512  21.189  24.247  1.00  0.00     0.085 A 
ATOM     10  C   UNL A   1      32.964  21.767  25.451  1.00  0.00     0.056 A 
ATOM     11  C   UNL A   1      33.599  20.937  26.386  1.00  0.00     0.029 A 
ATOM     12  C   UNL A   1      33.655  19.556  26.199  1.00  0.00     0.028 A 
ATOM     13  C   UNL A   1      32.597  19.787  24.067  1.00  0.00     0.043 A 
ATOM     14  C   UNL A   1      33.134  18.957  25.052  1.00  0.00     0.038 A 
BRANCH  10  15
ATOM     15  N   UNL A   1      32.828  23.104  25.887  1.00  0.00    -0.321 N 
ATOM     16  O   UNL A   1      33.368  25.177  26.589  1.00  0.00    -0.269 OA
ATOM     17  C   UNL A   1      33.730  24.131  26.049  1.00  0.00     0.255 C 
ATOM     18  H   UNL A   1      31.904  23.351  26.120  1.00  0.00     0.170 HD
BRANCH  17  19
ATOM     19  C   UNL A   1      35.113  24.041  25.533  1.00  0.00     0.040 A 
ATOM     20  C   UNL A   1      35.389  23.807  24.181  1.00  0.00     0.014 A 
ATOM     21  C   UNL A   1      36.160  24.116  26.459  1.00  0.00     0.014 A 
ATOM     22  C   UNL A   1      36.689  23.479  23.793  1.00  0.00     0.001 A 
ATOM     23  C   UNL A   1      37.457  23.795  26.064  1.00  0.00     0.001 A 
ATOM     24  C   UNL A   1      37.713  23.442  24.740  1.00  0.00     0.000 A 
ENDBRANCH  17  19
ENDBRANCH  10  15
BRANCH  14  25
ATOM     25  N   UNL A   1      33.154  17.583  24.958  1.00  0.00    -0.372 N 
ATOM     26  C   UNL A   1      31.888  16.867  25.104  1.00  0.00     0.116 C 
ATOM     27  C   UNL A   1      34.226  16.870  24.275  1.00  0.00     0.116 C 
ATOM     28  C   UNL A   1      32.137  15.596  25.914  1.00  0.00     0.021 C 
ATOM     29  C   UNL A   1      34.524  15.591  25.066  1.00  0.00     0.021 C 
ATOM     30  C   UNL A   1      33.262  14.757  25.304  1.00  0.00     0.004 C 
ENDBRANCH  14  25
ENDBRANCH   7   9
ENDBRANCH   6   7
ENDBRANCH   5   6
ENDBRANCH   4   5
ENDBRANCH   3   4
ENDBRANCH   2   3
ENDBRANCH   1   2
BRANCH   1  31
ATOM     31  O   UNL A   1      31.401  28.100  26.358  1.00  0.00    -0.376 OA
BRANCH  31  32
ATOM     32  C   UNL A   1      32.617  28.650  26.848  1.00  0.00     0.202 C 
BRANCH  32  33
ATOM     33  C   UNL A   1      32.696  30.143  27.206  1.00  0.00     0.261 C 
BRANCH  33  34
ATOM     34  O   UNL A   1      33.970  30.766  26.970  1.00  0.00    -0.460 OA
BRANCH  34  35
ATOM     35  C   UNL A   1      34.605  31.247  28.069  1.00  0.00     0.338 C 
ATOM     36  O   UNL A   1      34.159  32.033  28.889  1.00  0.00    -0.246 OA
BRANCH  35  37
ATOM     37  C   UNL A   1      35.864  30.497  28.277  1.00  0.00     0.060 A 
ATOM     38  C   UNL A   1      36.066  29.882  29.523  1.00  0.00     0.016 A 
ATOM     39  C   UNL A   1      36.824  30.376  27.270  1.00  0.00     0.016 A 
ATOM     40  C   UNL A   1      37.235  29.168  29.775  1.00  0.00     0.010 A 
ATOM     41  C   UNL A   1      38.014  29.688  27.535  1.00  0.00     0.010 A 
ATOM     42  C   UNL A   1      38.238  29.109  28.799  1.00  0.00    -0.014 A 
BRANCH  42  43
ATOM     43  C   UNL A   1      39.602  28.681  29.192  1.00  0.00     0.031 A 
ATOM     44  C   UNL A   1      40.426  29.645  30.004  1.00  0.00     0.074 A 
ATOM     45  C   UNL A   1      40.095  27.472  28.871  1.00  0.00     0.049 A 
ATOM     46  N   UNL A   1      41.650  29.522  30.448  1.00  0.00    -0.248 NA
ATOM     47  C   UNL A   1      39.777  30.917  30.369  1.00  0.00     0.031 C 
ATOM     48  C   UNL A   1      39.380  26.424  28.144  1.00  0.00     0.029 A 
ATOM     49  N   UNL A   1      41.331  26.924  29.120  1.00  0.00    -0.354 N 
ATOM     50  C   UNL A   1      41.920  30.702  31.132  1.00  0.00     0.074 A 
ATOM     51  C   UNL A   1      40.741  31.534  31.032  1.00  0.00     0.031 C 
ATOM     52  C   UNL A   1      40.197  25.364  27.995  1.00  0.00     0.029 A 
ATOM     53  C   UNL A   1      41.499  25.669  28.586  1.00  0.00     0.049 A 
ATOM     54  H   UNL A   1      42.031  27.389  29.634  1.00  0.00     0.167 HD
ATOM     55  C   UNL A   1      43.048  31.065  31.784  1.00  0.00     0.031 A 
ATOM     56  C   UNL A   1      42.587  24.872  28.560  1.00  0.00     0.031 A 
ATOM     57  C   UNL A   1      44.229  30.252  31.865  1.00  0.00     0.049 A 
ATOM     58  C   UNL A   1      43.866  25.341  29.213  1.00  0.00     0.074 A 
ATOM     59  C   UNL A   1      45.419  30.529  32.514  1.00  0.00     0.029 A 
ATOM     60  N   UNL A   1      44.375  29.010  31.268  1.00  0.00    -0.354 N 
ATOM     61  N   UNL A   1      44.097  26.446  29.881  1.00  0.00    -0.248 NA
ATOM     62  C   UNL A   1      45.032  24.448  29.109  1.00  0.00     0.031 C 
ATOM     63  C   UNL A   1      46.307  29.479  32.259  1.00  0.00     0.029 A 
ATOM     64  C   UNL A   1      45.646  28.520  31.506  1.00  0.00     0.049 A 
ATOM     65  H   UNL A   1      43.677  28.546  30.752  1.00  0.00     0.167 HD
ATOM     66  C   UNL A   1      45.421  26.364  30.305  1.00  0.00     0.074 A 
ATOM     67  C   UNL A   1      45.938  25.100  29.826  1.00  0.00     0.031 C 
ATOM     68  C   UNL A   1      46.144  27.255  31.030  1.00  0.00     0.031 A 
BRANCH  55  69
ATOM     69  C   UNL A   1      43.070  32.429  32.419  1.00  0.00    -0.014 A 
ATOM     70  C   UNL A   1      43.488  33.562  31.701  1.00  0.00     0.010 A 
ATOM     71  C   UNL A   1      42.641  32.576  33.751  1.00  0.00     0.010 A 
ATOM     72  C   UNL A   1      43.507  34.818  32.315  1.00  0.00     0.020 A 
ATOM     73  C   UNL A   1      42.634  33.834  34.359  1.00  0.00     0.020 A 
ATOM     74  C   UNL A   1      43.082  34.944  33.640  1.00  0.00     0.054 A 
BRANCH  74  75
ATOM     75  S   UNL A   1      43.090  36.589  34.404  1.00  0.00     0.124 S 
ATOM     76  O   UNL A   1      43.304  37.456  33.248  1.00  0.00    -0.237 OA
ATOM     77  O   UNL A   1      41.763  36.667  35.011  1.00  0.00    -0.237 OA
ATOM     78  O   UNL A   1      44.201  36.527  35.350  1.00  0.00    -0.744 OA
ENDBRANCH  74  75
ENDBRANCH  55  69
BRANCH  56  79
ATOM     79  C   UNL A   1      42.537  23.550  27.873  1.00  0.00    -0.014 A 
ATOM     80  C   UNL A   1      42.046  22.414  28.541  1.00  0.00     0.010 A 
ATOM     81  C   UNL A   1      43.015  23.414  26.557  1.00  0.00     0.010 A 
ATOM     82  C   UNL A   1      42.051  21.164  27.914  1.00  0.00     0.020 A 
ATOM     83  C   UNL A   1      42.998  22.170  25.917  1.00  0.00     0.020 A 
ATOM     84  C   UNL A   1      42.527  21.050  26.604  1.00  0.00     0.054 A 
BRANCH  84  85
ATOM     85  S   UNL A   1      42.489  19.425  25.797  1.00  0.00     0.124 S 
ATOM     86  O   UNL A   1      41.093  19.323  25.386  1.00  0.00    -0.237 OA
ATOM     87  O   UNL A   1      43.458  19.588  24.716  1.00  0.00    -0.237 OA
ATOM     88  O   UNL A   1      42.899  18.508  26.858  1.00  0.00    -0.744 OA
ENDBRANCH  84  85
ENDBRANCH  56  79
BRANCH  68  89
ATOM     89  C   UNL A   1      47.557  26.880  31.396  1.00  0.00    -0.014 A 
ATOM     90  C   UNL A   1      48.650  27.282  30.609  1.00  0.00     0.010 A 
ATOM     91  C   UNL A   1      47.796  26.173  32.589  1.00  0.00     0.010 A 
ATOM     92  C   UNL A   1      49.955  26.959  30.993  1.00  0.00     0.020 A 
ATOM     93  C   UNL A   1      49.099  25.872  32.991  1.00  0.00     0.020 A 
ATOM     94  C   UNL A   1      50.170  26.255  32.183  1.00  0.00     0.054 A 
BRANCH  94  95
ATOM     95  S   UNL A   1      51.875  25.888  32.685  1.00  0.00     0.124 S 
ATOM     96  O   UNL A   1      51.723  25.645  34.116  1.00  0.00    -0.237 OA
ATOM     97  O   UNL A   1      52.202  24.715  31.879  1.00  0.00    -0.237 OA
ATOM     98  O   UNL A   1      52.609  27.102  32.334  1.00  0.00    -0.744 OA
ENDBRANCH  94  95
ENDBRANCH  68  89
ENDBRANCH  42  43
ENDBRANCH  35  37
ENDBRANCH  34  35
ENDBRANCH  33  34
ENDBRANCH  32  33
ENDBRANCH  31  32
ENDBRANCH   1  31
TORSDOF 23
ENDMDL
