MODEL 1
REMARK VINA RESULT:      -9.4      0.000      0.000
REMARK SMILES COc1cccc(-c2c(C(=O)OCCOCCOCCOC(=O)c3ccc(-c4c5nc(c(-c6ccc(S(=O)(=O)[O-])cc6)c6ccc([nH]6)c(-c6ccc(S(=O)(=O)[O-])cc6)c6nc(c(-c7ccc(S(=O)(=O)[O-])cc7)c7ccc4[nH]7)C=C6)C=C5)cc3)nnn2-c2ccc(OC(F)(F)F)cc2)c1
REMARK SMILES IDX 16 1 15 2 14 3 13 4 12 5 10 6 11 7 9 8 8 9 86 10 84 11 85 12
REMARK SMILES IDX 7 13 3 14 4 15 98 16 5 17 6 18 2 19 1 20 87 21 88 22 97 23
REMARK SMILES IDX 89 24 96 25 90 26 91 27 92 28 93 29 94 30 95 31 17 32 18 33
REMARK SMILES IDX 19 34 20 35 21 36 22 37 23 38 24 39 25 40 83 41 26 42 82 43
REMARK SMILES IDX 27 44 28 45 29 46 76 47 30 48 81 49 75 50 77 51 31 52 80 53
REMARK SMILES IDX 74 54 73 55 32 57 62 58 43 59 61 60 44 61 47 62 60 63 78 64
REMARK SMILES IDX 45 65 46 66 59 68 79 69 48 70 33 71 34 72 42 73 35 74 41 75
REMARK SMILES IDX 36 76 37 77 38 78 39 79 40 80 63 81 64 82 72 83 65 84 71 85
REMARK SMILES IDX 66 86 67 87 68 88 69 89 70 90 49 91 50 92 58 93 51 94 57 95
REMARK SMILES IDX 52 96 53 97 54 98 55 99 56 100
REMARK H PARENT 77 56 47 67
REMARK Flexibility Score: inf
ROOT
ATOM      1  C   UNL A   1      32.620  31.120  26.913  1.00  0.00     0.188 C 
ENDROOT
BRANCH   1   2
ATOM      2  O   UNL A   1      33.009  30.313  25.812  1.00  0.00    -0.376 OA
BRANCH   2   3
ATOM      3  C   UNL A   1      33.467  28.986  26.017  1.00  0.00     0.202 C 
BRANCH   3   4
ATOM      4  C   UNL A   1      32.548  27.760  25.826  1.00  0.00     0.261 C 
BRANCH   4   5
ATOM      5  O   UNL A   1      33.199  26.535  25.457  1.00  0.00    -0.458 OA
BRANCH   5   6
ATOM      6  C   UNL A   1      33.225  26.232  24.124  1.00  0.00     0.361 C 
ATOM      7  O   UNL A   1      33.587  27.000  23.255  1.00  0.00    -0.244 OA
BRANCH   6   8
ATOM      8  C   UNL A   1      32.881  24.837  23.857  1.00  0.00     0.198 A 
ATOM      9  C   UNL A   1      33.624  23.672  24.007  1.00  0.00     0.109 A 
ATOM     10  N   UNL A   1      32.697  22.683  23.679  1.00  0.00    -0.212 N 
ATOM     11  N   UNL A   1      31.682  24.528  23.249  1.00  0.00    -0.122 NA
ATOM     12  N   UNL A   1      31.646  23.222  23.030  1.00  0.00    -0.061 NA
BRANCH   9  13
ATOM     13  C   UNL A   1      34.997  23.385  24.441  1.00  0.00     0.007 A 
ATOM     14  C   UNL A   1      36.913  21.869  24.498  1.00  0.00     0.119 A 
ATOM     15  C   UNL A   1      37.496  22.672  25.477  1.00  0.00     0.046 A 
ATOM     16  C   UNL A   1      35.675  22.239  23.967  1.00  0.00     0.056 A 
ATOM     17  C   UNL A   1      36.866  23.839  25.910  1.00  0.00     0.005 A 
ATOM     18  C   UNL A   1      35.619  24.193  25.396  1.00  0.00     0.011 A 
BRANCH  14  19
ATOM     19  O   UNL A   1      37.618  20.736  24.199  1.00  0.00    -0.497 OA
ATOM     20  C   UNL A   1      38.428  20.179  25.228  1.00  0.00     0.278 C 
ENDBRANCH  14  19
ENDBRANCH   9  13
BRANCH  10  21
ATOM     21  C   UNL A   1      32.665  21.340  24.117  1.00  0.00     0.067 A 
ATOM     22  C   UNL A   1      32.446  20.298  23.217  1.00  0.00     0.032 A 
ATOM     23  C   UNL A   1      32.833  21.075  25.479  1.00  0.00     0.032 A 
ATOM     24  C   UNL A   1      32.479  18.980  23.689  1.00  0.00     0.049 A 
ATOM     25  C   UNL A   1      32.818  19.764  25.947  1.00  0.00     0.049 A 
ATOM     26  C   UNL A   1      32.670  18.704  25.052  1.00  0.00     0.129 A 
BRANCH  26  27
ATOM     27  O   UNL A   1      32.694  17.378  25.379  1.00  0.00    -0.406 OA
BRANCH  27  28
ATOM     28  C   UNL A   1      33.798  16.615  24.918  1.00  0.00     0.573 C 
ATOM     29  F   UNL A   1      34.337  15.872  25.909  1.00  0.00    -0.132 F 
ATOM     30  F   UNL A   1      33.435  15.805  23.899  1.00  0.00    -0.132 F 
ATOM     31  F   UNL A   1      34.754  17.456  24.463  1.00  0.00    -0.132 F 
ENDBRANCH  27  28
ENDBRANCH  26  27
ENDBRANCH  10  21
ENDBRANCH   6   8
ENDBRANCH   5   6
ENDBRANCH   4   5
ENDBRANCH   3   4
ENDBRANCH   2   3
ENDBRANCH   1   2
BRANCH   1  32
ATOM     32  C   UNL A   1      33.681  31.698  27.877  1.00  0.00     0.188 C 
BRANCH  32  33
ATOM     33  O   UNL A   1      33.892  33.092  27.805  1.00  0.00    -0.376 OA
BRANCH  33  34
ATOM     34  C   UNL A   1      33.475  34.000  28.814  1.00  0.00     0.202 C 
BRANCH  34  35
ATOM     35  C   UNL A   1      34.331  34.440  30.002  1.00  0.00     0.261 C 
BRANCH  35  36
ATOM     36  O   UNL A   1      34.092  33.740  31.197  1.00  0.00    -0.460 OA
BRANCH  36  37
ATOM     37  C   UNL A   1      35.038  32.820  31.478  1.00  0.00     0.338 C 
ATOM     38  O   UNL A   1      35.241  31.771  30.899  1.00  0.00    -0.246 OA
BRANCH  37  39
ATOM     39  C   UNL A   1      35.793  33.297  32.641  1.00  0.00     0.060 A 
ATOM     40  C   UNL A   1      36.322  34.583  32.524  1.00  0.00     0.016 A 
ATOM     41  C   UNL A   1      36.349  32.309  33.457  1.00  0.00     0.016 A 
ATOM     42  C   UNL A   1      37.623  34.758  32.917  1.00  0.00     0.010 A 
ATOM     43  C   UNL A   1      37.661  32.462  33.788  1.00  0.00     0.010 A 
ATOM     44  C   UNL A   1      38.301  33.641  33.407  1.00  0.00    -0.014 A 
BRANCH  44  45
ATOM     45  C   UNL A   1      39.736  33.699  33.513  1.00  0.00     0.031 A 
ATOM     46  C   UNL A   1      40.395  32.909  32.456  1.00  0.00     0.074 A 
ATOM     47  C   UNL A   1      40.327  34.529  34.391  1.00  0.00     0.049 A 
ATOM     48  N   UNL A   1      40.997  31.774  32.578  1.00  0.00    -0.248 NA
ATOM     49  C   UNL A   1      40.123  33.302  31.060  1.00  0.00     0.031 C 
ATOM     50  C   UNL A   1      39.708  35.568  35.225  1.00  0.00     0.029 A 
ATOM     51  N   UNL A   1      41.647  34.713  34.624  1.00  0.00    -0.354 N 
ATOM     52  C   UNL A   1      41.374  31.437  31.284  1.00  0.00     0.074 A 
ATOM     53  C   UNL A   1      40.558  32.228  30.406  1.00  0.00     0.031 C 
ATOM     54  C   UNL A   1      40.669  36.426  35.647  1.00  0.00     0.029 A 
ATOM     55  C   UNL A   1      41.965  35.928  35.214  1.00  0.00     0.049 A 
ATOM     56  H   UNL A   1      42.327  34.038  34.394  1.00  0.00     0.167 HD
ATOM     57  C   UNL A   1      42.548  30.803  31.021  1.00  0.00     0.031 A 
ATOM     58  C   UNL A   1      43.194  36.510  35.229  1.00  0.00     0.031 A 
ATOM     59  C   UNL A   1      43.127  30.251  32.217  1.00  0.00     0.049 A 
ATOM     60  C   UNL A   1      44.178  35.452  34.858  1.00  0.00     0.074 A 
ATOM     61  C   UNL A   1      42.720  29.305  33.135  1.00  0.00     0.029 A 
ATOM     62  N   UNL A   1      44.108  30.997  32.832  1.00  0.00    -0.354 N 
ATOM     63  N   UNL A   1      44.423  34.406  35.601  1.00  0.00    -0.248 NA
ATOM     64  C   UNL A   1      44.498  35.293  33.444  1.00  0.00     0.031 C 
ATOM     65  C   UNL A   1      43.149  29.807  34.395  1.00  0.00     0.029 A 
ATOM     66  C   UNL A   1      43.860  30.992  34.182  1.00  0.00     0.049 A 
ATOM     67  H   UNL A   1      44.854  31.455  32.383  1.00  0.00     0.167 HD
ATOM     68  C   UNL A   1      44.528  33.344  34.710  1.00  0.00     0.074 A 
ATOM     69  C   UNL A   1      44.640  33.965  33.391  1.00  0.00     0.031 C 
ATOM     70  C   UNL A   1      44.217  32.068  35.087  1.00  0.00     0.031 A 
BRANCH  57  71
ATOM     71  C   UNL A   1      43.357  31.064  29.775  1.00  0.00    -0.014 A 
ATOM     72  C   UNL A   1      43.577  30.004  28.878  1.00  0.00     0.010 A 
ATOM     73  C   UNL A   1      44.114  32.238  29.570  1.00  0.00     0.010 A 
ATOM     74  C   UNL A   1      44.545  30.096  27.871  1.00  0.00     0.020 A 
ATOM     75  C   UNL A   1      45.045  32.362  28.542  1.00  0.00     0.020 A 
ATOM     76  C   UNL A   1      45.280  31.274  27.719  1.00  0.00     0.054 A 
BRANCH  76  77
ATOM     77  S   UNL A   1      46.597  31.354  26.484  1.00  0.00     0.124 S 
ATOM     78  O   UNL A   1      47.749  30.884  27.247  1.00  0.00    -0.237 OA
ATOM     79  O   UNL A   1      46.104  30.449  25.450  1.00  0.00    -0.237 OA
ATOM     80  O   UNL A   1      46.628  32.765  26.107  1.00  0.00    -0.744 OA
ENDBRANCH  76  77
ENDBRANCH  57  71
BRANCH  58  81
ATOM     81  C   UNL A   1      43.504  37.965  35.157  1.00  0.00    -0.014 A 
ATOM     82  C   UNL A   1      44.328  38.598  36.106  1.00  0.00     0.010 A 
ATOM     83  C   UNL A   1      43.180  38.694  33.993  1.00  0.00     0.010 A 
ATOM     84  C   UNL A   1      44.831  39.897  35.883  1.00  0.00     0.020 A 
ATOM     85  C   UNL A   1      43.672  39.986  33.765  1.00  0.00     0.020 A 
ATOM     86  C   UNL A   1      44.509  40.578  34.705  1.00  0.00     0.054 A 
BRANCH  86  87
ATOM     87  S   UNL A   1      45.267  42.195  34.358  1.00  0.00     0.124 S 
ATOM     88  O   UNL A   1      44.114  43.092  34.379  1.00  0.00    -0.237 OA
ATOM     89  O   UNL A   1      46.208  42.350  35.463  1.00  0.00    -0.237 OA
ATOM     90  O   UNL A   1      45.883  42.012  33.045  1.00  0.00    -0.744 OA
ENDBRANCH  86  87
ENDBRANCH  58  81
BRANCH  70  91
ATOM     91  C   UNL A   1      44.009  31.776  36.557  1.00  0.00    -0.014 A 
ATOM     92  C   UNL A   1      45.041  31.389  37.436  1.00  0.00     0.010 A 
ATOM     93  C   UNL A   1      42.755  32.107  37.099  1.00  0.00     0.010 A 
ATOM     94  C   UNL A   1      44.815  31.332  38.822  1.00  0.00     0.020 A 
ATOM     95  C   UNL A   1      42.530  32.070  38.476  1.00  0.00     0.020 A 
ATOM     96  C   UNL A   1      43.559  31.679  39.333  1.00  0.00     0.054 A 
BRANCH  96  97
ATOM     97  S   UNL A   1      43.286  31.678  41.127  1.00  0.00     0.124 S 
ATOM     98  O   UNL A   1      43.986  30.471  41.555  1.00  0.00    -0.237 OA
ATOM     99  O   UNL A   1      43.891  32.940  41.550  1.00  0.00    -0.237 OA
ATOM    100  O   UNL A   1      41.830  31.628  41.258  1.00  0.00    -0.744 OA
ENDBRANCH  96  97
ENDBRANCH  70  91
ENDBRANCH  44  45
ENDBRANCH  37  39
ENDBRANCH  36  37
ENDBRANCH  35  36
ENDBRANCH  34  35
ENDBRANCH  33  34
ENDBRANCH  32  33
ENDBRANCH   1  32
TORSDOF 25
ENDMDL
MODEL 2
REMARK VINA RESULT:      -9.2      5.374     10.333
REMARK SMILES COc1cccc(-c2c(C(=O)OCCOCCOCCOC(=O)c3ccc(-c4c5nc(c(-c6ccc(S(=O)(=O)[O-])cc6)c6ccc([nH]6)c(-c6ccc(S(=O)(=O)[O-])cc6)c6nc(c(-c7ccc(S(=O)(=O)[O-])cc7)c7ccc4[nH]7)C=C6)C=C5)cc3)nnn2-c2ccc(OC(F)(F)F)cc2)c1
REMARK SMILES IDX 16 1 15 2 14 3 13 4 12 5 10 6 11 7 9 8 8 9 86 10 84 11 85 12
REMARK SMILES IDX 7 13 3 14 4 15 98 16 5 17 6 18 2 19 1 20 87 21 88 22 97 23
REMARK SMILES IDX 89 24 96 25 90 26 91 27 92 28 93 29 94 30 95 31 17 32 18 33
REMARK SMILES IDX 19 34 20 35 21 36 22 37 23 38 24 39 25 40 83 41 26 42 82 43
REMARK SMILES IDX 27 44 28 45 29 46 76 47 30 48 81 49 75 50 77 51 31 52 80 53
REMARK SMILES IDX 74 54 73 55 32 57 62 58 43 59 61 60 44 61 47 62 60 63 78 64
REMARK SMILES IDX 45 65 46 66 59 68 79 69 48 70 33 71 34 72 42 73 35 74 41 75
REMARK SMILES IDX 36 76 37 77 38 78 39 79 40 80 63 81 64 82 72 83 65 84 71 85
REMARK SMILES IDX 66 86 67 87 68 88 69 89 70 90 49 91 50 92 58 93 51 94 57 95
REMARK SMILES IDX 52 96 53 97 54 98 55 99 56 100
REMARK H PARENT 77 56 47 67
REMARK Flexibility Score: inf
ROOT
ATOM      1  C   UNL A   1      34.751  33.969  27.988  1.00  0.00     0.188 C 
ENDROOT
BRANCH   1   2
ATOM      2  O   UNL A   1      33.451  34.484  27.749  1.00  0.00    -0.376 OA
BRANCH   2   3
ATOM      3  C   UNL A   1      32.317  33.633  27.803  1.00  0.00     0.202 C 
BRANCH   3   4
ATOM      4  C   UNL A   1      31.956  32.670  26.651  1.00  0.00     0.261 C 
BRANCH   4   5
ATOM      5  O   UNL A   1      31.501  31.365  27.039  1.00  0.00    -0.458 OA
BRANCH   5   6
ATOM      6  C   UNL A   1      32.447  30.380  27.102  1.00  0.00     0.361 C 
ATOM      7  O   UNL A   1      33.614  30.571  27.383  1.00  0.00    -0.244 OA
BRANCH   6   8
ATOM      8  C   UNL A   1      31.886  29.046  26.912  1.00  0.00     0.198 A 
ATOM      9  C   UNL A   1      31.442  28.400  25.765  1.00  0.00     0.109 A 
ATOM     10  N   UNL A   1      31.126  27.128  26.241  1.00  0.00    -0.212 N 
ATOM     11  N   UNL A   1      31.607  28.253  28.007  1.00  0.00    -0.122 NA
ATOM     12  N   UNL A   1      31.023  27.142  27.584  1.00  0.00    -0.061 NA
BRANCH   9  13
ATOM     13  C   UNL A   1      31.330  28.788  24.353  1.00  0.00     0.007 A 
ATOM     14  C   UNL A   1      29.943  29.483  22.464  1.00  0.00     0.119 A 
ATOM     15  C   UNL A   1      31.023  29.257  21.611  1.00  0.00     0.046 A 
ATOM     16  C   UNL A   1      30.106  29.268  23.835  1.00  0.00     0.056 A 
ATOM     17  C   UNL A   1      32.255  28.842  22.117  1.00  0.00     0.005 A 
ATOM     18  C   UNL A   1      32.407  28.605  23.482  1.00  0.00     0.011 A 
BRANCH  14  19
ATOM     19  O   UNL A   1      28.787  29.845  21.831  1.00  0.00    -0.497 OA
ATOM     20  C   UNL A   1      27.573  29.718  22.563  1.00  0.00     0.278 C 
ENDBRANCH  14  19
ENDBRANCH   9  13
BRANCH  10  21
ATOM     21  C   UNL A   1      31.122  25.907  25.529  1.00  0.00     0.067 A 
ATOM     22  C   UNL A   1      30.275  25.716  24.438  1.00  0.00     0.032 A 
ATOM     23  C   UNL A   1      31.970  24.880  25.956  1.00  0.00     0.032 A 
ATOM     24  C   UNL A   1      30.348  24.510  23.730  1.00  0.00     0.049 A 
ATOM     25  C   UNL A   1      32.001  23.667  25.274  1.00  0.00     0.049 A 
ATOM     26  C   UNL A   1      31.213  23.482  24.139  1.00  0.00     0.129 A 
BRANCH  26  27
ATOM     27  O   UNL A   1      31.196  22.363  23.355  1.00  0.00    -0.406 OA
BRANCH  27  28
ATOM     28  C   UNL A   1      32.394  22.031  22.671  1.00  0.00     0.573 C 
ATOM     29  F   UNL A   1      33.296  21.458  23.497  1.00  0.00    -0.132 F 
ATOM     30  F   UNL A   1      32.145  21.200  21.634  1.00  0.00    -0.132 F 
ATOM     31  F   UNL A   1      32.945  23.162  22.175  1.00  0.00    -0.132 F 
ENDBRANCH  27  28
ENDBRANCH  26  27
ENDBRANCH  10  21
ENDBRANCH   6   8
ENDBRANCH   5   6
ENDBRANCH   4   5
ENDBRANCH   3   4
ENDBRANCH   2   3
ENDBRANCH   1   2
BRANCH   1  32
ATOM     32  C   UNL A   1      35.549  34.399  29.241  1.00  0.00     0.188 C 
BRANCH  32  33
ATOM     33  O   UNL A   1      36.194  33.363  29.952  1.00  0.00    -0.376 OA
BRANCH  33  34
ATOM     34  C   UNL A   1      36.825  32.258  29.322  1.00  0.00     0.202 C 
BRANCH  34  35
ATOM     35  C   UNL A   1      36.470  30.792  29.568  1.00  0.00     0.261 C 
BRANCH  35  36
ATOM     36  O   UNL A   1      37.207  30.165  30.588  1.00  0.00    -0.460 OA
BRANCH  36  37
ATOM     37  C   UNL A   1      36.829  30.535  31.829  1.00  0.00     0.338 C 
ATOM     38  O   UNL A   1      35.884  31.235  32.133  1.00  0.00    -0.246 OA
BRANCH  37  39
ATOM     39  C   UNL A   1      37.782  29.950  32.777  1.00  0.00     0.060 A 
ATOM     40  C   UNL A   1      38.902  30.733  33.060  1.00  0.00     0.016 A 
ATOM     41  C   UNL A   1      37.777  28.556  32.868  1.00  0.00     0.016 A 
ATOM     42  C   UNL A   1      40.119  30.102  33.054  1.00  0.00     0.010 A 
ATOM     43  C   UNL A   1      38.988  27.937  32.797  1.00  0.00     0.010 A 
ATOM     44  C   UNL A   1      40.132  28.736  32.775  1.00  0.00    -0.014 A 
BRANCH  44  45
ATOM     45  C   UNL A   1      41.385  28.114  32.433  1.00  0.00     0.031 A 
ATOM     46  C   UNL A   1      42.162  27.751  33.634  1.00  0.00     0.074 A 
ATOM     47  C   UNL A   1      41.664  27.786  31.159  1.00  0.00     0.049 A 
ATOM     48  N   UNL A   1      43.220  28.328  34.094  1.00  0.00    -0.248 NA
ATOM     49  C   UNL A   1      41.534  26.801  34.573  1.00  0.00     0.031 C 
ATOM     50  C   UNL A   1      40.777  27.832  29.989  1.00  0.00     0.029 A 
ATOM     51  N   UNL A   1      42.779  27.203  30.660  1.00  0.00    -0.354 N 
ATOM     52  C   UNL A   1      43.509  27.646  35.268  1.00  0.00     0.074 A 
ATOM     53  C   UNL A   1      42.302  26.965  35.648  1.00  0.00     0.031 C 
ATOM     54  C   UNL A   1      41.301  27.058  29.007  1.00  0.00     0.029 A 
ATOM     55  C   UNL A   1      42.600  26.568  29.439  1.00  0.00     0.049 A 
ATOM     56  H   UNL A   1      43.646  27.228  31.127  1.00  0.00     0.167 HD
ATOM     57  C   UNL A   1      44.788  27.402  35.660  1.00  0.00     0.031 A 
ATOM     58  C   UNL A   1      43.423  25.628  28.902  1.00  0.00     0.031 A 
ATOM     59  C   UNL A   1      45.726  28.208  34.926  1.00  0.00     0.049 A 
ATOM     60  C   UNL A   1      44.709  25.698  29.654  1.00  0.00     0.074 A 
ATOM     61  C   UNL A   1      45.932  29.566  34.794  1.00  0.00     0.029 A 
ATOM     62  N   UNL A   1      46.346  27.612  33.850  1.00  0.00    -0.354 N 
ATOM     63  N   UNL A   1      45.508  26.730  29.619  1.00  0.00    -0.248 NA
ATOM     64  C   UNL A   1      44.849  24.850  30.832  1.00  0.00     0.031 C 
ATOM     65  C   UNL A   1      46.273  29.755  33.426  1.00  0.00     0.029 A 
ATOM     66  C   UNL A   1      46.334  28.503  32.807  1.00  0.00     0.049 A 
ATOM     67  H   UNL A   1      46.730  26.706  33.832  1.00  0.00     0.167 HD
ATOM     68  C   UNL A   1      45.943  26.899  30.928  1.00  0.00     0.074 A 
ATOM     69  C   UNL A   1      45.564  25.664  31.615  1.00  0.00     0.031 C 
ATOM     70  C   UNL A   1      46.300  28.128  31.406  1.00  0.00     0.031 A 
BRANCH  57  71
ATOM     71  C   UNL A   1      45.195  26.144  36.387  1.00  0.00    -0.014 A 
ATOM     72  C   UNL A   1      45.909  26.261  37.592  1.00  0.00     0.010 A 
ATOM     73  C   UNL A   1      45.121  24.856  35.813  1.00  0.00     0.010 A 
ATOM     74  C   UNL A   1      46.563  25.158  38.157  1.00  0.00     0.020 A 
ATOM     75  C   UNL A   1      45.723  23.741  36.391  1.00  0.00     0.020 A 
ATOM     76  C   UNL A   1      46.472  23.907  37.543  1.00  0.00     0.054 A 
BRANCH  76  77
ATOM     77  S   UNL A   1      47.397  22.510  38.218  1.00  0.00     0.124 S 
ATOM     78  O   UNL A   1      46.609  22.174  39.400  1.00  0.00    -0.237 OA
ATOM     79  O   UNL A   1      47.344  21.548  37.122  1.00  0.00    -0.237 OA
ATOM     80  O   UNL A   1      48.720  23.071  38.485  1.00  0.00    -0.744 OA
ENDBRANCH  76  77
ENDBRANCH  57  71
BRANCH  58  81
ATOM     81  C   UNL A   1      43.030  24.452  28.076  1.00  0.00    -0.014 A 
ATOM     82  C   UNL A   1      43.860  23.948  27.057  1.00  0.00     0.010 A 
ATOM     83  C   UNL A   1      41.927  23.661  28.462  1.00  0.00     0.010 A 
ATOM     84  C   UNL A   1      43.611  22.689  26.471  1.00  0.00     0.020 A 
ATOM     85  C   UNL A   1      41.670  22.412  27.883  1.00  0.00     0.020 A 
ATOM     86  C   UNL A   1      42.522  21.923  26.898  1.00  0.00     0.054 A 
BRANCH  86  87
ATOM     87  S   UNL A   1      42.281  20.244  26.239  1.00  0.00     0.124 S 
ATOM     88  O   UNL A   1      41.048  20.385  25.470  1.00  0.00    -0.237 OA
ATOM     89  O   UNL A   1      43.494  20.033  25.454  1.00  0.00    -0.237 OA
ATOM     90  O   UNL A   1      42.171  19.415  27.438  1.00  0.00    -0.744 OA
ENDBRANCH  86  87
ENDBRANCH  58  81
BRANCH  70  91
ATOM     91  C   UNL A   1      46.470  29.266  30.424  1.00  0.00    -0.014 A 
ATOM     92  C   UNL A   1      47.673  29.546  29.744  1.00  0.00     0.010 A 
ATOM     93  C   UNL A   1      45.304  29.946  30.032  1.00  0.00     0.010 A 
ATOM     94  C   UNL A   1      47.701  30.487  28.700  1.00  0.00     0.020 A 
ATOM     95  C   UNL A   1      45.322  30.868  28.985  1.00  0.00     0.020 A 
ATOM     96  C   UNL A   1      46.521  31.139  28.325  1.00  0.00     0.054 A 
BRANCH  96  97
ATOM     97  S   UNL A   1      46.539  32.300  26.929  1.00  0.00     0.124 S 
ATOM     98  O   UNL A   1      45.320  33.074  27.144  1.00  0.00    -0.237 OA
ATOM     99  O   UNL A   1      47.791  33.028  27.126  1.00  0.00    -0.237 OA
ATOM    100  O   UNL A   1      46.520  31.430  25.753  1.00  0.00    -0.744 OA
ENDBRANCH  96  97
ENDBRANCH  70  91
ENDBRANCH  44  45
ENDBRANCH  37  39
ENDBRANCH  36  37
ENDBRANCH  35  36
ENDBRANCH  34  35
ENDBRANCH  33  34
ENDBRANCH  32  33
ENDBRANCH   1  32
TORSDOF 25
ENDMDL
MODEL 3
REMARK VINA RESULT:      -9.1      3.390      5.033
REMARK SMILES COc1cccc(-c2c(C(=O)OCCOCCOCCOC(=O)c3ccc(-c4c5nc(c(-c6ccc(S(=O)(=O)[O-])cc6)c6ccc([nH]6)c(-c6ccc(S(=O)(=O)[O-])cc6)c6nc(c(-c7ccc(S(=O)(=O)[O-])cc7)c7ccc4[nH]7)C=C6)C=C5)cc3)nnn2-c2ccc(OC(F)(F)F)cc2)c1
REMARK SMILES IDX 16 1 15 2 14 3 13 4 12 5 10 6 11 7 9 8 8 9 86 10 84 11 85 12
REMARK SMILES IDX 7 13 3 14 4 15 98 16 5 17 6 18 2 19 1 20 87 21 88 22 97 23
REMARK SMILES IDX 89 24 96 25 90 26 91 27 92 28 93 29 94 30 95 31 17 32 18 33
REMARK SMILES IDX 19 34 20 35 21 36 22 37 23 38 24 39 25 40 83 41 26 42 82 43
REMARK SMILES IDX 27 44 28 45 29 46 76 47 30 48 81 49 75 50 77 51 31 52 80 53
REMARK SMILES IDX 74 54 73 55 32 57 62 58 43 59 61 60 44 61 47 62 60 63 78 64
REMARK SMILES IDX 45 65 46 66 59 68 79 69 48 70 33 71 34 72 42 73 35 74 41 75
REMARK SMILES IDX 36 76 37 77 38 78 39 79 40 80 63 81 64 82 72 83 65 84 71 85
REMARK SMILES IDX 66 86 67 87 68 88 69 89 70 90 49 91 50 92 58 93 51 94 57 95
REMARK SMILES IDX 52 96 53 97 54 98 55 99 56 100
REMARK H PARENT 77 56 47 67
REMARK Flexibility Score: inf
ROOT
ATOM      1  C   UNL A   1      34.901  33.844  27.964  1.00  0.00     0.188 C 
ENDROOT
BRANCH   1   2
ATOM      2  O   UNL A   1      33.648  34.503  27.864  1.00  0.00    -0.376 OA
BRANCH   2   3
ATOM      3  C   UNL A   1      32.440  33.759  27.856  1.00  0.00     0.202 C 
BRANCH   3   4
ATOM      4  C   UNL A   1      32.102  32.753  26.734  1.00  0.00     0.261 C 
BRANCH   4   5
ATOM      5  O   UNL A   1      31.752  31.428  27.160  1.00  0.00    -0.458 OA
BRANCH   5   6
ATOM      6  C   UNL A   1      32.722  30.472  27.044  1.00  0.00     0.361 C 
ATOM      7  O   UNL A   1      33.913  30.687  27.166  1.00  0.00    -0.244 OA
BRANCH   6   8
ATOM      8  C   UNL A   1      32.173  29.128  26.877  1.00  0.00     0.198 A 
ATOM      9  C   UNL A   1      31.615  28.506  25.768  1.00  0.00     0.109 A 
ATOM     10  N   UNL A   1      31.386  27.212  26.235  1.00  0.00    -0.212 N 
ATOM     11  N   UNL A   1      32.041  28.297  27.970  1.00  0.00    -0.122 NA
ATOM     12  N   UNL A   1      31.438  27.184  27.581  1.00  0.00    -0.061 NA
BRANCH   9  13
ATOM     13  C   UNL A   1      31.331  28.932  24.392  1.00  0.00     0.007 A 
ATOM     14  C   UNL A   1      29.722  29.666  22.704  1.00  0.00     0.119 A 
ATOM     15  C   UNL A   1      30.693  29.476  21.722  1.00  0.00     0.046 A 
ATOM     16  C   UNL A   1      30.049  29.414  24.039  1.00  0.00     0.056 A 
ATOM     17  C   UNL A   1      31.980  29.060  22.064  1.00  0.00     0.005 A 
ATOM     18  C   UNL A   1      32.297  28.786  23.393  1.00  0.00     0.011 A 
BRANCH  14  19
ATOM     19  O   UNL A   1      28.495  30.033  22.226  1.00  0.00    -0.497 OA
ATOM     20  C   UNL A   1      28.462  31.000  21.182  1.00  0.00     0.278 C 
ENDBRANCH  14  19
ENDBRANCH   9  13
BRANCH  10  21
ATOM     21  C   UNL A   1      31.327  26.014  25.489  1.00  0.00     0.067 A 
ATOM     22  C   UNL A   1      30.398  25.853  24.462  1.00  0.00     0.032 A 
ATOM     23  C   UNL A   1      32.206  24.976  25.818  1.00  0.00     0.032 A 
ATOM     24  C   UNL A   1      30.417  24.669  23.714  1.00  0.00     0.049 A 
ATOM     25  C   UNL A   1      32.185  23.784  25.099  1.00  0.00     0.049 A 
ATOM     26  C   UNL A   1      31.311  23.632  24.023  1.00  0.00     0.129 A 
BRANCH  26  27
ATOM     27  O   UNL A   1      31.234  22.537  23.210  1.00  0.00    -0.406 OA
BRANCH  27  28
ATOM     28  C   UNL A   1      32.423  22.134  22.548  1.00  0.00     0.573 C 
ATOM     29  F   UNL A   1      33.080  23.190  22.020  1.00  0.00    -0.132 F 
ATOM     30  F   UNL A   1      33.246  21.472  23.392  1.00  0.00    -0.132 F 
ATOM     31  F   UNL A   1      32.102  21.297  21.537  1.00  0.00    -0.132 F 
ENDBRANCH  27  28
ENDBRANCH  26  27
ENDBRANCH  10  21
ENDBRANCH   6   8
ENDBRANCH   5   6
ENDBRANCH   4   5
ENDBRANCH   3   4
ENDBRANCH   2   3
ENDBRANCH   1   2
BRANCH   1  32
ATOM     32  C   UNL A   1      35.777  34.009  29.227  1.00  0.00     0.188 C 
BRANCH  32  33
ATOM     33  O   UNL A   1      36.436  32.846  29.681  1.00  0.00    -0.376 OA
BRANCH  33  34
ATOM     34  C   UNL A   1      35.840  31.900  30.558  1.00  0.00     0.202 C 
BRANCH  34  35
ATOM     35  C   UNL A   1      34.779  32.230  31.608  1.00  0.00     0.261 C 
BRANCH  35  36
ATOM     36  O   UNL A   1      35.264  32.361  32.921  1.00  0.00    -0.460 OA
BRANCH  36  37
ATOM     37  C   UNL A   1      35.099  33.598  33.433  1.00  0.00     0.338 C 
ATOM     38  O   UNL A   1      34.077  34.254  33.458  1.00  0.00    -0.246 OA
BRANCH  37  39
ATOM     39  C   UNL A   1      36.395  34.040  33.956  1.00  0.00     0.060 A 
ATOM     40  C   UNL A   1      37.134  34.863  33.106  1.00  0.00     0.016 A 
ATOM     41  C   UNL A   1      36.976  33.218  34.926  1.00  0.00     0.016 A 
ATOM     42  C   UNL A   1      38.466  34.572  32.962  1.00  0.00     0.010 A 
ATOM     43  C   UNL A   1      38.283  32.884  34.737  1.00  0.00     0.010 A 
ATOM     44  C   UNL A   1      38.967  33.487  33.682  1.00  0.00    -0.014 A 
BRANCH  44  45
ATOM     45  C   UNL A   1      40.251  32.950  33.312  1.00  0.00     0.031 A 
ATOM     46  C   UNL A   1      40.122  31.820  32.372  1.00  0.00     0.074 A 
ATOM     47  C   UNL A   1      41.387  33.566  33.687  1.00  0.00     0.049 A 
ATOM     48  N   UNL A   1      40.299  30.565  32.617  1.00  0.00    -0.248 NA
ATOM     49  C   UNL A   1      39.464  32.098  31.081  1.00  0.00     0.031 C 
ATOM     50  C   UNL A   1      41.546  34.871  34.341  1.00  0.00     0.029 A 
ATOM     51  N   UNL A   1      42.667  33.207  33.433  1.00  0.00    -0.354 N 
ATOM     52  C   UNL A   1      39.988  29.929  31.423  1.00  0.00     0.074 A 
ATOM     53  C   UNL A   1      39.208  30.862  30.657  1.00  0.00     0.031 C 
ATOM     54  C   UNL A   1      42.823  35.294  34.179  1.00  0.00     0.029 A 
ATOM     55  C   UNL A   1      43.585  34.243  33.522  1.00  0.00     0.049 A 
ATOM     56  H   UNL A   1      42.925  32.284  33.203  1.00  0.00     0.167 HD
ATOM     57  C   UNL A   1      40.668  28.831  30.997  1.00  0.00     0.031 A 
ATOM     58  C   UNL A   1      44.835  34.250  32.986  1.00  0.00     0.031 A 
ATOM     59  C   UNL A   1      41.452  28.254  32.056  1.00  0.00     0.049 A 
ATOM     60  C   UNL A   1      45.166  32.837  32.642  1.00  0.00     0.074 A 
ATOM     61  C   UNL A   1      41.153  27.702  33.284  1.00  0.00     0.029 A 
ATOM     62  N   UNL A   1      42.786  28.595  32.094  1.00  0.00    -0.354 N 
ATOM     63  N   UNL A   1      45.318  31.897  33.535  1.00  0.00    -0.248 NA
ATOM     64  C   UNL A   1      44.818  32.368  31.306  1.00  0.00     0.031 C 
ATOM     65  C   UNL A   1      42.193  28.144  34.149  1.00  0.00     0.029 A 
ATOM     66  C   UNL A   1      43.114  28.878  33.396  1.00  0.00     0.049 A 
ATOM     67  H   UNL A   1      43.397  28.631  31.323  1.00  0.00     0.167 HD
ATOM     68  C   UNL A   1      44.690  30.779  32.998  1.00  0.00     0.074 A 
ATOM     69  C   UNL A   1      44.468  31.109  31.590  1.00  0.00     0.031 C 
ATOM     70  C   UNL A   1      44.145  29.816  33.799  1.00  0.00     0.031 A 
BRANCH  57  71
ATOM     71  C   UNL A   1      40.946  28.555  29.540  1.00  0.00    -0.014 A 
ATOM     72  C   UNL A   1      40.602  27.298  29.013  1.00  0.00     0.010 A 
ATOM     73  C   UNL A   1      41.750  29.386  28.730  1.00  0.00     0.010 A 
ATOM     74  C   UNL A   1      41.090  26.876  27.770  1.00  0.00     0.020 A 
ATOM     75  C   UNL A   1      42.201  28.999  27.471  1.00  0.00     0.020 A 
ATOM     76  C   UNL A   1      41.895  27.729  27.013  1.00  0.00     0.054 A 
BRANCH  76  77
ATOM     77  S   UNL A   1      42.604  27.144  25.457  1.00  0.00     0.124 S 
ATOM     78  O   UNL A   1      42.407  28.300  24.587  1.00  0.00    -0.237 OA
ATOM     79  O   UNL A   1      43.985  26.859  25.837  1.00  0.00    -0.237 OA
ATOM     80  O   UNL A   1      41.797  25.970  25.132  1.00  0.00    -0.744 OA
ENDBRANCH  76  77
ENDBRANCH  57  71
BRANCH  58  81
ATOM     81  C   UNL A   1      45.562  35.415  32.409  1.00  0.00    -0.014 A 
ATOM     82  C   UNL A   1      46.898  35.699  32.747  1.00  0.00     0.010 A 
ATOM     83  C   UNL A   1      45.008  36.120  31.319  1.00  0.00     0.010 A 
ATOM     84  C   UNL A   1      47.657  36.629  32.005  1.00  0.00     0.020 A 
ATOM     85  C   UNL A   1      45.751  37.047  30.578  1.00  0.00     0.020 A 
ATOM     86  C   UNL A   1      47.080  37.288  30.914  1.00  0.00     0.054 A 
BRANCH  86  87
ATOM     87  S   UNL A   1      48.097  38.382  29.876  1.00  0.00     0.124 S 
ATOM     88  O   UNL A   1      48.598  37.467  28.854  1.00  0.00    -0.237 OA
ATOM     89  O   UNL A   1      47.130  39.374  29.416  1.00  0.00    -0.237 OA
ATOM     90  O   UNL A   1      49.109  38.891  30.800  1.00  0.00    -0.744 OA
ENDBRANCH  86  87
ENDBRANCH  58  81
BRANCH  70  91
ATOM     91  C   UNL A   1      44.458  29.842  35.279  1.00  0.00    -0.014 A 
ATOM     92  C   UNL A   1      45.583  29.218  35.856  1.00  0.00     0.010 A 
ATOM     93  C   UNL A   1      43.686  30.704  36.076  1.00  0.00     0.010 A 
ATOM     94  C   UNL A   1      45.918  29.453  37.201  1.00  0.00     0.020 A 
ATOM     95  C   UNL A   1      44.025  30.955  37.407  1.00  0.00     0.020 A 
ATOM     96  C   UNL A   1      45.137  30.325  37.966  1.00  0.00     0.054 A 
BRANCH  96  97
ATOM     97  S   UNL A   1      45.610  30.689  39.681  1.00  0.00     0.124 S 
ATOM     98  O   UNL A   1      46.626  29.676  39.951  1.00  0.00    -0.237 OA
ATOM     99  O   UNL A   1      46.097  32.064  39.600  1.00  0.00    -0.237 OA
ATOM    100  O   UNL A   1      44.363  30.528  40.428  1.00  0.00    -0.744 OA
ENDBRANCH  96  97
ENDBRANCH  70  91
ENDBRANCH  44  45
ENDBRANCH  37  39
ENDBRANCH  36  37
ENDBRANCH  35  36
ENDBRANCH  34  35
ENDBRANCH  33  34
ENDBRANCH  32  33
ENDBRANCH   1  32
TORSDOF 25
ENDMDL
