MODEL 1
REMARK VINA RESULT:      -9.4      0.000      0.000
REMARK SMILES [NH3+][C@H]1CCCC[C@@H]1C(=O)N1CC(C(=O)OCCOCCOCCOC(=O)c2ccc(-c3c4nc(c(-c5ccc(S(=O)(=O)[O-])cc5)c5ccc([nH]5)c(-c5ccc(S(=O)(=O)[O-])cc5)c5nc(c(-c6ccc(S(=O)(=O)[O-])cc6)c6ccc3[nH]6)C=C5)C=C4)cc2)C1
REMARK SMILES IDX 20 1 19 2 18 3 17 4 16 5 15 6 13 7 14 8 12 9 8 10 9 11 10 12
REMARK SMILES IDX 11 13 87 14 7 15 2 16 3 17 4 18 6 19 5 20 1 21 21 25 22 26
REMARK SMILES IDX 23 27 24 28 25 29 26 30 27 31 28 32 86 33 29 34 85 35 30 36
REMARK SMILES IDX 31 37 32 38 79 39 33 40 84 41 78 42 80 43 34 44 83 45 77 46
REMARK SMILES IDX 76 47 35 49 65 50 46 51 64 52 47 53 50 54 63 55 81 56 48 57
REMARK SMILES IDX 49 58 62 60 82 61 51 62 36 63 37 64 45 65 38 66 44 67 39 68
REMARK SMILES IDX 40 69 41 70 42 71 43 72 66 73 67 74 75 75 68 76 74 77 69 78
REMARK SMILES IDX 70 79 71 80 72 81 73 82 52 83 53 84 61 85 54 86 60 87 55 88
REMARK SMILES IDX 56 89 57 90 58 91 59 92
REMARK H PARENT 1 22 1 23 1 24 80 48 50 59
REMARK Flexibility Score: inf
ROOT
ATOM      1  C   UNL A   1      39.905  21.100  26.260  1.00  0.00     0.188 C 
ENDROOT
BRANCH   1   2
ATOM      2  C   UNL A   1      38.762  22.063  25.881  1.00  0.00     0.188 C 
BRANCH   2   3
ATOM      3  O   UNL A   1      37.658  21.568  25.132  1.00  0.00    -0.376 OA
BRANCH   3   4
ATOM      4  C   UNL A   1      36.335  21.760  25.625  1.00  0.00     0.202 C 
BRANCH   4   5
ATOM      5  C   UNL A   1      35.129  21.336  24.768  1.00  0.00     0.261 C 
BRANCH   5   6
ATOM      6  O   UNL A   1      34.734  22.316  23.791  1.00  0.00    -0.463 OA
BRANCH   6   7
ATOM      7  C   UNL A   1      33.393  22.554  23.672  1.00  0.00     0.312 C 
ATOM      8  O   UNL A   1      32.753  22.255  22.664  1.00  0.00    -0.252 OA
BRANCH   7   9
ATOM      9  C   UNL A   1      32.764  23.148  24.950  1.00  0.00     0.138 C 
ATOM     10  C   UNL A   1      31.280  25.954  26.177  1.00  0.00     0.231 C 
ATOM     11  O   UNL A   1      30.112  25.863  26.572  1.00  0.00    -0.274 OA
ATOM     12  N   UNL A   1      31.955  24.841  25.782  1.00  0.00    -0.340 N 
ATOM     13  C   UNL A   1      31.476  23.947  24.733  1.00  0.00     0.136 C 
ATOM     14  C   UNL A   1      33.330  24.424  25.619  1.00  0.00     0.136 C 
BRANCH  10  15
ATOM     15  C   UNL A   1      31.925  27.330  26.071  1.00  0.00     0.136 C 
ATOM     16  C   UNL A   1      31.466  28.330  27.150  1.00  0.00     0.193 C 
ATOM     17  C   UNL A   1      32.261  29.637  27.060  1.00  0.00     0.066 C 
ATOM     18  C   UNL A   1      32.197  30.229  25.654  1.00  0.00     0.006 C 
ATOM     19  C   UNL A   1      31.845  27.928  24.666  1.00  0.00     0.020 C 
ATOM     20  C   UNL A   1      32.654  29.226  24.598  1.00  0.00     0.001 C 
BRANCH  16  21
ATOM     21  N   UNL A   1      31.581  27.781  28.502  1.00  0.00    -0.354 N 
ATOM     22  H   UNL A   1      32.327  28.262  29.003  1.00  0.00     0.344 HD
ATOM     23  H   UNL A   1      31.795  26.784  28.446  1.00  0.00     0.344 HD
ATOM     24  H   UNL A   1      30.700  27.911  28.998  1.00  0.00     0.344 HD
ENDBRANCH  16  21
ENDBRANCH  10  15
ENDBRANCH   7   9
ENDBRANCH   6   7
ENDBRANCH   5   6
ENDBRANCH   4   5
ENDBRANCH   3   4
ENDBRANCH   2   3
ENDBRANCH   1   2
BRANCH   1  25
ATOM     25  O   UNL A   1      40.415  21.260  27.561  1.00  0.00    -0.376 OA
BRANCH  25  26
ATOM     26  C   UNL A   1      41.715  21.790  27.741  1.00  0.00     0.202 C 
BRANCH  26  27
ATOM     27  C   UNL A   1      42.503  22.556  26.659  1.00  0.00     0.261 C 
BRANCH  27  28
ATOM     28  O   UNL A   1      43.182  23.762  27.029  1.00  0.00    -0.460 OA
BRANCH  28  29
ATOM     29  C   UNL A   1      42.793  24.897  26.408  1.00  0.00     0.338 C 
ATOM     30  O   UNL A   1      42.642  25.057  25.200  1.00  0.00    -0.246 OA
BRANCH  29  31
ATOM     31  C   UNL A   1      42.364  25.863  27.438  1.00  0.00     0.060 A 
ATOM     32  C   UNL A   1      43.093  27.050  27.607  1.00  0.00     0.016 A 
ATOM     33  C   UNL A   1      41.252  25.597  28.240  1.00  0.00     0.016 A 
ATOM     34  C   UNL A   1      42.729  27.959  28.600  1.00  0.00     0.010 A 
ATOM     35  C   UNL A   1      40.903  26.500  29.250  1.00  0.00     0.010 A 
ATOM     36  C   UNL A   1      41.660  27.668  29.457  1.00  0.00    -0.014 A 
BRANCH  36  37
ATOM     37  C   UNL A   1      41.457  28.471  30.688  1.00  0.00     0.031 A 
ATOM     38  C   UNL A   1      40.349  29.492  30.696  1.00  0.00     0.074 A 
ATOM     39  C   UNL A   1      42.218  28.292  31.783  1.00  0.00     0.049 A 
ATOM     40  N   UNL A   1      40.019  30.353  31.624  1.00  0.00    -0.248 NA
ATOM     41  C   UNL A   1      39.500  29.548  29.493  1.00  0.00     0.031 C 
ATOM     42  C   UNL A   1      43.280  27.298  31.927  1.00  0.00     0.029 A 
ATOM     43  N   UNL A   1      42.210  28.952  32.988  1.00  0.00    -0.354 N 
ATOM     44  C   UNL A   1      38.930  31.053  31.117  1.00  0.00     0.074 A 
ATOM     45  C   UNL A   1      38.677  30.543  29.788  1.00  0.00     0.031 C 
ATOM     46  C   UNL A   1      43.826  27.417  33.151  1.00  0.00     0.029 A 
ATOM     47  C   UNL A   1      43.180  28.520  33.862  1.00  0.00     0.049 A 
ATOM     48  H   UNL A   1      41.569  29.667  33.206  1.00  0.00     0.167 HD
ATOM     49  C   UNL A   1      38.198  32.028  31.708  1.00  0.00     0.031 A 
ATOM     50  C   UNL A   1      43.522  28.978  35.083  1.00  0.00     0.031 A 
ATOM     51  C   UNL A   1      38.461  32.548  33.023  1.00  0.00     0.049 A 
ATOM     52  C   UNL A   1      42.755  30.136  35.678  1.00  0.00     0.074 A 
ATOM     53  C   UNL A   1      37.784  33.544  33.704  1.00  0.00     0.029 A 
ATOM     54  N   UNL A   1      39.482  32.116  33.856  1.00  0.00    -0.354 N 
ATOM     55  N   UNL A   1      41.727  30.788  35.187  1.00  0.00    -0.248 NA
ATOM     56  C   UNL A   1      43.193  30.613  36.999  1.00  0.00     0.031 C 
ATOM     57  C   UNL A   1      38.430  33.752  34.928  1.00  0.00     0.029 A 
ATOM     58  C   UNL A   1      39.466  32.838  35.036  1.00  0.00     0.049 A 
ATOM     59  H   UNL A   1      40.123  31.401  33.639  1.00  0.00     0.167 HD
ATOM     60  C   UNL A   1      41.371  31.721  36.159  1.00  0.00     0.074 A 
ATOM     61  C   UNL A   1      42.287  31.542  37.266  1.00  0.00     0.031 C 
ATOM     62  C   UNL A   1      40.375  32.641  36.138  1.00  0.00     0.031 A 
BRANCH  49  63
ATOM     63  C   UNL A   1      37.054  32.613  30.922  1.00  0.00    -0.014 A 
ATOM     64  C   UNL A   1      37.273  33.606  29.950  1.00  0.00     0.010 A 
ATOM     65  C   UNL A   1      35.748  32.131  31.127  1.00  0.00     0.010 A 
ATOM     66  C   UNL A   1      36.203  34.128  29.219  1.00  0.00     0.020 A 
ATOM     67  C   UNL A   1      34.679  32.629  30.376  1.00  0.00     0.020 A 
ATOM     68  C   UNL A   1      34.913  33.635  29.436  1.00  0.00     0.054 A 
BRANCH  68  69
ATOM     69  S   UNL A   1      33.550  34.306  28.445  1.00  0.00     0.124 S 
ATOM     70  O   UNL A   1      34.223  35.345  27.670  1.00  0.00    -0.237 OA
ATOM     71  O   UNL A   1      33.106  33.142  27.683  1.00  0.00    -0.237 OA
ATOM     72  O   UNL A   1      32.600  34.792  29.444  1.00  0.00    -0.744 OA
ENDBRANCH  68  69
ENDBRANCH  49  63
BRANCH  50  73
ATOM     73  C   UNL A   1      44.656  28.365  35.832  1.00  0.00    -0.014 A 
ATOM     74  C   UNL A   1      45.979  28.788  35.604  1.00  0.00     0.010 A 
ATOM     75  C   UNL A   1      44.424  27.322  36.746  1.00  0.00     0.010 A 
ATOM     76  C   UNL A   1      47.047  28.155  36.248  1.00  0.00     0.020 A 
ATOM     77  C   UNL A   1      45.486  26.708  37.416  1.00  0.00     0.020 A 
ATOM     78  C   UNL A   1      46.794  27.117  37.150  1.00  0.00     0.054 A 
BRANCH  78  79
ATOM     79  S   UNL A   1      48.194  26.322  37.985  1.00  0.00     0.124 S 
ATOM     80  O   UNL A   1      48.726  25.460  36.934  1.00  0.00    -0.237 OA
ATOM     81  O   UNL A   1      49.031  27.461  38.354  1.00  0.00    -0.237 OA
ATOM     82  O   UNL A   1      47.570  25.625  39.109  1.00  0.00    -0.744 OA
ENDBRANCH  78  79
ENDBRANCH  50  73
BRANCH  62  83
ATOM     83  C   UNL A   1      40.175  33.485  37.371  1.00  0.00    -0.014 A 
ATOM     84  C   UNL A   1      39.273  33.110  38.383  1.00  0.00     0.010 A 
ATOM     85  C   UNL A   1      40.946  34.651  37.540  1.00  0.00     0.010 A 
ATOM     86  C   UNL A   1      39.120  33.907  39.522  1.00  0.00     0.020 A 
ATOM     87  C   UNL A   1      40.818  35.431  38.691  1.00  0.00     0.020 A 
ATOM     88  C   UNL A   1      39.893  35.063  39.669  1.00  0.00     0.054 A 
BRANCH  88  89
ATOM     89  S   UNL A   1      39.700  36.058  41.173  1.00  0.00     0.124 S 
ATOM     90  O   UNL A   1      39.276  35.058  42.148  1.00  0.00    -0.237 OA
ATOM     91  O   UNL A   1      41.042  36.601  41.372  1.00  0.00    -0.237 OA
ATOM     92  O   UNL A   1      38.684  37.044  40.809  1.00  0.00    -0.744 OA
ENDBRANCH  88  89
ENDBRANCH  62  83
ENDBRANCH  36  37
ENDBRANCH  29  31
ENDBRANCH  28  29
ENDBRANCH  27  28
ENDBRANCH  26  27
ENDBRANCH  25  26
ENDBRANCH   1  25
TORSDOF 22
ENDMDL
MODEL 2
REMARK VINA RESULT:      -9.2      6.379     13.101
REMARK SMILES [NH3+][C@H]1CCCC[C@@H]1C(=O)N1CC(C(=O)OCCOCCOCCOC(=O)c2ccc(-c3c4nc(c(-c5ccc(S(=O)(=O)[O-])cc5)c5ccc([nH]5)c(-c5ccc(S(=O)(=O)[O-])cc5)c5nc(c(-c6ccc(S(=O)(=O)[O-])cc6)c6ccc3[nH]6)C=C5)C=C4)cc2)C1
REMARK SMILES IDX 20 1 19 2 18 3 17 4 16 5 15 6 13 7 14 8 12 9 8 10 9 11 10 12
REMARK SMILES IDX 11 13 87 14 7 15 2 16 3 17 4 18 6 19 5 20 1 21 21 25 22 26
REMARK SMILES IDX 23 27 24 28 25 29 26 30 27 31 28 32 86 33 29 34 85 35 30 36
REMARK SMILES IDX 31 37 32 38 79 39 33 40 84 41 78 42 80 43 34 44 83 45 77 46
REMARK SMILES IDX 76 47 35 49 65 50 46 51 64 52 47 53 50 54 63 55 81 56 48 57
REMARK SMILES IDX 49 58 62 60 82 61 51 62 36 63 37 64 45 65 38 66 44 67 39 68
REMARK SMILES IDX 40 69 41 70 42 71 43 72 66 73 67 74 75 75 68 76 74 77 69 78
REMARK SMILES IDX 70 79 71 80 72 81 73 82 52 83 53 84 61 85 54 86 60 87 55 88
REMARK SMILES IDX 56 89 57 90 58 91 59 92
REMARK H PARENT 1 22 1 23 1 24 80 48 50 59
REMARK Flexibility Score: inf
ROOT
ATOM      1  C   UNL A   1      34.110  34.804  27.923  1.00  0.00     0.188 C 
ENDROOT
BRANCH   1   2
ATOM      2  C   UNL A   1      33.032  35.553  28.732  1.00  0.00     0.188 C 
BRANCH   2   3
ATOM      3  O   UNL A   1      33.037  35.452  30.152  1.00  0.00    -0.376 OA
BRANCH   3   4
ATOM      4  C   UNL A   1      33.004  36.638  30.939  1.00  0.00     0.202 C 
BRANCH   4   5
ATOM      5  C   UNL A   1      33.435  36.592  32.416  1.00  0.00     0.261 C 
BRANCH   5   6
ATOM      6  O   UNL A   1      33.445  35.269  32.980  1.00  0.00    -0.463 OA
BRANCH   6   7
ATOM      7  C   UNL A   1      34.626  34.846  33.523  1.00  0.00     0.312 C 
ATOM      8  O   UNL A   1      35.007  35.198  34.638  1.00  0.00    -0.252 OA
BRANCH   7   9
ATOM      9  C   UNL A   1      35.374  33.827  32.636  1.00  0.00     0.138 C 
ATOM     10  C   UNL A   1      38.472  32.593  31.964  1.00  0.00     0.231 C 
ATOM     11  O   UNL A   1      38.674  31.392  32.176  1.00  0.00    -0.274 OA
ATOM     12  N   UNL A   1      37.223  33.112  32.110  1.00  0.00    -0.340 N 
ATOM     13  C   UNL A   1      36.458  33.014  33.348  1.00  0.00     0.136 C 
ATOM     14  C   UNL A   1      36.483  34.265  31.650  1.00  0.00     0.136 C 
BRANCH  10  15
ATOM     15  C   UNL A   1      39.649  33.492  31.609  1.00  0.00     0.136 C 
ATOM     16  C   UNL A   1      40.151  33.339  30.160  1.00  0.00     0.193 C 
ATOM     17  C   UNL A   1      41.237  34.372  29.843  1.00  0.00     0.066 C 
ATOM     18  C   UNL A   1      42.373  34.312  30.861  1.00  0.00     0.006 C 
ATOM     19  C   UNL A   1      40.793  33.418  32.621  1.00  0.00     0.020 C 
ATOM     20  C   UNL A   1      41.860  34.466  32.289  1.00  0.00     0.001 C 
BRANCH  16  21
ATOM     21  N   UNL A   1      39.068  33.452  29.182  1.00  0.00    -0.354 N 
ATOM     22  H   UNL A   1      38.288  32.862  29.467  1.00  0.00     0.344 HD
ATOM     23  H   UNL A   1      39.405  33.153  28.266  1.00  0.00     0.344 HD
ATOM     24  H   UNL A   1      38.758  34.423  29.129  1.00  0.00     0.344 HD
ENDBRANCH  16  21
ENDBRANCH  10  15
ENDBRANCH   7   9
ENDBRANCH   6   7
ENDBRANCH   5   6
ENDBRANCH   4   5
ENDBRANCH   3   4
ENDBRANCH   2   3
ENDBRANCH   1   2
BRANCH   1  25
ATOM     25  O   UNL A   1      34.979  34.002  28.684  1.00  0.00    -0.376 OA
BRANCH  25  26
ATOM     26  C   UNL A   1      35.364  32.731  28.196  1.00  0.00     0.202 C 
BRANCH  26  27
ATOM     27  C   UNL A   1      35.604  31.491  29.082  1.00  0.00     0.261 C 
BRANCH  27  28
ATOM     28  O   UNL A   1      36.543  30.504  28.642  1.00  0.00    -0.460 OA
BRANCH  28  29
ATOM     29  C   UNL A   1      37.032  29.663  29.580  1.00  0.00     0.338 C 
ATOM     30  O   UNL A   1      36.421  29.201  30.539  1.00  0.00    -0.246 OA
BRANCH  29  31
ATOM     31  C   UNL A   1      38.367  29.211  29.143  1.00  0.00     0.060 A 
ATOM     32  C   UNL A   1      39.231  28.628  30.082  1.00  0.00     0.016 A 
ATOM     33  C   UNL A   1      38.769  29.366  27.815  1.00  0.00     0.016 A 
ATOM     34  C   UNL A   1      40.512  28.228  29.701  1.00  0.00     0.010 A 
ATOM     35  C   UNL A   1      40.062  28.985  27.441  1.00  0.00     0.010 A 
ATOM     36  C   UNL A   1      40.951  28.446  28.389  1.00  0.00    -0.014 A 
BRANCH  36  37
ATOM     37  C   UNL A   1      42.390  28.304  28.056  1.00  0.00     0.031 A 
ATOM     38  C   UNL A   1      43.299  29.478  28.317  1.00  0.00     0.074 A 
ATOM     39  C   UNL A   1      42.891  27.161  27.555  1.00  0.00     0.049 A 
ATOM     40  N   UNL A   1      44.572  29.618  28.052  1.00  0.00    -0.248 NA
ATOM     41  C   UNL A   1      42.686  30.651  28.964  1.00  0.00     0.031 C 
ATOM     42  C   UNL A   1      42.133  25.934  27.314  1.00  0.00     0.029 A 
ATOM     43  N   UNL A   1      44.167  26.851  27.155  1.00  0.00    -0.354 N 
ATOM     44  C   UNL A   1      44.911  30.891  28.495  1.00  0.00     0.074 A 
ATOM     45  C   UNL A   1      43.704  31.497  29.013  1.00  0.00     0.031 C 
ATOM     46  C   UNL A   1      42.959  25.005  26.800  1.00  0.00     0.029 A 
ATOM     47  C   UNL A   1      44.293  25.581  26.640  1.00  0.00     0.049 A 
ATOM     48  H   UNL A   1      44.923  27.479  27.229  1.00  0.00     0.167 HD
ATOM     49  C   UNL A   1      46.120  31.501  28.482  1.00  0.00     0.031 A 
ATOM     50  C   UNL A   1      45.357  24.966  26.085  1.00  0.00     0.031 A 
ATOM     51  C   UNL A   1      47.317  30.905  27.950  1.00  0.00     0.049 A 
ATOM     52  C   UNL A   1      46.670  25.705  25.988  1.00  0.00     0.074 A 
ATOM     53  C   UNL A   1      48.588  31.447  27.880  1.00  0.00     0.029 A 
ATOM     54  N   UNL A   1      47.391  29.637  27.397  1.00  0.00    -0.354 N 
ATOM     55  N   UNL A   1      46.976  26.909  26.412  1.00  0.00    -0.248 NA
ATOM     56  C   UNL A   1      47.786  24.995  25.344  1.00  0.00     0.031 C 
ATOM     57  C   UNL A   1      49.419  30.526  27.234  1.00  0.00     0.029 A 
ATOM     58  C   UNL A   1      48.682  29.384  26.965  1.00  0.00     0.049 A 
ATOM     59  H   UNL A   1      46.637  29.008  27.323  1.00  0.00     0.167 HD
ATOM     60  C   UNL A   1      48.328  27.081  26.123  1.00  0.00     0.074 A 
ATOM     61  C   UNL A   1      48.781  25.857  25.498  1.00  0.00     0.031 C 
ATOM     62  C   UNL A   1      49.124  28.154  26.357  1.00  0.00     0.031 A 
BRANCH  49  63
ATOM     63  C   UNL A   1      46.202  32.897  29.040  1.00  0.00    -0.014 A 
ATOM     64  C   UNL A   1      45.977  34.020  28.224  1.00  0.00     0.010 A 
ATOM     65  C   UNL A   1      46.464  33.087  30.409  1.00  0.00     0.010 A 
ATOM     66  C   UNL A   1      46.042  35.309  28.760  1.00  0.00     0.020 A 
ATOM     67  C   UNL A   1      46.501  34.374  30.955  1.00  0.00     0.020 A 
ATOM     68  C   UNL A   1      46.302  35.477  30.123  1.00  0.00     0.054 A 
BRANCH  68  69
ATOM     69  S   UNL A   1      46.344  37.161  30.797  1.00  0.00     0.124 S 
ATOM     70  O   UNL A   1      47.527  37.716  30.147  1.00  0.00    -0.237 OA
ATOM     71  O   UNL A   1      45.066  37.713  30.354  1.00  0.00    -0.237 OA
ATOM     72  O   UNL A   1      46.465  36.956  32.239  1.00  0.00    -0.744 OA
ENDBRANCH  68  69
ENDBRANCH  49  63
BRANCH  50  73
ATOM     73  C   UNL A   1      45.235  23.579  25.551  1.00  0.00    -0.014 A 
ATOM     74  C   UNL A   1      44.722  23.348  24.262  1.00  0.00     0.010 A 
ATOM     75  C   UNL A   1      45.591  22.476  26.350  1.00  0.00     0.010 A 
ATOM     76  C   UNL A   1      44.534  22.042  23.796  1.00  0.00     0.020 A 
ATOM     77  C   UNL A   1      45.435  21.171  25.875  1.00  0.00     0.020 A 
ATOM     78  C   UNL A   1      44.890  20.961  24.607  1.00  0.00     0.054 A 
BRANCH  78  79
ATOM     79  S   UNL A   1      44.651  19.277  23.976  1.00  0.00     0.124 S 
ATOM     80  O   UNL A   1      45.889  18.621  24.384  1.00  0.00    -0.237 OA
ATOM     81  O   UNL A   1      43.444  18.845  24.677  1.00  0.00    -0.237 OA
ATOM     82  O   UNL A   1      44.492  19.472  22.536  1.00  0.00    -0.744 OA
ENDBRANCH  78  79
ENDBRANCH  50  73
BRANCH  62  83
ATOM     83  C   UNL A   1      50.583  28.037  25.996  1.00  0.00    -0.014 A 
ATOM     84  C   UNL A   1      51.516  27.461  26.878  1.00  0.00     0.010 A 
ATOM     85  C   UNL A   1      51.016  28.464  24.727  1.00  0.00     0.010 A 
ATOM     86  C   UNL A   1      52.860  27.352  26.510  1.00  0.00     0.020 A 
ATOM     87  C   UNL A   1      52.352  28.327  24.344  1.00  0.00     0.020 A 
ATOM     88  C   UNL A   1      53.271  27.787  25.245  1.00  0.00     0.054 A 
BRANCH  88  89
ATOM     89  S   UNL A   1      55.014  27.600  24.780  1.00  0.00     0.124 S 
ATOM     90  O   UNL A   1      55.694  27.817  26.053  1.00  0.00    -0.237 OA
ATOM     91  O   UNL A   1      55.063  26.233  24.265  1.00  0.00    -0.237 OA
ATOM     92  O   UNL A   1      55.219  28.644  23.778  1.00  0.00    -0.744 OA
ENDBRANCH  88  89
ENDBRANCH  62  83
ENDBRANCH  36  37
ENDBRANCH  29  31
ENDBRANCH  28  29
ENDBRANCH  27  28
ENDBRANCH  26  27
ENDBRANCH  25  26
ENDBRANCH   1  25
TORSDOF 22
ENDMDL
MODEL 3
REMARK VINA RESULT:      -9.2      6.095     13.510
REMARK SMILES [NH3+][C@H]1CCCC[C@@H]1C(=O)N1CC(C(=O)OCCOCCOCCOC(=O)c2ccc(-c3c4nc(c(-c5ccc(S(=O)(=O)[O-])cc5)c5ccc([nH]5)c(-c5ccc(S(=O)(=O)[O-])cc5)c5nc(c(-c6ccc(S(=O)(=O)[O-])cc6)c6ccc3[nH]6)C=C5)C=C4)cc2)C1
REMARK SMILES IDX 20 1 19 2 18 3 17 4 16 5 15 6 13 7 14 8 12 9 8 10 9 11 10 12
REMARK SMILES IDX 11 13 87 14 7 15 2 16 3 17 4 18 6 19 5 20 1 21 21 25 22 26
REMARK SMILES IDX 23 27 24 28 25 29 26 30 27 31 28 32 86 33 29 34 85 35 30 36
REMARK SMILES IDX 31 37 32 38 79 39 33 40 84 41 78 42 80 43 34 44 83 45 77 46
REMARK SMILES IDX 76 47 35 49 65 50 46 51 64 52 47 53 50 54 63 55 81 56 48 57
REMARK SMILES IDX 49 58 62 60 82 61 51 62 36 63 37 64 45 65 38 66 44 67 39 68
REMARK SMILES IDX 40 69 41 70 42 71 43 72 66 73 67 74 75 75 68 76 74 77 69 78
REMARK SMILES IDX 70 79 71 80 72 81 73 82 52 83 53 84 61 85 54 86 60 87 55 88
REMARK SMILES IDX 56 89 57 90 58 91 59 92
REMARK H PARENT 1 22 1 23 1 24 80 48 50 59
REMARK Flexibility Score: inf
ROOT
ATOM      1  C   UNL A   1      33.756  34.930  29.303  1.00  0.00     0.188 C 
ENDROOT
BRANCH   1   2
ATOM      2  C   UNL A   1      32.925  35.989  30.054  1.00  0.00     0.188 C 
BRANCH   2   3
ATOM      3  O   UNL A   1      32.901  35.970  31.477  1.00  0.00    -0.376 OA
BRANCH   3   4
ATOM      4  C   UNL A   1      33.764  36.839  32.203  1.00  0.00     0.202 C 
BRANCH   4   5
ATOM      5  C   UNL A   1      34.198  36.471  33.633  1.00  0.00     0.261 C 
BRANCH   5   6
ATOM      6  O   UNL A   1      34.482  35.072  33.815  1.00  0.00    -0.463 OA
BRANCH   6   7
ATOM      7  C   UNL A   1      35.772  34.676  33.594  1.00  0.00     0.312 C 
ATOM      8  O   UNL A   1      36.534  35.287  32.846  1.00  0.00    -0.252 OA
BRANCH   7   9
ATOM      9  C   UNL A   1      36.186  33.452  34.438  1.00  0.00     0.138 C 
ATOM     10  C   UNL A   1      38.898  31.861  35.740  1.00  0.00     0.231 C 
ATOM     11  O   UNL A   1      38.976  31.767  36.970  1.00  0.00    -0.274 OA
ATOM     12  N   UNL A   1      37.783  32.387  35.165  1.00  0.00    -0.340 N 
ATOM     13  C   UNL A   1      37.273  33.717  35.483  1.00  0.00     0.136 C 
ATOM     14  C   UNL A   1      37.125  32.356  33.878  1.00  0.00     0.136 C 
BRANCH  10  15
ATOM     15  C   UNL A   1      40.089  31.448  34.885  1.00  0.00     0.136 C 
ATOM     16  C   UNL A   1      41.042  30.446  35.566  1.00  0.00     0.193 C 
ATOM     17  C   UNL A   1      42.130  29.976  34.594  1.00  0.00     0.066 C 
ATOM     18  C   UNL A   1      42.873  31.160  33.980  1.00  0.00     0.006 C 
ATOM     19  C   UNL A   1      40.842  32.635  34.284  1.00  0.00     0.020 C 
ATOM     20  C   UNL A   1      41.916  32.142  33.310  1.00  0.00     0.001 C 
BRANCH  16  21
ATOM     21  N   UNL A   1      40.334  29.285  36.106  1.00  0.00    -0.354 N 
ATOM     22  H   UNL A   1      39.579  29.022  35.473  1.00  0.00     0.344 HD
ATOM     23  H   UNL A   1      39.946  29.518  37.021  1.00  0.00     0.344 HD
ATOM     24  H   UNL A   1      40.984  28.505  36.202  1.00  0.00     0.344 HD
ENDBRANCH  16  21
ENDBRANCH  10  15
ENDBRANCH   7   9
ENDBRANCH   6   7
ENDBRANCH   5   6
ENDBRANCH   4   5
ENDBRANCH   3   4
ENDBRANCH   2   3
ENDBRANCH   1   2
BRANCH   1  25
ATOM     25  O   UNL A   1      34.615  34.162  30.110  1.00  0.00    -0.376 OA
BRANCH  25  26
ATOM     26  C   UNL A   1      34.654  32.756  29.949  1.00  0.00     0.202 C 
BRANCH  26  27
ATOM     27  C   UNL A   1      35.395  31.789  30.895  1.00  0.00     0.261 C 
BRANCH  27  28
ATOM     28  O   UNL A   1      36.172  30.731  30.324  1.00  0.00    -0.460 OA
BRANCH  28  29
ATOM     29  C   UNL A   1      36.942  30.012  31.170  1.00  0.00     0.338 C 
ATOM     30  O   UNL A   1      36.553  29.324  32.110  1.00  0.00    -0.246 OA
BRANCH  29  31
ATOM     31  C   UNL A   1      38.323  30.008  30.648  1.00  0.00     0.060 A 
ATOM     32  C   UNL A   1      38.530  30.140  29.267  1.00  0.00     0.016 A 
ATOM     33  C   UNL A   1      39.408  29.868  31.515  1.00  0.00     0.016 A 
ATOM     34  C   UNL A   1      39.824  30.100  28.747  1.00  0.00     0.010 A 
ATOM     35  C   UNL A   1      40.702  29.805  30.989  1.00  0.00     0.010 A 
ATOM     36  C   UNL A   1      40.914  29.887  29.600  1.00  0.00    -0.014 A 
BRANCH  36  37
ATOM     37  C   UNL A   1      42.243  29.546  29.033  1.00  0.00     0.031 A 
ATOM     38  C   UNL A   1      42.480  28.129  28.581  1.00  0.00     0.074 A 
ATOM     39  C   UNL A   1      43.212  30.469  28.900  1.00  0.00     0.049 A 
ATOM     40  N   UNL A   1      43.570  27.577  28.115  1.00  0.00    -0.248 NA
ATOM     41  C   UNL A   1      41.330  27.211  28.667  1.00  0.00     0.031 C 
ATOM     42  C   UNL A   1      43.091  31.885  29.240  1.00  0.00     0.029 A 
ATOM     43  N   UNL A   1      44.500  30.343  28.440  1.00  0.00    -0.354 N 
ATOM     44  C   UNL A   1      43.240  26.251  27.857  1.00  0.00     0.074 A 
ATOM     45  C   UNL A   1      41.860  26.072  28.250  1.00  0.00     0.031 C 
ATOM     46  C   UNL A   1      44.261  32.498  28.983  1.00  0.00     0.029 A 
ATOM     47  C   UNL A   1      45.225  31.511  28.497  1.00  0.00     0.049 A 
ATOM     48  H   UNL A   1      44.871  29.496  28.100  1.00  0.00     0.167 HD
ATOM     49  C   UNL A   1      44.013  25.271  27.330  1.00  0.00     0.031 A 
ATOM     50  C   UNL A   1      46.521  31.749  28.212  1.00  0.00     0.031 A 
ATOM     51  C   UNL A   1      45.391  25.445  26.957  1.00  0.00     0.049 A 
ATOM     52  C   UNL A   1      47.390  30.614  27.723  1.00  0.00     0.074 A 
ATOM     53  C   UNL A   1      46.262  24.509  26.427  1.00  0.00     0.029 A 
ATOM     54  N   UNL A   1      46.100  26.630  27.074  1.00  0.00    -0.354 N 
ATOM     55  N   UNL A   1      47.064  29.366  27.483  1.00  0.00    -0.248 NA
ATOM     56  C   UNL A   1      48.803  30.927  27.459  1.00  0.00     0.031 C 
ATOM     57  C   UNL A   1      47.513  25.116  26.274  1.00  0.00     0.029 A 
ATOM     58  C   UNL A   1      47.402  26.446  26.645  1.00  0.00     0.049 A 
ATOM     59  H   UNL A   1      45.730  27.477  27.413  1.00  0.00     0.167 HD
ATOM     60  C   UNL A   1      48.221  28.758  27.000  1.00  0.00     0.074 A 
ATOM     61  C   UNL A   1      49.249  29.776  26.974  1.00  0.00     0.031 C 
ATOM     62  C   UNL A   1      48.414  27.473  26.610  1.00  0.00     0.031 A 
BRANCH  49  63
ATOM     63  C   UNL A   1      43.388  23.913  27.151  1.00  0.00    -0.014 A 
ATOM     64  C   UNL A   1      42.989  23.459  25.881  1.00  0.00     0.010 A 
ATOM     65  C   UNL A   1      43.239  23.061  28.261  1.00  0.00     0.010 A 
ATOM     66  C   UNL A   1      42.424  22.190  25.729  1.00  0.00     0.020 A 
ATOM     67  C   UNL A   1      42.703  21.779  28.107  1.00  0.00     0.020 A 
ATOM     68  C   UNL A   1      42.286  21.357  26.844  1.00  0.00     0.054 A 
BRANCH  68  69
ATOM     69  S   UNL A   1      41.584  19.701  26.608  1.00  0.00     0.124 S 
ATOM     70  O   UNL A   1      42.044  19.367  25.263  1.00  0.00    -0.237 OA
ATOM     71  O   UNL A   1      42.199  18.937  27.690  1.00  0.00    -0.237 OA
ATOM     72  O   UNL A   1      40.144  19.912  26.739  1.00  0.00    -0.744 OA
ENDBRANCH  68  69
ENDBRANCH  49  63
BRANCH  50  73
ATOM     73  C   UNL A   1      47.099  33.111  28.396  1.00  0.00    -0.014 A 
ATOM     74  C   UNL A   1      47.643  33.499  29.634  1.00  0.00     0.010 A 
ATOM     75  C   UNL A   1      47.067  34.045  27.345  1.00  0.00     0.010 A 
ATOM     76  C   UNL A   1      48.111  34.803  29.827  1.00  0.00     0.020 A 
ATOM     77  C   UNL A   1      47.563  35.340  27.523  1.00  0.00     0.020 A 
ATOM     78  C   UNL A   1      48.066  35.717  28.770  1.00  0.00     0.054 A 
BRANCH  78  79
ATOM     79  S   UNL A   1      48.691  37.398  29.039  1.00  0.00     0.124 S 
ATOM     80  O   UNL A   1      49.403  37.259  30.305  1.00  0.00    -0.237 OA
ATOM     81  O   UNL A   1      49.529  37.616  27.862  1.00  0.00    -0.237 OA
ATOM     82  O   UNL A   1      47.477  38.210  29.090  1.00  0.00    -0.744 OA
ENDBRANCH  78  79
ENDBRANCH  50  73
BRANCH  62  83
ATOM     83  C   UNL A   1      49.768  27.104  26.060  1.00  0.00    -0.014 A 
ATOM     84  C   UNL A   1      50.733  26.454  26.850  1.00  0.00     0.010 A 
ATOM     85  C   UNL A   1      50.057  27.367  24.707  1.00  0.00     0.010 A 
ATOM     86  C   UNL A   1      51.975  26.111  26.307  1.00  0.00     0.020 A 
ATOM     87  C   UNL A   1      51.284  26.996  24.153  1.00  0.00     0.020 A 
ATOM     88  C   UNL A   1      52.243  26.385  24.961  1.00  0.00     0.054 A 
BRANCH  88  89
ATOM     89  S   UNL A   1      53.849  25.896  24.274  1.00  0.00     0.124 S 
ATOM     90  O   UNL A   1      53.595  25.952  22.837  1.00  0.00    -0.237 OA
ATOM     91  O   UNL A   1      54.747  26.924  24.794  1.00  0.00    -0.237 OA
ATOM     92  O   UNL A   1      54.065  24.556  24.816  1.00  0.00    -0.744 OA
ENDBRANCH  88  89
ENDBRANCH  62  83
ENDBRANCH  36  37
ENDBRANCH  29  31
ENDBRANCH  28  29
ENDBRANCH  27  28
ENDBRANCH  26  27
ENDBRANCH  25  26
ENDBRANCH   1  25
TORSDOF 22
ENDMDL
