MODEL 1
REMARK VINA RESULT:      -8.6      0.000      0.000
REMARK SMILES COC[C@@H](C)CC(=O)N1CC(CC(=O)OCCOCCOCCOC(=O)c2ccc(-c3c4nc(c(-c5ccc(S(=O)(=O)[O-])cc5)c5ccc([nH]5)c(-c5ccc(S(=O)(=O)[O-])cc5)c5nc(c(-c6ccc(S(=O)(=O)[O-])cc6)c6ccc3[nH]6)C=C5)C=C4)cc2)C1
REMARK SMILES IDX 19 1 18 2 17 3 16 4 15 5 13 6 14 7 12 8 11 9 7 10 8 11 9 12
REMARK SMILES IDX 10 13 87 14 6 15 4 16 5 17 3 18 2 19 1 20 20 21 21 22 22 23
REMARK SMILES IDX 23 24 24 25 25 26 26 27 27 28 28 29 86 30 29 31 85 32 30 33
REMARK SMILES IDX 31 34 32 35 79 36 33 37 84 38 78 39 80 40 34 41 83 42 77 43
REMARK SMILES IDX 76 44 35 46 65 47 46 48 64 49 47 50 50 51 63 52 81 53 48 54
REMARK SMILES IDX 49 55 62 57 82 58 51 59 36 60 37 61 45 62 38 63 44 64 39 65
REMARK SMILES IDX 40 66 41 67 42 68 43 69 66 70 67 71 75 72 68 73 74 74 69 75
REMARK SMILES IDX 70 76 71 77 72 78 73 79 52 80 53 81 61 82 54 83 60 84 55 85
REMARK SMILES IDX 56 86 57 87 58 88 59 89
REMARK H PARENT 80 45 50 56
REMARK Flexibility Score: inf
ROOT
ATOM      1  C   UNL A   1      37.906  23.426  26.010  1.00  0.00     0.188 C 
ENDROOT
BRANCH   1   2
ATOM      2  O   UNL A   1      36.540  23.218  25.678  1.00  0.00    -0.376 OA
BRANCH   2   3
ATOM      3  C   UNL A   1      36.054  21.883  25.778  1.00  0.00     0.202 C 
BRANCH   3   4
ATOM      4  C   UNL A   1      34.987  21.451  24.759  1.00  0.00     0.261 C 
BRANCH   4   5
ATOM      5  O   UNL A   1      33.807  22.282  24.717  1.00  0.00    -0.463 OA
BRANCH   5   6
ATOM      6  C   UNL A   1      33.414  22.700  23.481  1.00  0.00     0.306 C 
ATOM      7  O   UNL A   1      32.716  22.046  22.716  1.00  0.00    -0.252 OA
BRANCH   6   8
ATOM      8  C   UNL A   1      33.936  24.070  23.093  1.00  0.00     0.130 C 
BRANCH   8   9
ATOM      9  C   UNL A   1      32.930  25.196  22.878  1.00  0.00     0.039 C 
ATOM     10  C   UNL A   1      32.106  28.259  23.862  1.00  0.00     0.222 C 
ATOM     11  O   UNL A   1      31.594  28.807  22.890  1.00  0.00    -0.275 OA
ATOM     12  N   UNL A   1      32.839  27.091  23.779  1.00  0.00    -0.342 N 
ATOM     13  C   UNL A   1      33.500  26.588  22.570  1.00  0.00     0.125 C 
ATOM     14  C   UNL A   1      32.314  25.776  24.141  1.00  0.00     0.125 C 
BRANCH  10  15
ATOM     15  C   UNL A   1      32.142  28.926  25.232  1.00  0.00     0.106 C 
BRANCH  15  16
ATOM     16  C   UNL A   1      32.750  28.157  26.417  1.00  0.00     0.021 C 
ATOM     17  C   UNL A   1      31.775  28.238  27.601  1.00  0.00     0.010 C 
BRANCH  16  18
ATOM     18  C   UNL A   1      34.135  28.672  26.829  1.00  0.00     0.163 C 
BRANCH  18  19
ATOM     19  O   UNL A   1      34.150  30.090  26.973  1.00  0.00    -0.384 OA
ATOM     20  C   UNL A   1      35.131  30.574  27.878  1.00  0.00     0.194 C 
ENDBRANCH  18  19
ENDBRANCH  16  18
ENDBRANCH  15  16
ENDBRANCH  10  15
ENDBRANCH   8   9
ENDBRANCH   6   8
ENDBRANCH   5   6
ENDBRANCH   4   5
ENDBRANCH   3   4
ENDBRANCH   2   3
ENDBRANCH   1   2
BRANCH   1  21
ATOM     21  C   UNL A   1      38.808  22.191  26.037  1.00  0.00     0.188 C 
BRANCH  21  22
ATOM     22  O   UNL A   1      39.921  22.215  26.921  1.00  0.00    -0.376 OA
BRANCH  22  23
ATOM     23  C   UNL A   1      41.204  22.194  26.278  1.00  0.00     0.202 C 
BRANCH  23  24
ATOM     24  C   UNL A   1      41.900  23.562  26.075  1.00  0.00     0.261 C 
BRANCH  24  25
ATOM     25  O   UNL A   1      41.048  24.729  26.115  1.00  0.00    -0.460 OA
BRANCH  25  26
ATOM     26  C   UNL A   1      41.632  25.944  25.978  1.00  0.00     0.338 C 
ATOM     27  O   UNL A   1      41.881  26.502  24.923  1.00  0.00    -0.246 OA
BRANCH  26  28
ATOM     28  C   UNL A   1      41.662  26.619  27.309  1.00  0.00     0.060 A 
ATOM     29  C   UNL A   1      40.693  26.256  28.256  1.00  0.00     0.016 A 
ATOM     30  C   UNL A   1      42.652  27.543  27.658  1.00  0.00     0.016 A 
ATOM     31  C   UNL A   1      40.681  26.843  29.527  1.00  0.00     0.010 A 
ATOM     32  C   UNL A   1      42.630  28.143  28.926  1.00  0.00     0.010 A 
ATOM     33  C   UNL A   1      41.624  27.826  29.857  1.00  0.00    -0.014 A 
BRANCH  33  34
ATOM     34  C   UNL A   1      41.424  28.672  31.068  1.00  0.00     0.031 A 
ATOM     35  C   UNL A   1      40.315  29.696  31.043  1.00  0.00     0.074 A 
ATOM     36  C   UNL A   1      42.172  28.536  32.180  1.00  0.00     0.049 A 
ATOM     37  N   UNL A   1      39.963  30.564  31.956  1.00  0.00    -0.248 NA
ATOM     38  C   UNL A   1      39.498  29.744  29.819  1.00  0.00     0.031 C 
ATOM     39  C   UNL A   1      43.244  27.562  32.373  1.00  0.00     0.029 A 
ATOM     40  N   UNL A   1      42.138  29.235  33.366  1.00  0.00    -0.354 N 
ATOM     41  C   UNL A   1      38.892  31.265  31.415  1.00  0.00     0.074 A 
ATOM     42  C   UNL A   1      38.671  30.743  30.084  1.00  0.00     0.031 C 
ATOM     43  C   UNL A   1      43.771  27.730  33.600  1.00  0.00     0.029 A 
ATOM     44  C   UNL A   1      43.098  28.844  34.270  1.00  0.00     0.049 A 
ATOM     45  H   UNL A   1      41.487  29.951  33.549  1.00  0.00     0.167 HD
ATOM     46  C   UNL A   1      38.147  32.251  31.973  1.00  0.00     0.031 A 
ATOM     47  C   UNL A   1      43.411  29.336  35.489  1.00  0.00     0.031 A 
ATOM     48  C   UNL A   1      38.364  32.788  33.289  1.00  0.00     0.049 A 
ATOM     49  C   UNL A   1      42.623  30.493  36.058  1.00  0.00     0.074 A 
ATOM     50  C   UNL A   1      37.651  33.781  33.938  1.00  0.00     0.029 A 
ATOM     51  N   UNL A   1      39.372  32.391  34.152  1.00  0.00    -0.354 N 
ATOM     52  N   UNL A   1      41.595  31.125  35.543  1.00  0.00    -0.248 NA
ATOM     53  C   UNL A   1      43.035  30.996  37.378  1.00  0.00     0.031 C 
ATOM     54  C   UNL A   1      38.264  34.025  35.171  1.00  0.00     0.029 A 
ATOM     55  C   UNL A   1      39.318  33.138  35.317  1.00  0.00     0.049 A 
ATOM     56  H   UNL A   1      40.030  31.683  33.965  1.00  0.00     0.167 HD
ATOM     57  C   UNL A   1      41.220  32.076  36.491  1.00  0.00     0.074 A 
ATOM     58  C   UNL A   1      42.121  31.928  37.613  1.00  0.00     0.031 C 
ATOM     59  C   UNL A   1      40.215  32.985  36.435  1.00  0.00     0.031 A 
BRANCH  46  60
ATOM     60  C   UNL A   1      37.043  32.843  31.136  1.00  0.00    -0.014 A 
ATOM     61  C   UNL A   1      37.327  33.649  30.018  1.00  0.00     0.010 A 
ATOM     62  C   UNL A   1      35.703  32.559  31.454  1.00  0.00     0.010 A 
ATOM     63  C   UNL A   1      36.287  34.193  29.258  1.00  0.00     0.020 A 
ATOM     64  C   UNL A   1      34.662  33.076  30.678  1.00  0.00     0.020 A 
ATOM     65  C   UNL A   1      34.961  33.904  29.595  1.00  0.00     0.054 A 
BRANCH  65  66
ATOM     66  S   UNL A   1      33.633  34.606  28.578  1.00  0.00     0.124 S 
ATOM     67  O   UNL A   1      34.283  35.783  28.007  1.00  0.00    -0.237 OA
ATOM     68  O   UNL A   1      33.347  33.527  27.636  1.00  0.00    -0.237 OA
ATOM     69  O   UNL A   1      32.571  34.887  29.541  1.00  0.00    -0.744 OA
ENDBRANCH  65  66
ENDBRANCH  46  60
BRANCH  47  70
ATOM     70  C   UNL A   1      44.547  28.754  36.263  1.00  0.00    -0.014 A 
ATOM     71  C   UNL A   1      45.864  29.208  36.064  1.00  0.00     0.010 A 
ATOM     72  C   UNL A   1      44.318  27.719  37.188  1.00  0.00     0.010 A 
ATOM     73  C   UNL A   1      46.929  28.629  36.761  1.00  0.00     0.020 A 
ATOM     74  C   UNL A   1      45.376  27.156  37.908  1.00  0.00     0.020 A 
ATOM     75  C   UNL A   1      46.677  27.608  37.683  1.00  0.00     0.054 A 
BRANCH  75  76
ATOM     76  S   UNL A   1      48.068  26.906  38.613  1.00  0.00     0.124 S 
ATOM     77  O   UNL A   1      48.533  25.852  37.718  1.00  0.00    -0.237 OA
ATOM     78  O   UNL A   1      48.961  28.054  38.758  1.00  0.00    -0.237 OA
ATOM     79  O   UNL A   1      47.451  26.446  39.855  1.00  0.00    -0.744 OA
ENDBRANCH  75  76
ENDBRANCH  47  70
BRANCH  59  80
ATOM     80  C   UNL A   1      39.995  33.872  37.637  1.00  0.00    -0.014 A 
ATOM     81  C   UNL A   1      40.542  35.165  37.707  1.00  0.00     0.010 A 
ATOM     82  C   UNL A   1      39.167  33.424  38.684  1.00  0.00     0.010 A 
ATOM     83  C   UNL A   1      40.290  35.982  38.815  1.00  0.00     0.020 A 
ATOM     84  C   UNL A   1      38.889  34.248  39.779  1.00  0.00     0.020 A 
ATOM     85  C   UNL A   1      39.464  35.517  39.844  1.00  0.00     0.054 A 
BRANCH  85  86
ATOM     86  S   UNL A   1      39.117  36.613  41.249  1.00  0.00     0.124 S 
ATOM     87  O   UNL A   1      38.614  37.812  40.584  1.00  0.00    -0.237 OA
ATOM     88  O   UNL A   1      38.128  35.854  42.010  1.00  0.00    -0.237 OA
ATOM     89  O   UNL A   1      40.416  36.762  41.903  1.00  0.00    -0.744 OA
ENDBRANCH  85  86
ENDBRANCH  59  80
ENDBRANCH  33  34
ENDBRANCH  26  28
ENDBRANCH  25  26
ENDBRANCH  24  25
ENDBRANCH  23  24
ENDBRANCH  22  23
ENDBRANCH  21  22
ENDBRANCH   1  21
TORSDOF 25
ENDMDL
MODEL 2
REMARK VINA RESULT:      -8.4      1.027      2.104
REMARK SMILES COC[C@@H](C)CC(=O)N1CC(CC(=O)OCCOCCOCCOC(=O)c2ccc(-c3c4nc(c(-c5ccc(S(=O)(=O)[O-])cc5)c5ccc([nH]5)c(-c5ccc(S(=O)(=O)[O-])cc5)c5nc(c(-c6ccc(S(=O)(=O)[O-])cc6)c6ccc3[nH]6)C=C5)C=C4)cc2)C1
REMARK SMILES IDX 19 1 18 2 17 3 16 4 15 5 13 6 14 7 12 8 11 9 7 10 8 11 9 12
REMARK SMILES IDX 10 13 87 14 6 15 4 16 5 17 3 18 2 19 1 20 20 21 21 22 22 23
REMARK SMILES IDX 23 24 24 25 25 26 26 27 27 28 28 29 86 30 29 31 85 32 30 33
REMARK SMILES IDX 31 34 32 35 79 36 33 37 84 38 78 39 80 40 34 41 83 42 77 43
REMARK SMILES IDX 76 44 35 46 65 47 46 48 64 49 47 50 50 51 63 52 81 53 48 54
REMARK SMILES IDX 49 55 62 57 82 58 51 59 36 60 37 61 45 62 38 63 44 64 39 65
REMARK SMILES IDX 40 66 41 67 42 68 43 69 66 70 67 71 75 72 68 73 74 74 69 75
REMARK SMILES IDX 70 76 71 77 72 78 73 79 52 80 53 81 61 82 54 83 60 84 55 85
REMARK SMILES IDX 56 86 57 87 58 88 59 89
REMARK H PARENT 80 45 50 56
REMARK Flexibility Score: inf
ROOT
ATOM      1  C   UNL A   1      37.657  23.274  25.910  1.00  0.00     0.188 C 
ENDROOT
BRANCH   1   2
ATOM      2  O   UNL A   1      36.330  22.830  25.665  1.00  0.00    -0.376 OA
BRANCH   2   3
ATOM      3  C   UNL A   1      36.090  21.432  25.782  1.00  0.00     0.202 C 
BRANCH   3   4
ATOM      4  C   UNL A   1      34.851  20.873  25.065  1.00  0.00     0.261 C 
BRANCH   4   5
ATOM      5  O   UNL A   1      33.703  20.646  25.912  1.00  0.00    -0.463 OA
BRANCH   5   6
ATOM      6  C   UNL A   1      32.485  20.808  25.323  1.00  0.00     0.306 C 
ATOM      7  O   UNL A   1      32.003  20.038  24.502  1.00  0.00    -0.252 OA
BRANCH   6   8
ATOM      8  C   UNL A   1      31.749  22.062  25.752  1.00  0.00     0.130 C 
BRANCH   8   9
ATOM      9  C   UNL A   1      32.568  23.303  26.092  1.00  0.00     0.039 C 
ATOM     10  C   UNL A   1      32.846  26.559  25.497  1.00  0.00     0.222 C 
ATOM     11  O   UNL A   1      33.302  27.059  26.522  1.00  0.00    -0.275 OA
ATOM     12  N   UNL A   1      32.316  25.285  25.442  1.00  0.00    -0.342 N 
ATOM     13  C   UNL A   1      31.793  24.533  26.589  1.00  0.00     0.125 C 
ATOM     14  C   UNL A   1      33.030  24.130  24.903  1.00  0.00     0.125 C 
BRANCH  10  15
ATOM     15  C   UNL A   1      32.648  27.377  24.227  1.00  0.00     0.106 C 
BRANCH  15  16
ATOM     16  C   UNL A   1      32.224  26.654  22.937  1.00  0.00     0.021 C 
ATOM     17  C   UNL A   1      33.427  26.617  21.982  1.00  0.00     0.010 C 
BRANCH  16  18
ATOM     18  C   UNL A   1      31.015  27.298  22.248  1.00  0.00     0.163 C 
BRANCH  18  19
ATOM     19  O   UNL A   1      29.891  27.379  23.121  1.00  0.00    -0.384 OA
ATOM     20  C   UNL A   1      29.219  28.629  23.091  1.00  0.00     0.194 C 
ENDBRANCH  18  19
ENDBRANCH  16  18
ENDBRANCH  15  16
ENDBRANCH  10  15
ENDBRANCH   8   9
ENDBRANCH   6   8
ENDBRANCH   5   6
ENDBRANCH   4   5
ENDBRANCH   3   4
ENDBRANCH   2   3
ENDBRANCH   1   2
BRANCH   1  21
ATOM     21  C   UNL A   1      38.740  22.198  26.002  1.00  0.00     0.188 C 
BRANCH  21  22
ATOM     22  O   UNL A   1      39.768  22.387  26.967  1.00  0.00    -0.376 OA
BRANCH  22  23
ATOM     23  C   UNL A   1      41.102  22.216  26.468  1.00  0.00     0.202 C 
BRANCH  23  24
ATOM     24  C   UNL A   1      41.885  23.506  26.124  1.00  0.00     0.261 C 
BRANCH  24  25
ATOM     25  O   UNL A   1      41.103  24.716  25.993  1.00  0.00    -0.460 OA
BRANCH  25  26
ATOM     26  C   UNL A   1      41.770  25.891  25.888  1.00  0.00     0.338 C 
ATOM     27  O   UNL A   1      42.105  26.432  24.848  1.00  0.00    -0.246 OA
BRANCH  26  28
ATOM     28  C   UNL A   1      41.777  26.564  27.221  1.00  0.00     0.060 A 
ATOM     29  C   UNL A   1      40.805  26.183  28.159  1.00  0.00     0.016 A 
ATOM     30  C   UNL A   1      42.750  27.501  27.581  1.00  0.00     0.016 A 
ATOM     31  C   UNL A   1      40.773  26.767  29.430  1.00  0.00     0.010 A 
ATOM     32  C   UNL A   1      42.707  28.099  28.850  1.00  0.00     0.010 A 
ATOM     33  C   UNL A   1      41.697  27.763  29.771  1.00  0.00    -0.014 A 
BRANCH  33  34
ATOM     34  C   UNL A   1      41.473  28.604  30.982  1.00  0.00     0.031 A 
ATOM     35  C   UNL A   1      40.334  29.593  30.958  1.00  0.00     0.074 A 
ATOM     36  C   UNL A   1      42.227  28.490  32.093  1.00  0.00     0.049 A 
ATOM     37  N   UNL A   1      39.957  30.451  31.872  1.00  0.00    -0.248 NA
ATOM     38  C   UNL A   1      39.514  29.616  29.735  1.00  0.00     0.031 C 
ATOM     39  C   UNL A   1      43.327  27.550  32.285  1.00  0.00     0.029 A 
ATOM     40  N   UNL A   1      42.173  29.189  33.279  1.00  0.00    -0.354 N 
ATOM     41  C   UNL A   1      38.864  31.119  31.332  1.00  0.00     0.074 A 
ATOM     42  C   UNL A   1      38.658  30.590  30.001  1.00  0.00     0.031 C 
ATOM     43  C   UNL A   1      43.851  27.734  33.512  1.00  0.00     0.029 A 
ATOM     44  C   UNL A   1      43.145  28.827  34.182  1.00  0.00     0.049 A 
ATOM     45  H   UNL A   1      41.501  29.884  33.463  1.00  0.00     0.167 HD
ATOM     46  C   UNL A   1      38.091  32.083  31.890  1.00  0.00     0.031 A 
ATOM     47  C   UNL A   1      43.444  29.329  35.400  1.00  0.00     0.031 A 
ATOM     48  C   UNL A   1      38.294  32.626  33.206  1.00  0.00     0.049 A 
ATOM     49  C   UNL A   1      42.623  30.461  35.970  1.00  0.00     0.074 A 
ATOM     50  C   UNL A   1      37.551  33.597  33.856  1.00  0.00     0.029 A 
ATOM     51  N   UNL A   1      39.314  32.260  34.068  1.00  0.00    -0.354 N 
ATOM     52  N   UNL A   1      41.576  31.062  35.457  1.00  0.00    -0.248 NA
ATOM     53  C   UNL A   1      43.021  30.977  37.290  1.00  0.00     0.031 C 
ATOM     54  C   UNL A   1      38.158  33.860  35.087  1.00  0.00     0.029 A 
ATOM     55  C   UNL A   1      39.239  33.005  35.233  1.00  0.00     0.049 A 
ATOM     56  H   UNL A   1      39.993  31.571  33.880  1.00  0.00     0.167 HD
ATOM     57  C   UNL A   1      41.173  32.001  36.404  1.00  0.00     0.074 A 
ATOM     58  C   UNL A   1      42.079  31.881  37.526  1.00  0.00     0.031 C 
ATOM     59  C   UNL A   1      40.141  32.880  36.350  1.00  0.00     0.031 A 
BRANCH  46  60
ATOM     60  C   UNL A   1      36.969  32.641  31.054  1.00  0.00    -0.014 A 
ATOM     61  C   UNL A   1      35.656  32.153  31.176  1.00  0.00     0.010 A 
ATOM     62  C   UNL A   1      37.229  33.693  30.157  1.00  0.00     0.010 A 
ATOM     63  C   UNL A   1      34.630  32.681  30.386  1.00  0.00     0.020 A 
ATOM     64  C   UNL A   1      36.201  34.245  29.389  1.00  0.00     0.020 A 
ATOM     65  C   UNL A   1      34.910  33.723  29.496  1.00  0.00     0.054 A 
BRANCH  65  66
ATOM     66  S   UNL A   1      33.556  34.403  28.501  1.00  0.00     0.124 S 
ATOM     67  O   UNL A   1      34.238  35.443  27.736  1.00  0.00    -0.237 OA
ATOM     68  O   UNL A   1      33.112  33.245  27.731  1.00  0.00    -0.237 OA
ATOM     69  O   UNL A   1      32.603  34.888  29.497  1.00  0.00    -0.744 OA
ENDBRANCH  65  66
ENDBRANCH  46  60
BRANCH  47  70
ATOM     70  C   UNL A   1      44.599  28.781  36.173  1.00  0.00    -0.014 A 
ATOM     71  C   UNL A   1      44.421  27.726  37.086  1.00  0.00     0.010 A 
ATOM     72  C   UNL A   1      45.883  29.335  36.017  1.00  0.00     0.010 A 
ATOM     73  C   UNL A   1      45.499  27.247  37.838  1.00  0.00     0.020 A 
ATOM     74  C   UNL A   1      46.969  28.840  36.745  1.00  0.00     0.020 A 
ATOM     75  C   UNL A   1      46.768  27.806  37.659  1.00  0.00     0.054 A 
BRANCH  75  76
ATOM     76  S   UNL A   1      48.162  27.134  38.609  1.00  0.00     0.124 S 
ATOM     77  O   UNL A   1      48.962  28.328  38.861  1.00  0.00    -0.237 OA
ATOM     78  O   UNL A   1      47.498  26.558  39.775  1.00  0.00    -0.237 OA
ATOM     79  O   UNL A   1      48.759  26.161  37.697  1.00  0.00    -0.744 OA
ENDBRANCH  75  76
ENDBRANCH  47  70
BRANCH  59  80
ATOM     80  C   UNL A   1      39.896  33.760  37.551  1.00  0.00    -0.014 A 
ATOM     81  C   UNL A   1      40.581  34.974  37.727  1.00  0.00     0.010 A 
ATOM     82  C   UNL A   1      38.909  33.393  38.487  1.00  0.00     0.010 A 
ATOM     83  C   UNL A   1      40.307  35.791  38.829  1.00  0.00     0.020 A 
ATOM     84  C   UNL A   1      38.611  34.221  39.574  1.00  0.00     0.020 A 
ATOM     85  C   UNL A   1      39.322  35.408  39.745  1.00  0.00     0.054 A 
BRANCH  85  86
ATOM     86  S   UNL A   1      38.954  36.506  41.143  1.00  0.00     0.124 S 
ATOM     87  O   UNL A   1      40.276  36.705  41.731  1.00  0.00    -0.237 OA
ATOM     88  O   UNL A   1      38.375  37.676  40.488  1.00  0.00    -0.237 OA
ATOM     89  O   UNL A   1      38.020  35.731  41.958  1.00  0.00    -0.744 OA
ENDBRANCH  85  86
ENDBRANCH  59  80
ENDBRANCH  33  34
ENDBRANCH  26  28
ENDBRANCH  25  26
ENDBRANCH  24  25
ENDBRANCH  23  24
ENDBRANCH  22  23
ENDBRANCH  21  22
ENDBRANCH   1  21
TORSDOF 25
ENDMDL
MODEL 3
REMARK VINA RESULT:      -7.6      2.456      3.666
REMARK SMILES COC[C@@H](C)CC(=O)N1CC(CC(=O)OCCOCCOCCOC(=O)c2ccc(-c3c4nc(c(-c5ccc(S(=O)(=O)[O-])cc5)c5ccc([nH]5)c(-c5ccc(S(=O)(=O)[O-])cc5)c5nc(c(-c6ccc(S(=O)(=O)[O-])cc6)c6ccc3[nH]6)C=C5)C=C4)cc2)C1
REMARK SMILES IDX 19 1 18 2 17 3 16 4 15 5 13 6 14 7 12 8 11 9 7 10 8 11 9 12
REMARK SMILES IDX 10 13 87 14 6 15 4 16 5 17 3 18 2 19 1 20 20 21 21 22 22 23
REMARK SMILES IDX 23 24 24 25 25 26 26 27 27 28 28 29 86 30 29 31 85 32 30 33
REMARK SMILES IDX 31 34 32 35 79 36 33 37 84 38 78 39 80 40 34 41 83 42 77 43
REMARK SMILES IDX 76 44 35 46 65 47 46 48 64 49 47 50 50 51 63 52 81 53 48 54
REMARK SMILES IDX 49 55 62 57 82 58 51 59 36 60 37 61 45 62 38 63 44 64 39 65
REMARK SMILES IDX 40 66 41 67 42 68 43 69 66 70 67 71 75 72 68 73 74 74 69 75
REMARK SMILES IDX 70 76 71 77 72 78 73 79 52 80 53 81 61 82 54 83 60 84 55 85
REMARK SMILES IDX 56 86 57 87 58 88 59 89
REMARK H PARENT 80 45 50 56
REMARK Flexibility Score: inf
ROOT
ATOM      1  C   UNL A   1      37.864  23.055  25.820  1.00  0.00     0.188 C 
ENDROOT
BRANCH   1   2
ATOM      2  O   UNL A   1      36.447  22.967  25.877  1.00  0.00    -0.376 OA
BRANCH   2   3
ATOM      3  C   UNL A   1      35.880  21.669  25.739  1.00  0.00     0.202 C 
BRANCH   3   4
ATOM      4  C   UNL A   1      35.109  21.377  24.441  1.00  0.00     0.261 C 
BRANCH   4   5
ATOM      5  O   UNL A   1      33.989  20.476  24.583  1.00  0.00    -0.463 OA
BRANCH   5   6
ATOM      6  C   UNL A   1      32.780  20.958  24.180  1.00  0.00     0.306 C 
ATOM      7  O   UNL A   1      32.412  21.022  23.013  1.00  0.00    -0.252 OA
BRANCH   6   8
ATOM      8  C   UNL A   1      31.897  21.449  25.311  1.00  0.00     0.130 C 
BRANCH   8   9
ATOM      9  C   UNL A   1      32.016  22.906  25.744  1.00  0.00     0.039 C 
ATOM     10  C   UNL A   1      30.428  25.823  25.752  1.00  0.00     0.222 C 
ATOM     11  O   UNL A   1      30.795  26.413  26.765  1.00  0.00    -0.275 OA
ATOM     12  N   UNL A   1      30.633  24.474  25.540  1.00  0.00    -0.342 N 
ATOM     13  C   UNL A   1      30.868  23.476  26.590  1.00  0.00     0.125 C 
ATOM     14  C   UNL A   1      31.683  23.937  24.678  1.00  0.00     0.125 C 
BRANCH  10  15
ATOM     15  C   UNL A   1      29.536  26.493  24.714  1.00  0.00     0.106 C 
BRANCH  15  16
ATOM     16  C   UNL A   1      30.169  27.480  23.717  1.00  0.00     0.021 C 
ATOM     17  C   UNL A   1      31.259  28.278  24.448  1.00  0.00     0.010 C 
BRANCH  16  18
ATOM     18  C   UNL A   1      29.151  28.431  23.075  1.00  0.00     0.163 C 
BRANCH  18  19
ATOM     19  O   UNL A   1      29.667  29.754  22.956  1.00  0.00    -0.384 OA
ATOM     20  C   UNL A   1      28.753  30.772  23.336  1.00  0.00     0.194 C 
ENDBRANCH  18  19
ENDBRANCH  16  18
ENDBRANCH  15  16
ENDBRANCH  10  15
ENDBRANCH   8   9
ENDBRANCH   6   8
ENDBRANCH   5   6
ENDBRANCH   4   5
ENDBRANCH   3   4
ENDBRANCH   2   3
ENDBRANCH   1   2
BRANCH   1  21
ATOM     21  C   UNL A   1      38.648  21.776  26.118  1.00  0.00     0.188 C 
BRANCH  21  22
ATOM     22  O   UNL A   1      40.064  21.883  26.201  1.00  0.00    -0.376 OA
BRANCH  22  23
ATOM     23  C   UNL A   1      40.763  20.630  26.225  1.00  0.00     0.202 C 
BRANCH  23  24
ATOM     24  C   UNL A   1      42.261  20.664  25.837  1.00  0.00     0.261 C 
BRANCH  24  25
ATOM     25  O   UNL A   1      42.765  21.921  25.330  1.00  0.00    -0.460 OA
BRANCH  25  26
ATOM     26  C   UNL A   1      43.934  22.383  25.835  1.00  0.00     0.338 C 
ATOM     27  O   UNL A   1      45.041  22.202  25.356  1.00  0.00    -0.246 OA
BRANCH  26  28
ATOM     28  C   UNL A   1      43.639  23.386  26.900  1.00  0.00     0.060 A 
ATOM     29  C   UNL A   1      44.077  24.705  26.706  1.00  0.00     0.016 A 
ATOM     30  C   UNL A   1      42.891  23.071  28.039  1.00  0.00     0.016 A 
ATOM     31  C   UNL A   1      43.813  25.693  27.662  1.00  0.00     0.010 A 
ATOM     32  C   UNL A   1      42.642  24.058  29.005  1.00  0.00     0.010 A 
ATOM     33  C   UNL A   1      43.132  25.367  28.842  1.00  0.00    -0.014 A 
BRANCH  33  34
ATOM     34  C   UNL A   1      43.130  26.319  29.989  1.00  0.00     0.031 A 
ATOM     35  C   UNL A   1      42.025  27.344  30.059  1.00  0.00     0.074 A 
ATOM     36  C   UNL A   1      44.055  26.277  30.968  1.00  0.00     0.049 A 
ATOM     37  N   UNL A   1      41.824  28.292  30.938  1.00  0.00    -0.248 NA
ATOM     38  C   UNL A   1      41.014  27.289  28.990  1.00  0.00     0.031 C 
ATOM     39  C   UNL A   1      45.151  25.317  31.065  1.00  0.00     0.029 A 
ATOM     40  N   UNL A   1      44.214  27.079  32.076  1.00  0.00    -0.354 N 
ATOM     41  C   UNL A   1      40.671  28.951  30.524  1.00  0.00     0.074 A 
ATOM     42  C   UNL A   1      40.236  28.314  29.300  1.00  0.00     0.031 C 
ATOM     43  C   UNL A   1      45.875  25.589  32.167  1.00  0.00     0.029 A 
ATOM     44  C   UNL A   1      45.314  26.762  32.839  1.00  0.00     0.049 A 
ATOM     45  H   UNL A   1      43.597  27.812  32.301  1.00  0.00     0.167 HD
ATOM     46  C   UNL A   1      40.023  29.987  31.108  1.00  0.00     0.031 A 
ATOM     47  C   UNL A   1      45.823  27.359  33.939  1.00  0.00     0.031 A 
ATOM     48  C   UNL A   1      40.453  30.638  32.316  1.00  0.00     0.049 A 
ATOM     49  C   UNL A   1      45.132  28.567  34.527  1.00  0.00     0.074 A 
ATOM     50  C   UNL A   1      39.850  31.689  32.985  1.00  0.00     0.029 A 
ATOM     51  N   UNL A   1      41.594  30.312  33.031  1.00  0.00    -0.354 N 
ATOM     52  N   UNL A   1      44.028  29.159  34.137  1.00  0.00    -0.248 NA
ATOM     53  C   UNL A   1      45.755  29.183  35.709  1.00  0.00     0.031 C 
ATOM     54  C   UNL A   1      40.659  32.037  34.071  1.00  0.00     0.029 A 
ATOM     55  C   UNL A   1      41.729  31.159  34.118  1.00  0.00     0.049 A 
ATOM     56  H   UNL A   1      42.217  29.584  32.800  1.00  0.00     0.167 HD
ATOM     57  C   UNL A   1      43.809  30.192  35.046  1.00  0.00     0.074 A 
ATOM     58  C   UNL A   1      44.886  30.138  36.011  1.00  0.00     0.031 C 
ATOM     59  C   UNL A   1      42.801  31.100  35.079  1.00  0.00     0.031 A 
BRANCH  46  60
ATOM     60  C   UNL A   1      38.790  30.510  30.418  1.00  0.00    -0.014 A 
ATOM     61  C   UNL A   1      37.544  29.876  30.569  1.00  0.00     0.010 A 
ATOM     62  C   UNL A   1      38.875  31.676  29.634  1.00  0.00     0.010 A 
ATOM     63  C   UNL A   1      36.414  30.374  29.914  1.00  0.00     0.020 A 
ATOM     64  C   UNL A   1      37.741  32.195  29.004  1.00  0.00     0.020 A 
ATOM     65  C   UNL A   1      36.520  31.530  29.135  1.00  0.00     0.054 A 
BRANCH  65  66
ATOM     66  S   UNL A   1      35.033  32.167  28.316  1.00  0.00     0.124 S 
ATOM     67  O   UNL A   1      34.624  31.023  27.506  1.00  0.00    -0.237 OA
ATOM     68  O   UNL A   1      34.159  32.484  29.442  1.00  0.00    -0.237 OA
ATOM     69  O   UNL A   1      35.518  33.321  27.563  1.00  0.00    -0.744 OA
ENDBRANCH  65  66
ENDBRANCH  46  60
BRANCH  47  70
ATOM     70  C   UNL A   1      47.077  26.840  34.561  1.00  0.00    -0.014 A 
ATOM     71  C   UNL A   1      48.337  27.289  34.126  1.00  0.00     0.010 A 
ATOM     72  C   UNL A   1      47.015  25.869  35.577  1.00  0.00     0.010 A 
ATOM     73  C   UNL A   1      49.509  26.766  34.684  1.00  0.00     0.020 A 
ATOM     74  C   UNL A   1      48.183  25.365  36.158  1.00  0.00     0.020 A 
ATOM     75  C   UNL A   1      49.424  25.810  35.700  1.00  0.00     0.054 A 
BRANCH  75  76
ATOM     76  S   UNL A   1      50.957  25.184  36.443  1.00  0.00     0.124 S 
ATOM     77  O   UNL A   1      51.883  25.229  35.316  1.00  0.00    -0.237 OA
ATOM     78  O   UNL A   1      51.208  26.151  37.508  1.00  0.00    -0.237 OA
ATOM     79  O   UNL A   1      50.593  23.845  36.901  1.00  0.00    -0.744 OA
ENDBRANCH  75  76
ENDBRANCH  47  70
BRANCH  59  80
ATOM     80  C   UNL A   1      42.779  32.092  36.217  1.00  0.00    -0.014 A 
ATOM     81  C   UNL A   1      43.355  33.368  36.093  1.00  0.00     0.010 A 
ATOM     82  C   UNL A   1      42.106  31.760  37.409  1.00  0.00     0.010 A 
ATOM     83  C   UNL A   1      43.285  34.283  37.149  1.00  0.00     0.020 A 
ATOM     84  C   UNL A   1      42.008  32.682  38.456  1.00  0.00     0.020 A 
ATOM     85  C   UNL A   1      42.611  33.933  38.324  1.00  0.00     0.054 A 
BRANCH  85  86
ATOM     86  S   UNL A   1      42.496  35.154  39.663  1.00  0.00     0.124 S 
ATOM     87  O   UNL A   1      42.693  34.325  40.849  1.00  0.00    -0.237 OA
ATOM     88  O   UNL A   1      43.586  36.075  39.351  1.00  0.00    -0.237 OA
ATOM     89  O   UNL A   1      41.155  35.713  39.510  1.00  0.00    -0.744 OA
ENDBRANCH  85  86
ENDBRANCH  59  80
ENDBRANCH  33  34
ENDBRANCH  26  28
ENDBRANCH  25  26
ENDBRANCH  24  25
ENDBRANCH  23  24
ENDBRANCH  22  23
ENDBRANCH  21  22
ENDBRANCH   1  21
TORSDOF 25
ENDMDL
