MODEL 1
REMARK VINA RESULT:     -10.8      0.000      0.000
REMARK SMILES Cc1ccc(C(=O)N2C[C@@H](C(=O)OCCOCCOCCOC(=O)c3ccc(-c4c5nc(c(-c6ccc(S(=O)(=O)[O-])cc6)c6ccc([nH]6)c(-c6ccc(S(=O)(=O)[O-])cc6)c6nc(c(-c7ccc(S(=O)(=O)[O-])cc7)c7ccc4[nH]7)C=C6)C=C5)cc3)C[C@H](C(=O)N3CCOCC3)C2)cc1F
REMARK SMILES IDX 18 1 17 2 16 3 15 4 14 5 13 6 11 7 12 8 10 9 8 10 9 11 95 12
REMARK SMILES IDX 86 13 85 14 6 15 7 16 5 17 1 18 2 19 3 20 97 21 4 22 96 23
REMARK SMILES IDX 98 24 87 25 88 26 89 27 90 28 94 29 91 30 93 31 92 32 19 33
REMARK SMILES IDX 20 34 21 35 22 36 23 37 24 38 25 39 26 40 84 41 27 42 83 43
REMARK SMILES IDX 28 44 29 45 30 46 77 47 31 48 82 49 76 50 78 51 32 52 81 53
REMARK SMILES IDX 75 54 74 55 33 57 63 58 44 59 62 60 45 61 48 62 61 63 79 64
REMARK SMILES IDX 46 65 47 66 60 68 80 69 49 70 34 71 35 72 43 73 36 74 42 75
REMARK SMILES IDX 37 76 38 77 39 78 40 79 41 80 64 81 65 82 73 83 66 84 72 85
REMARK SMILES IDX 67 86 68 87 69 88 70 89 71 90 50 91 51 92 59 93 52 94 58 95
REMARK SMILES IDX 53 96 54 97 55 98 56 99 57 100
REMARK H PARENT 78 56 48 67
REMARK Flexibility Score: inf
ROOT
ATOM      1  C   UNL A   1      40.884  20.754  27.576  1.00  0.00     0.188 C 
ENDROOT
BRANCH   1   2
ATOM      2  C   UNL A   1      40.716  19.947  26.281  1.00  0.00     0.188 C 
BRANCH   2   3
ATOM      3  O   UNL A   1      39.471  19.990  25.602  1.00  0.00    -0.376 OA
BRANCH   3   4
ATOM      4  C   UNL A   1      38.739  21.207  25.577  1.00  0.00     0.202 C 
BRANCH   4   5
ATOM      5  C   UNL A   1      37.425  21.268  24.778  1.00  0.00     0.261 C 
BRANCH   5   6
ATOM      6  O   UNL A   1      37.051  22.557  24.227  1.00  0.00    -0.463 OA
BRANCH   6   7
ATOM      7  C   UNL A   1      36.404  23.377  25.091  1.00  0.00     0.310 C 
ATOM      8  O   UNL A   1      36.916  23.829  26.110  1.00  0.00    -0.252 OA
BRANCH   7   9
ATOM      9  C   UNL A   1      34.954  23.690  24.765  1.00  0.00     0.119 C 
ATOM     10  N   UNL A   1      32.918  22.591  24.055  1.00  0.00    -0.337 N 
ATOM     11  C   UNL A   1      34.364  22.481  24.086  1.00  0.00     0.135 C 
ATOM     12  C   UNL A   1      32.344  23.748  23.374  1.00  0.00     0.133 C 
ATOM     13  C   UNL A   1      32.985  25.074  23.824  1.00  0.00     0.099 C 
ATOM     14  C   UNL A   1      34.502  24.978  24.061  1.00  0.00     0.032 C 
BRANCH  10  15
ATOM     15  C   UNL A   1      32.178  21.686  24.794  1.00  0.00     0.254 C 
ATOM     16  O   UNL A   1      31.567  21.990  25.813  1.00  0.00    -0.269 OA
BRANCH  15  17
ATOM     17  C   UNL A   1      32.320  20.254  24.456  1.00  0.00     0.042 A 
ATOM     18  C   UNL A   1      33.807  16.430  23.234  1.00  0.00     0.047 C 
ATOM     19  C   UNL A   1      33.187  17.723  23.664  1.00  0.00    -0.015 A 
ATOM     20  C   UNL A   1      32.643  18.598  22.718  1.00  0.00     0.007 A 
ATOM     21  C   UNL A   1      33.228  18.109  25.010  1.00  0.00     0.126 A 
ATOM     22  C   UNL A   1      32.217  19.862  23.113  1.00  0.00     0.014 A 
ATOM     23  C   UNL A   1      32.805  19.367  25.417  1.00  0.00     0.053 A 
ATOM     24  F   UNL A   1      33.746  17.272  25.920  1.00  0.00    -0.207 F 
ENDBRANCH  15  17
ENDBRANCH  10  15
BRANCH  13  25
ATOM     25  C   UNL A   1      32.081  25.737  24.883  1.00  0.00     0.227 C 
ATOM     26  O   UNL A   1      32.190  25.340  26.051  1.00  0.00    -0.275 OA
ATOM     27  N   UNL A   1      31.389  26.891  24.606  1.00  0.00    -0.338 N 
ATOM     28  C   UNL A   1      30.365  27.103  23.576  1.00  0.00     0.148 C 
ATOM     29  C   UNL A   1      31.349  27.944  25.624  1.00  0.00     0.148 C 
ATOM     30  C   UNL A   1      30.524  28.498  22.948  1.00  0.00     0.181 C 
ATOM     31  C   UNL A   1      31.510  29.307  24.941  1.00  0.00     0.181 C 
ATOM     32  O   UNL A   1      30.477  29.511  23.965  1.00  0.00    -0.378 OA
ENDBRANCH  13  25
ENDBRANCH   7   9
ENDBRANCH   6   7
ENDBRANCH   5   6
ENDBRANCH   4   5
ENDBRANCH   3   4
ENDBRANCH   2   3
ENDBRANCH   1   2
BRANCH   1  33
ATOM     33  O   UNL A   1      41.698  21.902  27.466  1.00  0.00    -0.376 OA
BRANCH  33  34
ATOM     34  C   UNL A   1      41.086  23.134  27.791  1.00  0.00     0.202 C 
BRANCH  34  35
ATOM     35  C   UNL A   1      40.866  24.029  26.565  1.00  0.00     0.261 C 
BRANCH  35  36
ATOM     36  O   UNL A   1      40.156  25.261  26.809  1.00  0.00    -0.460 OA
BRANCH  36  37
ATOM     37  C   UNL A   1      40.822  26.421  26.566  1.00  0.00     0.338 C 
ATOM     38  O   UNL A   1      41.279  26.779  25.502  1.00  0.00    -0.246 OA
BRANCH  37  39
ATOM     39  C   UNL A   1      40.663  27.296  27.762  1.00  0.00     0.060 A 
ATOM     40  C   UNL A   1      41.187  28.600  27.729  1.00  0.00     0.016 A 
ATOM     41  C   UNL A   1      39.979  26.852  28.893  1.00  0.00     0.016 A 
ATOM     42  C   UNL A   1      41.032  29.452  28.829  1.00  0.00     0.010 A 
ATOM     43  C   UNL A   1      39.846  27.699  30.001  1.00  0.00     0.010 A 
ATOM     44  C   UNL A   1      40.385  29.001  29.987  1.00  0.00    -0.014 A 
BRANCH  44  45
ATOM     45  C   UNL A   1      40.387  29.813  31.236  1.00  0.00     0.031 A 
ATOM     46  C   UNL A   1      41.488  29.595  32.242  1.00  0.00     0.074 A 
ATOM     47  C   UNL A   1      39.422  30.715  31.498  1.00  0.00     0.049 A 
ATOM     48  N   UNL A   1      41.638  30.109  33.436  1.00  0.00    -0.248 NA
ATOM     49  C   UNL A   1      42.564  28.673  31.844  1.00  0.00     0.031 C 
ATOM     50  C   UNL A   1      38.323  31.069  30.602  1.00  0.00     0.029 A 
ATOM     51  N   UNL A   1      39.206  31.489  32.616  1.00  0.00    -0.354 N 
ATOM     52  C   UNL A   1      42.814  29.563  33.940  1.00  0.00     0.074 A 
ATOM     53  C   UNL A   1      43.325  28.663  32.928  1.00  0.00     0.031 C 
ATOM     54  C   UNL A   1      37.541  31.980  31.211  1.00  0.00     0.029 A 
ATOM     55  C   UNL A   1      38.055  32.241  32.555  1.00  0.00     0.049 A 
ATOM     56  H   UNL A   1      39.818  31.505  33.386  1.00  0.00     0.167 HD
ATOM     57  C   UNL A   1      43.416  29.788  35.132  1.00  0.00     0.031 A 
ATOM     58  C   UNL A   1      37.463  33.021  33.485  1.00  0.00     0.031 A 
ATOM     59  C   UNL A   1      42.900  30.667  36.151  1.00  0.00     0.049 A 
ATOM     60  C   UNL A   1      38.100  33.181  34.845  1.00  0.00     0.074 A 
ATOM     61  C   UNL A   1      43.453  30.967  37.385  1.00  0.00     0.029 A 
ATOM     62  N   UNL A   1      41.712  31.376  36.065  1.00  0.00    -0.354 N 
ATOM     63  N   UNL A   1      39.223  32.676  35.297  1.00  0.00    -0.248 NA
ATOM     64  C   UNL A   1      37.387  34.021  35.820  1.00  0.00     0.031 C 
ATOM     65  C   UNL A   1      42.564  31.799  38.073  1.00  0.00     0.029 A 
ATOM     66  C   UNL A   1      41.495  32.081  37.238  1.00  0.00     0.049 A 
ATOM     67  H   UNL A   1      41.111  31.377  35.286  1.00  0.00     0.167 HD
ATOM     68  C   UNL A   1      39.364  33.162  36.596  1.00  0.00     0.074 A 
ATOM     69  C   UNL A   1      38.221  34.012  36.851  1.00  0.00     0.031 C 
ATOM     70  C   UNL A   1      40.354  32.925  37.493  1.00  0.00     0.031 A 
BRANCH  57  71
ATOM     71  C   UNL A   1      44.688  29.035  35.424  1.00  0.00    -0.014 A 
ATOM     72  C   UNL A   1      44.703  27.928  36.291  1.00  0.00     0.010 A 
ATOM     73  C   UNL A   1      45.882  29.415  34.781  1.00  0.00     0.010 A 
ATOM     74  C   UNL A   1      45.894  27.240  36.541  1.00  0.00     0.020 A 
ATOM     75  C   UNL A   1      47.068  28.711  35.004  1.00  0.00     0.020 A 
ATOM     76  C   UNL A   1      47.070  27.637  35.896  1.00  0.00     0.054 A 
BRANCH  76  77
ATOM     77  S   UNL A   1      48.596  26.713  36.225  1.00  0.00     0.124 S 
ATOM     78  O   UNL A   1      49.539  27.786  36.530  1.00  0.00    -0.237 OA
ATOM     79  O   UNL A   1      48.220  25.867  37.355  1.00  0.00    -0.237 OA
ATOM     80  O   UNL A   1      48.847  26.001  34.975  1.00  0.00    -0.744 OA
ENDBRANCH  76  77
ENDBRANCH  57  71
BRANCH  58  81
ATOM     81  C   UNL A   1      36.166  33.694  33.182  1.00  0.00    -0.014 A 
ATOM     82  C   UNL A   1      34.953  32.982  33.232  1.00  0.00     0.010 A 
ATOM     83  C   UNL A   1      36.140  35.054  32.818  1.00  0.00     0.010 A 
ATOM     84  C   UNL A   1      33.746  33.611  32.910  1.00  0.00     0.020 A 
ATOM     85  C   UNL A   1      34.932  35.695  32.527  1.00  0.00     0.020 A 
ATOM     86  C   UNL A   1      33.742  34.966  32.564  1.00  0.00     0.054 A 
BRANCH  86  87
ATOM     87  S   UNL A   1      32.158  35.771  32.196  1.00  0.00     0.124 S 
ATOM     88  O   UNL A   1      32.125  35.727  30.737  1.00  0.00    -0.237 OA
ATOM     89  O   UNL A   1      31.198  34.907  32.878  1.00  0.00    -0.237 OA
ATOM     90  O   UNL A   1      32.309  37.104  32.778  1.00  0.00    -0.744 OA
ENDBRANCH  86  87
ENDBRANCH  58  81
BRANCH  70  91
ATOM     91  C   UNL A   1      40.275  33.621  38.831  1.00  0.00    -0.014 A 
ATOM     92  C   UNL A   1      40.862  34.882  39.040  1.00  0.00     0.010 A 
ATOM     93  C   UNL A   1      39.551  33.026  39.881  1.00  0.00     0.010 A 
ATOM     94  C   UNL A   1      40.755  35.518  40.281  1.00  0.00     0.020 A 
ATOM     95  C   UNL A   1      39.413  33.673  41.113  1.00  0.00     0.020 A 
ATOM     96  C   UNL A   1      40.028  34.910  41.311  1.00  0.00     0.054 A 
BRANCH  96  97
ATOM     97  S   UNL A   1      39.868  35.776  42.897  1.00  0.00     0.124 S 
ATOM     98  O   UNL A   1      39.479  37.119  42.474  1.00  0.00    -0.237 OA
ATOM     99  O   UNL A   1      38.828  35.007  43.577  1.00  0.00    -0.237 OA
ATOM    100  O   UNL A   1      41.200  35.671  43.488  1.00  0.00    -0.744 OA
ENDBRANCH  96  97
ENDBRANCH  70  91
ENDBRANCH  44  45
ENDBRANCH  37  39
ENDBRANCH  36  37
ENDBRANCH  35  36
ENDBRANCH  34  35
ENDBRANCH  33  34
ENDBRANCH   1  33
TORSDOF 23
ENDMDL
MODEL 2
REMARK VINA RESULT:     -10.7      6.909     12.086
REMARK SMILES Cc1ccc(C(=O)N2C[C@@H](C(=O)OCCOCCOCCOC(=O)c3ccc(-c4c5nc(c(-c6ccc(S(=O)(=O)[O-])cc6)c6ccc([nH]6)c(-c6ccc(S(=O)(=O)[O-])cc6)c6nc(c(-c7ccc(S(=O)(=O)[O-])cc7)c7ccc4[nH]7)C=C6)C=C5)cc3)C[C@H](C(=O)N3CCOCC3)C2)cc1F
REMARK SMILES IDX 18 1 17 2 16 3 15 4 14 5 13 6 11 7 12 8 10 9 8 10 9 11 95 12
REMARK SMILES IDX 86 13 85 14 6 15 7 16 5 17 1 18 2 19 3 20 97 21 4 22 96 23
REMARK SMILES IDX 98 24 87 25 88 26 89 27 90 28 94 29 91 30 93 31 92 32 19 33
REMARK SMILES IDX 20 34 21 35 22 36 23 37 24 38 25 39 26 40 84 41 27 42 83 43
REMARK SMILES IDX 28 44 29 45 30 46 77 47 31 48 82 49 76 50 78 51 32 52 81 53
REMARK SMILES IDX 75 54 74 55 33 57 63 58 44 59 62 60 45 61 48 62 61 63 79 64
REMARK SMILES IDX 46 65 47 66 60 68 80 69 49 70 34 71 35 72 43 73 36 74 42 75
REMARK SMILES IDX 37 76 38 77 39 78 40 79 41 80 64 81 65 82 73 83 66 84 72 85
REMARK SMILES IDX 67 86 68 87 69 88 70 89 71 90 50 91 51 92 59 93 52 94 58 95
REMARK SMILES IDX 53 96 54 97 55 98 56 99 57 100
REMARK H PARENT 78 56 48 67
REMARK Flexibility Score: inf
ROOT
ATOM      1  C   UNL A   1      41.494  20.949  27.540  1.00  0.00     0.188 C 
ENDROOT
BRANCH   1   2
ATOM      2  C   UNL A   1      40.571  21.563  26.478  1.00  0.00     0.188 C 
BRANCH   2   3
ATOM      3  O   UNL A   1      40.343  22.964  26.492  1.00  0.00    -0.376 OA
BRANCH   3   4
ATOM      4  C   UNL A   1      39.067  23.453  26.878  1.00  0.00     0.202 C 
BRANCH   4   5
ATOM      5  C   UNL A   1      38.032  23.773  25.785  1.00  0.00     0.261 C 
BRANCH   5   6
ATOM      6  O   UNL A   1      36.731  23.143  25.906  1.00  0.00    -0.463 OA
BRANCH   6   7
ATOM      7  C   UNL A   1      36.517  22.115  25.051  1.00  0.00     0.310 C 
ATOM      8  O   UNL A   1      37.420  21.466  24.531  1.00  0.00    -0.252 OA
BRANCH   7   9
ATOM      9  C   UNL A   1      35.069  21.812  24.709  1.00  0.00     0.119 C 
ATOM     10  N   UNL A   1      33.058  22.920  23.944  1.00  0.00    -0.337 N 
ATOM     11  C   UNL A   1      34.341  23.126  24.588  1.00  0.00     0.135 C 
ATOM     12  C   UNL A   1      32.119  22.005  24.587  1.00  0.00     0.133 C 
ATOM     13  C   UNL A   1      32.769  20.658  24.956  1.00  0.00     0.099 C 
ATOM     14  C   UNL A   1      34.213  20.790  25.471  1.00  0.00     0.032 C 
BRANCH  10  15
ATOM     15  C   UNL A   1      32.857  23.478  22.694  1.00  0.00     0.254 C 
ATOM     16  O   UNL A   1      33.240  22.953  21.654  1.00  0.00    -0.269 OA
BRANCH  15  17
ATOM     17  C   UNL A   1      32.358  24.868  22.642  1.00  0.00     0.042 A 
ATOM     18  C   UNL A   1      31.308  28.913  23.569  1.00  0.00     0.047 C 
ATOM     19  C   UNL A   1      31.619  27.510  23.152  1.00  0.00    -0.015 A 
ATOM     20  C   UNL A   1      30.724  26.472  23.431  1.00  0.00     0.007 A 
ATOM     21  C   UNL A   1      32.851  27.210  22.558  1.00  0.00     0.126 A 
ATOM     22  C   UNL A   1      31.096  25.155  23.182  1.00  0.00     0.014 A 
ATOM     23  C   UNL A   1      33.234  25.900  22.304  1.00  0.00     0.053 A 
ATOM     24  F   UNL A   1      33.712  28.202  22.286  1.00  0.00    -0.207 F 
ENDBRANCH  15  17
ENDBRANCH  10  15
BRANCH  13  25
ATOM     25  C   UNL A   1      32.433  19.621  23.865  1.00  0.00     0.227 C 
ATOM     26  O   UNL A   1      32.153  20.052  22.739  1.00  0.00    -0.275 OA
ATOM     27  N   UNL A   1      32.697  18.285  24.048  1.00  0.00    -0.338 N 
ATOM     28  C   UNL A   1      32.160  17.394  25.084  1.00  0.00     0.148 C 
ATOM     29  C   UNL A   1      33.269  17.525  22.934  1.00  0.00     0.148 C 
ATOM     30  C   UNL A   1      33.250  16.422  25.566  1.00  0.00     0.181 C 
ATOM     31  C   UNL A   1      34.345  16.576  23.475  1.00  0.00     0.181 C 
ATOM     32  O   UNL A   1      33.790  15.688  24.457  1.00  0.00    -0.378 OA
ENDBRANCH  13  25
ENDBRANCH   7   9
ENDBRANCH   6   7
ENDBRANCH   5   6
ENDBRANCH   4   5
ENDBRANCH   3   4
ENDBRANCH   2   3
ENDBRANCH   1   2
BRANCH   1  33
ATOM     33  O   UNL A   1      42.547  20.157  27.035  1.00  0.00    -0.376 OA
BRANCH  33  34
ATOM     34  C   UNL A   1      42.217  19.276  25.983  1.00  0.00     0.202 C 
BRANCH  34  35
ATOM     35  C   UNL A   1      43.417  18.450  25.501  1.00  0.00     0.261 C 
BRANCH  35  36
ATOM     36  O   UNL A   1      44.655  19.175  25.351  1.00  0.00    -0.460 OA
BRANCH  36  37
ATOM     37  C   UNL A   1      44.770  19.994  24.272  1.00  0.00     0.338 C 
ATOM     38  O   UNL A   1      44.527  19.705  23.121  1.00  0.00    -0.246 OA
BRANCH  37  39
ATOM     39  C   UNL A   1      44.988  21.380  24.774  1.00  0.00     0.060 A 
ATOM     40  C   UNL A   1      44.869  22.458  23.880  1.00  0.00     0.016 A 
ATOM     41  C   UNL A   1      45.276  21.623  26.118  1.00  0.00     0.016 A 
ATOM     42  C   UNL A   1      45.046  23.773  24.329  1.00  0.00     0.010 A 
ATOM     43  C   UNL A   1      45.474  22.938  26.559  1.00  0.00     0.010 A 
ATOM     44  C   UNL A   1      45.378  24.023  25.667  1.00  0.00    -0.014 A 
BRANCH  44  45
ATOM     45  C   UNL A   1      45.770  25.388  26.120  1.00  0.00     0.031 A 
ATOM     46  C   UNL A   1      44.698  26.323  26.619  1.00  0.00     0.074 A 
ATOM     47  C   UNL A   1      47.047  25.813  26.072  1.00  0.00     0.049 A 
ATOM     48  N   UNL A   1      44.788  27.582  26.965  1.00  0.00    -0.248 NA
ATOM     49  C   UNL A   1      43.345  25.759  26.743  1.00  0.00     0.031 C 
ATOM     50  C   UNL A   1      48.195  25.008  25.660  1.00  0.00     0.029 A 
ATOM     51  N   UNL A   1      47.587  27.046  26.360  1.00  0.00    -0.354 N 
ATOM     52  C   UNL A   1      43.503  27.966  27.334  1.00  0.00     0.074 A 
ATOM     53  C   UNL A   1      42.650  26.812  27.148  1.00  0.00     0.031 C 
ATOM     54  C   UNL A   1      49.302  25.772  25.709  1.00  0.00     0.029 A 
ATOM     55  C   UNL A   1      48.938  27.131  26.109  1.00  0.00     0.049 A 
ATOM     56  H   UNL A   1      47.058  27.796  26.713  1.00  0.00     0.167 HD
ATOM     57  C   UNL A   1      43.070  29.168  27.785  1.00  0.00     0.031 A 
ATOM     58  C   UNL A   1      49.778  28.187  26.162  1.00  0.00     0.031 A 
ATOM     59  C   UNL A   1      43.910  30.326  27.952  1.00  0.00     0.049 A 
ATOM     60  C   UNL A   1      49.254  29.542  26.574  1.00  0.00     0.074 A 
ATOM     61  C   UNL A   1      43.558  31.582  28.419  1.00  0.00     0.029 A 
ATOM     62  N   UNL A   1      45.261  30.380  27.648  1.00  0.00    -0.354 N 
ATOM     63  N   UNL A   1      48.041  29.884  26.941  1.00  0.00    -0.248 NA
ATOM     64  C   UNL A   1      50.217  30.655  26.581  1.00  0.00     0.031 C 
ATOM     65  C   UNL A   1      44.678  32.413  28.329  1.00  0.00     0.029 A 
ATOM     66  C   UNL A   1      45.749  31.656  27.880  1.00  0.00     0.049 A 
ATOM     67  H   UNL A   1      45.796  29.624  27.315  1.00  0.00     0.167 HD
ATOM     68  C   UNL A   1      48.105  31.241  27.250  1.00  0.00     0.074 A 
ATOM     69  C   UNL A   1      49.476  31.654  27.042  1.00  0.00     0.031 C 
ATOM     70  C   UNL A   1      47.114  32.068  27.669  1.00  0.00     0.031 A 
BRANCH  57  71
ATOM     71  C   UNL A   1      41.601  29.308  28.094  1.00  0.00    -0.014 A 
ATOM     72  C   UNL A   1      41.150  29.616  29.390  1.00  0.00     0.010 A 
ATOM     73  C   UNL A   1      40.658  29.174  27.057  1.00  0.00     0.010 A 
ATOM     74  C   UNL A   1      39.783  29.748  29.651  1.00  0.00     0.020 A 
ATOM     75  C   UNL A   1      39.293  29.336  27.307  1.00  0.00     0.020 A 
ATOM     76  C   UNL A   1      38.863  29.606  28.607  1.00  0.00     0.054 A 
BRANCH  76  77
ATOM     77  S   UNL A   1      37.097  29.803  28.973  1.00  0.00     0.124 S 
ATOM     78  O   UNL A   1      36.937  28.953  30.151  1.00  0.00    -0.237 OA
ATOM     79  O   UNL A   1      36.979  31.239  29.214  1.00  0.00    -0.237 OA
ATOM     80  O   UNL A   1      36.435  29.320  27.764  1.00  0.00    -0.744 OA
ENDBRANCH  76  77
ENDBRANCH  57  71
BRANCH  58  81
ATOM     81  C   UNL A   1      51.211  28.023  25.780  1.00  0.00    -0.014 A 
ATOM     82  C   UNL A   1      51.663  28.384  24.497  1.00  0.00     0.010 A 
ATOM     83  C   UNL A   1      52.132  27.481  26.696  1.00  0.00     0.010 A 
ATOM     84  C   UNL A   1      53.000  28.193  24.135  1.00  0.00     0.020 A 
ATOM     85  C   UNL A   1      53.477  27.318  26.349  1.00  0.00     0.020 A 
ATOM     86  C   UNL A   1      53.901  27.664  25.065  1.00  0.00     0.054 A 
BRANCH  86  87
ATOM     87  S   UNL A   1      55.640  27.469  24.587  1.00  0.00     0.124 S 
ATOM     88  O   UNL A   1      55.739  28.349  23.427  1.00  0.00    -0.237 OA
ATOM     89  O   UNL A   1      56.349  27.915  25.783  1.00  0.00    -0.237 OA
ATOM     90  O   UNL A   1      55.757  26.040  24.299  1.00  0.00    -0.744 OA
ENDBRANCH  86  87
ENDBRANCH  58  81
BRANCH  70  91
ATOM     91  C   UNL A   1      47.474  33.503  27.973  1.00  0.00    -0.014 A 
ATOM     92  C   UNL A   1      47.375  34.509  26.995  1.00  0.00     0.010 A 
ATOM     93  C   UNL A   1      47.863  33.860  29.278  1.00  0.00     0.010 A 
ATOM     94  C   UNL A   1      47.690  35.835  27.307  1.00  0.00     0.020 A 
ATOM     95  C   UNL A   1      48.147  35.191  29.602  1.00  0.00     0.020 A 
ATOM     96  C   UNL A   1      48.072  36.169  28.610  1.00  0.00     0.054 A 
BRANCH  96  97
ATOM     97  S   UNL A   1      48.433  37.904  28.999  1.00  0.00     0.124 S 
ATOM     98  O   UNL A   1      47.415  38.212  29.999  1.00  0.00    -0.237 OA
ATOM     99  O   UNL A   1      49.805  37.841  29.499  1.00  0.00    -0.237 OA
ATOM    100  O   UNL A   1      48.274  38.589  27.718  1.00  0.00    -0.744 OA
ENDBRANCH  96  97
ENDBRANCH  70  91
ENDBRANCH  44  45
ENDBRANCH  37  39
ENDBRANCH  36  37
ENDBRANCH  35  36
ENDBRANCH  34  35
ENDBRANCH  33  34
ENDBRANCH   1  33
TORSDOF 23
ENDMDL
MODEL 3
REMARK VINA RESULT:     -10.4      2.330      8.550
REMARK SMILES Cc1ccc(C(=O)N2C[C@@H](C(=O)OCCOCCOCCOC(=O)c3ccc(-c4c5nc(c(-c6ccc(S(=O)(=O)[O-])cc6)c6ccc([nH]6)c(-c6ccc(S(=O)(=O)[O-])cc6)c6nc(c(-c7ccc(S(=O)(=O)[O-])cc7)c7ccc4[nH]7)C=C6)C=C5)cc3)C[C@H](C(=O)N3CCOCC3)C2)cc1F
REMARK SMILES IDX 18 1 17 2 16 3 15 4 14 5 13 6 11 7 12 8 10 9 8 10 9 11 95 12
REMARK SMILES IDX 86 13 85 14 6 15 7 16 5 17 1 18 2 19 3 20 97 21 4 22 96 23
REMARK SMILES IDX 98 24 87 25 88 26 89 27 90 28 94 29 91 30 93 31 92 32 19 33
REMARK SMILES IDX 20 34 21 35 22 36 23 37 24 38 25 39 26 40 84 41 27 42 83 43
REMARK SMILES IDX 28 44 29 45 30 46 77 47 31 48 82 49 76 50 78 51 32 52 81 53
REMARK SMILES IDX 75 54 74 55 33 57 63 58 44 59 62 60 45 61 48 62 61 63 79 64
REMARK SMILES IDX 46 65 47 66 60 68 80 69 49 70 34 71 35 72 43 73 36 74 42 75
REMARK SMILES IDX 37 76 38 77 39 78 40 79 41 80 64 81 65 82 73 83 66 84 72 85
REMARK SMILES IDX 67 86 68 87 69 88 70 89 71 90 50 91 51 92 59 93 52 94 58 95
REMARK SMILES IDX 53 96 54 97 55 98 56 99 57 100
REMARK H PARENT 78 56 48 67
REMARK Flexibility Score: inf
ROOT
ATOM      1  C   UNL A   1      39.440  21.512  26.431  1.00  0.00     0.188 C 
ENDROOT
BRANCH   1   2
ATOM      2  C   UNL A   1      38.317  21.690  25.399  1.00  0.00     0.188 C 
BRANCH   2   3
ATOM      3  O   UNL A   1      37.052  21.099  25.652  1.00  0.00    -0.376 OA
BRANCH   3   4
ATOM      4  C   UNL A   1      35.925  21.531  24.902  1.00  0.00     0.202 C 
BRANCH   4   5
ATOM      5  C   UNL A   1      34.699  20.607  24.804  1.00  0.00     0.261 C 
BRANCH   5   6
ATOM      6  O   UNL A   1      33.839  20.530  25.970  1.00  0.00    -0.463 OA
BRANCH   6   7
ATOM      7  C   UNL A   1      33.707  21.692  26.655  1.00  0.00     0.310 C 
ATOM      8  O   UNL A   1      34.276  21.921  27.718  1.00  0.00    -0.252 OA
BRANCH   7   9
ATOM      9  C   UNL A   1      32.760  22.720  26.062  1.00  0.00     0.119 C 
ATOM     10  N   UNL A   1      32.083  25.025  26.354  1.00  0.00    -0.337 N 
ATOM     11  C   UNL A   1      32.696  23.888  27.013  1.00  0.00     0.135 C 
ATOM     12  C   UNL A   1      30.727  24.858  25.840  1.00  0.00     0.133 C 
ATOM     13  C   UNL A   1      30.573  23.583  24.988  1.00  0.00     0.099 C 
ATOM     14  C   UNL A   1      31.360  22.378  25.533  1.00  0.00     0.032 C 
BRANCH  10  15
ATOM     15  C   UNL A   1      32.864  26.143  26.118  1.00  0.00     0.254 C 
ATOM     16  O   UNL A   1      34.086  26.100  26.016  1.00  0.00    -0.269 OA
BRANCH  15  17
ATOM     17  C   UNL A   1      32.209  27.464  26.219  1.00  0.00     0.042 A 
ATOM     18  C   UNL A   1      31.324  31.650  26.106  1.00  0.00     0.047 C 
ATOM     19  C   UNL A   1      31.540  30.172  26.199  1.00  0.00    -0.015 A 
ATOM     20  C   UNL A   1      32.126  29.611  27.337  1.00  0.00     0.007 A 
ATOM     21  C   UNL A   1      31.237  29.348  25.107  1.00  0.00     0.126 A 
ATOM     22  C   UNL A   1      32.466  28.261  27.344  1.00  0.00     0.014 A 
ATOM     23  C   UNL A   1      31.570  28.000  25.102  1.00  0.00     0.053 A 
ATOM     24  F   UNL A   1      30.672  29.882  24.014  1.00  0.00    -0.207 F 
ENDBRANCH  15  17
ENDBRANCH  10  15
BRANCH  13  25
ATOM     25  C   UNL A   1      30.677  23.959  23.496  1.00  0.00     0.227 C 
ATOM     26  O   UNL A   1      29.619  24.156  22.885  1.00  0.00    -0.275 OA
ATOM     27  N   UNL A   1      31.877  24.328  22.938  1.00  0.00    -0.338 N 
ATOM     28  C   UNL A   1      33.108  23.533  22.840  1.00  0.00     0.148 C 
ATOM     29  C   UNL A   1      31.899  25.462  22.010  1.00  0.00     0.148 C 
ATOM     30  C   UNL A   1      34.337  24.427  23.074  1.00  0.00     0.181 C 
ATOM     31  C   UNL A   1      33.144  26.313  22.289  1.00  0.00     0.181 C 
ATOM     32  O   UNL A   1      34.337  25.527  22.151  1.00  0.00    -0.378 OA
ENDBRANCH  13  25
ENDBRANCH   7   9
ENDBRANCH   6   7
ENDBRANCH   5   6
ENDBRANCH   4   5
ENDBRANCH   3   4
ENDBRANCH   2   3
ENDBRANCH   1   2
BRANCH   1  33
ATOM     33  O   UNL A   1      40.700  21.169  25.894  1.00  0.00    -0.376 OA
BRANCH  33  34
ATOM     34  C   UNL A   1      41.753  22.076  26.145  1.00  0.00     0.202 C 
BRANCH  34  35
ATOM     35  C   UNL A   1      41.257  23.500  26.427  1.00  0.00     0.261 C 
BRANCH  35  36
ATOM     36  O   UNL A   1      42.262  24.534  26.380  1.00  0.00    -0.460 OA
BRANCH  36  37
ATOM     37  C   UNL A   1      41.840  25.800  26.122  1.00  0.00     0.338 C 
ATOM     38  O   UNL A   1      41.419  26.216  25.065  1.00  0.00    -0.246 OA
BRANCH  37  39
ATOM     39  C   UNL A   1      41.733  26.518  27.423  1.00  0.00     0.060 A 
ATOM     40  C   UNL A   1      40.713  26.159  28.320  1.00  0.00     0.016 A 
ATOM     41  C   UNL A   1      42.644  27.515  27.774  1.00  0.00     0.016 A 
ATOM     42  C   UNL A   1      40.602  26.800  29.560  1.00  0.00     0.010 A 
ATOM     43  C   UNL A   1      42.517  28.171  29.005  1.00  0.00     0.010 A 
ATOM     44  C   UNL A   1      41.486  27.833  29.903  1.00  0.00    -0.014 A 
BRANCH  44  45
ATOM     45  C   UNL A   1      41.263  28.663  31.119  1.00  0.00     0.031 A 
ATOM     46  C   UNL A   1      40.169  29.699  31.102  1.00  0.00     0.074 A 
ATOM     47  C   UNL A   1      42.028  28.528  32.220  1.00  0.00     0.049 A 
ATOM     48  N   UNL A   1      39.861  30.599  32.000  1.00  0.00    -0.248 NA
ATOM     49  C   UNL A   1      39.308  29.720  29.909  1.00  0.00     0.031 C 
ATOM     50  C   UNL A   1      43.088  27.539  32.403  1.00  0.00     0.029 A 
ATOM     51  N   UNL A   1      42.034  29.248  33.394  1.00  0.00    -0.354 N 
ATOM     52  C   UNL A   1      38.782  31.304  31.478  1.00  0.00     0.074 A 
ATOM     53  C   UNL A   1      38.504  30.739  30.175  1.00  0.00     0.031 C 
ATOM     54  C   UNL A   1      43.652  27.724  33.611  1.00  0.00     0.029 A 
ATOM     55  C   UNL A   1      43.027  28.870  34.270  1.00  0.00     0.049 A 
ATOM     56  H   UNL A   1      41.389  29.964  33.589  1.00  0.00     0.167 HD
ATOM     57  C   UNL A   1      38.085  32.327  32.028  1.00  0.00     0.031 A 
ATOM     58  C   UNL A   1      43.411  29.406  35.448  1.00  0.00     0.031 A 
ATOM     59  C   UNL A   1      38.370  32.907  33.315  1.00  0.00     0.049 A 
ATOM     60  C   UNL A   1      42.682  30.609  35.999  1.00  0.00     0.074 A 
ATOM     61  C   UNL A   1      37.705  33.938  33.959  1.00  0.00     0.029 A 
ATOM     62  N   UNL A   1      39.409  32.523  34.149  1.00  0.00    -0.354 N 
ATOM     63  N   UNL A   1      41.650  31.248  35.503  1.00  0.00    -0.248 NA
ATOM     64  C   UNL A   1      43.172  31.159  37.272  1.00  0.00     0.031 C 
ATOM     65  C   UNL A   1      38.384  34.223  35.147  1.00  0.00     0.029 A 
ATOM     66  C   UNL A   1      39.426  33.320  35.283  1.00  0.00     0.049 A 
ATOM     67  H   UNL A   1      40.041  31.792  33.964  1.00  0.00     0.167 HD
ATOM     68  C   UNL A   1      41.350  32.256  36.418  1.00  0.00     0.074 A 
ATOM     69  C   UNL A   1      42.299  32.131  37.504  1.00  0.00     0.031 C 
ATOM     70  C   UNL A   1      40.374  33.197  36.362  1.00  0.00     0.031 A 
BRANCH  57  71
ATOM     71  C   UNL A   1      36.961  32.920  31.217  1.00  0.00    -0.014 A 
ATOM     72  C   UNL A   1      35.614  32.711  31.566  1.00  0.00     0.010 A 
ATOM     73  C   UNL A   1      37.260  33.741  30.113  1.00  0.00     0.010 A 
ATOM     74  C   UNL A   1      34.589  33.277  30.803  1.00  0.00     0.020 A 
ATOM     75  C   UNL A   1      36.239  34.335  29.367  1.00  0.00     0.020 A 
ATOM     76  C   UNL A   1      34.909  34.085  29.707  1.00  0.00     0.054 A 
BRANCH  76  77
ATOM     77  S   UNL A   1      33.557  34.822  28.748  1.00  0.00     0.124 S 
ATOM     78  O   UNL A   1      33.321  33.805  27.727  1.00  0.00    -0.237 OA
ATOM     79  O   UNL A   1      32.500  34.968  29.746  1.00  0.00    -0.237 OA
ATOM     80  O   UNL A   1      34.123  36.076  28.257  1.00  0.00    -0.744 OA
ENDBRANCH  76  77
ENDBRANCH  57  71
BRANCH  58  81
ATOM     81  C   UNL A   1      44.574  28.833  36.187  1.00  0.00    -0.014 A 
ATOM     82  C   UNL A   1      45.893  29.178  35.838  1.00  0.00     0.010 A 
ATOM     83  C   UNL A   1      44.367  27.917  37.236  1.00  0.00     0.010 A 
ATOM     84  C   UNL A   1      46.978  28.608  36.511  1.00  0.00     0.020 A 
ATOM     85  C   UNL A   1      45.449  27.369  37.933  1.00  0.00     0.020 A 
ATOM     86  C   UNL A   1      46.750  27.710  37.558  1.00  0.00     0.054 A 
BRANCH  86  87
ATOM     87  S   UNL A   1      48.173  27.019  38.446  1.00  0.00     0.124 S 
ATOM     88  O   UNL A   1      48.240  25.663  37.910  1.00  0.00    -0.237 OA
ATOM     89  O   UNL A   1      49.258  27.912  38.048  1.00  0.00    -0.237 OA
ATOM     90  O   UNL A   1      47.780  27.117  39.851  1.00  0.00    -0.744 OA
ENDBRANCH  86  87
ENDBRANCH  58  81
BRANCH  70  91
ATOM     91  C   UNL A   1      40.248  34.153  37.525  1.00  0.00    -0.014 A 
ATOM     92  C   UNL A   1      41.033  35.318  37.607  1.00  0.00     0.010 A 
ATOM     93  C   UNL A   1      39.286  33.910  38.523  1.00  0.00     0.010 A 
ATOM     94  C   UNL A   1      40.881  36.201  38.681  1.00  0.00     0.020 A 
ATOM     95  C   UNL A   1      39.108  34.808  39.580  1.00  0.00     0.020 A 
ATOM     96  C   UNL A   1      39.917  35.942  39.661  1.00  0.00     0.054 A 
BRANCH  96  97
ATOM     97  S   UNL A   1      39.711  37.126  41.019  1.00  0.00     0.124 S 
ATOM     98  O   UNL A   1      38.462  37.791  40.658  1.00  0.00    -0.237 OA
ATOM     99  O   UNL A   1      39.642  36.258  42.192  1.00  0.00    -0.237 OA
ATOM    100  O   UNL A   1      40.907  37.961  40.938  1.00  0.00    -0.744 OA
ENDBRANCH  96  97
ENDBRANCH  70  91
ENDBRANCH  44  45
ENDBRANCH  37  39
ENDBRANCH  36  37
ENDBRANCH  35  36
ENDBRANCH  34  35
ENDBRANCH  33  34
ENDBRANCH   1  33
TORSDOF 23
ENDMDL
