MODEL 1
REMARK VINA RESULT:      -9.1      0.000      0.000
REMARK SMILES CC(C)(C)[N@H+](CC(=O)OCCOCCOCCOC(=O)c1ccc(-c2c3nc(c(-c4ccc(S(=O)(=O)[O-])cc4)c4ccc([nH]4)c(-c4ccc(S(=O)(=O)[O-])cc4)c4nc(c(-c5ccc(S(=O)(=O)[O-])cc5)c5ccc2[nH]5)C=C4)C=C3)cc1)C[C@H]1Cc2cc(F)ccc2O1
REMARK SMILES IDX 13 1 12 2 11 3 10 4 9 5 7 6 8 7 6 8 5 9 2 11 1 12 3 13 4 14
REMARK SMILES IDX 81 15 82 16 83 17 91 18 84 19 90 20 85 21 89 22 86 23 88 24
REMARK SMILES IDX 87 25 14 26 15 27 16 28 17 29 18 30 19 31 20 32 21 33 22 34
REMARK SMILES IDX 80 35 23 36 79 37 24 38 25 39 26 40 73 41 27 42 78 43 72 44
REMARK SMILES IDX 74 45 28 46 77 47 71 48 70 49 29 51 59 52 40 53 58 54 41 55
REMARK SMILES IDX 44 56 57 57 75 58 42 59 43 60 56 62 76 63 45 64 30 65 31 66
REMARK SMILES IDX 39 67 32 68 38 69 33 70 34 71 35 72 36 73 37 74 60 75 61 76
REMARK SMILES IDX 69 77 62 78 68 79 63 80 64 81 65 82 66 83 67 84 46 85 47 86
REMARK SMILES IDX 55 87 48 88 54 89 49 90 50 91 51 92 52 93 53 94
REMARK H PARENT 5 10 74 50 44 61
REMARK Flexibility Score: inf
ROOT
ATOM      1  C   UNL A   1      35.029  21.572  26.021  1.00  0.00     0.188 C 
ENDROOT
BRANCH   1   2
ATOM      2  O   UNL A   1      33.612  21.556  26.105  1.00  0.00    -0.376 OA
BRANCH   2   3
ATOM      3  C   UNL A   1      32.992  22.743  26.600  1.00  0.00     0.202 C 
BRANCH   3   4
ATOM      4  C   UNL A   1      31.541  22.985  26.159  1.00  0.00     0.261 C 
BRANCH   4   5
ATOM      5  O   UNL A   1      31.433  23.992  25.128  1.00  0.00    -0.459 OA
BRANCH   5   6
ATOM      6  C   UNL A   1      31.175  25.257  25.561  1.00  0.00     0.361 C 
ATOM      7  O   UNL A   1      30.194  25.561  26.237  1.00  0.00    -0.245 OA
BRANCH   6   8
ATOM      8  C   UNL A   1      32.287  26.267  25.245  1.00  0.00     0.387 C 
BRANCH   8   9
ATOM      9  N   UNL A   1      31.935  27.723  25.214  1.00  0.00    -0.318 N 
ATOM     10  H   UNL A   1      30.938  27.832  25.400  1.00  0.00     0.349 HD
BRANCH   9  11
ATOM     11  C   UNL A   1      32.481  28.535  26.355  1.00  0.00     0.090 C 
ATOM     12  C   UNL A   1      32.326  30.069  26.211  1.00  0.00     0.078 C 
ATOM     13  C   UNL A   1      33.986  28.197  26.471  1.00  0.00     0.078 C 
ATOM     14  C   UNL A   1      31.891  28.213  27.745  1.00  0.00     0.078 C 
ENDBRANCH   9  11
BRANCH   9  15
ATOM     15  C   UNL A   1      32.186  28.248  23.821  1.00  0.00     0.309 C 
BRANCH  15  16
ATOM     16  C   UNL A   1      31.168  29.306  23.304  1.00  0.00     0.232 C 
ATOM     17  C   UNL A   1      30.566  29.063  21.909  1.00  0.00     0.090 C 
ATOM     18  O   UNL A   1      29.970  29.401  24.151  1.00  0.00    -0.484 OA
ATOM     19  C   UNL A   1      29.500  30.093  22.019  1.00  0.00     0.001 A 
ATOM     20  C   UNL A   1      29.145  30.182  23.359  1.00  0.00     0.123 A 
ATOM     21  C   UNL A   1      28.971  30.964  21.089  1.00  0.00     0.047 A 
ATOM     22  C   UNL A   1      28.204  31.085  23.813  1.00  0.00     0.050 A 
ATOM     23  C   UNL A   1      28.102  31.953  21.555  1.00  0.00     0.123 A 
ATOM     24  C   UNL A   1      27.711  32.018  22.898  1.00  0.00     0.043 A 
ATOM     25  F   UNL A   1      27.666  32.893  20.704  1.00  0.00    -0.207 F 
ENDBRANCH  15  16
ENDBRANCH   9  15
ENDBRANCH   8   9
ENDBRANCH   6   8
ENDBRANCH   5   6
ENDBRANCH   4   5
ENDBRANCH   3   4
ENDBRANCH   2   3
ENDBRANCH   1   2
BRANCH   1  26
ATOM     26  C   UNL A   1      35.651  21.417  24.628  1.00  0.00     0.188 C 
BRANCH  26  27
ATOM     27  O   UNL A   1      36.971  20.888  24.574  1.00  0.00    -0.376 OA
BRANCH  27  28
ATOM     28  C   UNL A   1      37.649  20.873  25.832  1.00  0.00     0.202 C 
BRANCH  28  29
ATOM     29  C   UNL A   1      39.117  21.356  25.744  1.00  0.00     0.261 C 
BRANCH  29  30
ATOM     30  O   UNL A   1      39.440  22.514  26.553  1.00  0.00    -0.460 OA
BRANCH  30  31
ATOM     31  C   UNL A   1      38.959  23.677  26.059  1.00  0.00     0.338 C 
ATOM     32  O   UNL A   1      38.153  23.742  25.148  1.00  0.00    -0.246 OA
BRANCH  31  33
ATOM     33  C   UNL A   1      39.357  24.834  26.902  1.00  0.00     0.060 A 
ATOM     34  C   UNL A   1      38.875  24.903  28.217  1.00  0.00     0.016 A 
ATOM     35  C   UNL A   1      40.161  25.862  26.418  1.00  0.00     0.016 A 
ATOM     36  C   UNL A   1      39.164  25.995  29.039  1.00  0.00     0.010 A 
ATOM     37  C   UNL A   1      40.471  26.951  27.250  1.00  0.00     0.010 A 
ATOM     38  C   UNL A   1      39.977  27.030  28.568  1.00  0.00    -0.014 A 
BRANCH  38  39
ATOM     39  C   UNL A   1      40.347  28.174  29.447  1.00  0.00     0.031 A 
ATOM     40  C   UNL A   1      41.542  28.088  30.355  1.00  0.00     0.074 A 
ATOM     41  C   UNL A   1      39.588  29.289  29.458  1.00  0.00     0.049 A 
ATOM     42  N   UNL A   1      41.887  28.876  31.341  1.00  0.00    -0.248 NA
ATOM     43  C   UNL A   1      42.473  26.975  30.118  1.00  0.00     0.031 C 
ATOM     44  C   UNL A   1      38.455  29.553  28.570  1.00  0.00     0.029 A 
ATOM     45  N   UNL A   1      39.645  30.401  30.265  1.00  0.00    -0.354 N 
ATOM     46  C   UNL A   1      43.056  28.337  31.869  1.00  0.00     0.074 A 
ATOM     47  C   UNL A   1      43.363  27.157  31.086  1.00  0.00     0.031 C 
ATOM     48  C   UNL A   1      37.911  30.738  28.893  1.00  0.00     0.029 A 
ATOM     49  C   UNL A   1      38.604  31.279  30.059  1.00  0.00     0.049 A 
ATOM     50  H   UNL A   1      40.358  30.555  30.924  1.00  0.00     0.167 HD
ATOM     51  C   UNL A   1      43.793  28.778  32.918  1.00  0.00     0.031 A 
ATOM     52  C   UNL A   1      38.207  32.358  30.763  1.00  0.00     0.031 A 
ATOM     53  C   UNL A   1      43.484  29.954  33.693  1.00  0.00     0.049 A 
ATOM     54  C   UNL A   1      38.966  32.758  31.998  1.00  0.00     0.074 A 
ATOM     55  C   UNL A   1      44.178  30.481  34.769  1.00  0.00     0.029 A 
ATOM     56  N   UNL A   1      42.390  30.779  33.485  1.00  0.00    -0.354 N 
ATOM     57  N   UNL A   1      40.051  32.225  32.507  1.00  0.00    -0.248 NA
ATOM     58  C   UNL A   1      38.438  33.896  32.766  1.00  0.00     0.031 C 
ATOM     59  C   UNL A   1      43.468  31.586  35.251  1.00  0.00     0.029 A 
ATOM     60  C   UNL A   1      42.367  31.786  34.436  1.00  0.00     0.049 A 
ATOM     61  H   UNL A   1      41.726  30.666  32.766  1.00  0.00     0.167 HD
ATOM     62  C   UNL A   1      40.343  32.971  33.643  1.00  0.00     0.074 A 
ATOM     63  C   UNL A   1      39.333  34.005  33.739  1.00  0.00     0.031 C 
ATOM     64  C   UNL A   1      41.357  32.811  34.529  1.00  0.00     0.031 A 
BRANCH  51  65
ATOM     65  C   UNL A   1      44.983  27.954  33.337  1.00  0.00    -0.014 A 
ATOM     66  C   UNL A   1      46.286  28.273  32.920  1.00  0.00     0.010 A 
ATOM     67  C   UNL A   1      44.793  26.875  34.223  1.00  0.00     0.010 A 
ATOM     68  C   UNL A   1      47.374  27.506  33.354  1.00  0.00     0.020 A 
ATOM     69  C   UNL A   1      45.878  26.123  34.678  1.00  0.00     0.020 A 
ATOM     70  C   UNL A   1      47.162  26.434  34.228  1.00  0.00     0.054 A 
BRANCH  70  71
ATOM     71  S   UNL A   1      48.594  25.472  34.790  1.00  0.00     0.124 S 
ATOM     72  O   UNL A   1      49.707  26.336  34.406  1.00  0.00    -0.237 OA
ATOM     73  O   UNL A   1      48.357  25.353  36.226  1.00  0.00    -0.237 OA
ATOM     74  O   UNL A   1      48.490  24.222  34.039  1.00  0.00    -0.744 OA
ENDBRANCH  70  71
ENDBRANCH  51  65
BRANCH  52  75
ATOM     75  C   UNL A   1      36.973  33.091  30.361  1.00  0.00    -0.014 A 
ATOM     76  C   UNL A   1      35.712  32.690  30.834  1.00  0.00     0.010 A 
ATOM     77  C   UNL A   1      37.059  34.201  29.499  1.00  0.00     0.010 A 
ATOM     78  C   UNL A   1      34.560  33.379  30.444  1.00  0.00     0.020 A 
ATOM     79  C   UNL A   1      35.913  34.911  29.133  1.00  0.00     0.020 A 
ATOM     80  C   UNL A   1      34.668  34.488  29.599  1.00  0.00     0.054 A 
BRANCH  80  81
ATOM     81  S   UNL A   1      33.163  35.398  29.151  1.00  0.00     0.124 S 
ATOM     82  O   UNL A   1      32.409  34.391  28.413  1.00  0.00    -0.237 OA
ATOM     83  O   UNL A   1      32.618  35.768  30.456  1.00  0.00    -0.237 OA
ATOM     84  O   UNL A   1      33.665  36.515  28.353  1.00  0.00    -0.744 OA
ENDBRANCH  80  81
ENDBRANCH  52  75
BRANCH  64  85
ATOM     85  C   UNL A   1      41.447  33.786  35.673  1.00  0.00    -0.014 A 
ATOM     86  C   UNL A   1      42.183  34.979  35.557  1.00  0.00     0.010 A 
ATOM     87  C   UNL A   1      40.726  33.540  36.857  1.00  0.00     0.010 A 
ATOM     88  C   UNL A   1      42.210  35.899  36.608  1.00  0.00     0.020 A 
ATOM     89  C   UNL A   1      40.730  34.471  37.900  1.00  0.00     0.020 A 
ATOM     90  C   UNL A   1      41.479  35.642  37.772  1.00  0.00     0.054 A 
BRANCH  90  91
ATOM     91  S   UNL A   1      41.478  36.884  39.094  1.00  0.00     0.124 S 
ATOM     92  O   UNL A   1      40.232  37.602  38.839  1.00  0.00    -0.237 OA
ATOM     93  O   UNL A   1      41.495  36.064  40.304  1.00  0.00    -0.237 OA
ATOM     94  O   UNL A   1      42.699  37.650  38.852  1.00  0.00    -0.744 OA
ENDBRANCH  90  91
ENDBRANCH  64  85
ENDBRANCH  38  39
ENDBRANCH  31  33
ENDBRANCH  30  31
ENDBRANCH  29  30
ENDBRANCH  28  29
ENDBRANCH  27  28
ENDBRANCH  26  27
ENDBRANCH   1  26
TORSDOF 24
ENDMDL
MODEL 2
REMARK VINA RESULT:      -9.0      2.289      3.507
REMARK SMILES CC(C)(C)[N@H+](CC(=O)OCCOCCOCCOC(=O)c1ccc(-c2c3nc(c(-c4ccc(S(=O)(=O)[O-])cc4)c4ccc([nH]4)c(-c4ccc(S(=O)(=O)[O-])cc4)c4nc(c(-c5ccc(S(=O)(=O)[O-])cc5)c5ccc2[nH]5)C=C4)C=C3)cc1)C[C@H]1Cc2cc(F)ccc2O1
REMARK SMILES IDX 13 1 12 2 11 3 10 4 9 5 7 6 8 7 6 8 5 9 2 11 1 12 3 13 4 14
REMARK SMILES IDX 81 15 82 16 83 17 91 18 84 19 90 20 85 21 89 22 86 23 88 24
REMARK SMILES IDX 87 25 14 26 15 27 16 28 17 29 18 30 19 31 20 32 21 33 22 34
REMARK SMILES IDX 80 35 23 36 79 37 24 38 25 39 26 40 73 41 27 42 78 43 72 44
REMARK SMILES IDX 74 45 28 46 77 47 71 48 70 49 29 51 59 52 40 53 58 54 41 55
REMARK SMILES IDX 44 56 57 57 75 58 42 59 43 60 56 62 76 63 45 64 30 65 31 66
REMARK SMILES IDX 39 67 32 68 38 69 33 70 34 71 35 72 36 73 37 74 60 75 61 76
REMARK SMILES IDX 69 77 62 78 68 79 63 80 64 81 65 82 66 83 67 84 46 85 47 86
REMARK SMILES IDX 55 87 48 88 54 89 49 90 50 91 51 92 52 93 53 94
REMARK H PARENT 5 10 74 50 44 61
REMARK Flexibility Score: inf
ROOT
ATOM      1  C   UNL A   1      34.553  21.731  25.980  1.00  0.00     0.188 C 
ENDROOT
BRANCH   1   2
ATOM      2  O   UNL A   1      33.149  21.909  26.089  1.00  0.00    -0.376 OA
BRANCH   2   3
ATOM      3  C   UNL A   1      32.700  22.794  27.115  1.00  0.00     0.202 C 
BRANCH   3   4
ATOM      4  C   UNL A   1      31.390  23.546  26.837  1.00  0.00     0.261 C 
BRANCH   4   5
ATOM      5  O   UNL A   1      31.580  24.975  26.729  1.00  0.00    -0.459 OA
BRANCH   5   6
ATOM      6  C   UNL A   1      32.030  25.423  25.525  1.00  0.00     0.361 C 
ATOM      7  O   UNL A   1      32.926  24.879  24.885  1.00  0.00    -0.245 OA
BRANCH   6   8
ATOM      8  C   UNL A   1      31.231  26.606  24.959  1.00  0.00     0.387 C 
BRANCH   8   9
ATOM      9  N   UNL A   1      31.988  27.798  24.458  1.00  0.00    -0.318 N 
ATOM     10  H   UNL A   1      32.972  27.702  24.709  1.00  0.00     0.349 HD
BRANCH   9  11
ATOM     11  C   UNL A   1      32.130  27.882  22.965  1.00  0.00     0.090 C 
ATOM     12  C   UNL A   1      33.559  28.181  22.449  1.00  0.00     0.078 C 
ATOM     13  C   UNL A   1      31.183  29.008  22.483  1.00  0.00     0.078 C 
ATOM     14  C   UNL A   1      31.687  26.627  22.181  1.00  0.00     0.078 C 
ENDBRANCH   9  11
BRANCH   9  15
ATOM     15  C   UNL A   1      31.469  29.028  25.165  1.00  0.00     0.309 C 
BRANCH  15  16
ATOM     16  C   UNL A   1      32.546  29.919  25.850  1.00  0.00     0.232 C 
ATOM     17  C   UNL A   1      32.054  30.882  26.943  1.00  0.00     0.090 C 
ATOM     18  O   UNL A   1      33.565  29.132  26.559  1.00  0.00    -0.484 OA
ATOM     19  C   UNL A   1      33.403  31.230  27.461  1.00  0.00     0.001 A 
ATOM     20  C   UNL A   1      34.219  30.123  27.271  1.00  0.00     0.123 A 
ATOM     21  C   UNL A   1      33.923  32.419  27.932  1.00  0.00     0.047 A 
ATOM     22  C   UNL A   1      35.559  30.130  27.607  1.00  0.00     0.050 A 
ATOM     23  C   UNL A   1      35.297  32.470  28.170  1.00  0.00     0.123 A 
ATOM     24  C   UNL A   1      36.114  31.343  28.019  1.00  0.00     0.043 A 
ATOM     25  F   UNL A   1      35.858  33.639  28.509  1.00  0.00    -0.207 F 
ENDBRANCH  15  16
ENDBRANCH   9  15
ENDBRANCH   8   9
ENDBRANCH   6   8
ENDBRANCH   5   6
ENDBRANCH   4   5
ENDBRANCH   3   4
ENDBRANCH   2   3
ENDBRANCH   1   2
BRANCH   1  26
ATOM     26  C   UNL A   1      35.151  21.720  24.568  1.00  0.00     0.188 C 
BRANCH  26  27
ATOM     27  O   UNL A   1      36.437  21.127  24.424  1.00  0.00    -0.376 OA
BRANCH  27  28
ATOM     28  C   UNL A   1      37.156  20.979  25.651  1.00  0.00     0.202 C 
BRANCH  28  29
ATOM     29  C   UNL A   1      38.634  21.426  25.554  1.00  0.00     0.261 C 
BRANCH  29  30
ATOM     30  O   UNL A   1      39.029  22.469  26.479  1.00  0.00    -0.460 OA
BRANCH  30  31
ATOM     31  C   UNL A   1      38.716  23.717  26.063  1.00  0.00     0.338 C 
ATOM     32  O   UNL A   1      37.888  23.954  25.202  1.00  0.00    -0.246 OA
BRANCH  31  33
ATOM     33  C   UNL A   1      39.335  24.753  26.930  1.00  0.00     0.060 A 
ATOM     34  C   UNL A   1      38.983  24.790  28.286  1.00  0.00     0.016 A 
ATOM     35  C   UNL A   1      40.222  25.703  26.431  1.00  0.00     0.016 A 
ATOM     36  C   UNL A   1      39.484  25.777  29.139  1.00  0.00     0.010 A 
ATOM     37  C   UNL A   1      40.745  26.684  27.292  1.00  0.00     0.010 A 
ATOM     38  C   UNL A   1      40.382  26.732  28.654  1.00  0.00    -0.014 A 
BRANCH  38  39
ATOM     39  C   UNL A   1      40.974  27.756  29.558  1.00  0.00     0.031 A 
ATOM     40  C   UNL A   1      42.365  27.586  30.102  1.00  0.00     0.074 A 
ATOM     41  C   UNL A   1      40.250  28.834  29.924  1.00  0.00     0.049 A 
ATOM     42  N   UNL A   1      42.961  28.242  31.065  1.00  0.00    -0.248 NA
ATOM     43  C   UNL A   1      43.197  26.547  29.475  1.00  0.00     0.031 C 
ATOM     44  C   UNL A   1      38.925  29.179  29.408  1.00  0.00     0.029 A 
ATOM     45  N   UNL A   1      40.521  29.826  30.837  1.00  0.00    -0.354 N 
ATOM     46  C   UNL A   1      44.225  27.675  31.189  1.00  0.00     0.074 A 
ATOM     47  C   UNL A   1      44.310  26.624  30.194  1.00  0.00     0.031 C 
ATOM     48  C   UNL A   1      38.489  30.290  30.026  1.00  0.00     0.029 A 
ATOM     49  C   UNL A   1      39.466  30.688  31.034  1.00  0.00     0.049 A 
ATOM     50  H   UNL A   1      41.383  29.911  31.302  1.00  0.00     0.167 HD
ATOM     51  C   UNL A   1      45.214  27.991  32.060  1.00  0.00     0.031 A 
ATOM     52  C   UNL A   1      39.273  31.647  31.963  1.00  0.00     0.031 A 
ATOM     53  C   UNL A   1      45.124  29.039  33.047  1.00  0.00     0.049 A 
ATOM     54  C   UNL A   1      40.331  31.899  33.001  1.00  0.00     0.074 A 
ATOM     55  C   UNL A   1      46.078  29.436  33.968  1.00  0.00     0.029 A 
ATOM     56  N   UNL A   1      44.017  29.848  33.250  1.00  0.00    -0.354 N 
ATOM     57  N   UNL A   1      41.510  31.337  33.129  1.00  0.00    -0.248 NA
ATOM     58  C   UNL A   1      40.029  32.903  34.033  1.00  0.00     0.031 C 
ATOM     59  C   UNL A   1      45.525  30.440  34.769  1.00  0.00     0.029 A 
ATOM     60  C   UNL A   1      44.249  30.714  34.307  1.00  0.00     0.049 A 
ATOM     61  H   UNL A   1      43.187  29.813  32.721  1.00  0.00     0.167 HD
ATOM     62  C   UNL A   1      42.093  31.929  34.244  1.00  0.00     0.074 A 
ATOM     63  C   UNL A   1      41.148  32.906  34.744  1.00  0.00     0.031 C 
ATOM     64  C   UNL A   1      43.303  31.682  34.803  1.00  0.00     0.031 A 
BRANCH  51  65
ATOM     65  C   UNL A   1      46.469  27.157  32.034  1.00  0.00    -0.014 A 
ATOM     66  C   UNL A   1      47.532  27.450  31.165  1.00  0.00     0.010 A 
ATOM     67  C   UNL A   1      46.607  26.097  32.951  1.00  0.00     0.010 A 
ATOM     68  C   UNL A   1      48.697  26.675  31.188  1.00  0.00     0.020 A 
ATOM     69  C   UNL A   1      47.778  25.337  32.995  1.00  0.00     0.020 A 
ATOM     70  C   UNL A   1      48.811  25.622  32.101  1.00  0.00     0.054 A 
BRANCH  70  71
ATOM     71  S   UNL A   1      50.342  24.648  32.123  1.00  0.00     0.124 S 
ATOM     72  O   UNL A   1      50.610  24.475  30.697  1.00  0.00    -0.237 OA
ATOM     73  O   UNL A   1      51.269  25.523  32.835  1.00  0.00    -0.237 OA
ATOM     74  O   UNL A   1      49.969  23.428  32.837  1.00  0.00    -0.744 OA
ENDBRANCH  70  71
ENDBRANCH  51  65
BRANCH  52  75
ATOM     75  C   UNL A   1      37.980  32.386  32.004  1.00  0.00    -0.014 A 
ATOM     76  C   UNL A   1      36.821  31.782  32.520  1.00  0.00     0.010 A 
ATOM     77  C   UNL A   1      37.906  33.708  31.525  1.00  0.00     0.010 A 
ATOM     78  C   UNL A   1      35.611  32.482  32.546  1.00  0.00     0.020 A 
ATOM     79  C   UNL A   1      36.705  34.422  31.579  1.00  0.00     0.020 A 
ATOM     80  C   UNL A   1      35.562  33.799  32.079  1.00  0.00     0.054 A 
BRANCH  80  81
ATOM     81  S   UNL A   1      33.992  34.704  32.174  1.00  0.00     0.124 S 
ATOM     82  O   UNL A   1      34.425  36.011  32.656  1.00  0.00    -0.237 OA
ATOM     83  O   UNL A   1      33.520  34.663  30.792  1.00  0.00    -0.237 OA
ATOM     84  O   UNL A   1      33.202  33.918  33.119  1.00  0.00    -0.744 OA
ENDBRANCH  80  81
ENDBRANCH  52  75
BRANCH  64  85
ATOM     85  C   UNL A   1      43.694  32.493  36.010  1.00  0.00    -0.014 A 
ATOM     86  C   UNL A   1      44.323  33.744  35.873  1.00  0.00     0.010 A 
ATOM     87  C   UNL A   1      43.365  32.031  37.298  1.00  0.00     0.010 A 
ATOM     88  C   UNL A   1      44.629  34.510  37.002  1.00  0.00     0.020 A 
ATOM     89  C   UNL A   1      43.645  32.806  38.427  1.00  0.00     0.020 A 
ATOM     90  C   UNL A   1      44.283  34.038  38.272  1.00  0.00     0.054 A 
BRANCH  90  91
ATOM     91  S   UNL A   1      44.631  35.081  39.715  1.00  0.00     0.124 S 
ATOM     92  O   UNL A   1      45.592  34.268  40.456  1.00  0.00    -0.237 OA
ATOM     93  O   UNL A   1      45.171  36.297  39.108  1.00  0.00    -0.237 OA
ATOM     94  O   UNL A   1      43.326  35.239  40.353  1.00  0.00    -0.744 OA
ENDBRANCH  90  91
ENDBRANCH  64  85
ENDBRANCH  38  39
ENDBRANCH  31  33
ENDBRANCH  30  31
ENDBRANCH  29  30
ENDBRANCH  28  29
ENDBRANCH  27  28
ENDBRANCH  26  27
ENDBRANCH   1  26
TORSDOF 24
ENDMDL
MODEL 3
REMARK VINA RESULT:      -8.7      5.850     11.430
REMARK SMILES CC(C)(C)[N@H+](CC(=O)OCCOCCOCCOC(=O)c1ccc(-c2c3nc(c(-c4ccc(S(=O)(=O)[O-])cc4)c4ccc([nH]4)c(-c4ccc(S(=O)(=O)[O-])cc4)c4nc(c(-c5ccc(S(=O)(=O)[O-])cc5)c5ccc2[nH]5)C=C4)C=C3)cc1)C[C@H]1Cc2cc(F)ccc2O1
REMARK SMILES IDX 13 1 12 2 11 3 10 4 9 5 7 6 8 7 6 8 5 9 2 11 1 12 3 13 4 14
REMARK SMILES IDX 81 15 82 16 83 17 91 18 84 19 90 20 85 21 89 22 86 23 88 24
REMARK SMILES IDX 87 25 14 26 15 27 16 28 17 29 18 30 19 31 20 32 21 33 22 34
REMARK SMILES IDX 80 35 23 36 79 37 24 38 25 39 26 40 73 41 27 42 78 43 72 44
REMARK SMILES IDX 74 45 28 46 77 47 71 48 70 49 29 51 59 52 40 53 58 54 41 55
REMARK SMILES IDX 44 56 57 57 75 58 42 59 43 60 56 62 76 63 45 64 30 65 31 66
REMARK SMILES IDX 39 67 32 68 38 69 33 70 34 71 35 72 36 73 37 74 60 75 61 76
REMARK SMILES IDX 69 77 62 78 68 79 63 80 64 81 65 82 66 83 67 84 46 85 47 86
REMARK SMILES IDX 55 87 48 88 54 89 49 90 50 91 51 92 52 93 53 94
REMARK H PARENT 5 10 74 50 44 61
REMARK Flexibility Score: inf
ROOT
ATOM      1  C   UNL A   1      33.944  30.498  27.289  1.00  0.00     0.188 C 
ENDROOT
BRANCH   1   2
ATOM      2  O   UNL A   1      32.613  30.700  26.838  1.00  0.00    -0.376 OA
BRANCH   2   3
ATOM      3  C   UNL A   1      32.085  29.707  25.958  1.00  0.00     0.202 C 
BRANCH   3   4
ATOM      4  C   UNL A   1      31.692  28.369  26.603  1.00  0.00     0.261 C 
BRANCH   4   5
ATOM      5  O   UNL A   1      31.966  27.238  25.747  1.00  0.00    -0.459 OA
BRANCH   5   6
ATOM      6  C   UNL A   1      31.053  26.228  25.790  1.00  0.00     0.361 C 
ATOM      7  O   UNL A   1      30.343  25.990  26.765  1.00  0.00    -0.245 OA
BRANCH   6   8
ATOM      8  C   UNL A   1      30.885  25.478  24.461  1.00  0.00     0.387 C 
BRANCH   8   9
ATOM      9  N   UNL A   1      31.907  24.444  24.096  1.00  0.00    -0.318 N 
ATOM     10  H   UNL A   1      31.505  23.799  23.417  1.00  0.00     0.349 HD
BRANCH   9  11
ATOM     11  C   UNL A   1      33.066  24.952  23.286  1.00  0.00     0.090 C 
ATOM     12  C   UNL A   1      33.566  23.998  22.174  1.00  0.00     0.078 C 
ATOM     13  C   UNL A   1      34.227  25.215  24.274  1.00  0.00     0.078 C 
ATOM     14  C   UNL A   1      32.838  26.301  22.569  1.00  0.00     0.078 C 
ENDBRANCH   9  11
BRANCH   9  15
ATOM     15  C   UNL A   1      32.237  23.639  25.331  1.00  0.00     0.309 C 
BRANCH  15  16
ATOM     16  C   UNL A   1      32.527  22.129  25.094  1.00  0.00     0.232 C 
ATOM     17  C   UNL A   1      31.958  21.508  23.807  1.00  0.00     0.090 C 
ATOM     18  O   UNL A   1      33.963  21.839  24.974  1.00  0.00    -0.484 OA
ATOM     19  C   UNL A   1      32.732  20.241  23.891  1.00  0.00     0.001 A 
ATOM     20  C   UNL A   1      33.935  20.531  24.521  1.00  0.00     0.123 A 
ATOM     21  C   UNL A   1      32.394  18.941  23.577  1.00  0.00     0.047 A 
ATOM     22  C   UNL A   1      34.874  19.557  24.798  1.00  0.00     0.050 A 
ATOM     23  C   UNL A   1      33.287  17.936  23.951  1.00  0.00     0.123 A 
ATOM     24  C   UNL A   1      34.519  18.230  24.549  1.00  0.00     0.043 A 
ATOM     25  F   UNL A   1      32.939  16.654  23.775  1.00  0.00    -0.207 F 
ENDBRANCH  15  16
ENDBRANCH   9  15
ENDBRANCH   8   9
ENDBRANCH   6   8
ENDBRANCH   5   6
ENDBRANCH   4   5
ENDBRANCH   3   4
ENDBRANCH   2   3
ENDBRANCH   1   2
BRANCH   1  26
ATOM     26  C   UNL A   1      34.545  31.574  28.202  1.00  0.00     0.188 C 
BRANCH  26  27
ATOM     27  O   UNL A   1      35.441  31.125  29.213  1.00  0.00    -0.376 OA
BRANCH  27  28
ATOM     28  C   UNL A   1      35.291  31.793  30.468  1.00  0.00     0.202 C 
BRANCH  28  29
ATOM     29  C   UNL A   1      36.213  31.231  31.576  1.00  0.00     0.261 C 
BRANCH  29  30
ATOM     30  O   UNL A   1      37.321  32.083  31.954  1.00  0.00    -0.460 OA
BRANCH  30  31
ATOM     31  C   UNL A   1      38.257  31.463  32.708  1.00  0.00     0.338 C 
ATOM     32  O   UNL A   1      38.081  31.133  33.867  1.00  0.00    -0.246 OA
BRANCH  31  33
ATOM     33  C   UNL A   1      39.424  31.039  31.891  1.00  0.00     0.060 A 
ATOM     34  C   UNL A   1      40.348  30.147  32.453  1.00  0.00     0.016 A 
ATOM     35  C   UNL A   1      39.643  31.524  30.604  1.00  0.00     0.016 A 
ATOM     36  C   UNL A   1      41.496  29.759  31.759  1.00  0.00     0.010 A 
ATOM     37  C   UNL A   1      40.787  31.118  29.895  1.00  0.00     0.010 A 
ATOM     38  C   UNL A   1      41.725  30.232  30.464  1.00  0.00    -0.014 A 
BRANCH  38  39
ATOM     39  C   UNL A   1      42.911  29.784  29.683  1.00  0.00     0.031 A 
ATOM     40  C   UNL A   1      42.958  28.408  29.080  1.00  0.00     0.074 A 
ATOM     41  C   UNL A   1      43.972  30.605  29.538  1.00  0.00     0.049 A 
ATOM     42  N   UNL A   1      43.976  27.765  28.569  1.00  0.00    -0.248 NA
ATOM     43  C   UNL A   1      41.692  27.661  29.042  1.00  0.00     0.031 C 
ATOM     44  C   UNL A   1      44.036  31.996  29.987  1.00  0.00     0.029 A 
ATOM     45  N   UNL A   1      45.212  30.374  28.990  1.00  0.00    -0.354 N 
ATOM     46  C   UNL A   1      43.487  26.522  28.180  1.00  0.00     0.074 A 
ATOM     47  C   UNL A   1      42.076  26.507  28.509  1.00  0.00     0.031 C 
ATOM     48  C   UNL A   1      45.256  32.489  29.717  1.00  0.00     0.029 A 
ATOM     49  C   UNL A   1      46.084  31.428  29.150  1.00  0.00     0.049 A 
ATOM     50  H   UNL A   1      45.453  29.539  28.529  1.00  0.00     0.167 HD
ATOM     51  C   UNL A   1      44.156  25.488  27.614  1.00  0.00     0.031 A 
ATOM     52  C   UNL A   1      47.412  31.516  28.931  1.00  0.00     0.031 A 
ATOM     53  C   UNL A   1      45.561  25.509  27.287  1.00  0.00     0.049 A 
ATOM     54  C   UNL A   1      48.161  30.315  28.421  1.00  0.00     0.074 A 
ATOM     55  C   UNL A   1      46.323  24.510  26.707  1.00  0.00     0.029 A 
ATOM     56  N   UNL A   1      46.416  26.575  27.519  1.00  0.00    -0.354 N 
ATOM     57  N   UNL A   1      47.695  29.136  28.085  1.00  0.00    -0.248 NA
ATOM     58  C   UNL A   1      49.618  30.450  28.277  1.00  0.00     0.031 C 
ATOM     59  C   UNL A   1      47.650  24.947  26.647  1.00  0.00     0.029 A 
ATOM     60  C   UNL A   1      47.704  26.244  27.131  1.00  0.00     0.049 A 
ATOM     61  H   UNL A   1      46.148  27.441  27.903  1.00  0.00     0.167 HD
ATOM     62  C   UNL A   1      48.799  28.396  27.676  1.00  0.00     0.074 A 
ATOM     63  C   UNL A   1      49.953  29.264  27.788  1.00  0.00     0.031 C 
ATOM     64  C   UNL A   1      48.850  27.110  27.248  1.00  0.00     0.031 A 
BRANCH  51  65
ATOM     65  C   UNL A   1      43.396  24.211  27.363  1.00  0.00    -0.014 A 
ATOM     66  C   UNL A   1      43.228  23.242  28.366  1.00  0.00     0.010 A 
ATOM     67  C   UNL A   1      42.783  24.013  26.111  1.00  0.00     0.010 A 
ATOM     68  C   UNL A   1      42.489  22.081  28.110  1.00  0.00     0.020 A 
ATOM     69  C   UNL A   1      42.024  22.868  25.859  1.00  0.00     0.020 A 
ATOM     70  C   UNL A   1      41.894  21.901  26.857  1.00  0.00     0.054 A 
BRANCH  70  71
ATOM     71  S   UNL A   1      40.924  20.396  26.561  1.00  0.00     0.124 S 
ATOM     72  O   UNL A   1      39.651  20.945  26.101  1.00  0.00    -0.237 OA
ATOM     73  O   UNL A   1      41.712  19.701  25.546  1.00  0.00    -0.237 OA
ATOM     74  O   UNL A   1      40.884  19.744  27.868  1.00  0.00    -0.744 OA
ENDBRANCH  70  71
ENDBRANCH  51  65
BRANCH  52  75
ATOM     75  C   UNL A   1      48.137  32.771  29.276  1.00  0.00    -0.014 A 
ATOM     76  C   UNL A   1      48.660  32.968  30.565  1.00  0.00     0.010 A 
ATOM     77  C   UNL A   1      48.308  33.779  28.308  1.00  0.00     0.010 A 
ATOM     78  C   UNL A   1      49.331  34.153  30.882  1.00  0.00     0.020 A 
ATOM     79  C   UNL A   1      49.006  34.950  28.611  1.00  0.00     0.020 A 
ATOM     80  C   UNL A   1      49.504  35.135  29.901  1.00  0.00     0.054 A 
BRANCH  80  81
ATOM     81  S   UNL A   1      50.426  36.641  30.321  1.00  0.00     0.124 S 
ATOM     82  O   UNL A   1      49.759  37.644  29.499  1.00  0.00    -0.237 OA
ATOM     83  O   UNL A   1      50.206  36.754  31.761  1.00  0.00    -0.237 OA
ATOM     84  O   UNL A   1      51.797  36.321  29.931  1.00  0.00    -0.744 OA
ENDBRANCH  80  81
ENDBRANCH  52  75
BRANCH  64  85
ATOM     85  C   UNL A   1      50.193  26.560  26.845  1.00  0.00    -0.014 A 
ATOM     86  C   UNL A   1      50.626  26.606  25.507  1.00  0.00     0.010 A 
ATOM     87  C   UNL A   1      51.063  26.054  27.828  1.00  0.00     0.010 A 
ATOM     88  C   UNL A   1      51.897  26.143  25.159  1.00  0.00     0.020 A 
ATOM     89  C   UNL A   1      52.345  25.614  27.487  1.00  0.00     0.020 A 
ATOM     90  C   UNL A   1      52.752  25.654  26.153  1.00  0.00     0.054 A 
BRANCH  90  91
ATOM     91  S   UNL A   1      54.421  25.120  25.683  1.00  0.00     0.124 S 
ATOM     92  O   UNL A   1      54.143  24.035  24.746  1.00  0.00    -0.237 OA
ATOM     93  O   UNL A   1      54.990  26.331  25.093  1.00  0.00    -0.237 OA
ATOM     94  O   UNL A   1      55.024  24.711  26.950  1.00  0.00    -0.744 OA
ENDBRANCH  90  91
ENDBRANCH  64  85
ENDBRANCH  38  39
ENDBRANCH  31  33
ENDBRANCH  30  31
ENDBRANCH  29  30
ENDBRANCH  28  29
ENDBRANCH  27  28
ENDBRANCH  26  27
ENDBRANCH   1  26
TORSDOF 24
ENDMDL
