MODEL 1
REMARK VINA RESULT:      -9.7      0.000      0.000
REMARK SMILES O=C(/C=C/c1ccc(O)cc1)NC[C@@H]1CC[C@H](C(=O)OCCOCCOCCOC(=O)c2ccc(-c3c4nc(c(-c5ccc(S(=O)(=O)[O-])cc5)c5ccc([nH]5)c(-c5ccc(S(=O)(=O)[O-])cc5)c5nc(c(-c6ccc(S(=O)(=O)[O-])cc6)c6ccc3[nH]6)C=C5)C=C4)cc2)O1
REMARK SMILES IDX 24 1 23 2 22 3 21 4 20 5 18 6 19 7 17 8 14 9 15 10 92 11
REMARK SMILES IDX 16 12 13 13 12 14 1 15 2 16 3 18 4 19 5 20 6 21 11 22 7 23
REMARK SMILES IDX 10 24 8 25 9 26 25 28 26 29 27 30 28 31 29 32 30 33 31 34
REMARK SMILES IDX 32 35 33 36 91 37 34 38 90 39 35 40 36 41 37 42 84 43 38 44
REMARK SMILES IDX 89 45 83 46 85 47 39 48 88 49 82 50 81 51 40 53 70 54 51 55
REMARK SMILES IDX 69 56 52 57 55 58 68 59 86 60 53 61 54 62 67 64 87 65 56 66
REMARK SMILES IDX 41 67 42 68 50 69 43 70 49 71 44 72 45 73 46 74 47 75 48 76
REMARK SMILES IDX 71 77 72 78 80 79 73 80 79 81 74 82 75 83 76 84 77 85 78 86
REMARK SMILES IDX 57 87 58 88 66 89 59 90 65 91 60 92 61 93 62 94 63 95 64 96
REMARK H PARENT 12 17 9 27 85 52 55 63
REMARK Flexibility Score: inf
ROOT
ATOM      1  C   UNL A   1      36.341  21.901  24.171  1.00  0.00     0.188 C 
ENDROOT
BRANCH   1   2
ATOM      2  O   UNL A   1      35.106  22.598  24.078  1.00  0.00    -0.376 OA
BRANCH   2   3
ATOM      3  C   UNL A   1      34.779  23.161  22.803  1.00  0.00     0.202 C 
BRANCH   3   4
ATOM      4  C   UNL A   1      33.438  23.904  22.678  1.00  0.00     0.261 C 
BRANCH   4   5
ATOM      5  O   UNL A   1      33.569  25.267  22.210  1.00  0.00    -0.461 OA
BRANCH   5   6
ATOM      6  C   UNL A   1      33.031  26.222  23.012  1.00  0.00     0.335 C 
ATOM      7  O   UNL A   1      31.943  26.755  22.809  1.00  0.00    -0.249 OA
BRANCH   6   8
ATOM      8  C   UNL A   1      33.884  26.558  24.252  1.00  0.00     0.228 C 
ATOM      9  C   UNL A   1      32.667  25.954  26.141  1.00  0.00     0.138 C 
ATOM     10  C   UNL A   1      32.500  27.457  25.939  1.00  0.00     0.037 C 
ATOM     11  O   UNL A   1      33.704  25.522  25.238  1.00  0.00    -0.361 OA
ATOM     12  C   UNL A   1      33.639  27.831  25.034  1.00  0.00     0.047 C 
BRANCH   9  13
ATOM     13  C   UNL A   1      31.379  25.148  25.894  1.00  0.00     0.148 C 
BRANCH  13  14
ATOM     14  N   UNL A   1      31.647  23.777  25.498  1.00  0.00    -0.350 N 
ATOM     15  O   UNL A   1      31.895  22.972  27.639  1.00  0.00    -0.270 OA
ATOM     16  C   UNL A   1      31.969  22.819  26.426  1.00  0.00     0.244 C 
ATOM     17  H   UNL A   1      31.597  23.530  24.546  1.00  0.00     0.163 HD
BRANCH  16  18
ATOM     18  C   UNL A   1      32.424  21.514  25.889  1.00  0.00     0.072 C 
ATOM     19  C   UNL A   1      32.113  21.016  24.683  1.00  0.00     0.014 C 
BRANCH  19  20
ATOM     20  C   UNL A   1      32.639  19.733  24.196  1.00  0.00    -0.025 A 
ATOM     21  C   UNL A   1      32.090  19.087  23.079  1.00  0.00     0.012 A 
ATOM     22  C   UNL A   1      33.755  19.165  24.825  1.00  0.00     0.012 A 
ATOM     23  C   UNL A   1      32.628  17.886  22.612  1.00  0.00     0.047 A 
ATOM     24  C   UNL A   1      34.296  17.964  24.358  1.00  0.00     0.047 A 
ATOM     25  C   UNL A   1      33.728  17.334  23.257  1.00  0.00     0.115 A 
BRANCH  25  26
ATOM     26  O   UNL A   1      34.288  16.168  22.831  1.00  0.00    -0.508 OA
ATOM     27  H   UNL A   1      35.221  16.077  22.805  1.00  0.00     0.293 HD
ENDBRANCH  25  26
ENDBRANCH  19  20
ENDBRANCH  16  18
ENDBRANCH  13  14
ENDBRANCH   9  13
ENDBRANCH   6   8
ENDBRANCH   5   6
ENDBRANCH   4   5
ENDBRANCH   3   4
ENDBRANCH   2   3
ENDBRANCH   1   2
BRANCH   1  28
ATOM     28  C   UNL A   1      37.411  22.555  25.051  1.00  0.00     0.188 C 
BRANCH  28  29
ATOM     29  O   UNL A   1      38.298  21.645  25.665  1.00  0.00    -0.376 OA
BRANCH  29  30
ATOM     30  C   UNL A   1      38.317  20.267  25.311  1.00  0.00     0.202 C 
BRANCH  30  31
ATOM     31  C   UNL A   1      39.436  19.289  25.740  1.00  0.00     0.261 C 
BRANCH  31  32
ATOM     32  O   UNL A   1      40.794  19.610  25.401  1.00  0.00    -0.460 OA
BRANCH  32  33
ATOM     33  C   UNL A   1      41.719  19.581  26.390  1.00  0.00     0.338 C 
ATOM     34  O   UNL A   1      42.199  18.583  26.902  1.00  0.00    -0.246 OA
BRANCH  33  35
ATOM     35  C   UNL A   1      42.269  20.961  26.524  1.00  0.00     0.060 A 
ATOM     36  C   UNL A   1      42.580  21.427  27.811  1.00  0.00     0.016 A 
ATOM     37  C   UNL A   1      42.596  21.739  25.408  1.00  0.00     0.016 A 
ATOM     38  C   UNL A   1      43.191  22.673  27.987  1.00  0.00     0.010 A 
ATOM     39  C   UNL A   1      43.186  22.997  25.587  1.00  0.00     0.010 A 
ATOM     40  C   UNL A   1      43.462  23.484  26.878  1.00  0.00    -0.014 A 
BRANCH  40  41
ATOM     41  C   UNL A   1      43.839  24.912  27.058  1.00  0.00     0.031 A 
ATOM     42  C   UNL A   1      45.281  25.291  26.840  1.00  0.00     0.074 A 
ATOM     43  C   UNL A   1      42.948  25.856  27.415  1.00  0.00     0.049 A 
ATOM     44  N   UNL A   1      45.881  26.435  27.040  1.00  0.00    -0.248 NA
ATOM     45  C   UNL A   1      46.163  24.228  26.329  1.00  0.00     0.031 C 
ATOM     46  C   UNL A   1      41.513  25.646  27.599  1.00  0.00     0.029 A 
ATOM     47  N   UNL A   1      43.133  27.188  27.704  1.00  0.00    -0.354 N 
ATOM     48  C   UNL A   1      47.213  26.225  26.700  1.00  0.00     0.074 A 
ATOM     49  C   UNL A   1      47.337  24.841  26.299  1.00  0.00     0.031 C 
ATOM     50  C   UNL A   1      40.950  26.805  27.988  1.00  0.00     0.029 A 
ATOM     51  C   UNL A   1      41.989  27.827  28.126  1.00  0.00     0.049 A 
ATOM     52  H   UNL A   1      44.001  27.642  27.618  1.00  0.00     0.167 HD
ATOM     53  C   UNL A   1      48.243  27.104  26.721  1.00  0.00     0.031 A 
ATOM     54  C   UNL A   1      41.807  29.078  28.601  1.00  0.00     0.031 A 
ATOM     55  C   UNL A   1      48.125  28.475  27.136  1.00  0.00     0.049 A 
ATOM     56  C   UNL A   1      42.989  30.012  28.714  1.00  0.00     0.074 A 
ATOM     57  C   UNL A   1      49.111  29.446  27.178  1.00  0.00     0.029 A 
ATOM     58  N   UNL A   1      46.959  29.068  27.595  1.00  0.00    -0.354 N 
ATOM     59  N   UNL A   1      44.238  29.809  28.366  1.00  0.00    -0.248 NA
ATOM     60  C   UNL A   1      42.736  31.344  29.284  1.00  0.00     0.031 C 
ATOM     61  C   UNL A   1      48.557  30.606  27.727  1.00  0.00     0.029 A 
ATOM     62  C   UNL A   1      47.208  30.380  27.958  1.00  0.00     0.049 A 
ATOM     63  H   UNL A   1      46.084  28.621  27.654  1.00  0.00     0.167 HD
ATOM     64  C   UNL A   1      44.912  30.994  28.654  1.00  0.00     0.074 A 
ATOM     65  C   UNL A   1      43.931  31.914  29.187  1.00  0.00     0.031 C 
ATOM     66  C   UNL A   1      46.224  31.292  28.487  1.00  0.00     0.031 A 
BRANCH  53  67
ATOM     67  C   UNL A   1      49.601  26.590  26.326  1.00  0.00    -0.014 A 
ATOM     68  C   UNL A   1      50.113  26.793  25.031  1.00  0.00     0.010 A 
ATOM     69  C   UNL A   1      50.394  25.924  27.279  1.00  0.00     0.010 A 
ATOM     70  C   UNL A   1      51.377  26.307  24.688  1.00  0.00     0.020 A 
ATOM     71  C   UNL A   1      51.670  25.463  26.948  1.00  0.00     0.020 A 
ATOM     72  C   UNL A   1      52.146  25.643  25.649  1.00  0.00     0.054 A 
BRANCH  72  73
ATOM     73  S   UNL A   1      53.792  25.042  25.179  1.00  0.00     0.124 S 
ATOM     74  O   UNL A   1      53.925  25.561  23.819  1.00  0.00    -0.237 OA
ATOM     75  O   UNL A   1      54.657  25.667  26.177  1.00  0.00    -0.237 OA
ATOM     76  O   UNL A   1      53.674  23.590  25.281  1.00  0.00    -0.744 OA
ENDBRANCH  72  73
ENDBRANCH  53  67
BRANCH  54  77
ATOM     77  C   UNL A   1      40.455  29.519  29.054  1.00  0.00    -0.014 A 
ATOM     78  C   UNL A   1      39.463  29.872  28.121  1.00  0.00     0.010 A 
ATOM     79  C   UNL A   1      40.158  29.603  30.427  1.00  0.00     0.010 A 
ATOM     80  C   UNL A   1      38.208  30.314  28.553  1.00  0.00     0.020 A 
ATOM     81  C   UNL A   1      38.894  30.015  30.862  1.00  0.00     0.020 A 
ATOM     82  C   UNL A   1      37.929  30.377  29.921  1.00  0.00     0.054 A 
BRANCH  82  83
ATOM     83  S   UNL A   1      36.276  30.904  30.455  1.00  0.00     0.124 S 
ATOM     84  O   UNL A   1      35.512  30.812  29.216  1.00  0.00    -0.237 OA
ATOM     85  O   UNL A   1      35.948  29.914  31.477  1.00  0.00    -0.237 OA
ATOM     86  O   UNL A   1      36.494  32.259  30.956  1.00  0.00    -0.744 OA
ENDBRANCH  82  83
ENDBRANCH  54  77
BRANCH  66  87
ATOM     87  C   UNL A   1      46.690  32.678  28.855  1.00  0.00    -0.014 A 
ATOM     88  C   UNL A   1      46.630  33.738  27.932  1.00  0.00     0.010 A 
ATOM     89  C   UNL A   1      47.106  32.943  30.174  1.00  0.00     0.010 A 
ATOM     90  C   UNL A   1      46.991  35.032  28.318  1.00  0.00     0.020 A 
ATOM     91  C   UNL A   1      47.440  34.240  30.571  1.00  0.00     0.020 A 
ATOM     92  C   UNL A   1      47.387  35.277  29.637  1.00  0.00     0.054 A 
BRANCH  92  93
ATOM     93  S   UNL A   1      47.781  36.979  30.129  1.00  0.00     0.124 S 
ATOM     94  O   UNL A   1      49.114  36.830  30.704  1.00  0.00    -0.237 OA
ATOM     95  O   UNL A   1      47.721  37.700  28.859  1.00  0.00    -0.237 OA
ATOM     96  O   UNL A   1      46.726  37.319  31.081  1.00  0.00    -0.744 OA
ENDBRANCH  92  93
ENDBRANCH  66  87
ENDBRANCH  40  41
ENDBRANCH  33  35
ENDBRANCH  32  33
ENDBRANCH  31  32
ENDBRANCH  30  31
ENDBRANCH  29  30
ENDBRANCH  28  29
ENDBRANCH   1  28
TORSDOF 25
ENDMDL
MODEL 2
REMARK VINA RESULT:      -9.5      6.136      9.982
REMARK SMILES O=C(/C=C/c1ccc(O)cc1)NC[C@@H]1CC[C@H](C(=O)OCCOCCOCCOC(=O)c2ccc(-c3c4nc(c(-c5ccc(S(=O)(=O)[O-])cc5)c5ccc([nH]5)c(-c5ccc(S(=O)(=O)[O-])cc5)c5nc(c(-c6ccc(S(=O)(=O)[O-])cc6)c6ccc3[nH]6)C=C5)C=C4)cc2)O1
REMARK SMILES IDX 24 1 23 2 22 3 21 4 20 5 18 6 19 7 17 8 14 9 15 10 92 11
REMARK SMILES IDX 16 12 13 13 12 14 1 15 2 16 3 18 4 19 5 20 6 21 11 22 7 23
REMARK SMILES IDX 10 24 8 25 9 26 25 28 26 29 27 30 28 31 29 32 30 33 31 34
REMARK SMILES IDX 32 35 33 36 91 37 34 38 90 39 35 40 36 41 37 42 84 43 38 44
REMARK SMILES IDX 89 45 83 46 85 47 39 48 88 49 82 50 81 51 40 53 70 54 51 55
REMARK SMILES IDX 69 56 52 57 55 58 68 59 86 60 53 61 54 62 67 64 87 65 56 66
REMARK SMILES IDX 41 67 42 68 50 69 43 70 49 71 44 72 45 73 46 74 47 75 48 76
REMARK SMILES IDX 71 77 72 78 80 79 73 80 79 81 74 82 75 83 76 84 77 85 78 86
REMARK SMILES IDX 57 87 58 88 66 89 59 90 65 91 60 92 61 93 62 94 63 95 64 96
REMARK H PARENT 12 17 9 27 85 52 55 63
REMARK Flexibility Score: inf
ROOT
ATOM      1  C   UNL A   1      33.917  28.740  27.167  1.00  0.00     0.188 C 
ENDROOT
BRANCH   1   2
ATOM      2  O   UNL A   1      33.568  28.740  25.789  1.00  0.00    -0.376 OA
BRANCH   2   3
ATOM      3  C   UNL A   1      32.419  29.508  25.417  1.00  0.00     0.202 C 
BRANCH   3   4
ATOM      4  C   UNL A   1      31.299  28.783  24.651  1.00  0.00     0.261 C 
BRANCH   4   5
ATOM      5  O   UNL A   1      31.718  28.254  23.370  1.00  0.00    -0.461 OA
BRANCH   5   6
ATOM      6  C   UNL A   1      30.978  27.222  22.886  1.00  0.00     0.335 C 
ATOM      7  O   UNL A   1      29.812  27.007  23.204  1.00  0.00    -0.249 OA
BRANCH   6   8
ATOM      8  C   UNL A   1      31.713  26.354  21.844  1.00  0.00     0.228 C 
ATOM      9  C   UNL A   1      32.416  24.407  22.907  1.00  0.00     0.138 C 
ATOM     10  C   UNL A   1      33.606  25.360  22.845  1.00  0.00     0.037 C 
ATOM     11  O   UNL A   1      31.384  24.969  22.075  1.00  0.00    -0.361 OA
ATOM     12  C   UNL A   1      33.226  26.346  21.778  1.00  0.00     0.047 C 
BRANCH   9  13
ATOM     13  C   UNL A   1      31.881  24.176  24.332  1.00  0.00     0.148 C 
BRANCH  13  14
ATOM     14  N   UNL A   1      31.899  22.775  24.714  1.00  0.00    -0.350 N 
ATOM     15  O   UNL A   1      34.096  22.759  25.397  1.00  0.00    -0.270 OA
ATOM     16  C   UNL A   1      33.054  22.169  25.138  1.00  0.00     0.244 C 
ATOM     17  H   UNL A   1      31.068  22.250  24.666  1.00  0.00     0.163 HD
BRANCH  16  18
ATOM     18  C   UNL A   1      33.000  20.696  25.299  1.00  0.00     0.072 C 
ATOM     19  C   UNL A   1      33.738  19.810  24.614  1.00  0.00     0.014 C 
BRANCH  19  20
ATOM     20  C   UNL A   1      33.669  18.363  24.859  1.00  0.00    -0.025 A 
ATOM     21  C   UNL A   1      32.604  17.785  25.564  1.00  0.00     0.012 A 
ATOM     22  C   UNL A   1      34.660  17.528  24.328  1.00  0.00     0.012 A 
ATOM     23  C   UNL A   1      32.539  16.402  25.756  1.00  0.00     0.047 A 
ATOM     24  C   UNL A   1      34.598  16.144  24.517  1.00  0.00     0.047 A 
ATOM     25  C   UNL A   1      33.539  15.593  25.229  1.00  0.00     0.115 A 
BRANCH  25  26
ATOM     26  O   UNL A   1      33.512  14.240  25.387  1.00  0.00    -0.508 OA
ATOM     27  H   UNL A   1      33.053  13.862  26.111  1.00  0.00     0.293 HD
ENDBRANCH  25  26
ENDBRANCH  19  20
ENDBRANCH  16  18
ENDBRANCH  13  14
ENDBRANCH   9  13
ENDBRANCH   6   8
ENDBRANCH   5   6
ENDBRANCH   4   5
ENDBRANCH   3   4
ENDBRANCH   2   3
ENDBRANCH   1   2
BRANCH   1  28
ATOM     28  C   UNL A   1      35.204  29.488  27.530  1.00  0.00     0.188 C 
BRANCH  28  29
ATOM     29  O   UNL A   1      35.070  30.891  27.580  1.00  0.00    -0.376 OA
BRANCH  29  30
ATOM     30  C   UNL A   1      33.895  31.511  28.090  1.00  0.00     0.202 C 
BRANCH  30  31
ATOM     31  C   UNL A   1      33.253  32.771  27.465  1.00  0.00     0.261 C 
BRANCH  31  32
ATOM     32  O   UNL A   1      33.780  34.059  27.820  1.00  0.00    -0.460 OA
BRANCH  32  33
ATOM     33  C   UNL A   1      33.565  34.507  29.080  1.00  0.00     0.338 C 
ATOM     34  O   UNL A   1      32.511  34.929  29.526  1.00  0.00    -0.246 OA
BRANCH  33  35
ATOM     35  C   UNL A   1      34.744  34.105  29.901  1.00  0.00     0.060 A 
ATOM     36  C   UNL A   1      36.009  34.121  29.292  1.00  0.00     0.016 A 
ATOM     37  C   UNL A   1      34.637  33.843  31.270  1.00  0.00     0.016 A 
ATOM     38  C   UNL A   1      37.160  33.850  30.040  1.00  0.00     0.010 A 
ATOM     39  C   UNL A   1      35.788  33.548  32.013  1.00  0.00     0.010 A 
ATOM     40  C   UNL A   1      37.054  33.523  31.398  1.00  0.00    -0.014 A 
BRANCH  40  41
ATOM     41  C   UNL A   1      38.216  32.957  32.134  1.00  0.00     0.031 A 
ATOM     42  C   UNL A   1      38.936  31.787  31.515  1.00  0.00     0.074 A 
ATOM     43  C   UNL A   1      38.627  33.441  33.320  1.00  0.00     0.049 A 
ATOM     44  N   UNL A   1      39.898  31.049  32.002  1.00  0.00    -0.248 NA
ATOM     45  C   UNL A   1      38.504  31.400  30.161  1.00  0.00     0.031 C 
ATOM     46  C   UNL A   1      38.066  34.604  34.006  1.00  0.00     0.029 A 
ATOM     47  N   UNL A   1      39.614  32.995  34.169  1.00  0.00    -0.354 N 
ATOM     48  C   UNL A   1      40.174  30.098  31.026  1.00  0.00     0.074 A 
ATOM     49  C   UNL A   1      39.266  30.341  29.927  1.00  0.00     0.031 C 
ATOM     50  C   UNL A   1      38.705  34.768  35.179  1.00  0.00     0.029 A 
ATOM     51  C   UNL A   1      39.689  33.697  35.350  1.00  0.00     0.049 A 
ATOM     52  H   UNL A   1      40.211  32.244  33.951  1.00  0.00     0.167 HD
ATOM     53  C   UNL A   1      41.098  29.109  31.041  1.00  0.00     0.031 A 
ATOM     54  C   UNL A   1      40.435  33.481  36.454  1.00  0.00     0.031 A 
ATOM     55  C   UNL A   1      41.990  28.854  32.140  1.00  0.00     0.049 A 
ATOM     56  C   UNL A   1      41.389  32.309  36.491  1.00  0.00     0.074 A 
ATOM     57  C   UNL A   1      42.970  27.883  32.241  1.00  0.00     0.029 A 
ATOM     58  N   UNL A   1      42.002  29.562  33.332  1.00  0.00    -0.354 N 
ATOM     59  N   UNL A   1      41.657  31.432  35.552  1.00  0.00    -0.248 NA
ATOM     60  C   UNL A   1      42.139  32.097  37.739  1.00  0.00     0.031 C 
ATOM     61  C   UNL A   1      43.528  27.959  33.521  1.00  0.00     0.029 A 
ATOM     62  C   UNL A   1      42.947  29.025  34.189  1.00  0.00     0.049 A 
ATOM     63  H   UNL A   1      41.424  30.332  33.538  1.00  0.00     0.167 HD
ATOM     64  C   UNL A   1      42.622  30.583  36.088  1.00  0.00     0.074 A 
ATOM     65  C   UNL A   1      42.903  31.059  37.425  1.00  0.00     0.031 C 
ATOM     66  C   UNL A   1      43.222  29.507  35.520  1.00  0.00     0.031 A 
BRANCH  53  67
ATOM     67  C   UNL A   1      41.157  28.195  29.846  1.00  0.00    -0.014 A 
ATOM     68  C   UNL A   1      42.108  28.383  28.827  1.00  0.00     0.010 A 
ATOM     69  C   UNL A   1      40.268  27.108  29.761  1.00  0.00     0.010 A 
ATOM     70  C   UNL A   1      42.143  27.523  27.727  1.00  0.00     0.020 A 
ATOM     71  C   UNL A   1      40.319  26.228  28.677  1.00  0.00     0.020 A 
ATOM     72  C   UNL A   1      41.247  26.451  27.659  1.00  0.00     0.054 A 
BRANCH  72  73
ATOM     73  S   UNL A   1      41.331  25.338  26.229  1.00  0.00     0.124 S 
ATOM     74  O   UNL A   1      40.052  24.637  26.318  1.00  0.00    -0.237 OA
ATOM     75  O   UNL A   1      41.463  26.267  25.110  1.00  0.00    -0.237 OA
ATOM     76  O   UNL A   1      42.510  24.517  26.497  1.00  0.00    -0.744 OA
ENDBRANCH  72  73
ENDBRANCH  53  67
BRANCH  54  77
ATOM     77  C   UNL A   1      40.288  34.368  37.645  1.00  0.00    -0.014 A 
ATOM     78  C   UNL A   1      39.253  34.159  38.575  1.00  0.00     0.010 A 
ATOM     79  C   UNL A   1      41.175  35.441  37.845  1.00  0.00     0.010 A 
ATOM     80  C   UNL A   1      39.103  35.013  39.673  1.00  0.00     0.020 A 
ATOM     81  C   UNL A   1      41.047  36.279  38.957  1.00  0.00     0.020 A 
ATOM     82  C   UNL A   1      40.004  36.065  39.860  1.00  0.00     0.054 A 
BRANCH  82  83
ATOM     83  S   UNL A   1      39.818  37.128  41.320  1.00  0.00     0.124 S 
ATOM     84  O   UNL A   1      39.176  36.228  42.272  1.00  0.00    -0.237 OA
ATOM     85  O   UNL A   1      41.200  37.490  41.621  1.00  0.00    -0.237 OA
ATOM     86  O   UNL A   1      38.983  38.227  40.838  1.00  0.00    -0.744 OA
ENDBRANCH  82  83
ENDBRANCH  54  77
BRANCH  66  87
ATOM     87  C   UNL A   1      44.270  28.774  36.320  1.00  0.00    -0.014 A 
ATOM     88  C   UNL A   1      43.955  27.609  37.042  1.00  0.00     0.010 A 
ATOM     89  C   UNL A   1      45.608  29.209  36.272  1.00  0.00     0.010 A 
ATOM     90  C   UNL A   1      44.958  26.901  37.712  1.00  0.00     0.020 A 
ATOM     91  C   UNL A   1      46.617  28.488  36.916  1.00  0.00     0.020 A 
ATOM     92  C   UNL A   1      46.284  27.340  37.639  1.00  0.00     0.054 A 
BRANCH  92  93
ATOM     93  S   UNL A   1      47.574  26.362  38.457  1.00  0.00     0.124 S 
ATOM     94  O   UNL A   1      47.289  25.014  37.974  1.00  0.00    -0.237 OA
ATOM     95  O   UNL A   1      48.804  26.965  37.948  1.00  0.00    -0.237 OA
ATOM     96  O   UNL A   1      47.325  26.578  39.881  1.00  0.00    -0.744 OA
ENDBRANCH  92  93
ENDBRANCH  66  87
ENDBRANCH  40  41
ENDBRANCH  33  35
ENDBRANCH  32  33
ENDBRANCH  31  32
ENDBRANCH  30  31
ENDBRANCH  29  30
ENDBRANCH  28  29
ENDBRANCH   1  28
TORSDOF 25
ENDMDL
MODEL 3
REMARK VINA RESULT:      -9.4      5.150     10.281
REMARK SMILES O=C(/C=C/c1ccc(O)cc1)NC[C@@H]1CC[C@H](C(=O)OCCOCCOCCOC(=O)c2ccc(-c3c4nc(c(-c5ccc(S(=O)(=O)[O-])cc5)c5ccc([nH]5)c(-c5ccc(S(=O)(=O)[O-])cc5)c5nc(c(-c6ccc(S(=O)(=O)[O-])cc6)c6ccc3[nH]6)C=C5)C=C4)cc2)O1
REMARK SMILES IDX 24 1 23 2 22 3 21 4 20 5 18 6 19 7 17 8 14 9 15 10 92 11
REMARK SMILES IDX 16 12 13 13 12 14 1 15 2 16 3 18 4 19 5 20 6 21 11 22 7 23
REMARK SMILES IDX 10 24 8 25 9 26 25 28 26 29 27 30 28 31 29 32 30 33 31 34
REMARK SMILES IDX 32 35 33 36 91 37 34 38 90 39 35 40 36 41 37 42 84 43 38 44
REMARK SMILES IDX 89 45 83 46 85 47 39 48 88 49 82 50 81 51 40 53 70 54 51 55
REMARK SMILES IDX 69 56 52 57 55 58 68 59 86 60 53 61 54 62 67 64 87 65 56 66
REMARK SMILES IDX 41 67 42 68 50 69 43 70 49 71 44 72 45 73 46 74 47 75 48 76
REMARK SMILES IDX 71 77 72 78 80 79 73 80 79 81 74 82 75 83 76 84 77 85 78 86
REMARK SMILES IDX 57 87 58 88 66 89 59 90 65 91 60 92 61 93 62 94 63 95 64 96
REMARK H PARENT 12 17 9 27 85 52 55 63
REMARK Flexibility Score: inf
ROOT
ATOM      1  C   UNL A   1      33.359  28.489  27.144  1.00  0.00     0.188 C 
ENDROOT
BRANCH   1   2
ATOM      2  O   UNL A   1      32.917  27.265  26.570  1.00  0.00    -0.376 OA
BRANCH   2   3
ATOM      3  C   UNL A   1      31.508  27.012  26.602  1.00  0.00     0.202 C 
BRANCH   3   4
ATOM      4  C   UNL A   1      30.767  26.955  25.255  1.00  0.00     0.261 C 
BRANCH   4   5
ATOM      5  O   UNL A   1      31.223  27.941  24.298  1.00  0.00    -0.461 OA
BRANCH   5   6
ATOM      6  C   UNL A   1      31.222  27.547  22.997  1.00  0.00     0.335 C 
ATOM      7  O   UNL A   1      30.204  27.380  22.332  1.00  0.00    -0.249 OA
BRANCH   6   8
ATOM      8  C   UNL A   1      32.630  27.370  22.392  1.00  0.00     0.228 C 
ATOM      9  C   UNL A   1      33.115  25.095  22.367  1.00  0.00     0.138 C 
ATOM     10  C   UNL A   1      33.796  25.703  23.589  1.00  0.00     0.037 C 
ATOM     11  O   UNL A   1      32.638  26.191  21.563  1.00  0.00    -0.361 OA
ATOM     12  C   UNL A   1      33.834  27.174  23.288  1.00  0.00     0.047 C 
BRANCH   9  13
ATOM     13  C   UNL A   1      31.954  24.145  22.712  1.00  0.00     0.148 C 
BRANCH  13  14
ATOM     14  N   UNL A   1      32.400  22.784  22.956  1.00  0.00    -0.350 N 
ATOM     15  O   UNL A   1      31.756  22.733  25.164  1.00  0.00    -0.270 OA
ATOM     16  C   UNL A   1      32.333  22.229  24.208  1.00  0.00     0.244 C 
ATOM     17  H   UNL A   1      32.757  22.251  22.210  1.00  0.00     0.163 HD
BRANCH  16  18
ATOM     18  C   UNL A   1      33.005  20.919  24.381  1.00  0.00     0.072 C 
ATOM     19  C   UNL A   1      32.448  19.821  24.914  1.00  0.00     0.014 C 
BRANCH  19  20
ATOM     20  C   UNL A   1      33.159  18.539  25.011  1.00  0.00    -0.025 A 
ATOM     21  C   UNL A   1      32.541  17.390  25.525  1.00  0.00     0.012 A 
ATOM     22  C   UNL A   1      34.470  18.442  24.526  1.00  0.00     0.012 A 
ATOM     23  C   UNL A   1      33.225  16.173  25.576  1.00  0.00     0.047 A 
ATOM     24  C   UNL A   1      35.156  17.225  24.575  1.00  0.00     0.047 A 
ATOM     25  C   UNL A   1      34.529  16.102  25.099  1.00  0.00     0.115 A 
BRANCH  25  26
ATOM     26  O   UNL A   1      35.229  14.934  25.124  1.00  0.00    -0.508 OA
ATOM     27  H   UNL A   1      36.002  14.839  24.602  1.00  0.00     0.293 HD
ENDBRANCH  25  26
ENDBRANCH  19  20
ENDBRANCH  16  18
ENDBRANCH  13  14
ENDBRANCH   9  13
ENDBRANCH   6   8
ENDBRANCH   5   6
ENDBRANCH   4   5
ENDBRANCH   3   4
ENDBRANCH   2   3
ENDBRANCH   1   2
BRANCH   1  28
ATOM     28  C   UNL A   1      33.615  29.632  26.158  1.00  0.00     0.188 C 
BRANCH  28  29
ATOM     29  O   UNL A   1      32.484  30.427  25.878  1.00  0.00    -0.376 OA
BRANCH  29  30
ATOM     30  C   UNL A   1      31.900  31.268  26.866  1.00  0.00     0.202 C 
BRANCH  30  31
ATOM     31  C   UNL A   1      32.631  32.472  27.505  1.00  0.00     0.261 C 
BRANCH  31  32
ATOM     32  O   UNL A   1      33.823  32.225  28.267  1.00  0.00    -0.460 OA
BRANCH  32  33
ATOM     33  C   UNL A   1      34.923  32.960  27.978  1.00  0.00     0.338 C 
ATOM     34  O   UNL A   1      34.937  34.099  27.540  1.00  0.00    -0.246 OA
BRANCH  33  35
ATOM     35  C   UNL A   1      36.095  32.258  28.577  1.00  0.00     0.060 A 
ATOM     36  C   UNL A   1      35.916  30.941  29.029  1.00  0.00     0.016 A 
ATOM     37  C   UNL A   1      37.374  32.823  28.579  1.00  0.00     0.016 A 
ATOM     38  C   UNL A   1      37.002  30.200  29.508  1.00  0.00     0.010 A 
ATOM     39  C   UNL A   1      38.458  32.089  29.081  1.00  0.00     0.010 A 
ATOM     40  C   UNL A   1      38.275  30.783  29.573  1.00  0.00    -0.014 A 
BRANCH  40  41
ATOM     41  C   UNL A   1      39.370  30.127  30.336  1.00  0.00     0.031 A 
ATOM     42  C   UNL A   1      39.756  30.723  31.664  1.00  0.00     0.074 A 
ATOM     43  C   UNL A   1      40.023  29.043  29.877  1.00  0.00     0.049 A 
ATOM     44  N   UNL A   1      40.743  30.410  32.463  1.00  0.00    -0.248 NA
ATOM     45  C   UNL A   1      38.912  31.828  32.152  1.00  0.00     0.031 C 
ATOM     46  C   UNL A   1      39.716  28.324  28.641  1.00  0.00     0.029 A 
ATOM     47  N   UNL A   1      41.100  28.366  30.400  1.00  0.00    -0.354 N 
ATOM     48  C   UNL A   1      40.651  31.289  33.536  1.00  0.00     0.074 A 
ATOM     49  C   UNL A   1      39.526  32.160  33.278  1.00  0.00     0.031 C 
ATOM     50  C   UNL A   1      40.597  27.318  28.492  1.00  0.00     0.029 A 
ATOM     51  C   UNL A   1      41.558  27.347  29.596  1.00  0.00     0.049 A 
ATOM     52  H   UNL A   1      41.505  28.588  31.268  1.00  0.00     0.167 HD
ATOM     53  C   UNL A   1      41.434  31.368  34.638  1.00  0.00     0.031 A 
ATOM     54  C   UNL A   1      42.645  26.556  29.716  1.00  0.00     0.031 A 
ATOM     55  C   UNL A   1      42.564  30.515  34.888  1.00  0.00     0.049 A 
ATOM     56  C   UNL A   1      43.565  26.728  30.902  1.00  0.00     0.074 A 
ATOM     57  C   UNL A   1      43.409  30.511  35.984  1.00  0.00     0.029 A 
ATOM     58  N   UNL A   1      43.017  29.527  34.028  1.00  0.00    -0.354 N 
ATOM     59  N   UNL A   1      43.454  27.547  31.922  1.00  0.00    -0.248 NA
ATOM     60  C   UNL A   1      44.759  25.869  30.953  1.00  0.00     0.031 C 
ATOM     61  C   UNL A   1      44.414  29.566  35.755  1.00  0.00     0.029 A 
ATOM     62  C   UNL A   1      44.153  28.931  34.551  1.00  0.00     0.049 A 
ATOM     63  H   UNL A   1      42.594  29.284  33.172  1.00  0.00     0.167 HD
ATOM     64  C   UNL A   1      44.547  27.284  32.743  1.00  0.00     0.074 A 
ATOM     65  C   UNL A   1      45.299  26.221  32.112  1.00  0.00     0.031 C 
ATOM     66  C   UNL A   1      44.895  27.871  33.916  1.00  0.00     0.031 A 
BRANCH  53  67
ATOM     67  C   UNL A   1      41.120  32.450  35.636  1.00  0.00    -0.014 A 
ATOM     68  C   UNL A   1      41.645  33.748  35.500  1.00  0.00     0.010 A 
ATOM     69  C   UNL A   1      40.253  32.171  36.709  1.00  0.00     0.010 A 
ATOM     70  C   UNL A   1      41.340  34.735  36.439  1.00  0.00     0.020 A 
ATOM     71  C   UNL A   1      39.922  33.165  37.634  1.00  0.00     0.020 A 
ATOM     72  C   UNL A   1      40.480  34.436  37.501  1.00  0.00     0.054 A 
BRANCH  72  73
ATOM     73  S   UNL A   1      40.085  35.746  38.693  1.00  0.00     0.124 S 
ATOM     74  O   UNL A   1      39.852  36.890  37.816  1.00  0.00    -0.237 OA
ATOM     75  O   UNL A   1      38.900  35.218  39.365  1.00  0.00    -0.237 OA
ATOM     76  O   UNL A   1      41.283  35.833  39.524  1.00  0.00    -0.744 OA
ENDBRANCH  72  73
ENDBRANCH  53  67
BRANCH  54  77
ATOM     77  C   UNL A   1      42.959  25.547  28.662  1.00  0.00    -0.014 A 
ATOM     78  C   UNL A   1      42.478  24.230  28.759  1.00  0.00     0.010 A 
ATOM     79  C   UNL A   1      43.760  25.899  27.559  1.00  0.00     0.010 A 
ATOM     80  C   UNL A   1      42.801  23.282  27.782  1.00  0.00     0.020 A 
ATOM     81  C   UNL A   1      44.060  24.963  26.565  1.00  0.00     0.020 A 
ATOM     82  C   UNL A   1      43.586  23.656  26.688  1.00  0.00     0.054 A 
BRANCH  82  83
ATOM     83  S   UNL A   1      43.949  22.421  25.407  1.00  0.00     0.124 S 
ATOM     84  O   UNL A   1      43.186  22.927  24.271  1.00  0.00    -0.237 OA
ATOM     85  O   UNL A   1      45.402  22.513  25.287  1.00  0.00    -0.237 OA
ATOM     86  O   UNL A   1      43.456  21.173  25.987  1.00  0.00    -0.744 OA
ENDBRANCH  82  83
ENDBRANCH  54  77
BRANCH  66  87
ATOM     87  C   UNL A   1      46.127  27.366  34.624  1.00  0.00    -0.014 A 
ATOM     88  C   UNL A   1      47.404  27.864  34.313  1.00  0.00     0.010 A 
ATOM     89  C   UNL A   1      45.991  26.447  35.682  1.00  0.00     0.010 A 
ATOM     90  C   UNL A   1      48.524  27.441  35.036  1.00  0.00     0.020 A 
ATOM     91  C   UNL A   1      47.103  26.044  36.426  1.00  0.00     0.020 A 
ATOM     92  C   UNL A   1      48.366  26.539  36.094  1.00  0.00     0.054 A 
BRANCH  92  93
ATOM     93  S   UNL A   1      49.824  26.064  37.061  1.00  0.00     0.124 S 
ATOM     94  O   UNL A   1      49.426  26.432  38.416  1.00  0.00    -0.237 OA
ATOM     95  O   UNL A   1      49.925  24.629  36.803  1.00  0.00    -0.237 OA
ATOM     96  O   UNL A   1      50.901  26.870  36.488  1.00  0.00    -0.744 OA
ENDBRANCH  92  93
ENDBRANCH  66  87
ENDBRANCH  40  41
ENDBRANCH  33  35
ENDBRANCH  32  33
ENDBRANCH  31  32
ENDBRANCH  30  31
ENDBRANCH  29  30
ENDBRANCH  28  29
ENDBRANCH   1  28
TORSDOF 25
ENDMDL
