MODEL 1
REMARK VINA RESULT:      -9.9      0.000      0.000
REMARK SMILES O=C(CCc1nc(-c2ccccc2)c(-c2ccccc2)o1)OCCOCCOCCOC(=O)c1ccc(-c2c3nc(c(-c4ccc(S(=O)(=O)[O-])cc4)c4ccc([nH]4)c(-c4ccc(S(=O)(=O)[O-])cc4)c4nc(c(-c5ccc(S(=O)(=O)[O-])cc5)c5ccc2[nH]5)C=C4)C=C3)cc1
REMARK SMILES IDX 26 1 25 2 24 3 23 4 22 5 2 6 1 7 3 8 4 9 5 10 6 11 21 12
REMARK SMILES IDX 7 13 14 14 8 15 9 16 13 17 10 18 12 19 11 20 15 21 16 22
REMARK SMILES IDX 20 23 17 24 19 25 18 26 27 27 28 28 29 29 30 30 31 31 32 32
REMARK SMILES IDX 33 33 34 34 35 35 93 36 36 37 92 38 37 39 38 40 39 41 86 42
REMARK SMILES IDX 40 43 91 44 85 45 87 46 41 47 90 48 84 49 83 50 42 52 72 53
REMARK SMILES IDX 53 54 71 55 54 56 57 57 70 58 88 59 55 60 56 61 69 63 89 64
REMARK SMILES IDX 58 65 43 66 44 67 52 68 45 69 51 70 46 71 47 72 48 73 49 74
REMARK SMILES IDX 50 75 73 76 74 77 82 78 75 79 81 80 76 81 77 82 78 83 79 84
REMARK SMILES IDX 80 85 59 86 60 87 68 88 61 89 67 90 62 91 63 92 64 93 65 94
REMARK SMILES IDX 66 95
REMARK H PARENT 87 51 57 62
REMARK Flexibility Score: inf
ROOT
ATOM      1  C   UNL A   1      34.220  30.053  27.273  1.00  0.00     0.188 C 
ENDROOT
BRANCH   1   2
ATOM      2  O   UNL A   1      32.848  29.860  27.572  1.00  0.00    -0.376 OA
BRANCH   2   3
ATOM      3  C   UNL A   1      31.989  29.425  26.522  1.00  0.00     0.202 C 
BRANCH   3   4
ATOM      4  C   UNL A   1      32.069  27.958  26.093  1.00  0.00     0.261 C 
BRANCH   4   5
ATOM      5  O   UNL A   1      31.724  27.565  24.742  1.00  0.00    -0.463 OA
BRANCH   5   6
ATOM      6  C   UNL A   1      30.844  26.687  24.239  1.00  0.00     0.306 C 
ATOM      7  O   UNL A   1      29.703  26.662  24.705  1.00  0.00    -0.252 OA
BRANCH   6   8
ATOM      8  C   UNL A   1      31.220  25.750  23.132  1.00  0.00     0.132 C 
BRANCH   8   9
ATOM      9  C   UNL A   1      30.500  24.416  23.235  1.00  0.00     0.109 C 
BRANCH   9  10
ATOM     10  C   UNL A   1      31.451  23.278  23.313  1.00  0.00     0.196 A 
ATOM     11  N   UNL A   1      31.209  21.984  23.216  1.00  0.00    -0.213 NA
ATOM     12  O   UNL A   1      32.733  23.589  23.664  1.00  0.00    -0.440 OA
ATOM     13  C   UNL A   1      32.393  21.397  23.602  1.00  0.00     0.117 A 
ATOM     14  C   UNL A   1      33.343  22.375  23.819  1.00  0.00     0.162 A 
BRANCH  13  15
ATOM     15  C   UNL A   1      32.535  19.984  23.903  1.00  0.00     0.004 A 
ATOM     16  C   UNL A   1      32.586  19.544  25.237  1.00  0.00     0.010 A 
ATOM     17  C   UNL A   1      32.579  19.036  22.878  1.00  0.00     0.010 A 
ATOM     18  C   UNL A   1      32.725  18.189  25.540  1.00  0.00     0.001 A 
ATOM     19  C   UNL A   1      32.726  17.678  23.182  1.00  0.00     0.001 A 
ATOM     20  C   UNL A   1      32.806  17.256  24.510  1.00  0.00     0.000 A 
ENDBRANCH  13  15
BRANCH  14  21
ATOM     21  C   UNL A   1      34.738  22.397  24.201  1.00  0.00     0.020 A 
ATOM     22  C   UNL A   1      35.181  21.720  25.343  1.00  0.00     0.012 A 
ATOM     23  C   UNL A   1      35.666  23.070  23.397  1.00  0.00     0.012 A 
ATOM     24  C   UNL A   1      36.536  21.717  25.673  1.00  0.00     0.001 A 
ATOM     25  C   UNL A   1      37.017  23.075  23.733  1.00  0.00     0.001 A 
ATOM     26  C   UNL A   1      37.452  22.396  24.871  1.00  0.00     0.000 A 
ENDBRANCH  14  21
ENDBRANCH   9  10
ENDBRANCH   8   9
ENDBRANCH   6   8
ENDBRANCH   5   6
ENDBRANCH   4   5
ENDBRANCH   3   4
ENDBRANCH   2   3
ENDBRANCH   1   2
BRANCH   1  27
ATOM     27  C   UNL A   1      34.840  31.391  27.679  1.00  0.00     0.188 C 
BRANCH  27  28
ATOM     28  O   UNL A   1      34.237  31.964  28.835  1.00  0.00    -0.376 OA
BRANCH  28  29
ATOM     29  C   UNL A   1      35.106  32.820  29.573  1.00  0.00     0.202 C 
BRANCH  29  30
ATOM     30  C   UNL A   1      35.560  32.307  30.952  1.00  0.00     0.261 C 
BRANCH  30  31
ATOM     31  O   UNL A   1      36.222  31.035  30.998  1.00  0.00    -0.460 OA
BRANCH  31  32
ATOM     32  C   UNL A   1      37.221  30.871  31.891  1.00  0.00     0.338 C 
ATOM     33  O   UNL A   1      37.159  31.028  33.096  1.00  0.00    -0.246 OA
BRANCH  32  34
ATOM     34  C   UNL A   1      38.405  30.371  31.158  1.00  0.00     0.060 A 
ATOM     35  C   UNL A   1      39.522  29.911  31.866  1.00  0.00     0.016 A 
ATOM     36  C   UNL A   1      38.418  30.387  29.761  1.00  0.00     0.016 A 
ATOM     37  C   UNL A   1      40.650  29.449  31.179  1.00  0.00     0.010 A 
ATOM     38  C   UNL A   1      39.558  29.963  29.075  1.00  0.00     0.010 A 
ATOM     39  C   UNL A   1      40.687  29.507  29.779  1.00  0.00    -0.014 A 
BRANCH  39  40
ATOM     40  C   UNL A   1      41.958  29.300  29.042  1.00  0.00     0.031 A 
ATOM     41  C   UNL A   1      42.245  27.927  28.501  1.00  0.00     0.074 A 
ATOM     42  C   UNL A   1      42.873  30.278  28.915  1.00  0.00     0.049 A 
ATOM     43  N   UNL A   1      43.334  27.459  27.952  1.00  0.00    -0.248 NA
ATOM     44  C   UNL A   1      41.151  26.947  28.606  1.00  0.00     0.031 C 
ATOM     45  C   UNL A   1      42.704  31.658  29.361  1.00  0.00     0.029 A 
ATOM     46  N   UNL A   1      44.145  30.243  28.395  1.00  0.00    -0.354 N 
ATOM     47  C   UNL A   1      43.066  26.126  27.666  1.00  0.00     0.074 A 
ATOM     48  C   UNL A   1      41.717  25.859  28.110  1.00  0.00     0.031 C 
ATOM     49  C   UNL A   1      43.847  32.330  29.132  1.00  0.00     0.029 A 
ATOM     50  C   UNL A   1      44.838  31.418  28.561  1.00  0.00     0.049 A 
ATOM     51  H   UNL A   1      44.523  29.451  27.947  1.00  0.00     0.167 HD
ATOM     52  C   UNL A   1      43.876  25.202  27.097  1.00  0.00     0.031 A 
ATOM     53  C   UNL A   1      46.132  31.713  28.321  1.00  0.00     0.031 A 
ATOM     54  C   UNL A   1      45.232  25.459  26.697  1.00  0.00     0.049 A 
ATOM     55  C   UNL A   1      47.044  30.655  27.751  1.00  0.00     0.074 A 
ATOM     56  C   UNL A   1      46.131  24.594  26.097  1.00  0.00     0.029 A 
ATOM     57  N   UNL A   1      45.895  26.664  26.879  1.00  0.00    -0.354 N 
ATOM     58  N   UNL A   1      46.768  29.409  27.447  1.00  0.00    -0.248 NA
ATOM     59  C   UNL A   1      48.438  31.042  27.489  1.00  0.00     0.031 C 
ATOM     60  C   UNL A   1      47.356  25.258  25.974  1.00  0.00     0.029 A 
ATOM     61  C   UNL A   1      47.201  26.557  26.434  1.00  0.00     0.049 A 
ATOM     62  H   UNL A   1      45.495  27.474  27.269  1.00  0.00     0.167 HD
ATOM     63  C   UNL A   1      47.945  28.871  26.932  1.00  0.00     0.074 A 
ATOM     64  C   UNL A   1      48.935  29.929  26.964  1.00  0.00     0.031 C 
ATOM     65  C   UNL A   1      48.178  27.619  26.467  1.00  0.00     0.031 A 
BRANCH  52  66
ATOM     66  C   UNL A   1      43.325  23.809  26.949  1.00  0.00    -0.014 A 
ATOM     67  C   UNL A   1      43.250  22.927  28.043  1.00  0.00     0.010 A 
ATOM     68  C   UNL A   1      42.890  23.370  25.685  1.00  0.00     0.010 A 
ATOM     69  C   UNL A   1      42.813  21.612  27.861  1.00  0.00     0.020 A 
ATOM     70  C   UNL A   1      42.423  22.066  25.505  1.00  0.00     0.020 A 
ATOM     71  C   UNL A   1      42.414  21.187  26.591  1.00  0.00     0.054 A 
BRANCH  71  72
ATOM     72  S   UNL A   1      41.877  19.468  26.375  1.00  0.00     0.124 S 
ATOM     73  O   UNL A   1      42.300  18.862  27.635  1.00  0.00    -0.237 OA
ATOM     74  O   UNL A   1      40.433  19.602  26.197  1.00  0.00    -0.237 OA
ATOM     75  O   UNL A   1      42.608  19.021  25.193  1.00  0.00    -0.744 OA
ENDBRANCH  71  72
ENDBRANCH  52  66
BRANCH  53  76
ATOM     76  C   UNL A   1      46.649  33.067  28.664  1.00  0.00    -0.014 A 
ATOM     77  C   UNL A   1      46.515  34.140  27.767  1.00  0.00     0.010 A 
ATOM     78  C   UNL A   1      47.239  33.299  29.921  1.00  0.00     0.010 A 
ATOM     79  C   UNL A   1      46.951  35.421  28.123  1.00  0.00     0.020 A 
ATOM     80  C   UNL A   1      47.653  34.581  30.291  1.00  0.00     0.020 A 
ATOM     81  C   UNL A   1      47.507  35.636  29.389  1.00  0.00     0.054 A 
BRANCH  81  82
ATOM     82  S   UNL A   1      47.970  37.324  29.869  1.00  0.00     0.124 S 
ATOM     83  O   UNL A   1      49.347  37.410  29.394  1.00  0.00    -0.237 OA
ATOM     84  O   UNL A   1      46.997  38.135  29.140  1.00  0.00    -0.237 OA
ATOM     85  O   UNL A   1      47.806  37.324  31.320  1.00  0.00    -0.744 OA
ENDBRANCH  81  82
ENDBRANCH  53  76
BRANCH  65  86
ATOM     86  C   UNL A   1      49.544  27.310  25.909  1.00  0.00    -0.014 A 
ATOM     87  C   UNL A   1      50.541  26.710  26.697  1.00  0.00     0.010 A 
ATOM     88  C   UNL A   1      49.789  27.525  24.539  1.00  0.00     0.010 A 
ATOM     89  C   UNL A   1      51.762  26.338  26.125  1.00  0.00     0.020 A 
ATOM     90  C   UNL A   1      50.998  27.130  23.959  1.00  0.00     0.020 A 
ATOM     91  C   UNL A   1      51.980  26.543  24.758  1.00  0.00     0.054 A 
BRANCH  91  92
ATOM     92  S   UNL A   1      53.538  25.973  24.024  1.00  0.00     0.124 S 
ATOM     93  O   UNL A   1      54.461  27.043  24.395  1.00  0.00    -0.237 OA
ATOM     94  O   UNL A   1      53.759  24.694  24.694  1.00  0.00    -0.237 OA
ATOM     95  O   UNL A   1      53.237  25.879  22.597  1.00  0.00    -0.744 OA
ENDBRANCH  91  92
ENDBRANCH  65  86
ENDBRANCH  39  40
ENDBRANCH  32  34
ENDBRANCH  31  32
ENDBRANCH  30  31
ENDBRANCH  29  30
ENDBRANCH  28  29
ENDBRANCH  27  28
ENDBRANCH   1  27
TORSDOF 24
ENDMDL
MODEL 2
REMARK VINA RESULT:      -8.9      0.792      7.947
REMARK SMILES O=C(CCc1nc(-c2ccccc2)c(-c2ccccc2)o1)OCCOCCOCCOC(=O)c1ccc(-c2c3nc(c(-c4ccc(S(=O)(=O)[O-])cc4)c4ccc([nH]4)c(-c4ccc(S(=O)(=O)[O-])cc4)c4nc(c(-c5ccc(S(=O)(=O)[O-])cc5)c5ccc2[nH]5)C=C4)C=C3)cc1
REMARK SMILES IDX 26 1 25 2 24 3 23 4 22 5 2 6 1 7 3 8 4 9 5 10 6 11 21 12
REMARK SMILES IDX 7 13 14 14 8 15 9 16 13 17 10 18 12 19 11 20 15 21 16 22
REMARK SMILES IDX 20 23 17 24 19 25 18 26 27 27 28 28 29 29 30 30 31 31 32 32
REMARK SMILES IDX 33 33 34 34 35 35 93 36 36 37 92 38 37 39 38 40 39 41 86 42
REMARK SMILES IDX 40 43 91 44 85 45 87 46 41 47 90 48 84 49 83 50 42 52 72 53
REMARK SMILES IDX 53 54 71 55 54 56 57 57 70 58 88 59 55 60 56 61 69 63 89 64
REMARK SMILES IDX 58 65 43 66 44 67 52 68 45 69 51 70 46 71 47 72 48 73 49 74
REMARK SMILES IDX 50 75 73 76 74 77 82 78 75 79 81 80 76 81 77 82 78 83 79 84
REMARK SMILES IDX 80 85 59 86 60 87 68 88 61 89 67 90 62 91 63 92 64 93 65 94
REMARK SMILES IDX 66 95
REMARK H PARENT 87 51 57 62
REMARK Flexibility Score: inf
ROOT
ATOM      1  C   UNL A   1      34.158  29.496  27.219  1.00  0.00     0.188 C 
ENDROOT
BRANCH   1   2
ATOM      2  O   UNL A   1      32.963  29.130  27.886  1.00  0.00    -0.376 OA
BRANCH   2   3
ATOM      3  C   UNL A   1      31.844  28.747  27.092  1.00  0.00     0.202 C 
BRANCH   3   4
ATOM      4  C   UNL A   1      31.821  27.326  26.523  1.00  0.00     0.261 C 
BRANCH   4   5
ATOM      5  O   UNL A   1      31.565  27.099  25.116  1.00  0.00    -0.463 OA
BRANCH   5   6
ATOM      6  C   UNL A   1      30.902  26.144  24.447  1.00  0.00     0.306 C 
ATOM      7  O   UNL A   1      29.738  25.899  24.766  1.00  0.00    -0.252 OA
BRANCH   6   8
ATOM      8  C   UNL A   1      31.548  25.381  23.330  1.00  0.00     0.132 C 
BRANCH   8   9
ATOM      9  C   UNL A   1      30.839  24.068  23.043  1.00  0.00     0.109 C 
BRANCH   9  10
ATOM     10  C   UNL A   1      31.742  22.902  23.211  1.00  0.00     0.196 A 
ATOM     11  N   UNL A   1      31.448  21.615  23.209  1.00  0.00    -0.213 NA
ATOM     12  O   UNL A   1      33.035  23.187  23.550  1.00  0.00    -0.440 OA
ATOM     13  C   UNL A   1      32.606  21.011  23.646  1.00  0.00     0.117 A 
ATOM     14  C   UNL A   1      33.593  21.964  23.798  1.00  0.00     0.162 A 
BRANCH  13  15
ATOM     15  C   UNL A   1      32.688  19.620  24.052  1.00  0.00     0.004 A 
ATOM     16  C   UNL A   1      32.485  19.258  25.395  1.00  0.00     0.010 A 
ATOM     17  C   UNL A   1      32.928  18.615  23.112  1.00  0.00     0.010 A 
ATOM     18  C   UNL A   1      32.564  17.925  25.798  1.00  0.00     0.001 A 
ATOM     19  C   UNL A   1      33.015  17.279  23.518  1.00  0.00     0.001 A 
ATOM     20  C   UNL A   1      32.841  16.935  24.860  1.00  0.00     0.000 A 
ENDBRANCH  13  15
BRANCH  14  21
ATOM     21  C   UNL A   1      34.986  21.957  24.189  1.00  0.00     0.020 A 
ATOM     22  C   UNL A   1      35.724  23.145  24.239  1.00  0.00     0.012 A 
ATOM     23  C   UNL A   1      35.595  20.753  24.561  1.00  0.00     0.012 A 
ATOM     24  C   UNL A   1      37.054  23.125  24.658  1.00  0.00     0.001 A 
ATOM     25  C   UNL A   1      36.926  20.733  24.970  1.00  0.00     0.001 A 
ATOM     26  C   UNL A   1      37.655  21.920  25.020  1.00  0.00     0.000 A 
ENDBRANCH  14  21
ENDBRANCH   9  10
ENDBRANCH   8   9
ENDBRANCH   6   8
ENDBRANCH   5   6
ENDBRANCH   4   5
ENDBRANCH   3   4
ENDBRANCH   2   3
ENDBRANCH   1   2
BRANCH   1  27
ATOM     27  C   UNL A   1      34.634  30.940  27.387  1.00  0.00     0.188 C 
BRANCH  27  28
ATOM     28  O   UNL A   1      34.193  31.543  28.599  1.00  0.00    -0.376 OA
BRANCH  28  29
ATOM     29  C   UNL A   1      35.164  32.391  29.207  1.00  0.00     0.202 C 
BRANCH  29  30
ATOM     30  C   UNL A   1      35.628  31.996  30.620  1.00  0.00     0.261 C 
BRANCH  30  31
ATOM     31  O   UNL A   1      36.619  30.963  30.724  1.00  0.00    -0.460 OA
BRANCH  31  32
ATOM     32  C   UNL A   1      37.457  30.991  31.783  1.00  0.00     0.338 C 
ATOM     33  O   UNL A   1      37.153  31.134  32.952  1.00  0.00    -0.246 OA
BRANCH  32  34
ATOM     34  C   UNL A   1      38.824  30.724  31.285  1.00  0.00     0.060 A 
ATOM     35  C   UNL A   1      39.075  30.706  29.907  1.00  0.00     0.016 A 
ATOM     36  C   UNL A   1      39.856  30.461  32.189  1.00  0.00     0.016 A 
ATOM     37  C   UNL A   1      40.363  30.441  29.430  1.00  0.00     0.010 A 
ATOM     38  C   UNL A   1      41.133  30.158  31.712  1.00  0.00     0.010 A 
ATOM     39  C   UNL A   1      41.391  30.130  30.330  1.00  0.00    -0.014 A 
BRANCH  39  40
ATOM     40  C   UNL A   1      42.678  29.569  29.850  1.00  0.00     0.031 A 
ATOM     41  C   UNL A   1      43.843  30.507  29.695  1.00  0.00     0.074 A 
ATOM     42  C   UNL A   1      42.800  28.279  29.490  1.00  0.00     0.049 A 
ATOM     43  N   UNL A   1      45.018  30.294  29.166  1.00  0.00    -0.248 NA
ATOM     44  C   UNL A   1      43.645  31.875  30.199  1.00  0.00     0.031 C 
ATOM     45  C   UNL A   1      41.762  27.261  29.623  1.00  0.00     0.029 A 
ATOM     46  N   UNL A   1      43.853  27.615  28.905  1.00  0.00    -0.354 N 
ATOM     47  C   UNL A   1      45.693  31.506  29.252  1.00  0.00     0.074 A 
ATOM     48  C   UNL A   1      44.793  32.450  29.876  1.00  0.00     0.031 C 
ATOM     49  C   UNL A   1      42.215  26.108  29.097  1.00  0.00     0.029 A 
ATOM     50  C   UNL A   1      43.557  26.319  28.555  1.00  0.00     0.049 A 
ATOM     51  H   UNL A   1      44.733  28.029  28.750  1.00  0.00     0.167 HD
ATOM     52  C   UNL A   1      46.945  31.810  28.836  1.00  0.00     0.031 A 
ATOM     53  C   UNL A   1      44.268  25.420  27.843  1.00  0.00     0.031 A 
ATOM     54  C   UNL A   1      47.822  30.882  28.177  1.00  0.00     0.049 A 
ATOM     55  C   UNL A   1      45.635  25.794  27.326  1.00  0.00     0.074 A 
ATOM     56  C   UNL A   1      49.115  31.088  27.732  1.00  0.00     0.029 A 
ATOM     57  N   UNL A   1      47.485  29.577  27.846  1.00  0.00    -0.354 N 
ATOM     58  N   UNL A   1      46.279  26.930  27.450  1.00  0.00    -0.248 NA
ATOM     59  C   UNL A   1      46.372  24.765  26.577  1.00  0.00     0.031 C 
ATOM     60  C   UNL A   1      49.538  29.928  27.075  1.00  0.00     0.029 A 
ATOM     61  C   UNL A   1      48.534  28.975  27.172  1.00  0.00     0.049 A 
ATOM     62  H   UNL A   1      46.628  29.144  28.058  1.00  0.00     0.167 HD
ATOM     63  C   UNL A   1      47.507  26.745  26.819  1.00  0.00     0.074 A 
ATOM     64  C   UNL A   1      47.517  25.386  26.318  1.00  0.00     0.031 C 
ATOM     65  C   UNL A   1      48.534  27.619  26.679  1.00  0.00     0.031 A 
BRANCH  52  66
ATOM     66  C   UNL A   1      47.400  33.233  29.025  1.00  0.00    -0.014 A 
ATOM     67  C   UNL A   1      47.109  34.230  28.075  1.00  0.00     0.010 A 
ATOM     68  C   UNL A   1      48.148  33.573  30.166  1.00  0.00     0.010 A 
ATOM     69  C   UNL A   1      47.615  35.523  28.231  1.00  0.00     0.020 A 
ATOM     70  C   UNL A   1      48.629  34.873  30.342  1.00  0.00     0.020 A 
ATOM     71  C   UNL A   1      48.381  35.833  29.358  1.00  0.00     0.054 A 
BRANCH  71  72
ATOM     72  S   UNL A   1      49.049  37.511  29.524  1.00  0.00     0.124 S 
ATOM     73  O   UNL A   1      49.866  37.629  28.319  1.00  0.00    -0.237 OA
ATOM     74  O   UNL A   1      47.844  38.335  29.549  1.00  0.00    -0.237 OA
ATOM     75  O   UNL A   1      49.795  37.465  30.779  1.00  0.00    -0.744 OA
ENDBRANCH  71  72
ENDBRANCH  52  66
BRANCH  53  76
ATOM     76  C   UNL A   1      43.673  24.088  27.545  1.00  0.00    -0.014 A 
ATOM     77  C   UNL A   1      43.710  23.052  28.492  1.00  0.00     0.010 A 
ATOM     78  C   UNL A   1      43.019  23.868  26.318  1.00  0.00     0.010 A 
ATOM     79  C   UNL A   1      43.095  21.823  28.223  1.00  0.00     0.020 A 
ATOM     80  C   UNL A   1      42.381  22.653  26.055  1.00  0.00     0.020 A 
ATOM     81  C   UNL A   1      42.424  21.636  27.010  1.00  0.00     0.054 A 
BRANCH  81  82
ATOM     82  S   UNL A   1      41.546  20.074  26.726  1.00  0.00     0.124 S 
ATOM     83  O   UNL A   1      42.046  19.239  27.814  1.00  0.00    -0.237 OA
ATOM     84  O   UNL A   1      40.145  20.477  26.830  1.00  0.00    -0.237 OA
ATOM     85  O   UNL A   1      41.973  19.679  25.386  1.00  0.00    -0.744 OA
ENDBRANCH  81  82
ENDBRANCH  53  76
BRANCH  65  86
ATOM     86  C   UNL A   1      49.787  27.140  25.992  1.00  0.00    -0.014 A 
ATOM     87  C   UNL A   1      49.969  27.292  24.606  1.00  0.00     0.010 A 
ATOM     88  C   UNL A   1      50.845  26.632  26.770  1.00  0.00     0.010 A 
ATOM     89  C   UNL A   1      51.183  26.936  24.011  1.00  0.00     0.020 A 
ATOM     90  C   UNL A   1      52.069  26.300  26.183  1.00  0.00     0.020 A 
ATOM     91  C   UNL A   1      52.229  26.450  24.804  1.00  0.00     0.054 A 
BRANCH  91  92
ATOM     92  S   UNL A   1      53.822  26.077  24.021  1.00  0.00     0.124 S 
ATOM     93  O   UNL A   1      53.473  26.077  22.603  1.00  0.00    -0.237 OA
ATOM     94  O   UNL A   1      54.663  27.187  24.462  1.00  0.00    -0.237 OA
ATOM     95  O   UNL A   1      54.184  24.772  24.573  1.00  0.00    -0.744 OA
ENDBRANCH  91  92
ENDBRANCH  65  86
ENDBRANCH  39  40
ENDBRANCH  32  34
ENDBRANCH  31  32
ENDBRANCH  30  31
ENDBRANCH  29  30
ENDBRANCH  28  29
ENDBRANCH  27  28
ENDBRANCH   1  27
TORSDOF 24
ENDMDL
MODEL 3
REMARK VINA RESULT:      -8.8      4.803      9.283
REMARK SMILES O=C(CCc1nc(-c2ccccc2)c(-c2ccccc2)o1)OCCOCCOCCOC(=O)c1ccc(-c2c3nc(c(-c4ccc(S(=O)(=O)[O-])cc4)c4ccc([nH]4)c(-c4ccc(S(=O)(=O)[O-])cc4)c4nc(c(-c5ccc(S(=O)(=O)[O-])cc5)c5ccc2[nH]5)C=C4)C=C3)cc1
REMARK SMILES IDX 26 1 25 2 24 3 23 4 22 5 2 6 1 7 3 8 4 9 5 10 6 11 21 12
REMARK SMILES IDX 7 13 14 14 8 15 9 16 13 17 10 18 12 19 11 20 15 21 16 22
REMARK SMILES IDX 20 23 17 24 19 25 18 26 27 27 28 28 29 29 30 30 31 31 32 32
REMARK SMILES IDX 33 33 34 34 35 35 93 36 36 37 92 38 37 39 38 40 39 41 86 42
REMARK SMILES IDX 40 43 91 44 85 45 87 46 41 47 90 48 84 49 83 50 42 52 72 53
REMARK SMILES IDX 53 54 71 55 54 56 57 57 70 58 88 59 55 60 56 61 69 63 89 64
REMARK SMILES IDX 58 65 43 66 44 67 52 68 45 69 51 70 46 71 47 72 48 73 49 74
REMARK SMILES IDX 50 75 73 76 74 77 82 78 75 79 81 80 76 81 77 82 78 83 79 84
REMARK SMILES IDX 80 85 59 86 60 87 68 88 61 89 67 90 62 91 63 92 64 93 65 94
REMARK SMILES IDX 66 95
REMARK H PARENT 87 51 57 62
REMARK Flexibility Score: inf
ROOT
ATOM      1  C   UNL A   1      37.110  33.633  35.397  1.00  0.00     0.188 C 
ENDROOT
BRANCH   1   2
ATOM      2  O   UNL A   1      36.925  32.975  36.638  1.00  0.00    -0.376 OA
BRANCH   2   3
ATOM      3  C   UNL A   1      37.836  33.270  37.694  1.00  0.00     0.202 C 
BRANCH   3   4
ATOM      4  C   UNL A   1      39.196  32.568  37.686  1.00  0.00     0.261 C 
BRANCH   4   5
ATOM      5  O   UNL A   1      40.104  32.707  38.805  1.00  0.00    -0.463 OA
BRANCH   5   6
ATOM      6  C   UNL A   1      41.385  33.089  38.904  1.00  0.00     0.306 C 
ATOM      7  O   UNL A   1      41.822  33.409  40.010  1.00  0.00    -0.252 OA
BRANCH   6   8
ATOM      8  C   UNL A   1      42.284  33.132  37.704  1.00  0.00     0.132 C 
BRANCH   8   9
ATOM      9  C   UNL A   1      42.135  34.423  36.918  1.00  0.00     0.109 C 
BRANCH   9  10
ATOM     10  C   UNL A   1      42.365  34.217  35.465  1.00  0.00     0.196 A 
ATOM     11  N   UNL A   1      41.818  34.841  34.439  1.00  0.00    -0.213 NA
ATOM     12  O   UNL A   1      43.147  33.149  35.127  1.00  0.00    -0.440 OA
ATOM     13  C   UNL A   1      42.205  34.091  33.352  1.00  0.00     0.117 A 
ATOM     14  C   UNL A   1      43.064  33.092  33.763  1.00  0.00     0.162 A 
BRANCH  13  15
ATOM     15  C   UNL A   1      41.635  34.237  32.024  1.00  0.00     0.004 A 
ATOM     16  C   UNL A   1      40.366  33.706  31.733  1.00  0.00     0.010 A 
ATOM     17  C   UNL A   1      42.315  34.943  31.029  1.00  0.00     0.010 A 
ATOM     18  C   UNL A   1      39.809  33.838  30.460  1.00  0.00     0.001 A 
ATOM     19  C   UNL A   1      41.760  35.069  29.751  1.00  0.00     0.001 A 
ATOM     20  C   UNL A   1      40.512  34.510  29.466  1.00  0.00     0.000 A 
ENDBRANCH  13  15
BRANCH  14  21
ATOM     21  C   UNL A   1      43.806  32.033  33.115  1.00  0.00     0.020 A 
ATOM     22  C   UNL A   1      45.047  32.286  32.519  1.00  0.00     0.012 A 
ATOM     23  C   UNL A   1      43.297  30.729  33.116  1.00  0.00     0.012 A 
ATOM     24  C   UNL A   1      45.768  31.244  31.935  1.00  0.00     0.001 A 
ATOM     25  C   UNL A   1      44.013  29.691  32.523  1.00  0.00     0.001 A 
ATOM     26  C   UNL A   1      45.249  29.949  31.934  1.00  0.00     0.000 A 
ENDBRANCH  14  21
ENDBRANCH   9  10
ENDBRANCH   8   9
ENDBRANCH   6   8
ENDBRANCH   5   6
ENDBRANCH   4   5
ENDBRANCH   3   4
ENDBRANCH   2   3
ENDBRANCH   1   2
BRANCH   1  27
ATOM     27  C   UNL A   1      37.692  32.804  34.250  1.00  0.00     0.188 C 
BRANCH  27  28
ATOM     28  O   UNL A   1      37.121  33.115  32.984  1.00  0.00    -0.376 OA
BRANCH  28  29
ATOM     29  C   UNL A   1      35.745  32.759  32.871  1.00  0.00     0.202 C 
BRANCH  29  30
ATOM     30  C   UNL A   1      35.387  31.755  31.760  1.00  0.00     0.261 C 
BRANCH  30  31
ATOM     31  O   UNL A   1      36.467  31.223  30.979  1.00  0.00    -0.460 OA
BRANCH  31  32
ATOM     32  C   UNL A   1      37.143  30.161  31.469  1.00  0.00     0.338 C 
ATOM     33  O   UNL A   1      36.732  29.335  32.261  1.00  0.00    -0.246 OA
BRANCH  32  34
ATOM     34  C   UNL A   1      38.463  30.118  30.802  1.00  0.00     0.060 A 
ATOM     35  C   UNL A   1      38.558  30.361  29.426  1.00  0.00     0.016 A 
ATOM     36  C   UNL A   1      39.607  29.807  31.540  1.00  0.00     0.016 A 
ATOM     37  C   UNL A   1      39.801  30.309  28.787  1.00  0.00     0.010 A 
ATOM     38  C   UNL A   1      40.843  29.717  30.895  1.00  0.00     0.010 A 
ATOM     39  C   UNL A   1      40.946  29.951  29.512  1.00  0.00    -0.014 A 
BRANCH  39  40
ATOM     40  C   UNL A   1      42.211  29.609  28.817  1.00  0.00     0.031 A 
ATOM     41  C   UNL A   1      42.387  28.200  28.323  1.00  0.00     0.074 A 
ATOM     42  C   UNL A   1      43.212  30.498  28.687  1.00  0.00     0.049 A 
ATOM     43  N   UNL A   1      43.443  27.621  27.818  1.00  0.00    -0.248 NA
ATOM     44  C   UNL A   1      41.207  27.325  28.426  1.00  0.00     0.031 C 
ATOM     45  C   UNL A   1      43.156  31.900  29.089  1.00  0.00     0.029 A 
ATOM     46  N   UNL A   1      44.489  30.334  28.203  1.00  0.00    -0.354 N 
ATOM     47  C   UNL A   1      43.064  26.308  27.562  1.00  0.00     0.074 A 
ATOM     48  C   UNL A   1      41.685  26.176  27.977  1.00  0.00     0.031 C 
ATOM     49  C   UNL A   1      44.360  32.461  28.873  1.00  0.00     0.029 A 
ATOM     50  C   UNL A   1      45.279  31.447  28.355  1.00  0.00     0.049 A 
ATOM     51  H   UNL A   1      44.806  29.498  27.789  1.00  0.00     0.167 HD
ATOM     52  C   UNL A   1      43.802  25.299  27.043  1.00  0.00     0.031 A 
ATOM     53  C   UNL A   1      46.601  31.619  28.143  1.00  0.00     0.031 A 
ATOM     54  C   UNL A   1      45.185  25.422  26.672  1.00  0.00     0.049 A 
ATOM     55  C   UNL A   1      47.428  30.467  27.628  1.00  0.00     0.074 A 
ATOM     56  C   UNL A   1      46.017  24.463  26.122  1.00  0.00     0.029 A 
ATOM     57  N   UNL A   1      45.948  26.569  26.839  1.00  0.00    -0.354 N 
ATOM     58  N   UNL A   1      47.049  29.242  27.351  1.00  0.00    -0.248 NA
ATOM     59  C   UNL A   1      48.857  30.721  27.393  1.00  0.00     0.031 C 
ATOM     60  C   UNL A   1      47.299  25.011  26.014  1.00  0.00     0.029 A 
ATOM     61  C   UNL A   1      47.250  26.333  26.432  1.00  0.00     0.049 A 
ATOM     62  H   UNL A   1      45.613  27.423  27.194  1.00  0.00     0.167 HD
ATOM     63  C   UNL A   1      48.186  28.586  26.885  1.00  0.00     0.074 A 
ATOM     64  C   UNL A   1      49.265  29.552  26.913  1.00  0.00     0.031 C 
ATOM     65  C   UNL A   1      48.317  27.304  26.463  1.00  0.00     0.031 A 
BRANCH  52  66
ATOM     66  C   UNL A   1      43.132  23.957  26.919  1.00  0.00    -0.014 A 
ATOM     67  C   UNL A   1      42.753  23.436  25.668  1.00  0.00     0.010 A 
ATOM     68  C   UNL A   1      42.859  23.212  28.080  1.00  0.00     0.010 A 
ATOM     69  C   UNL A   1      42.056  22.228  25.587  1.00  0.00     0.020 A 
ATOM     70  C   UNL A   1      42.189  21.989  28.002  1.00  0.00     0.020 A 
ATOM     71  C   UNL A   1      41.769  21.518  26.756  1.00  0.00     0.054 A 
BRANCH  71  72
ATOM     72  S   UNL A   1      40.839  19.966  26.627  1.00  0.00     0.124 S 
ATOM     73  O   UNL A   1      39.570  20.422  26.067  1.00  0.00    -0.237 OA
ATOM     74  O   UNL A   1      41.670  19.167  25.731  1.00  0.00    -0.237 OA
ATOM     75  O   UNL A   1      40.774  19.485  28.005  1.00  0.00    -0.744 OA
ENDBRANCH  71  72
ENDBRANCH  52  66
BRANCH  53  76
ATOM     76  C   UNL A   1      47.228  32.932  28.461  1.00  0.00    -0.014 A 
ATOM     77  C   UNL A   1      47.854  33.152  29.699  1.00  0.00     0.010 A 
ATOM     78  C   UNL A   1      47.241  33.958  27.497  1.00  0.00     0.010 A 
ATOM     79  C   UNL A   1      48.491  34.370  29.964  1.00  0.00     0.020 A 
ATOM     80  C   UNL A   1      47.898  35.166  27.747  1.00  0.00     0.020 A 
ATOM     81  C   UNL A   1      48.520  35.365  28.981  1.00  0.00     0.054 A 
BRANCH  81  82
ATOM     82  S   UNL A   1      49.440  36.894  29.307  1.00  0.00     0.124 S 
ATOM     83  O   UNL A   1      48.942  37.781  28.260  1.00  0.00    -0.237 OA
ATOM     84  O   UNL A   1      49.024  37.227  30.668  1.00  0.00    -0.237 OA
ATOM     85  O   UNL A   1      50.837  36.489  29.173  1.00  0.00    -0.744 OA
ENDBRANCH  81  82
ENDBRANCH  53  76
BRANCH  65  86
ATOM     86  C   UNL A   1      49.663  26.859  25.951  1.00  0.00    -0.014 A 
ATOM     87  C   UNL A   1      50.098  27.179  24.653  1.00  0.00     0.010 A 
ATOM     88  C   UNL A   1      50.549  26.204  26.829  1.00  0.00     0.010 A 
ATOM     89  C   UNL A   1      51.393  26.845  24.241  1.00  0.00     0.020 A 
ATOM     90  C   UNL A   1      51.851  25.893  26.429  1.00  0.00     0.020 A 
ATOM     91  C   UNL A   1      52.264  26.211  25.134  1.00  0.00     0.054 A 
BRANCH  91  92
ATOM     92  S   UNL A   1      53.964  25.867  24.604  1.00  0.00     0.124 S 
ATOM     93  O   UNL A   1      54.131  24.471  25.001  1.00  0.00    -0.237 OA
ATOM     94  O   UNL A   1      53.906  26.108  23.164  1.00  0.00    -0.237 OA
ATOM     95  O   UNL A   1      54.766  26.829  25.358  1.00  0.00    -0.744 OA
ENDBRANCH  91  92
ENDBRANCH  65  86
ENDBRANCH  39  40
ENDBRANCH  32  34
ENDBRANCH  31  32
ENDBRANCH  30  31
ENDBRANCH  29  30
ENDBRANCH  28  29
ENDBRANCH  27  28
ENDBRANCH   1  27
TORSDOF 24
ENDMDL
