MODEL 1
REMARK VINA RESULT:     -10.3      0.000      0.000
REMARK SMILES Cc1ccc(C(F)(F)F)cc1-c1ccc(/C=C/C(=O)OCCOCCOCCOC(=O)c2ccc(-c3c4nc(c(-c5ccc(S(=O)(=O)[O-])cc5)c5ccc([nH]5)c(-c5ccc(S(=O)(=O)[O-])cc5)c5nc(c(-c6ccc(S(=O)(=O)[O-])cc6)c6ccc3[nH]6)C=C5)C=C4)cc2)s1
REMARK SMILES IDX 24 1 23 2 22 3 21 4 20 5 18 6 19 7 17 8 16 9 15 10 12 11
REMARK SMILES IDX 13 12 92 13 14 14 11 15 1 16 2 17 3 18 4 19 10 20 5 21 6 22
REMARK SMILES IDX 7 23 8 24 9 25 25 26 26 27 27 28 28 29 29 30 30 31 31 32
REMARK SMILES IDX 32 33 33 34 91 35 34 36 90 37 35 38 36 39 37 40 84 41 38 42
REMARK SMILES IDX 89 43 83 44 85 45 39 46 88 47 82 48 81 49 40 51 70 52 51 53
REMARK SMILES IDX 69 54 52 55 55 56 68 57 86 58 53 59 54 60 67 62 87 63 56 64
REMARK SMILES IDX 41 65 42 66 50 67 43 68 49 69 44 70 45 71 46 72 47 73 48 74
REMARK SMILES IDX 71 75 72 76 80 77 73 78 79 79 74 80 75 81 76 82 77 83 78 84
REMARK SMILES IDX 57 85 58 86 66 87 59 88 65 89 60 90 61 91 62 92 63 93 64 94
REMARK H PARENT 85 50 55 61
REMARK Flexibility Score: inf
ROOT
ATOM      1  C   UNL A   1      44.370  19.976  25.156  1.00  0.00     0.188 C 
ENDROOT
BRANCH   1   2
ATOM      2  O   UNL A   1      43.151  20.707  25.277  1.00  0.00    -0.376 OA
BRANCH   2   3
ATOM      3  C   UNL A   1      42.087  20.706  26.239  1.00  0.00     0.202 C 
BRANCH   3   4
ATOM      4  C   UNL A   1      41.518  21.671  27.537  1.00  0.00     0.261 C 
BRANCH   4   5
ATOM      5  O   UNL A   1      40.780  23.221  27.829  1.00  0.00    -0.460 OA
BRANCH   5   6
ATOM      6  C   UNL A   1      40.342  24.436  27.245  1.00  0.00     0.330 C 
ATOM      7  O   UNL A   1      40.751  25.590  27.369  1.00  0.00    -0.247 OA
BRANCH   6   8
ATOM      8  C   UNL A   1      39.246  24.508  26.284  1.00  0.00     0.095 C 
ATOM      9  C   UNL A   1      38.048  24.070  26.711  1.00  0.00     0.026 C 
BRANCH   9  10
ATOM     10  C   UNL A   1      37.213  23.341  25.807  1.00  0.00     0.028 A 
ATOM     11  C   UNL A   1      35.553  21.757  24.788  1.00  0.00     0.035 A 
ATOM     12  C   UNL A   1      36.285  22.461  23.849  1.00  0.00     0.021 A 
ATOM     13  S   UNL A   1      35.983  22.255  26.375  1.00  0.00    -0.136 S 
ATOM     14  C   UNL A   1      37.235  23.349  24.428  1.00  0.00     0.020 A 
BRANCH  11  15
ATOM     15  C   UNL A   1      34.542  20.708  24.528  1.00  0.00    -0.005 A 
ATOM     16  C   UNL A   1      32.702  22.458  24.165  1.00  0.00     0.045 C 
ATOM     17  C   UNL A   1      33.180  21.037  24.325  1.00  0.00    -0.042 A 
ATOM     18  C   UNL A   1      32.211  20.018  24.295  1.00  0.00     0.005 A 
ATOM     19  C   UNL A   1      32.579  18.679  24.401  1.00  0.00     0.013 A 
ATOM     20  C   UNL A   1      34.899  19.348  24.596  1.00  0.00     0.023 A 
ATOM     21  C   UNL A   1      33.929  18.327  24.522  1.00  0.00     0.056 A 
BRANCH  21  22
ATOM     22  C   UNL A   1      34.303  16.869  24.623  1.00  0.00     0.416 C 
ATOM     23  F   UNL A   1      35.599  16.697  25.019  1.00  0.00    -0.166 F 
ATOM     24  F   UNL A   1      33.554  16.193  25.541  1.00  0.00    -0.166 F 
ATOM     25  F   UNL A   1      34.178  16.179  23.458  1.00  0.00    -0.166 F 
ENDBRANCH  21  22
ENDBRANCH  11  15
ENDBRANCH   9  10
ENDBRANCH   6   8
ENDBRANCH   5   6
ENDBRANCH   4   5
ENDBRANCH   3   4
ENDBRANCH   2   3
ENDBRANCH   1   2
BRANCH   1  26
ATOM     26  C   UNL A   1      45.696  20.638  24.916  1.00  0.00     0.188 C 
BRANCH  26  27
ATOM     27  O   UNL A   1      45.480  21.917  24.357  1.00  0.00    -0.376 OA
BRANCH  27  28
ATOM     28  C   UNL A   1      45.977  22.977  25.145  1.00  0.00     0.202 C 
BRANCH  28  29
ATOM     29  C   UNL A   1      45.336  23.116  26.541  1.00  0.00     0.261 C 
BRANCH  29  30
ATOM     30  O   UNL A   1      44.049  23.790  26.546  1.00  0.00    -0.460 OA
BRANCH  30  31
ATOM     31  C   UNL A   1      43.960  25.126  26.184  1.00  0.00     0.338 C 
ATOM     32  O   UNL A   1      43.418  25.470  25.140  1.00  0.00    -0.246 OA
BRANCH  31  33
ATOM     33  C   UNL A   1      44.263  26.028  27.341  1.00  0.00     0.060 A 
ATOM     34  C   UNL A   1      44.075  25.909  28.722  1.00  0.00     0.016 A 
ATOM     35  C   UNL A   1      44.798  27.202  26.974  1.00  0.00     0.016 A 
ATOM     36  C   UNL A   1      44.115  27.066  29.643  1.00  0.00     0.010 A 
ATOM     37  C   UNL A   1      44.676  28.273  27.855  1.00  0.00     0.010 A 
ATOM     38  C   UNL A   1      44.283  28.383  29.214  1.00  0.00    -0.014 A 
BRANCH  38  39
ATOM     39  C   UNL A   1      44.074  29.810  30.156  1.00  0.00     0.031 A 
ATOM     40  C   UNL A   1      42.732  30.713  30.520  1.00  0.00     0.074 A 
ATOM     41  C   UNL A   1      45.168  30.425  30.652  1.00  0.00     0.049 A 
ATOM     42  N   UNL A   1      42.305  31.813  29.919  1.00  0.00    -0.248 NA
ATOM     43  C   UNL A   1      41.716  30.358  31.553  1.00  0.00     0.031 C 
ATOM     44  C   UNL A   1      45.243  31.549  31.587  1.00  0.00     0.029 A 
ATOM     45  N   UNL A   1      46.500  30.144  30.364  1.00  0.00    -0.354 N 
ATOM     46  C   UNL A   1      41.019  32.097  30.439  1.00  0.00     0.074 A 
ATOM     47  C   UNL A   1      40.590  30.900  31.083  1.00  0.00     0.031 C 
ATOM     48  C   UNL A   1      46.497  32.040  31.558  1.00  0.00     0.029 A 
ATOM     49  C   UNL A   1      47.220  31.325  30.514  1.00  0.00     0.049 A 
ATOM     50  H   UNL A   1      46.866  29.269  30.102  1.00  0.00     0.167 HD
ATOM     51  C   UNL A   1      40.549  33.286  30.952  1.00  0.00     0.031 A 
ATOM     52  C   UNL A   1      47.796  31.866  29.404  1.00  0.00     0.031 A 
ATOM     53  C   UNL A   1      41.671  34.150  31.200  1.00  0.00     0.049 A 
ATOM     54  C   UNL A   1      47.124  33.177  29.069  1.00  0.00     0.074 A 
ATOM     55  C   UNL A   1      42.484  34.298  32.313  1.00  0.00     0.029 A 
ATOM     56  N   UNL A   1      42.368  34.633  30.116  1.00  0.00    -0.354 N 
ATOM     57  N   UNL A   1      45.919  33.509  29.461  1.00  0.00    -0.248 NA
ATOM     58  C   UNL A   1      47.799  34.262  28.367  1.00  0.00     0.031 C 
ATOM     59  C   UNL A   1      43.753  34.738  31.849  1.00  0.00     0.029 A 
ATOM     60  C   UNL A   1      43.665  34.927  30.479  1.00  0.00     0.049 A 
ATOM     61  H   UNL A   1      41.994  34.752  29.214  1.00  0.00     0.167 HD
ATOM     62  C   UNL A   1      45.678  34.813  29.139  1.00  0.00     0.074 A 
ATOM     63  C   UNL A   1      46.881  35.240  28.448  1.00  0.00     0.031 C 
ATOM     64  C   UNL A   1      44.539  35.484  29.470  1.00  0.00     0.031 A 
BRANCH  51  65
ATOM     65  C   UNL A   1      39.191  33.358  31.690  1.00  0.00    -0.014 A 
ATOM     66  C   UNL A   1      37.993  33.718  31.041  1.00  0.00     0.010 A 
ATOM     67  C   UNL A   1      39.089  33.128  33.087  1.00  0.00     0.010 A 
ATOM     68  C   UNL A   1      36.793  33.945  31.755  1.00  0.00     0.020 A 
ATOM     69  C   UNL A   1      37.910  33.395  33.816  1.00  0.00     0.020 A 
ATOM     70  C   UNL A   1      36.764  33.810  33.144  1.00  0.00     0.054 A 
BRANCH  70  71
ATOM     71  S   UNL A   1      35.236  34.206  34.057  1.00  0.00     0.124 S 
ATOM     72  O   UNL A   1      35.584  33.863  35.434  1.00  0.00    -0.237 OA
ATOM     73  O   UNL A   1      35.068  35.631  33.787  1.00  0.00    -0.237 OA
ATOM     74  O   UNL A   1      34.231  33.336  33.448  1.00  0.00    -0.744 OA
ENDBRANCH  70  71
ENDBRANCH  51  65
BRANCH  52  75
ATOM     75  C   UNL A   1      48.411  30.835  28.489  1.00  0.00    -0.014 A 
ATOM     76  C   UNL A   1      49.373  29.972  29.078  1.00  0.00     0.010 A 
ATOM     77  C   UNL A   1      47.858  30.434  27.261  1.00  0.00     0.010 A 
ATOM     78  C   UNL A   1      49.633  28.693  28.570  1.00  0.00     0.020 A 
ATOM     79  C   UNL A   1      48.145  29.150  26.723  1.00  0.00     0.020 A 
ATOM     80  C   UNL A   1      48.976  28.266  27.422  1.00  0.00     0.054 A 
BRANCH  80  81
ATOM     81  S   UNL A   1      49.099  26.491  27.004  1.00  0.00     0.124 S 
ATOM     82  O   UNL A   1      48.009  25.907  27.780  1.00  0.00    -0.237 OA
ATOM     83  O   UNL A   1      48.894  26.506  25.554  1.00  0.00    -0.237 OA
ATOM     84  O   UNL A   1      50.440  26.123  27.444  1.00  0.00    -0.744 OA
ENDBRANCH  80  81
ENDBRANCH  52  75
BRANCH  64  85
ATOM     85  C   UNL A   1      44.112  36.788  28.857  1.00  0.00    -0.014 A 
ATOM     86  C   UNL A   1      44.473  38.026  29.402  1.00  0.00     0.010 A 
ATOM     87  C   UNL A   1      43.503  36.785  27.578  1.00  0.00     0.010 A 
ATOM     88  C   UNL A   1      44.158  39.216  28.744  1.00  0.00     0.020 A 
ATOM     89  C   UNL A   1      43.248  37.963  26.882  1.00  0.00     0.020 A 
ATOM     90  C   UNL A   1      43.540  39.176  27.494  1.00  0.00     0.054 A 
BRANCH  90  91
ATOM     91  S   UNL A   1      43.150  40.719  26.642  1.00  0.00     0.124 S 
ATOM     92  O   UNL A   1      43.627  41.710  27.602  1.00  0.00    -0.237 OA
ATOM     93  O   UNL A   1      43.924  40.620  25.407  1.00  0.00    -0.237 OA
ATOM     94  O   UNL A   1      41.701  40.657  26.469  1.00  0.00    -0.744 OA
ENDBRANCH  90  91
ENDBRANCH  64  85
ENDBRANCH  38  39
ENDBRANCH  31  33
ENDBRANCH  30  31
ENDBRANCH  29  30
ENDBRANCH  28  29
ENDBRANCH  27  28
ENDBRANCH  26  27
ENDBRANCH   1  26
TORSDOF 23
ENDMDL
MODEL 2
REMARK VINA RESULT:     -10.2      6.345     12.101
REMARK SMILES Cc1ccc(C(F)(F)F)cc1-c1ccc(/C=C/C(=O)OCCOCCOCCOC(=O)c2ccc(-c3c4nc(c(-c5ccc(S(=O)(=O)[O-])cc5)c5ccc([nH]5)c(-c5ccc(S(=O)(=O)[O-])cc5)c5nc(c(-c6ccc(S(=O)(=O)[O-])cc6)c6ccc3[nH]6)C=C5)C=C4)cc2)s1
REMARK SMILES IDX 24 1 23 2 22 3 21 4 20 5 18 6 19 7 17 8 16 9 15 10 12 11
REMARK SMILES IDX 13 12 92 13 14 14 11 15 1 16 2 17 3 18 4 19 10 20 5 21 6 22
REMARK SMILES IDX 7 23 8 24 9 25 25 26 26 27 27 28 28 29 29 30 30 31 31 32
REMARK SMILES IDX 32 33 33 34 91 35 34 36 90 37 35 38 36 39 37 40 84 41 38 42
REMARK SMILES IDX 89 43 83 44 85 45 39 46 88 47 82 48 81 49 40 51 70 52 51 53
REMARK SMILES IDX 69 54 52 55 55 56 68 57 86 58 53 59 54 60 67 62 87 63 56 64
REMARK SMILES IDX 41 65 42 66 50 67 43 68 49 69 44 70 45 71 46 72 47 73 48 74
REMARK SMILES IDX 71 75 72 76 80 77 73 78 79 79 74 80 75 81 76 82 77 83 78 84
REMARK SMILES IDX 57 85 58 86 66 87 59 88 65 89 60 90 61 91 62 92 63 93 64 94
REMARK H PARENT 85 50 55 61
REMARK Flexibility Score: inf
ROOT
ATOM      1  C   UNL A   1      44.918  19.082  24.572  1.00  0.00     0.188 C 
ENDROOT
BRANCH   1   2
ATOM      2  O   UNL A   1      43.597  19.583  24.777  1.00  0.00    -0.376 OA
BRANCH   2   3
ATOM      3  C   UNL A   1      42.636  19.437  25.832  1.00  0.00     0.202 C 
BRANCH   3   4
ATOM      4  C   UNL A   1      41.949  20.374  27.093  1.00  0.00     0.261 C 
BRANCH   4   5
ATOM      5  O   UNL A   1      41.058  21.853  27.329  1.00  0.00    -0.460 OA
BRANCH   5   6
ATOM      6  C   UNL A   1      40.582  23.040  26.719  1.00  0.00     0.330 C 
ATOM      7  O   UNL A   1      41.181  23.978  26.193  1.00  0.00    -0.247 OA
BRANCH   6   8
ATOM      8  C   UNL A   1      39.163  23.351  26.580  1.00  0.00     0.095 C 
ATOM      9  C   UNL A   1      38.363  22.334  26.211  1.00  0.00     0.026 C 
BRANCH   9  10
ATOM     10  C   UNL A   1      37.288  22.591  25.303  1.00  0.00     0.028 A 
ATOM     11  C   UNL A   1      35.094  23.244  24.273  1.00  0.00     0.035 A 
ATOM     12  C   UNL A   1      35.949  22.615  23.386  1.00  0.00     0.021 A 
ATOM     13  S   UNL A   1      35.854  23.434  25.801  1.00  0.00    -0.136 S 
ATOM     14  C   UNL A   1      37.188  22.233  23.975  1.00  0.00     0.020 A 
BRANCH  11  15
ATOM     15  C   UNL A   1      33.712  23.700  24.008  1.00  0.00    -0.005 A 
ATOM     16  C   UNL A   1      32.725  21.763  25.370  1.00  0.00     0.045 C 
ATOM     17  C   UNL A   1      32.595  22.949  24.450  1.00  0.00    -0.042 A 
ATOM     18  C   UNL A   1      31.304  23.287  24.002  1.00  0.00     0.005 A 
ATOM     19  C   UNL A   1      31.100  24.390  23.178  1.00  0.00     0.013 A 
ATOM     20  C   UNL A   1      33.481  24.833  23.205  1.00  0.00     0.023 A 
ATOM     21  C   UNL A   1      32.181  25.194  22.795  1.00  0.00     0.056 A 
BRANCH  21  22
ATOM     22  C   UNL A   1      31.932  26.390  21.911  1.00  0.00     0.416 C 
ATOM     23  F   UNL A   1      30.940  27.192  22.399  1.00  0.00    -0.166 F 
ATOM     24  F   UNL A   1      33.024  27.200  21.797  1.00  0.00    -0.166 F 
ATOM     25  F   UNL A   1      31.563  26.078  20.640  1.00  0.00    -0.166 F 
ENDBRANCH  21  22
ENDBRANCH  11  15
ENDBRANCH   9  10
ENDBRANCH   6   8
ENDBRANCH   5   6
ENDBRANCH   4   5
ENDBRANCH   3   4
ENDBRANCH   2   3
ENDBRANCH   1   2
BRANCH   1  26
ATOM     26  C   UNL A   1      46.119  19.645  25.276  1.00  0.00     0.188 C 
BRANCH  26  27
ATOM     27  O   UNL A   1      46.525  20.829  24.623  1.00  0.00    -0.376 OA
BRANCH  27  28
ATOM     28  C   UNL A   1      46.036  22.010  25.220  1.00  0.00     0.202 C 
BRANCH  28  29
ATOM     29  C   UNL A   1      45.344  22.995  24.257  1.00  0.00     0.261 C 
BRANCH  29  30
ATOM     30  O   UNL A   1      45.628  24.395  24.524  1.00  0.00    -0.460 OA
BRANCH  30  31
ATOM     31  C   UNL A   1      46.936  24.821  24.696  1.00  0.00     0.338 C 
ATOM     32  O   UNL A   1      47.732  24.836  23.764  1.00  0.00    -0.246 OA
BRANCH  31  33
ATOM     33  C   UNL A   1      47.107  25.554  25.991  1.00  0.00     0.060 A 
ATOM     34  C   UNL A   1      47.905  26.634  26.381  1.00  0.00     0.016 A 
ATOM     35  C   UNL A   1      46.363  25.053  26.988  1.00  0.00     0.016 A 
ATOM     36  C   UNL A   1      48.181  26.962  27.797  1.00  0.00     0.010 A 
ATOM     37  C   UNL A   1      46.772  25.307  28.294  1.00  0.00     0.010 A 
ATOM     38  C   UNL A   1      47.722  26.192  28.867  1.00  0.00    -0.014 A 
BRANCH  38  39
ATOM     39  C   UNL A   1      48.205  26.323  30.515  1.00  0.00     0.031 A 
ATOM     40  C   UNL A   1      49.472  25.662  31.356  1.00  0.00     0.074 A 
ATOM     41  C   UNL A   1      47.409  26.996  31.372  1.00  0.00     0.049 A 
ATOM     42  N   UNL A   1      49.468  24.571  32.107  1.00  0.00    -0.248 NA
ATOM     43  C   UNL A   1      50.878  26.159  31.318  1.00  0.00     0.031 C 
ATOM     44  C   UNL A   1      47.667  27.365  32.765  1.00  0.00     0.029 A 
ATOM     45  N   UNL A   1      46.128  27.482  31.132  1.00  0.00    -0.354 N 
ATOM     46  C   UNL A   1      50.816  24.292  32.441  1.00  0.00     0.074 A 
ATOM     47  C   UNL A   1      51.604  25.061  31.535  1.00  0.00     0.031 C 
ATOM     48  C   UNL A   1      46.501  27.736  33.326  1.00  0.00     0.029 A 
ATOM     49  C   UNL A   1      45.449  27.494  32.347  1.00  0.00     0.049 A 
ATOM     50  H   UNL A   1      45.767  27.765  30.262  1.00  0.00     0.167 HD
ATOM     51  C   UNL A   1      51.354  24.047  33.685  1.00  0.00     0.031 A 
ATOM     52  C   UNL A   1      44.379  26.663  32.487  1.00  0.00     0.031 A 
ATOM     53  C   UNL A   1      50.395  24.441  34.682  1.00  0.00     0.049 A 
ATOM     54  C   UNL A   1      44.693  25.596  33.508  1.00  0.00     0.074 A 
ATOM     55  C   UNL A   1      50.177  25.657  35.311  1.00  0.00     0.029 A 
ATOM     56  N   UNL A   1      49.236  23.708  34.790  1.00  0.00    -0.354 N 
ATOM     57  N   UNL A   1      45.906  25.233  33.847  1.00  0.00    -0.248 NA
ATOM     58  C   UNL A   1      43.672  24.937  34.313  1.00  0.00     0.031 C 
ATOM     59  C   UNL A   1      48.801  25.703  35.665  1.00  0.00     0.029 A 
ATOM     60  C   UNL A   1      48.231  24.488  35.320  1.00  0.00     0.049 A 
ATOM     61  H   UNL A   1      49.139  22.765  34.528  1.00  0.00     0.167 HD
ATOM     62  C   UNL A   1      45.847  24.377  34.907  1.00  0.00     0.074 A 
ATOM     63  C   UNL A   1      44.426  24.214  35.158  1.00  0.00     0.031 C 
ATOM     64  C   UNL A   1      46.941  23.870  35.541  1.00  0.00     0.031 A 
BRANCH  51  65
ATOM     65  C   UNL A   1      52.885  23.990  33.897  1.00  0.00    -0.014 A 
ATOM     66  C   UNL A   1      53.691  22.977  33.340  1.00  0.00     0.010 A 
ATOM     67  C   UNL A   1      53.558  24.925  34.727  1.00  0.00     0.010 A 
ATOM     68  C   UNL A   1      55.058  22.836  33.677  1.00  0.00     0.020 A 
ATOM     69  C   UNL A   1      54.909  24.769  35.106  1.00  0.00     0.020 A 
ATOM     70  C   UNL A   1      55.654  23.717  34.581  1.00  0.00     0.054 A 
BRANCH  70  71
ATOM     71  S   UNL A   1      57.389  23.458  35.081  1.00  0.00     0.124 S 
ATOM     72  O   UNL A   1      57.834  24.809  35.416  1.00  0.00    -0.237 OA
ATOM     73  O   UNL A   1      57.258  22.542  36.210  1.00  0.00    -0.237 OA
ATOM     74  O   UNL A   1      58.014  22.890  33.888  1.00  0.00    -0.744 OA
ENDBRANCH  70  71
ENDBRANCH  51  65
BRANCH  52  75
ATOM     75  C   UNL A   1      43.513  26.593  31.253  1.00  0.00    -0.014 A 
ATOM     76  C   UNL A   1      42.761  27.760  30.951  1.00  0.00     0.010 A 
ATOM     77  C   UNL A   1      43.674  25.652  30.223  1.00  0.00     0.010 A 
ATOM     78  C   UNL A   1      42.352  28.063  29.646  1.00  0.00     0.020 A 
ATOM     79  C   UNL A   1      43.231  25.939  28.904  1.00  0.00     0.020 A 
ATOM     80  C   UNL A   1      42.637  27.174  28.616  1.00  0.00     0.054 A 
BRANCH  80  81
ATOM     81  S   UNL A   1      42.381  27.771  26.907  1.00  0.00     0.124 S 
ATOM     82  O   UNL A   1      43.528  27.208  26.201  1.00  0.00    -0.237 OA
ATOM     83  O   UNL A   1      41.086  27.175  26.569  1.00  0.00    -0.237 OA
ATOM     84  O   UNL A   1      42.388  29.223  27.042  1.00  0.00    -0.744 OA
ENDBRANCH  80  81
ENDBRANCH  52  75
BRANCH  64  85
ATOM     85  C   UNL A   1      46.912  22.693  36.477  1.00  0.00    -0.014 A 
ATOM     86  C   UNL A   1      46.901  22.842  37.869  1.00  0.00     0.010 A 
ATOM     87  C   UNL A   1      46.680  21.398  35.951  1.00  0.00     0.010 A 
ATOM     88  C   UNL A   1      46.758  21.734  38.705  1.00  0.00     0.020 A 
ATOM     89  C   UNL A   1      46.465  20.298  36.777  1.00  0.00     0.020 A 
ATOM     90  C   UNL A   1      46.550  20.469  38.153  1.00  0.00     0.054 A 
BRANCH  90  91
ATOM     91  S   UNL A   1      46.349  19.044  39.241  1.00  0.00     0.124 S 
ATOM     92  O   UNL A   1      47.722  18.554  39.337  1.00  0.00    -0.237 OA
ATOM     93  O   UNL A   1      45.808  19.634  40.464  1.00  0.00    -0.237 OA
ATOM     94  O   UNL A   1      45.423  18.183  38.511  1.00  0.00    -0.744 OA
ENDBRANCH  90  91
ENDBRANCH  64  85
ENDBRANCH  38  39
ENDBRANCH  31  33
ENDBRANCH  30  31
ENDBRANCH  29  30
ENDBRANCH  28  29
ENDBRANCH  27  28
ENDBRANCH  26  27
ENDBRANCH   1  26
TORSDOF 23
ENDMDL
MODEL 3
REMARK VINA RESULT:     -10.0      4.971     11.805
REMARK SMILES Cc1ccc(C(F)(F)F)cc1-c1ccc(/C=C/C(=O)OCCOCCOCCOC(=O)c2ccc(-c3c4nc(c(-c5ccc(S(=O)(=O)[O-])cc5)c5ccc([nH]5)c(-c5ccc(S(=O)(=O)[O-])cc5)c5nc(c(-c6ccc(S(=O)(=O)[O-])cc6)c6ccc3[nH]6)C=C5)C=C4)cc2)s1
REMARK SMILES IDX 24 1 23 2 22 3 21 4 20 5 18 6 19 7 17 8 16 9 15 10 12 11
REMARK SMILES IDX 13 12 92 13 14 14 11 15 1 16 2 17 3 18 4 19 10 20 5 21 6 22
REMARK SMILES IDX 7 23 8 24 9 25 25 26 26 27 27 28 28 29 29 30 30 31 31 32
REMARK SMILES IDX 32 33 33 34 91 35 34 36 90 37 35 38 36 39 37 40 84 41 38 42
REMARK SMILES IDX 89 43 83 44 85 45 39 46 88 47 82 48 81 49 40 51 70 52 51 53
REMARK SMILES IDX 69 54 52 55 55 56 68 57 86 58 53 59 54 60 67 62 87 63 56 64
REMARK SMILES IDX 41 65 42 66 50 67 43 68 49 69 44 70 45 71 46 72 47 73 48 74
REMARK SMILES IDX 71 75 72 76 80 77 73 78 79 79 74 80 75 81 76 82 77 83 78 84
REMARK SMILES IDX 57 85 58 86 66 87 59 88 65 89 60 90 61 91 62 92 63 93 64 94
REMARK H PARENT 85 50 55 61
REMARK Flexibility Score: inf
ROOT
ATOM      1  C   UNL A   1      32.593  27.456  23.964  1.00  0.00     0.188 C 
ENDROOT
BRANCH   1   2
ATOM      2  O   UNL A   1      33.063  26.162  23.589  1.00  0.00    -0.376 OA
BRANCH   2   3
ATOM      3  C   UNL A   1      32.758  24.831  24.031  1.00  0.00     0.202 C 
BRANCH   3   4
ATOM      4  C   UNL A   1      33.566  23.476  24.702  1.00  0.00     0.261 C 
BRANCH   4   5
ATOM      5  O   UNL A   1      35.062  22.597  24.546  1.00  0.00    -0.460 OA
BRANCH   5   6
ATOM      6  C   UNL A   1      36.292  22.499  23.850  1.00  0.00     0.330 C 
ATOM      7  O   UNL A   1      36.678  23.025  22.806  1.00  0.00    -0.247 OA
BRANCH   6   8
ATOM      8  C   UNL A   1      37.418  21.702  24.329  1.00  0.00     0.095 C 
ATOM      9  C   UNL A   1      37.678  21.771  25.647  1.00  0.00     0.026 C 
BRANCH   9  10
ATOM     10  C   UNL A   1      39.040  21.784  26.086  1.00  0.00     0.028 A 
ATOM     11  C   UNL A   1      41.321  22.471  26.876  1.00  0.00     0.035 A 
ATOM     12  C   UNL A   1      41.232  21.127  26.565  1.00  0.00     0.021 A 
ATOM     13  S   UNL A   1      39.794  23.232  26.678  1.00  0.00    -0.136 S 
ATOM     14  C   UNL A   1      39.941  20.741  26.103  1.00  0.00     0.020 A 
BRANCH  11  15
ATOM     15  C   UNL A   1      42.528  23.208  27.311  1.00  0.00    -0.005 A 
ATOM     16  C   UNL A   1      43.450  23.273  24.918  1.00  0.00     0.045 C 
ATOM     17  C   UNL A   1      43.573  23.505  26.402  1.00  0.00    -0.042 A 
ATOM     18  C   UNL A   1      44.795  24.011  26.882  1.00  0.00     0.005 A 
ATOM     19  C   UNL A   1      44.972  24.284  28.236  1.00  0.00     0.013 A 
ATOM     20  C   UNL A   1      42.714  23.526  28.670  1.00  0.00     0.023 A 
ATOM     21  C   UNL A   1      43.924  24.074  29.141  1.00  0.00     0.056 A 
BRANCH  21  22
ATOM     22  C   UNL A   1      44.137  24.389  30.600  1.00  0.00     0.416 C 
ATOM     23  F   UNL A   1      43.782  23.348  31.409  1.00  0.00    -0.166 F 
ATOM     24  F   UNL A   1      45.444  24.647  30.900  1.00  0.00    -0.166 F 
ATOM     25  F   UNL A   1      43.433  25.462  31.048  1.00  0.00    -0.166 F 
ENDBRANCH  21  22
ENDBRANCH  11  15
ENDBRANCH   9  10
ENDBRANCH   6   8
ENDBRANCH   5   6
ENDBRANCH   4   5
ENDBRANCH   3   4
ENDBRANCH   2   3
ENDBRANCH   1   2
BRANCH   1  26
ATOM     26  C   UNL A   1      32.889  28.074  25.299  1.00  0.00     0.188 C 
BRANCH  26  27
ATOM     27  O   UNL A   1      33.261  29.423  25.113  1.00  0.00    -0.376 OA
BRANCH  27  28
ATOM     28  C   UNL A   1      32.510  30.336  25.885  1.00  0.00     0.202 C 
BRANCH  28  29
ATOM     29  C   UNL A   1      32.639  30.166  27.412  1.00  0.00     0.261 C 
BRANCH  29  30
ATOM     30  O   UNL A   1      34.008  30.103  27.896  1.00  0.00    -0.460 OA
BRANCH  30  31
ATOM     31  C   UNL A   1      34.640  31.249  28.353  1.00  0.00     0.338 C 
ATOM     32  O   UNL A   1      34.036  32.099  28.996  1.00  0.00    -0.246 OA
BRANCH  31  33
ATOM     33  C   UNL A   1      36.131  31.120  28.274  1.00  0.00     0.060 A 
ATOM     34  C   UNL A   1      36.983  30.060  27.949  1.00  0.00     0.016 A 
ATOM     35  C   UNL A   1      36.781  32.243  28.613  1.00  0.00     0.016 A 
ATOM     36  C   UNL A   1      38.424  30.052  28.285  1.00  0.00     0.010 A 
ATOM     37  C   UNL A   1      38.100  32.124  29.040  1.00  0.00     0.010 A 
ATOM     38  C   UNL A   1      39.049  31.070  29.007  1.00  0.00    -0.014 A 
BRANCH  38  39
ATOM     39  C   UNL A   1      40.634  31.034  29.681  1.00  0.00     0.031 A 
ATOM     40  C   UNL A   1      42.013  30.231  29.232  1.00  0.00     0.074 A 
ATOM     41  C   UNL A   1      40.858  31.680  30.845  1.00  0.00     0.049 A 
ATOM     42  N   UNL A   1      42.476  29.084  29.704  1.00  0.00    -0.248 NA
ATOM     43  C   UNL A   1      42.923  30.646  28.124  1.00  0.00     0.031 C 
ATOM     44  C   UNL A   1      42.128  31.916  31.532  1.00  0.00     0.029 A 
ATOM     45  N   UNL A   1      39.913  32.259  31.686  1.00  0.00    -0.354 N 
ATOM     46  C   UNL A   1      43.556  28.698  28.872  1.00  0.00     0.074 A 
ATOM     47  C   UNL A   1      43.437  29.492  27.693  1.00  0.00     0.031 C 
ATOM     48  C   UNL A   1      41.860  32.307  32.792  1.00  0.00     0.029 A 
ATOM     49  C   UNL A   1      40.419  32.211  32.982  1.00  0.00     0.049 A 
ATOM     50  H   UNL A   1      39.045  32.635  31.414  1.00  0.00     0.167 HD
ATOM     51  C   UNL A   1      44.827  28.319  29.244  1.00  0.00     0.031 A 
ATOM     52  C   UNL A   1      39.765  31.435  33.891  1.00  0.00     0.031 A 
ATOM     53  C   UNL A   1      45.027  28.685  30.620  1.00  0.00     0.049 A 
ATOM     54  C   UNL A   1      40.639  30.270  34.289  1.00  0.00     0.074 A 
ATOM     55  C   UNL A   1      45.496  29.855  31.197  1.00  0.00     0.029 A 
ATOM     56  N   UNL A   1      44.303  28.016  31.580  1.00  0.00    -0.354 N 
ATOM     57  N   UNL A   1      41.629  29.809  33.565  1.00  0.00    -0.248 NA
ATOM     58  C   UNL A   1      40.545  29.608  35.585  1.00  0.00     0.031 C 
ATOM     59  C   UNL A   1      44.903  29.953  32.485  1.00  0.00     0.029 A 
ATOM     60  C   UNL A   1      44.154  28.807  32.698  1.00  0.00     0.049 A 
ATOM     61  H   UNL A   1      43.944  27.105  31.482  1.00  0.00     0.167 HD
ATOM     62  C   UNL A   1      42.319  28.872  34.278  1.00  0.00     0.074 A 
ATOM     63  C   UNL A   1      41.598  28.774  35.533  1.00  0.00     0.031 C 
ATOM     64  C   UNL A   1      43.446  28.250  33.831  1.00  0.00     0.031 A 
BRANCH  51  65
ATOM     65  C   UNL A   1      45.951  28.154  28.195  1.00  0.00    -0.014 A 
ATOM     66  C   UNL A   1      45.756  27.481  26.972  1.00  0.00     0.010 A 
ATOM     67  C   UNL A   1      47.272  28.617  28.438  1.00  0.00     0.010 A 
ATOM     68  C   UNL A   1      46.829  27.188  26.098  1.00  0.00     0.020 A 
ATOM     69  C   UNL A   1      48.357  28.292  27.596  1.00  0.00     0.020 A 
ATOM     70  C   UNL A   1      48.130  27.570  26.428  1.00  0.00     0.054 A 
BRANCH  70  71
ATOM     71  S   UNL A   1      49.513  27.094  25.339  1.00  0.00     0.124 S 
ATOM     72  O   UNL A   1      50.655  27.089  26.250  1.00  0.00    -0.237 OA
ATOM     73  O   UNL A   1      49.093  25.784  24.850  1.00  0.00    -0.237 OA
ATOM     74  O   UNL A   1      49.544  28.153  24.331  1.00  0.00    -0.744 OA
ENDBRANCH  70  71
ENDBRANCH  51  65
BRANCH  52  75
ATOM     75  C   UNL A   1      38.263  31.520  33.778  1.00  0.00    -0.014 A 
ATOM     76  C   UNL A   1      37.616  32.396  34.690  1.00  0.00     0.010 A 
ATOM     77  C   UNL A   1      37.529  31.113  32.651  1.00  0.00     0.010 A 
ATOM     78  C   UNL A   1      36.377  32.985  34.403  1.00  0.00     0.020 A 
ATOM     79  C   UNL A   1      36.257  31.682  32.372  1.00  0.00     0.020 A 
ATOM     80  C   UNL A   1      35.726  32.665  33.217  1.00  0.00     0.054 A 
BRANCH  80  81
ATOM     81  S   UNL A   1      34.298  33.703  32.745  1.00  0.00     0.124 S 
ATOM     82  O   UNL A   1      34.352  33.672  31.287  1.00  0.00    -0.237 OA
ATOM     83  O   UNL A   1      33.180  32.971  33.345  1.00  0.00    -0.237 OA
ATOM     84  O   UNL A   1      34.595  34.997  33.349  1.00  0.00    -0.744 OA
ENDBRANCH  80  81
ENDBRANCH  52  75
BRANCH  64  85
ATOM     85  C   UNL A   1      44.026  27.003  34.439  1.00  0.00    -0.014 A 
ATOM     86  C   UNL A   1      43.327  25.791  34.472  1.00  0.00     0.010 A 
ATOM     87  C   UNL A   1      45.395  26.984  34.804  1.00  0.00     0.010 A 
ATOM     88  C   UNL A   1      43.938  24.626  34.939  1.00  0.00     0.020 A 
ATOM     89  C   UNL A   1      46.032  25.813  35.204  1.00  0.00     0.020 A 
ATOM     90  C   UNL A   1      45.283  24.648  35.309  1.00  0.00     0.054 A 
BRANCH  90  91
ATOM     91  S   UNL A   1      46.070  23.134  35.897  1.00  0.00     0.124 S 
ATOM     92  O   UNL A   1      44.912  22.275  36.132  1.00  0.00    -0.237 OA
ATOM     93  O   UNL A   1      46.921  22.745  34.773  1.00  0.00    -0.237 OA
ATOM     94  O   UNL A   1      46.788  23.564  37.094  1.00  0.00    -0.744 OA
ENDBRANCH  90  91
ENDBRANCH  64  85
ENDBRANCH  38  39
ENDBRANCH  31  33
ENDBRANCH  30  31
ENDBRANCH  29  30
ENDBRANCH  28  29
ENDBRANCH  27  28
ENDBRANCH  26  27
ENDBRANCH   1  26
TORSDOF 23
ENDMDL
