MODEL 1
REMARK VINA RESULT:     -10.2      0.000      0.000
REMARK SMILES O=C1OC(c2ccc(Cl)cc2)=N/C1=C/Nc1ccc(O)c(C(=O)OCCOCCOCCOC(=O)c2ccc(-c3c4nc(c(-c5ccc(S(=O)(=O)[O-])cc5)c5ccc([nH]5)c(-c5ccc(S(=O)(=O)[O-])cc5)c5nc(c(-c6ccc(S(=O)(=O)[O-])cc6)c6ccc3[nH]6)C=C5)C=C4)cc2)c1
REMARK SMILES IDX 28 1 27 2 26 3 25 4 24 5 22 6 23 7 21 8 16 9 17 10 96 11
REMARK SMILES IDX 18 12 19 13 15 14 14 16 1 17 2 18 3 19 13 20 4 21 12 22 5 23
REMARK SMILES IDX 6 24 11 25 7 26 10 27 8 28 9 29 20 30 29 32 30 33 31 34
REMARK SMILES IDX 32 35 33 36 34 37 35 38 36 39 37 40 95 41 38 42 94 43 39 44
REMARK SMILES IDX 40 45 41 46 88 47 42 48 93 49 87 50 89 51 43 52 92 53 86 54
REMARK SMILES IDX 85 55 44 57 74 58 55 59 73 60 56 61 59 62 72 63 90 64 57 65
REMARK SMILES IDX 58 66 71 68 91 69 60 70 45 71 46 72 54 73 47 74 53 75 48 76
REMARK SMILES IDX 49 77 50 78 51 79 52 80 75 81 76 82 84 83 77 84 83 85 78 86
REMARK SMILES IDX 79 87 80 88 81 89 82 90 61 91 62 92 70 93 63 94 69 95 64 96
REMARK SMILES IDX 65 97 66 98 67 99 68 100
REMARK H PARENT 15 15 20 31 89 56 59 67
REMARK Flexibility Score: inf
ROOT
ATOM      1  C   UNL A   1      33.690  29.218  25.102  1.00  0.00     0.188 C 
ENDROOT
BRANCH   1   2
ATOM      2  O   UNL A   1      33.146  28.233  24.256  1.00  0.00    -0.376 OA
BRANCH   2   3
ATOM      3  C   UNL A   1      31.829  28.362  23.749  1.00  0.00     0.202 C 
BRANCH   3   4
ATOM      4  C   UNL A   1      30.783  27.235  23.660  1.00  0.00     0.261 C 
BRANCH   4   5
ATOM      5  O   UNL A   1      30.059  26.919  24.849  1.00  0.00    -0.460 OA
BRANCH   5   6
ATOM      6  C   UNL A   1      30.799  26.448  25.886  1.00  0.00     0.342 C 
ATOM      7  O   UNL A   1      31.039  27.033  26.930  1.00  0.00    -0.246 OA
BRANCH   6   8
ATOM      8  C   UNL A   1      31.108  25.015  25.686  1.00  0.00     0.103 A 
ATOM      9  C   UNL A   1      32.596  23.372  24.675  1.00  0.00     0.039 A 
ATOM     10  C   UNL A   1      31.778  22.358  25.188  1.00  0.00     0.030 A 
ATOM     11  C   UNL A   1      32.249  24.703  24.926  1.00  0.00     0.045 A 
ATOM     12  C   UNL A   1      30.668  22.659  25.982  1.00  0.00     0.049 A 
ATOM     13  C   UNL A   1      30.336  23.988  26.234  1.00  0.00     0.130 A 
BRANCH   9  14
ATOM     14  N   UNL A   1      33.690  23.072  23.852  1.00  0.00    -0.360 N 
ATOM     15  H   UNL A   1      33.766  23.556  22.999  1.00  0.00     0.166 HD
BRANCH  14  16
ATOM     16  C   UNL A   1      34.665  22.150  24.152  1.00  0.00     0.119 C 
ATOM     17  O   UNL A   1      35.656  24.620  25.555  1.00  0.00    -0.244 OA
ATOM     18  C   UNL A   1      36.248  23.564  25.475  1.00  0.00     0.365 C 
ATOM     19  O   UNL A   1      37.457  23.226  26.010  1.00  0.00    -0.402 OA
ATOM     20  C   UNL A   1      35.822  22.306  24.804  1.00  0.00     0.168 C 
ATOM     21  C   UNL A   1      37.682  21.944  25.643  1.00  0.00     0.231 C 
ATOM     22  N   UNL A   1      36.777  21.334  24.950  1.00  0.00    -0.204 NA
BRANCH  21  23
ATOM     23  C   UNL A   1      38.974  21.394  26.046  1.00  0.00     0.037 A 
ATOM     24  C   UNL A   1      39.868  22.158  26.800  1.00  0.00     0.015 A 
ATOM     25  C   UNL A   1      39.274  20.069  25.709  1.00  0.00     0.015 A 
ATOM     26  C   UNL A   1      41.067  21.583  27.230  1.00  0.00     0.021 A 
ATOM     27  C   UNL A   1      40.483  19.507  26.125  1.00  0.00     0.021 A 
ATOM     28  C   UNL A   1      41.371  20.263  26.890  1.00  0.00     0.041 A 
ATOM     29  Cl  UNL A   1      42.842  19.556  27.434  1.00  0.00    -0.084 Cl
ENDBRANCH  21  23
ENDBRANCH  14  16
ENDBRANCH   9  14
BRANCH  13  30
ATOM     30  O   UNL A   1      29.244  24.265  27.004  1.00  0.00    -0.507 OA
ATOM     31  H   UNL A   1      29.354  24.543  27.891  1.00  0.00     0.293 HD
ENDBRANCH  13  30
ENDBRANCH   6   8
ENDBRANCH   5   6
ENDBRANCH   4   5
ENDBRANCH   3   4
ENDBRANCH   2   3
ENDBRANCH   1   2
BRANCH   1  32
ATOM     32  C   UNL A   1      32.732  29.932  26.079  1.00  0.00     0.188 C 
BRANCH  32  33
ATOM     33  O   UNL A   1      33.149  30.259  27.389  1.00  0.00    -0.376 OA
BRANCH  33  34
ATOM     34  C   UNL A   1      34.194  31.195  27.586  1.00  0.00     0.202 C 
BRANCH  34  35
ATOM     35  C   UNL A   1      35.378  30.978  28.549  1.00  0.00     0.261 C 
BRANCH  35  36
ATOM     36  O   UNL A   1      36.104  29.749  28.435  1.00  0.00    -0.460 OA
BRANCH  36  37
ATOM     37  C   UNL A   1      36.861  29.422  29.513  1.00  0.00     0.338 C 
ATOM     38  O   UNL A   1      36.495  29.335  30.671  1.00  0.00    -0.246 OA
BRANCH  37  39
ATOM     39  C   UNL A   1      38.197  28.997  29.053  1.00  0.00     0.060 A 
ATOM     40  C   UNL A   1      39.031  28.307  29.945  1.00  0.00     0.016 A 
ATOM     41  C   UNL A   1      38.641  29.320  27.770  1.00  0.00     0.016 A 
ATOM     42  C   UNL A   1      40.324  27.952  29.562  1.00  0.00     0.010 A 
ATOM     43  C   UNL A   1      39.947  28.987  27.399  1.00  0.00     0.010 A 
ATOM     44  C   UNL A   1      40.803  28.330  28.302  1.00  0.00    -0.014 A 
BRANCH  44  45
ATOM     45  C   UNL A   1      42.250  28.208  27.999  1.00  0.00     0.031 A 
ATOM     46  C   UNL A   1      43.141  29.390  28.271  1.00  0.00     0.074 A 
ATOM     47  C   UNL A   1      42.767  27.068  27.504  1.00  0.00     0.049 A 
ATOM     48  N   UNL A   1      44.418  29.538  28.034  1.00  0.00    -0.248 NA
ATOM     49  C   UNL A   1      42.501  30.565  28.889  1.00  0.00     0.031 C 
ATOM     50  C   UNL A   1      42.020  25.839  27.247  1.00  0.00     0.029 A 
ATOM     51  N   UNL A   1      44.052  26.769  27.124  1.00  0.00    -0.354 N 
ATOM     52  C   UNL A   1      44.732  30.824  28.460  1.00  0.00     0.074 A 
ATOM     53  C   UNL A   1      43.507  31.425  28.939  1.00  0.00     0.031 C 
ATOM     54  C   UNL A   1      42.860  24.918  26.743  1.00  0.00     0.029 A 
ATOM     55  C   UNL A   1      44.192  25.504  26.606  1.00  0.00     0.049 A 
ATOM     56  H   UNL A   1      44.802  27.400  27.213  1.00  0.00     0.167 HD
ATOM     57  C   UNL A   1      45.935  31.447  28.457  1.00  0.00     0.031 A 
ATOM     58  C   UNL A   1      45.267  24.897  26.061  1.00  0.00     0.031 A 
ATOM     59  C   UNL A   1      47.149  30.849  27.968  1.00  0.00     0.049 A 
ATOM     60  C   UNL A   1      46.578  25.642  25.991  1.00  0.00     0.074 A 
ATOM     61  C   UNL A   1      48.421  31.393  27.936  1.00  0.00     0.029 A 
ATOM     62  N   UNL A   1      47.241  29.581  27.415  1.00  0.00    -0.354 N 
ATOM     63  N   UNL A   1      46.868  26.847  26.422  1.00  0.00    -0.248 NA
ATOM     64  C   UNL A   1      47.708  24.940  25.367  1.00  0.00     0.031 C 
ATOM     65  C   UNL A   1      49.269  30.480  27.301  1.00  0.00     0.029 A 
ATOM     66  C   UNL A   1      48.542  29.336  27.008  1.00  0.00     0.049 A 
ATOM     67  H   UNL A   1      46.493  28.947  27.325  1.00  0.00     0.167 HD
ATOM     68  C   UNL A   1      48.221  27.032  26.152  1.00  0.00     0.074 A 
ATOM     69  C   UNL A   1      48.694  25.811  25.532  1.00  0.00     0.031 C 
ATOM     70  C   UNL A   1      49.002  28.114  26.396  1.00  0.00     0.031 A 
BRANCH  57  71
ATOM     71  C   UNL A   1      45.987  32.865  28.964  1.00  0.00    -0.014 A 
ATOM     72  C   UNL A   1      45.886  33.961  28.089  1.00  0.00     0.010 A 
ATOM     73  C   UNL A   1      46.102  33.103  30.347  1.00  0.00     0.010 A 
ATOM     74  C   UNL A   1      45.937  35.269  28.583  1.00  0.00     0.020 A 
ATOM     75  C   UNL A   1      46.122  34.408  30.847  1.00  0.00     0.020 A 
ATOM     76  C   UNL A   1      46.054  35.483  29.960  1.00  0.00     0.054 A 
BRANCH  76  77
ATOM     77  S   UNL A   1      46.092  37.189  30.574  1.00  0.00     0.124 S 
ATOM     78  O   UNL A   1      45.506  37.925  29.455  1.00  0.00    -0.237 OA
ATOM     79  O   UNL A   1      45.264  37.113  31.775  1.00  0.00    -0.237 OA
ATOM     80  O   UNL A   1      47.509  37.443  30.811  1.00  0.00    -0.744 OA
ENDBRANCH  76  77
ENDBRANCH  57  71
BRANCH  58  81
ATOM     81  C   UNL A   1      45.149  23.515  25.517  1.00  0.00    -0.014 A 
ATOM     82  C   UNL A   1      44.628  23.290  24.231  1.00  0.00     0.010 A 
ATOM     83  C   UNL A   1      45.550  22.410  26.292  1.00  0.00     0.010 A 
ATOM     84  C   UNL A   1      44.493  21.989  23.738  1.00  0.00     0.020 A 
ATOM     85  C   UNL A   1      45.448  21.110  25.790  1.00  0.00     0.020 A 
ATOM     86  C   UNL A   1      44.908  20.907  24.519  1.00  0.00     0.054 A 
BRANCH  86  87
ATOM     87  S   UNL A   1      44.768  19.232  23.835  1.00  0.00     0.124 S 
ATOM     88  O   UNL A   1      43.540  18.751  24.458  1.00  0.00    -0.237 OA
ATOM     89  O   UNL A   1      44.691  19.488  22.399  1.00  0.00    -0.237 OA
ATOM     90  O   UNL A   1      45.996  18.577  24.279  1.00  0.00    -0.744 OA
ENDBRANCH  86  87
ENDBRANCH  58  81
BRANCH  70  91
ATOM     91  C   UNL A   1      50.464  28.020  26.037  1.00  0.00    -0.014 A 
ATOM     92  C   UNL A   1      51.396  27.415  26.899  1.00  0.00     0.010 A 
ATOM     93  C   UNL A   1      50.899  28.489  24.782  1.00  0.00     0.010 A 
ATOM     94  C   UNL A   1      52.739  27.307  26.524  1.00  0.00     0.020 A 
ATOM     95  C   UNL A   1      52.233  28.353  24.391  1.00  0.00     0.020 A 
ATOM     96  C   UNL A   1      53.149  27.775  25.271  1.00  0.00     0.054 A 
BRANCH  96  97
ATOM     97  S   UNL A   1      54.887  27.579  24.791  1.00  0.00     0.124 S 
ATOM     98  O   UNL A   1      55.581  27.834  26.050  1.00  0.00    -0.237 OA
ATOM     99  O   UNL A   1      54.934  26.198  24.315  1.00  0.00    -0.237 OA
ATOM    100  O   UNL A   1      55.079  28.594  23.759  1.00  0.00    -0.744 OA
ENDBRANCH  96  97
ENDBRANCH  70  91
ENDBRANCH  44  45
ENDBRANCH  37  39
ENDBRANCH  36  37
ENDBRANCH  35  36
ENDBRANCH  34  35
ENDBRANCH  33  34
ENDBRANCH  32  33
ENDBRANCH   1  32
TORSDOF 24
ENDMDL
MODEL 2
REMARK VINA RESULT:      -9.9      4.605     10.836
REMARK SMILES O=C1OC(c2ccc(Cl)cc2)=N/C1=C/Nc1ccc(O)c(C(=O)OCCOCCOCCOC(=O)c2ccc(-c3c4nc(c(-c5ccc(S(=O)(=O)[O-])cc5)c5ccc([nH]5)c(-c5ccc(S(=O)(=O)[O-])cc5)c5nc(c(-c6ccc(S(=O)(=O)[O-])cc6)c6ccc3[nH]6)C=C5)C=C4)cc2)c1
REMARK SMILES IDX 28 1 27 2 26 3 25 4 24 5 22 6 23 7 21 8 16 9 17 10 96 11
REMARK SMILES IDX 18 12 19 13 15 14 14 16 1 17 2 18 3 19 13 20 4 21 12 22 5 23
REMARK SMILES IDX 6 24 11 25 7 26 10 27 8 28 9 29 20 30 29 32 30 33 31 34
REMARK SMILES IDX 32 35 33 36 34 37 35 38 36 39 37 40 95 41 38 42 94 43 39 44
REMARK SMILES IDX 40 45 41 46 88 47 42 48 93 49 87 50 89 51 43 52 92 53 86 54
REMARK SMILES IDX 85 55 44 57 74 58 55 59 73 60 56 61 59 62 72 63 90 64 57 65
REMARK SMILES IDX 58 66 71 68 91 69 60 70 45 71 46 72 54 73 47 74 53 75 48 76
REMARK SMILES IDX 49 77 50 78 51 79 52 80 75 81 76 82 84 83 77 84 83 85 78 86
REMARK SMILES IDX 79 87 80 88 81 89 82 90 61 91 62 92 70 93 63 94 69 95 64 96
REMARK SMILES IDX 65 97 66 98 67 99 68 100
REMARK H PARENT 15 15 20 31 89 56 59 67
REMARK Flexibility Score: inf
ROOT
ATOM      1  C   UNL A   1      33.262  35.222  28.756  1.00  0.00     0.188 C 
ENDROOT
BRANCH   1   2
ATOM      2  O   UNL A   1      32.666  35.096  30.027  1.00  0.00    -0.376 OA
BRANCH   2   3
ATOM      3  C   UNL A   1      32.867  36.087  31.020  1.00  0.00     0.202 C 
BRANCH   3   4
ATOM      4  C   UNL A   1      33.376  35.836  32.451  1.00  0.00     0.261 C 
BRANCH   4   5
ATOM      5  O   UNL A   1      34.614  35.138  32.592  1.00  0.00    -0.460 OA
BRANCH   5   6
ATOM      6  C   UNL A   1      34.528  33.865  33.057  1.00  0.00     0.342 C 
ATOM      7  O   UNL A   1      33.549  33.138  33.000  1.00  0.00    -0.246 OA
BRANCH   6   8
ATOM      8  C   UNL A   1      35.863  33.373  33.460  1.00  0.00     0.103 A 
ATOM      9  C   UNL A   1      37.996  32.441  32.738  1.00  0.00     0.039 A 
ATOM     10  C   UNL A   1      38.387  32.373  34.081  1.00  0.00     0.030 A 
ATOM     11  C   UNL A   1      36.724  32.940  32.437  1.00  0.00     0.045 A 
ATOM     12  C   UNL A   1      37.555  32.844  35.100  1.00  0.00     0.049 A 
ATOM     13  C   UNL A   1      36.294  33.347  34.788  1.00  0.00     0.130 A 
BRANCH   9  14
ATOM     14  N   UNL A   1      38.816  31.941  31.719  1.00  0.00    -0.360 N 
ATOM     15  H   UNL A   1      39.087  30.996  31.773  1.00  0.00     0.166 HD
BRANCH  14  16
ATOM     16  C   UNL A   1      39.270  32.675  30.648  1.00  0.00     0.119 C 
ATOM     17  O   UNL A   1      41.583  32.831  32.566  1.00  0.00    -0.244 OA
ATOM     18  C   UNL A   1      41.502  33.411  31.504  1.00  0.00     0.365 C 
ATOM     19  O   UNL A   1      42.421  34.227  30.910  1.00  0.00    -0.402 OA
ATOM     20  C   UNL A   1      40.397  33.380  30.506  1.00  0.00     0.168 C 
ATOM     21  C   UNL A   1      41.867  34.626  29.742  1.00  0.00     0.231 C 
ATOM     22  N   UNL A   1      40.697  34.170  29.429  1.00  0.00    -0.204 NA
BRANCH  21  23
ATOM     23  C   UNL A   1      42.655  35.581  28.968  1.00  0.00     0.037 A 
ATOM     24  C   UNL A   1      42.923  35.352  27.617  1.00  0.00     0.015 A 
ATOM     25  C   UNL A   1      43.089  36.756  29.593  1.00  0.00     0.015 A 
ATOM     26  C   UNL A   1      43.621  36.315  26.883  1.00  0.00     0.021 A 
ATOM     27  C   UNL A   1      43.803  37.706  28.861  1.00  0.00     0.021 A 
ATOM     28  C   UNL A   1      44.060  37.486  27.507  1.00  0.00     0.041 A 
ATOM     29  Cl  UNL A   1      44.907  38.675  26.596  1.00  0.00    -0.084 Cl
ENDBRANCH  21  23
ENDBRANCH  14  16
ENDBRANCH   9  14
BRANCH  13  30
ATOM     30  O   UNL A   1      35.489  33.794  35.796  1.00  0.00    -0.507 OA
ATOM     31  H   UNL A   1      35.027  33.181  36.332  1.00  0.00     0.293 HD
ENDBRANCH  13  30
ENDBRANCH   6   8
ENDBRANCH   5   6
ENDBRANCH   4   5
ENDBRANCH   3   4
ENDBRANCH   2   3
ENDBRANCH   1   2
BRANCH   1  32
ATOM     32  C   UNL A   1      34.556  34.425  28.492  1.00  0.00     0.188 C 
BRANCH  32  33
ATOM     33  O   UNL A   1      34.924  33.348  29.330  1.00  0.00    -0.376 OA
BRANCH  33  34
ATOM     34  C   UNL A   1      35.839  32.369  28.867  1.00  0.00     0.202 C 
BRANCH  34  35
ATOM     35  C   UNL A   1      35.485  30.882  28.667  1.00  0.00     0.261 C 
BRANCH  35  36
ATOM     36  O   UNL A   1      36.546  29.996  28.295  1.00  0.00    -0.460 OA
BRANCH  36  37
ATOM     37  C   UNL A   1      37.217  29.429  29.329  1.00  0.00     0.338 C 
ATOM     38  O   UNL A   1      36.759  29.081  30.402  1.00  0.00    -0.246 OA
BRANCH  37  39
ATOM     39  C   UNL A   1      38.594  29.118  28.897  1.00  0.00     0.060 A 
ATOM     40  C   UNL A   1      39.523  28.691  29.857  1.00  0.00     0.016 A 
ATOM     41  C   UNL A   1      38.977  29.293  27.567  1.00  0.00     0.016 A 
ATOM     42  C   UNL A   1      40.847  28.454  29.493  1.00  0.00     0.010 A 
ATOM     43  C   UNL A   1      40.312  29.081  27.211  1.00  0.00     0.010 A 
ATOM     44  C   UNL A   1      41.258  28.691  28.176  1.00  0.00    -0.014 A 
BRANCH  44  45
ATOM     45  C   UNL A   1      42.704  28.715  27.849  1.00  0.00     0.031 A 
ATOM     46  C   UNL A   1      43.325  27.480  27.254  1.00  0.00     0.074 A 
ATOM     47  C   UNL A   1      43.452  29.813  28.063  1.00  0.00     0.049 A 
ATOM     48  N   UNL A   1      44.573  27.245  26.943  1.00  0.00    -0.248 NA
ATOM     49  C   UNL A   1      42.413  26.355  26.980  1.00  0.00     0.031 C 
ATOM     50  C   UNL A   1      42.959  31.087  28.583  1.00  0.00     0.029 A 
ATOM     51  N   UNL A   1      44.795  30.025  27.870  1.00  0.00    -0.354 N 
ATOM     52  C   UNL A   1      44.600  25.946  26.449  1.00  0.00     0.074 A 
ATOM     53  C   UNL A   1      43.251  25.431  26.534  1.00  0.00     0.031 C 
ATOM     54  C   UNL A   1      43.989  31.946  28.676  1.00  0.00     0.029 A 
ATOM     55  C   UNL A   1      45.218  31.273  28.260  1.00  0.00     0.049 A 
ATOM     56  H   UNL A   1      45.399  29.346  27.490  1.00  0.00     0.167 HD
ATOM     57  C   UNL A   1      45.653  25.245  25.965  1.00  0.00     0.031 A 
ATOM     58  C   UNL A   1      46.458  31.802  28.298  1.00  0.00     0.031 A 
ATOM     59  C   UNL A   1      46.995  25.757  25.895  1.00  0.00     0.049 A 
ATOM     60  C   UNL A   1      47.629  30.972  27.832  1.00  0.00     0.074 A 
ATOM     61  C   UNL A   1      48.129  25.131  25.407  1.00  0.00     0.029 A 
ATOM     62  N   UNL A   1      47.389  27.011  26.336  1.00  0.00    -0.354 N 
ATOM     63  N   UNL A   1      47.637  29.755  27.342  1.00  0.00    -0.248 NA
ATOM     64  C   UNL A   1      48.959  31.593  27.918  1.00  0.00     0.031 C 
ATOM     65  C   UNL A   1      49.220  25.980  25.616  1.00  0.00     0.029 A 
ATOM     66  C   UNL A   1      48.754  27.167  26.162  1.00  0.00     0.049 A 
ATOM     67  H   UNL A   1      46.788  27.692  26.716  1.00  0.00     0.167 HD
ATOM     68  C   UNL A   1      48.965  29.479  27.031  1.00  0.00     0.074 A 
ATOM     69  C   UNL A   1      49.729  30.660  27.375  1.00  0.00     0.031 C 
ATOM     70  C   UNL A   1      49.504  28.350  26.505  1.00  0.00     0.031 A 
BRANCH  57  71
ATOM     71  C   UNL A   1      45.399  23.832  25.509  1.00  0.00    -0.014 A 
ATOM     72  C   UNL A   1      45.062  23.541  24.174  1.00  0.00     0.010 A 
ATOM     73  C   UNL A   1      45.537  22.772  26.425  1.00  0.00     0.010 A 
ATOM     74  C   UNL A   1      44.830  22.221  23.774  1.00  0.00     0.020 A 
ATOM     75  C   UNL A   1      45.337  21.449  26.021  1.00  0.00     0.020 A 
ATOM     76  C   UNL A   1      44.970  21.184  24.701  1.00  0.00     0.054 A 
BRANCH  76  77
ATOM     77  S   UNL A   1      44.690  19.480  24.147  1.00  0.00     0.124 S 
ATOM     78  O   UNL A   1      45.935  18.825  24.542  1.00  0.00    -0.237 OA
ATOM     79  O   UNL A   1      43.507  19.088  24.909  1.00  0.00    -0.237 OA
ATOM     80  O   UNL A   1      44.486  19.610  22.708  1.00  0.00    -0.744 OA
ENDBRANCH  76  77
ENDBRANCH  57  71
BRANCH  58  81
ATOM     81  C   UNL A   1      46.665  33.184  28.816  1.00  0.00    -0.014 A 
ATOM     82  C   UNL A   1      46.731  34.279  27.937  1.00  0.00     0.010 A 
ATOM     83  C   UNL A   1      46.807  33.411  30.198  1.00  0.00     0.010 A 
ATOM     84  C   UNL A   1      46.955  35.569  28.427  1.00  0.00     0.020 A 
ATOM     85  C   UNL A   1      46.998  34.703  30.695  1.00  0.00     0.020 A 
ATOM     86  C   UNL A   1      47.083  35.774  29.804  1.00  0.00     0.054 A 
BRANCH  86  87
ATOM     87  S   UNL A   1      47.322  37.465  30.416  1.00  0.00     0.124 S 
ATOM     88  O   UNL A   1      48.660  37.393  30.992  1.00  0.00    -0.237 OA
ATOM     89  O   UNL A   1      47.200  38.258  29.195  1.00  0.00    -0.237 OA
ATOM     90  O   UNL A   1      46.234  37.639  31.375  1.00  0.00    -0.744 OA
ENDBRANCH  86  87
ENDBRANCH  58  81
BRANCH  70  91
ATOM     91  C   UNL A   1      50.986  28.344  26.223  1.00  0.00    -0.014 A 
ATOM     92  C   UNL A   1      51.505  28.815  25.004  1.00  0.00     0.010 A 
ATOM     93  C   UNL A   1      51.878  27.921  27.227  1.00  0.00     0.010 A 
ATOM     94  C   UNL A   1      52.886  28.834  24.784  1.00  0.00     0.020 A 
ATOM     95  C   UNL A   1      53.260  27.969  27.023  1.00  0.00     0.020 A 
ATOM     96  C   UNL A   1      53.755  28.413  25.797  1.00  0.00     0.054 A 
BRANCH  96  97
ATOM     97  S   UNL A   1      55.543  28.493  25.502  1.00  0.00     0.124 S 
ATOM     98  O   UNL A   1      56.014  29.212  26.683  1.00  0.00    -0.237 OA
ATOM     99  O   UNL A   1      55.919  27.083  25.433  1.00  0.00    -0.237 OA
ATOM    100  O   UNL A   1      55.655  29.225  24.243  1.00  0.00    -0.744 OA
ENDBRANCH  96  97
ENDBRANCH  70  91
ENDBRANCH  44  45
ENDBRANCH  37  39
ENDBRANCH  36  37
ENDBRANCH  35  36
ENDBRANCH  34  35
ENDBRANCH  33  34
ENDBRANCH  32  33
ENDBRANCH   1  32
TORSDOF 24
ENDMDL
MODEL 3
REMARK VINA RESULT:      -9.7      5.007     11.262
REMARK SMILES O=C1OC(c2ccc(Cl)cc2)=N/C1=C/Nc1ccc(O)c(C(=O)OCCOCCOCCOC(=O)c2ccc(-c3c4nc(c(-c5ccc(S(=O)(=O)[O-])cc5)c5ccc([nH]5)c(-c5ccc(S(=O)(=O)[O-])cc5)c5nc(c(-c6ccc(S(=O)(=O)[O-])cc6)c6ccc3[nH]6)C=C5)C=C4)cc2)c1
REMARK SMILES IDX 28 1 27 2 26 3 25 4 24 5 22 6 23 7 21 8 16 9 17 10 96 11
REMARK SMILES IDX 18 12 19 13 15 14 14 16 1 17 2 18 3 19 13 20 4 21 12 22 5 23
REMARK SMILES IDX 6 24 11 25 7 26 10 27 8 28 9 29 20 30 29 32 30 33 31 34
REMARK SMILES IDX 32 35 33 36 34 37 35 38 36 39 37 40 95 41 38 42 94 43 39 44
REMARK SMILES IDX 40 45 41 46 88 47 42 48 93 49 87 50 89 51 43 52 92 53 86 54
REMARK SMILES IDX 85 55 44 57 74 58 55 59 73 60 56 61 59 62 72 63 90 64 57 65
REMARK SMILES IDX 58 66 71 68 91 69 60 70 45 71 46 72 54 73 47 74 53 75 48 76
REMARK SMILES IDX 49 77 50 78 51 79 52 80 75 81 76 82 84 83 77 84 83 85 78 86
REMARK SMILES IDX 79 87 80 88 81 89 82 90 61 91 62 92 70 93 63 94 69 95 64 96
REMARK SMILES IDX 65 97 66 98 67 99 68 100
REMARK H PARENT 15 15 20 31 89 56 59 67
REMARK Flexibility Score: inf
ROOT
ATOM      1  C   UNL A   1      42.089  20.009  27.017  1.00  0.00     0.188 C 
ENDROOT
BRANCH   1   2
ATOM      2  O   UNL A   1      40.735  20.292  27.284  1.00  0.00    -0.376 OA
BRANCH   2   3
ATOM      3  C   UNL A   1      39.815  20.487  26.224  1.00  0.00     0.202 C 
BRANCH   3   4
ATOM      4  C   UNL A   1      38.895  21.708  26.043  1.00  0.00     0.261 C 
BRANCH   4   5
ATOM      5  O   UNL A   1      37.767  21.556  25.181  1.00  0.00    -0.460 OA
BRANCH   5   6
ATOM      6  C   UNL A   1      36.603  22.094  25.627  1.00  0.00     0.342 C 
ATOM      7  O   UNL A   1      36.469  23.178  26.172  1.00  0.00    -0.246 OA
BRANCH   6   8
ATOM      8  C   UNL A   1      35.453  21.286  25.166  1.00  0.00     0.103 A 
ATOM      9  C   UNL A   1      33.110  21.270  24.496  1.00  0.00     0.039 A 
ATOM     10  C   UNL A   1      33.194  19.880  24.345  1.00  0.00     0.030 A 
ATOM     11  C   UNL A   1      34.249  21.966  24.914  1.00  0.00     0.045 A 
ATOM     12  C   UNL A   1      34.399  19.202  24.550  1.00  0.00     0.049 A 
ATOM     13  C   UNL A   1      35.530  19.908  24.957  1.00  0.00     0.130 A 
BRANCH   9  14
ATOM     14  N   UNL A   1      31.895  21.945  24.322  1.00  0.00    -0.360 N 
ATOM     15  H   UNL A   1      31.081  21.517  24.671  1.00  0.00     0.166 HD
BRANCH  14  16
ATOM     16  C   UNL A   1      31.759  23.163  23.698  1.00  0.00     0.119 C 
ATOM     17  O   UNL A   1      30.425  23.642  26.352  1.00  0.00    -0.244 OA
ATOM     18  C   UNL A   1      30.471  24.427  25.429  1.00  0.00     0.365 C 
ATOM     19  O   UNL A   1      29.976  25.699  25.371  1.00  0.00    -0.402 OA
ATOM     20  C   UNL A   1      31.111  24.263  24.096  1.00  0.00     0.168 C 
ATOM     21  C   UNL A   1      30.279  26.160  24.137  1.00  0.00     0.231 C 
ATOM     22  N   UNL A   1      30.946  25.392  23.338  1.00  0.00    -0.204 NA
BRANCH  21  23
ATOM     23  C   UNL A   1      29.769  27.493  23.823  1.00  0.00     0.037 A 
ATOM     24  C   UNL A   1      30.585  28.618  23.964  1.00  0.00     0.015 A 
ATOM     25  C   UNL A   1      28.465  27.614  23.329  1.00  0.00     0.015 A 
ATOM     26  C   UNL A   1      30.094  29.872  23.593  1.00  0.00     0.021 A 
ATOM     27  C   UNL A   1      27.973  28.872  22.979  1.00  0.00     0.021 A 
ATOM     28  C   UNL A   1      28.792  29.995  23.104  1.00  0.00     0.041 A 
ATOM     29  Cl  UNL A   1      28.196  31.540  22.635  1.00  0.00    -0.084 Cl
ENDBRANCH  21  23
ENDBRANCH  14  16
ENDBRANCH   9  14
BRANCH  13  30
ATOM     30  O   UNL A   1      36.696  19.230  25.162  1.00  0.00    -0.507 OA
ATOM     31  H   UNL A   1      37.508  19.598  24.875  1.00  0.00     0.293 HD
ENDBRANCH  13  30
ENDBRANCH   6   8
ENDBRANCH   5   6
ENDBRANCH   4   5
ENDBRANCH   3   4
ENDBRANCH   2   3
ENDBRANCH   1   2
BRANCH   1  32
ATOM     32  C   UNL A   1      42.411  19.188  25.750  1.00  0.00     0.188 C 
BRANCH  32  33
ATOM     33  O   UNL A   1      43.567  18.377  25.691  1.00  0.00    -0.376 OA
BRANCH  33  34
ATOM     34  C   UNL A   1      44.737  18.856  25.050  1.00  0.00     0.202 C 
BRANCH  34  35
ATOM     35  C   UNL A   1      44.816  20.187  24.278  1.00  0.00     0.261 C 
BRANCH  35  36
ATOM     36  O   UNL A   1      44.764  21.397  25.042  1.00  0.00    -0.460 OA
BRANCH  36  37
ATOM     37  C   UNL A   1      44.253  22.472  24.390  1.00  0.00     0.338 C 
ATOM     38  O   UNL A   1      44.002  22.562  23.202  1.00  0.00    -0.246 OA
BRANCH  37  39
ATOM     39  C   UNL A   1      43.862  23.495  25.379  1.00  0.00     0.060 A 
ATOM     40  C   UNL A   1      44.366  24.796  25.240  1.00  0.00     0.016 A 
ATOM     41  C   UNL A   1      43.046  23.161  26.460  1.00  0.00     0.016 A 
ATOM     42  C   UNL A   1      44.069  25.768  26.195  1.00  0.00     0.010 A 
ATOM     43  C   UNL A   1      42.773  24.129  27.430  1.00  0.00     0.010 A 
ATOM     44  C   UNL A   1      43.307  25.426  27.319  1.00  0.00    -0.014 A 
BRANCH  44  45
ATOM     45  C   UNL A   1      43.226  26.364  28.465  1.00  0.00     0.031 A 
ATOM     46  C   UNL A   1      44.332  26.343  29.487  1.00  0.00     0.074 A 
ATOM     47  C   UNL A   1      42.202  27.226  28.593  1.00  0.00     0.049 A 
ATOM     48  N   UNL A   1      44.449  27.024  30.596  1.00  0.00    -0.248 NA
ATOM     49  C   UNL A   1      45.452  25.424  29.221  1.00  0.00     0.031 C 
ATOM     50  C   UNL A   1      41.099  27.380  27.645  1.00  0.00     0.029 A 
ATOM     51  N   UNL A   1      41.923  28.134  29.585  1.00  0.00    -0.354 N 
ATOM     52  C   UNL A   1      45.646  26.608  31.168  1.00  0.00     0.074 A 
ATOM     53  C   UNL A   1      46.201  25.593  30.300  1.00  0.00     0.031 C 
ATOM     54  C   UNL A   1      40.258  28.322  28.107  1.00  0.00     0.029 A 
ATOM     55  C   UNL A   1      40.741  28.808  29.398  1.00  0.00     0.049 A 
ATOM     56  H   UNL A   1      42.514  28.286  30.358  1.00  0.00     0.167 HD
ATOM     57  C   UNL A   1      46.233  27.037  32.311  1.00  0.00     0.031 A 
ATOM     58  C   UNL A   1      40.109  29.699  30.191  1.00  0.00     0.031 A 
ATOM     59  C   UNL A   1      45.670  28.038  33.177  1.00  0.00     0.049 A 
ATOM     60  C   UNL A   1      40.741  30.099  31.502  1.00  0.00     0.074 A 
ATOM     61  C   UNL A   1      46.195  28.552  34.350  1.00  0.00     0.029 A 
ATOM     62  N   UNL A   1      44.452  28.669  32.973  1.00  0.00    -0.354 N 
ATOM     63  N   UNL A   1      41.887  29.719  32.017  1.00  0.00    -0.248 NA
ATOM     64  C   UNL A   1      39.997  31.055  32.333  1.00  0.00     0.031 C 
ATOM     65  C   UNL A   1      45.262  29.442  34.891  1.00  0.00     0.029 A 
ATOM     66  C   UNL A   1      44.192  29.543  34.016  1.00  0.00     0.049 A 
ATOM     67  H   UNL A   1      43.860  28.519  32.202  1.00  0.00     0.167 HD
ATOM     68  C   UNL A   1      42.014  30.415  33.215  1.00  0.00     0.074 A 
ATOM     69  C   UNL A   1      40.836  31.249  33.341  1.00  0.00     0.031 C 
ATOM     70  C   UNL A   1      43.016  30.371  34.128  1.00  0.00     0.031 A 
BRANCH  57  71
ATOM     71  C   UNL A   1      47.536  26.393  32.710  1.00  0.00    -0.014 A 
ATOM     72  C   UNL A   1      47.580  25.350  33.652  1.00  0.00     0.010 A 
ATOM     73  C   UNL A   1      48.733  26.816  32.102  1.00  0.00     0.010 A 
ATOM     74  C   UNL A   1      48.801  24.768  34.007  1.00  0.00     0.020 A 
ATOM     75  C   UNL A   1      49.951  26.216  32.430  1.00  0.00     0.020 A 
ATOM     76  C   UNL A   1      49.979  25.205  33.393  1.00  0.00     0.054 A 
BRANCH  76  77
ATOM     77  S   UNL A   1      51.544  24.414  33.853  1.00  0.00     0.124 S 
ATOM     78  O   UNL A   1      52.188  24.239  32.553  1.00  0.00    -0.237 OA
ATOM     79  O   UNL A   1      52.159  25.409  34.728  1.00  0.00    -0.237 OA
ATOM     80  O   UNL A   1      51.130  23.179  34.512  1.00  0.00    -0.744 OA
ENDBRANCH  76  77
ENDBRANCH  57  71
BRANCH  58  81
ATOM     81  C   UNL A   1      38.791  30.261  29.780  1.00  0.00    -0.014 A 
ATOM     82  C   UNL A   1      37.630  29.469  29.810  1.00  0.00     0.010 A 
ATOM     83  C   UNL A   1      38.694  31.596  29.345  1.00  0.00     0.010 A 
ATOM     84  C   UNL A   1      36.403  29.994  29.395  1.00  0.00     0.020 A 
ATOM     85  C   UNL A   1      37.463  32.136  28.962  1.00  0.00     0.020 A 
ATOM     86  C   UNL A   1      36.326  31.326  28.978  1.00  0.00     0.054 A 
BRANCH  86  87
ATOM     87  S   UNL A   1      34.711  31.996  28.493  1.00  0.00     0.124 S 
ATOM     88  O   UNL A   1      34.183  32.469  29.768  1.00  0.00    -0.237 OA
ATOM     89  O   UNL A   1      35.080  33.037  27.536  1.00  0.00    -0.237 OA
ATOM     90  O   UNL A   1      34.021  30.845  27.916  1.00  0.00    -0.744 OA
ENDBRANCH  86  87
ENDBRANCH  58  81
BRANCH  70  91
ATOM     91  C   UNL A   1      42.915  31.280  35.328  1.00  0.00    -0.014 A 
ATOM     92  C   UNL A   1      42.345  30.843  36.537  1.00  0.00     0.010 A 
ATOM     93  C   UNL A   1      43.465  32.576  35.261  1.00  0.00     0.010 A 
ATOM     94  C   UNL A   1      42.300  31.694  37.645  1.00  0.00     0.020 A 
ATOM     95  C   UNL A   1      43.450  33.417  36.376  1.00  0.00     0.020 A 
ATOM     96  C   UNL A   1      42.855  32.975  37.559  1.00  0.00     0.054 A 
BRANCH  96  97
ATOM     97  S   UNL A   1      42.825  34.041  39.026  1.00  0.00     0.124 S 
ATOM     98  O   UNL A   1      44.006  33.587  39.756  1.00  0.00    -0.237 OA
ATOM     99  O   UNL A   1      42.919  35.381  38.450  1.00  0.00    -0.237 OA
ATOM    100  O   UNL A   1      41.546  33.728  39.657  1.00  0.00    -0.744 OA
ENDBRANCH  96  97
ENDBRANCH  70  91
ENDBRANCH  44  45
ENDBRANCH  37  39
ENDBRANCH  36  37
ENDBRANCH  35  36
ENDBRANCH  34  35
ENDBRANCH  33  34
ENDBRANCH  32  33
ENDBRANCH   1  32
TORSDOF 24
ENDMDL
