MODEL 1
REMARK VINA RESULT:     -10.1      0.000      0.000
REMARK SMILES O=C(OCCOCCOCCOC(=O)[C@@H]1[C@H](C(=O)NCc2ccncc2)[C@H]2C=C[C@@H]1O2)c1ccc(-c2c3nc(c(-c4ccc(S(=O)(=O)[O-])cc4)c4ccc([nH]4)c(-c4ccc(S(=O)(=O)[O-])cc4)c4nc(c(-c5ccc(S(=O)(=O)[O-])cc5)c5ccc2[nH]5)C=C4)C=C3)cc1
REMARK SMILES IDX 7 1 6 2 5 3 4 4 3 5 2 6 1 7 32 8 33 9 91 10 34 11 90 12
REMARK SMILES IDX 35 13 36 14 37 15 84 16 38 17 89 18 83 19 85 20 39 21 88 22
REMARK SMILES IDX 82 23 81 24 40 26 70 27 51 28 69 29 52 30 55 31 68 32 86 33
REMARK SMILES IDX 53 34 54 35 67 37 87 38 56 39 41 40 42 41 50 42 43 43 49 44
REMARK SMILES IDX 44 45 45 46 46 47 47 48 48 49 71 50 72 51 80 52 73 53 79 54
REMARK SMILES IDX 74 55 75 56 76 57 77 58 78 59 57 60 58 61 66 62 59 63 65 64
REMARK SMILES IDX 60 65 61 66 62 67 63 68 64 69 8 70 9 71 10 72 11 73 12 74
REMARK SMILES IDX 13 75 14 76 15 77 16 78 30 79 27 80 29 81 31 82 28 83 17 84
REMARK SMILES IDX 18 85 19 86 20 88 21 89 22 90 26 91 23 92 25 93 24 94
REMARK H PARENT 85 25 55 36 19 87
REMARK Flexibility Score: inf
ROOT
ATOM      1  C   UNL A   1      31.021  28.547  24.885  1.00  0.00     0.188 C 
ENDROOT
BRANCH   1   2
ATOM      2  O   UNL A   1      31.383  29.891  25.180  1.00  0.00    -0.376 OA
BRANCH   2   3
ATOM      3  C   UNL A   1      32.710  30.078  25.667  1.00  0.00     0.202 C 
BRANCH   3   4
ATOM      4  C   UNL A   1      32.951  29.806  27.155  1.00  0.00     0.261 C 
BRANCH   4   5
ATOM      5  O   UNL A   1      33.523  30.894  27.891  1.00  0.00    -0.460 OA
BRANCH   5   6
ATOM      6  C   UNL A   1      34.803  31.334  27.931  1.00  0.00     0.338 C 
ATOM      7  O   UNL A   1      35.012  32.502  27.603  1.00  0.00    -0.246 OA
BRANCH   6   8
ATOM      8  C   UNL A   1      35.992  30.486  28.281  1.00  0.00     0.060 A 
ATOM      9  C   UNL A   1      36.157  29.754  29.460  1.00  0.00     0.016 A 
ATOM     10  C   UNL A   1      37.034  30.437  27.330  1.00  0.00     0.016 A 
ATOM     11  C   UNL A   1      37.312  29.033  29.715  1.00  0.00     0.010 A 
ATOM     12  C   UNL A   1      38.225  29.757  27.596  1.00  0.00     0.010 A 
ATOM     13  C   UNL A   1      38.376  29.107  28.824  1.00  0.00    -0.014 A 
BRANCH  13  14
ATOM     14  C   UNL A   1      39.700  28.825  29.399  1.00  0.00     0.031 A 
ATOM     15  C   UNL A   1      40.078  29.624  30.609  1.00  0.00     0.074 A 
ATOM     16  C   UNL A   1      40.404  27.751  29.007  1.00  0.00     0.049 A 
ATOM     17  N   UNL A   1      41.101  29.482  31.398  1.00  0.00    -0.248 NA
ATOM     18  C   UNL A   1      39.136  30.684  31.024  1.00  0.00     0.031 C 
ATOM     19  C   UNL A   1      39.962  26.813  27.986  1.00  0.00     0.029 A 
ATOM     20  N   UNL A   1      41.595  27.240  29.432  1.00  0.00    -0.354 N 
ATOM     21  C   UNL A   1      40.924  30.423  32.404  1.00  0.00     0.074 A 
ATOM     22  C   UNL A   1      39.704  31.139  32.127  1.00  0.00     0.031 C 
ATOM     23  C   UNL A   1      40.881  25.848  27.829  1.00  0.00     0.029 A 
ATOM     24  C   UNL A   1      41.987  26.118  28.737  1.00  0.00     0.049 A 
ATOM     25  H   UNL A   1      42.123  27.634  30.163  1.00  0.00     0.167 HD
ATOM     26  C   UNL A   1      41.726  30.665  33.461  1.00  0.00     0.031 A 
ATOM     27  C   UNL A   1      43.123  25.405  28.829  1.00  0.00     0.031 A 
ATOM     28  C   UNL A   1      42.966  29.971  33.657  1.00  0.00     0.049 A 
ATOM     29  C   UNL A   1      44.092  25.818  29.901  1.00  0.00     0.074 A 
ATOM     30  C   UNL A   1      43.932  30.184  34.618  1.00  0.00     0.029 A 
ATOM     31  N   UNL A   1      43.415  28.934  32.847  1.00  0.00    -0.354 N 
ATOM     32  N   UNL A   1      43.952  26.756  30.811  1.00  0.00    -0.248 NA
ATOM     33  C   UNL A   1      45.353  25.076  29.980  1.00  0.00     0.031 C 
ATOM     34  C   UNL A   1      45.000  29.321  34.344  1.00  0.00     0.029 A 
ATOM     35  C   UNL A   1      44.663  28.516  33.264  1.00  0.00     0.049 A 
ATOM     36  H   UNL A   1      42.917  28.553  32.087  1.00  0.00     0.167 HD
ATOM     37  C   UNL A   1      45.090  26.695  31.599  1.00  0.00     0.074 A 
ATOM     38  C   UNL A   1      45.904  25.619  31.058  1.00  0.00     0.031 C 
ATOM     39  C   UNL A   1      45.432  27.444  32.678  1.00  0.00     0.031 A 
BRANCH  26  40
ATOM     40  C   UNL A   1      41.329  31.796  34.367  1.00  0.00    -0.014 A 
ATOM     41  C   UNL A   1      40.760  31.569  35.635  1.00  0.00     0.010 A 
ATOM     42  C   UNL A   1      41.463  33.116  33.904  1.00  0.00     0.010 A 
ATOM     43  C   UNL A   1      40.298  32.642  36.403  1.00  0.00     0.020 A 
ATOM     44  C   UNL A   1      41.027  34.192  34.679  1.00  0.00     0.020 A 
ATOM     45  C   UNL A   1      40.431  33.947  35.918  1.00  0.00     0.054 A 
BRANCH  45  46
ATOM     46  S   UNL A   1      39.828  35.323  36.933  1.00  0.00     0.124 S 
ATOM     47  O   UNL A   1      38.583  34.780  37.470  1.00  0.00    -0.237 OA
ATOM     48  O   UNL A   1      40.905  35.499  37.904  1.00  0.00    -0.237 OA
ATOM     49  O   UNL A   1      39.670  36.416  35.978  1.00  0.00    -0.744 OA
ENDBRANCH  45  46
ENDBRANCH  26  40
BRANCH  27  50
ATOM     50  C   UNL A   1      43.400  24.286  27.884  1.00  0.00    -0.014 A 
ATOM     51  C   UNL A   1      42.921  22.986  28.121  1.00  0.00     0.010 A 
ATOM     52  C   UNL A   1      44.160  24.524  26.720  1.00  0.00     0.010 A 
ATOM     53  C   UNL A   1      43.218  21.945  27.231  1.00  0.00     0.020 A 
ATOM     54  C   UNL A   1      44.435  23.494  25.816  1.00  0.00     0.020 A 
ATOM     55  C   UNL A   1      43.973  22.206  26.084  1.00  0.00     0.054 A 
BRANCH  55  56
ATOM     56  S   UNL A   1      44.328  20.845  24.936  1.00  0.00     0.124 S 
ATOM     57  O   UNL A   1      44.352  21.531  23.648  1.00  0.00    -0.237 OA
ATOM     58  O   UNL A   1      45.616  20.357  25.420  1.00  0.00    -0.237 OA
ATOM     59  O   UNL A   1      43.208  19.928  25.136  1.00  0.00    -0.744 OA
ENDBRANCH  55  56
ENDBRANCH  27  50
BRANCH  39  60
ATOM     60  C   UNL A   1      46.718  27.083  33.360  1.00  0.00    -0.014 A 
ATOM     61  C   UNL A   1      47.930  27.703  33.012  1.00  0.00     0.010 A 
ATOM     62  C   UNL A   1      46.692  26.141  34.403  1.00  0.00     0.010 A 
ATOM     63  C   UNL A   1      49.107  27.348  33.669  1.00  0.00     0.020 A 
ATOM     64  C   UNL A   1      47.860  25.813  35.088  1.00  0.00     0.020 A 
ATOM     65  C   UNL A   1      49.064  26.406  34.702  1.00  0.00     0.054 A 
BRANCH  65  66
ATOM     66  S   UNL A   1      50.601  25.989  35.563  1.00  0.00     0.124 S 
ATOM     67  O   UNL A   1      51.074  27.303  35.987  1.00  0.00    -0.237 OA
ATOM     68  O   UNL A   1      50.139  25.109  36.634  1.00  0.00    -0.237 OA
ATOM     69  O   UNL A   1      51.408  25.336  34.534  1.00  0.00    -0.744 OA
ENDBRANCH  65  66
ENDBRANCH  39  60
ENDBRANCH  13  14
ENDBRANCH   6   8
ENDBRANCH   5   6
ENDBRANCH   4   5
ENDBRANCH   3   4
ENDBRANCH   2   3
ENDBRANCH   1   2
BRANCH   1  70
ATOM     70  C   UNL A   1      31.153  28.093  23.435  1.00  0.00     0.188 C 
BRANCH  70  71
ATOM     71  O   UNL A   1      32.249  27.296  23.047  1.00  0.00    -0.376 OA
BRANCH  71  72
ATOM     72  C   UNL A   1      33.245  26.903  23.972  1.00  0.00     0.202 C 
BRANCH  72  73
ATOM     73  C   UNL A   1      33.277  25.541  24.687  1.00  0.00     0.261 C 
BRANCH  73  74
ATOM     74  O   UNL A   1      34.230  24.551  24.305  1.00  0.00    -0.463 OA
BRANCH  74  75
ATOM     75  C   UNL A   1      33.809  23.279  24.156  1.00  0.00     0.312 C 
ATOM     76  O   UNL A   1      32.635  22.943  24.031  1.00  0.00    -0.252 OA
BRANCH  75  77
ATOM     77  C   UNL A   1      34.956  22.316  24.048  1.00  0.00     0.147 C 
ATOM     78  C   UNL A   1      34.978  21.223  25.147  1.00  0.00     0.128 C 
ATOM     79  C   UNL A   1      36.330  22.964  24.252  1.00  0.00     0.157 C 
ATOM     80  C   UNL A   1      36.332  21.468  25.830  1.00  0.00     0.155 C 
ATOM     81  C   UNL A   1      37.409  21.982  23.891  1.00  0.00     0.004 C 
ATOM     82  O   UNL A   1      36.440  22.908  25.699  1.00  0.00    -0.365 OA
ATOM     83  C   UNL A   1      37.430  21.075  24.876  1.00  0.00     0.004 C 
BRANCH  78  84
ATOM     84  C   UNL A   1      33.797  21.055  26.096  1.00  0.00     0.227 C 
ATOM     85  O   UNL A   1      33.863  21.614  27.202  1.00  0.00    -0.275 OA
ATOM     86  N   UNL A   1      32.668  20.344  25.876  1.00  0.00    -0.352 N 
ATOM     87  H   UNL A   1      32.082  20.298  26.665  1.00  0.00     0.163 HD
BRANCH  86  88
ATOM     88  C   UNL A   1      32.131  19.636  24.731  1.00  0.00     0.151 C 
BRANCH  88  89
ATOM     89  C   UNL A   1      32.619  18.201  24.598  1.00  0.00    -0.026 A 
ATOM     90  C   UNL A   1      32.472  17.237  25.604  1.00  0.00     0.025 A 
ATOM     91  C   UNL A   1      33.418  17.859  23.498  1.00  0.00     0.025 A 
ATOM     92  C   UNL A   1      33.162  16.033  25.500  1.00  0.00     0.111 A 
ATOM     93  C   UNL A   1      34.056  16.625  23.477  1.00  0.00     0.111 A 
ATOM     94  N   UNL A   1      33.962  15.710  24.464  1.00  0.00    -0.265 NA
ENDBRANCH  88  89
ENDBRANCH  86  88
ENDBRANCH  78  84
ENDBRANCH  75  77
ENDBRANCH  74  75
ENDBRANCH  73  74
ENDBRANCH  72  73
ENDBRANCH  71  72
ENDBRANCH  70  71
ENDBRANCH   1  70
TORSDOF 23
ENDMDL
MODEL 2
REMARK VINA RESULT:      -9.8      3.087      9.036
REMARK SMILES O=C(OCCOCCOCCOC(=O)[C@@H]1[C@H](C(=O)NCc2ccncc2)[C@H]2C=C[C@@H]1O2)c1ccc(-c2c3nc(c(-c4ccc(S(=O)(=O)[O-])cc4)c4ccc([nH]4)c(-c4ccc(S(=O)(=O)[O-])cc4)c4nc(c(-c5ccc(S(=O)(=O)[O-])cc5)c5ccc2[nH]5)C=C4)C=C3)cc1
REMARK SMILES IDX 7 1 6 2 5 3 4 4 3 5 2 6 1 7 32 8 33 9 91 10 34 11 90 12
REMARK SMILES IDX 35 13 36 14 37 15 84 16 38 17 89 18 83 19 85 20 39 21 88 22
REMARK SMILES IDX 82 23 81 24 40 26 70 27 51 28 69 29 52 30 55 31 68 32 86 33
REMARK SMILES IDX 53 34 54 35 67 37 87 38 56 39 41 40 42 41 50 42 43 43 49 44
REMARK SMILES IDX 44 45 45 46 46 47 47 48 48 49 71 50 72 51 80 52 73 53 79 54
REMARK SMILES IDX 74 55 75 56 76 57 77 58 78 59 57 60 58 61 66 62 59 63 65 64
REMARK SMILES IDX 60 65 61 66 62 67 63 68 64 69 8 70 9 71 10 72 11 73 12 74
REMARK SMILES IDX 13 75 14 76 15 77 16 78 30 79 27 80 29 81 31 82 28 83 17 84
REMARK SMILES IDX 18 85 19 86 20 88 21 89 22 90 26 91 23 92 25 93 24 94
REMARK H PARENT 85 25 55 36 19 87
REMARK Flexibility Score: inf
ROOT
ATOM      1  C   UNL A   1      41.092  21.247  26.478  1.00  0.00     0.188 C 
ENDROOT
BRANCH   1   2
ATOM      2  O   UNL A   1      42.250  22.054  26.666  1.00  0.00    -0.376 OA
BRANCH   2   3
ATOM      3  C   UNL A   1      42.747  22.699  25.495  1.00  0.00     0.202 C 
BRANCH   3   4
ATOM      4  C   UNL A   1      42.670  24.229  25.458  1.00  0.00     0.261 C 
BRANCH   4   5
ATOM      5  O   UNL A   1      43.745  24.911  26.114  1.00  0.00    -0.460 OA
BRANCH   5   6
ATOM      6  C   UNL A   1      43.936  25.158  27.432  1.00  0.00     0.338 C 
ATOM      7  O   UNL A   1      44.604  24.345  28.071  1.00  0.00    -0.246 OA
BRANCH   6   8
ATOM      8  C   UNL A   1      43.341  26.314  28.184  1.00  0.00     0.060 A 
ATOM      9  C   UNL A   1      43.891  27.594  28.290  1.00  0.00     0.016 A 
ATOM     10  C   UNL A   1      42.118  26.072  28.847  1.00  0.00     0.016 A 
ATOM     11  C   UNL A   1      43.289  28.586  29.045  1.00  0.00     0.010 A 
ATOM     12  C   UNL A   1      41.526  27.047  29.653  1.00  0.00     0.010 A 
ATOM     13  C   UNL A   1      42.157  28.286  29.794  1.00  0.00    -0.014 A 
BRANCH  13  14
ATOM     14  C   UNL A   1      41.926  29.151  30.960  1.00  0.00     0.031 A 
ATOM     15  C   UNL A   1      40.733  30.054  30.887  1.00  0.00     0.074 A 
ATOM     16  C   UNL A   1      42.602  28.956  32.104  1.00  0.00     0.049 A 
ATOM     17  N   UNL A   1      40.211  30.800  31.815  1.00  0.00    -0.248 NA
ATOM     18  C   UNL A   1      39.985  30.061  29.613  1.00  0.00     0.031 C 
ATOM     19  C   UNL A   1      43.618  27.931  32.288  1.00  0.00     0.029 A 
ATOM     20  N   UNL A   1      42.519  29.561  33.324  1.00  0.00    -0.354 N 
ATOM     21  C   UNL A   1      39.075  31.357  31.244  1.00  0.00     0.074 A 
ATOM     22  C   UNL A   1      38.981  30.876  29.888  1.00  0.00     0.031 C 
ATOM     23  C   UNL A   1      44.098  27.988  33.539  1.00  0.00     0.029 A 
ATOM     24  C   UNL A   1      43.425  29.073  34.238  1.00  0.00     0.049 A 
ATOM     25  H   UNL A   1      41.874  30.276  33.531  1.00  0.00     0.167 HD
ATOM     26  C   UNL A   1      38.195  32.208  31.813  1.00  0.00     0.031 A 
ATOM     27  C   UNL A   1      43.679  29.479  35.495  1.00  0.00     0.031 A 
ATOM     28  C   UNL A   1      38.368  32.712  33.144  1.00  0.00     0.049 A 
ATOM     29  C   UNL A   1      42.798  30.567  36.042  1.00  0.00     0.074 A 
ATOM     30  C   UNL A   1      37.621  33.659  33.813  1.00  0.00     0.029 A 
ATOM     31  N   UNL A   1      39.387  32.314  34.003  1.00  0.00    -0.354 N 
ATOM     32  N   UNL A   1      41.763  31.143  35.473  1.00  0.00    -0.248 NA
ATOM     33  C   UNL A   1      43.096  31.047  37.394  1.00  0.00     0.031 C 
ATOM     34  C   UNL A   1      38.234  33.886  35.051  1.00  0.00     0.029 A 
ATOM     35  C   UNL A   1      39.312  33.021  35.185  1.00  0.00     0.049 A 
ATOM     36  H   UNL A   1      40.064  31.628  33.796  1.00  0.00     0.167 HD
ATOM     37  C   UNL A   1      41.256  32.028  36.411  1.00  0.00     0.074 A 
ATOM     38  C   UNL A   1      42.100  31.903  37.587  1.00  0.00     0.031 C 
ATOM     39  C   UNL A   1      40.189  32.860  36.321  1.00  0.00     0.031 A 
BRANCH  26  40
ATOM     40  C   UNL A   1      37.082  32.713  30.940  1.00  0.00    -0.014 A 
ATOM     41  C   UNL A   1      37.288  33.725  29.982  1.00  0.00     0.010 A 
ATOM     42  C   UNL A   1      35.783  32.212  31.136  1.00  0.00     0.010 A 
ATOM     43  C   UNL A   1      36.208  34.249  29.266  1.00  0.00     0.020 A 
ATOM     44  C   UNL A   1      34.706  32.715  30.404  1.00  0.00     0.020 A 
ATOM     45  C   UNL A   1      34.923  33.744  29.485  1.00  0.00     0.054 A 
BRANCH  45  46
ATOM     46  S   UNL A   1      33.537  34.438  28.543  1.00  0.00     0.124 S 
ATOM     47  O   UNL A   1      34.182  35.529  27.816  1.00  0.00    -0.237 OA
ATOM     48  O   UNL A   1      33.109  33.306  27.725  1.00  0.00    -0.237 OA
ATOM     49  O   UNL A   1      32.590  34.852  29.574  1.00  0.00    -0.744 OA
ENDBRANCH  45  46
ENDBRANCH  26  40
BRANCH  27  50
ATOM     50  C   UNL A   1      44.802  28.886  36.275  1.00  0.00    -0.014 A 
ATOM     51  C   UNL A   1      46.118  29.363  36.153  1.00  0.00     0.010 A 
ATOM     52  C   UNL A   1      44.550  27.819  37.162  1.00  0.00     0.010 A 
ATOM     53  C   UNL A   1      47.160  28.771  36.877  1.00  0.00     0.020 A 
ATOM     54  C   UNL A   1      45.583  27.242  37.908  1.00  0.00     0.020 A 
ATOM     55  C   UNL A   1      46.886  27.714  37.750  1.00  0.00     0.054 A 
BRANCH  55  56
ATOM     56  S   UNL A   1      48.250  26.975  38.693  1.00  0.00     0.124 S 
ATOM     57  O   UNL A   1      49.326  27.937  38.478  1.00  0.00    -0.237 OA
ATOM     58  O   UNL A   1      47.704  26.927  40.047  1.00  0.00    -0.237 OA
ATOM     59  O   UNL A   1      48.438  25.672  38.059  1.00  0.00    -0.744 OA
ENDBRANCH  55  56
ENDBRANCH  27  50
BRANCH  39  60
ATOM     60  C   UNL A   1      39.857  33.656  37.548  1.00  0.00    -0.014 A 
ATOM     61  C   UNL A   1      39.034  33.132  38.560  1.00  0.00     0.010 A 
ATOM     62  C   UNL A   1      40.427  34.932  37.705  1.00  0.00     0.010 A 
ATOM     63  C   UNL A   1      38.749  33.896  39.691  1.00  0.00     0.020 A 
ATOM     64  C   UNL A   1      40.176  35.681  38.852  1.00  0.00     0.020 A 
ATOM     65  C   UNL A   1      39.322  35.166  39.828  1.00  0.00     0.054 A 
BRANCH  65  66
ATOM     66  S   UNL A   1      38.964  36.123  41.323  1.00  0.00     0.124 S 
ATOM     67  O   UNL A   1      37.711  35.524  41.771  1.00  0.00    -0.237 OA
ATOM     68  O   UNL A   1      40.129  35.852  42.162  1.00  0.00    -0.237 OA
ATOM     69  O   UNL A   1      38.861  37.498  40.836  1.00  0.00    -0.744 OA
ENDBRANCH  65  66
ENDBRANCH  39  60
ENDBRANCH  13  14
ENDBRANCH   6   8
ENDBRANCH   5   6
ENDBRANCH   4   5
ENDBRANCH   3   4
ENDBRANCH   2   3
ENDBRANCH   1   2
BRANCH   1  70
ATOM     70  C   UNL A   1      39.740  21.951  26.520  1.00  0.00     0.188 C 
BRANCH  70  71
ATOM     71  O   UNL A   1      38.785  21.694  25.516  1.00  0.00    -0.376 OA
BRANCH  71  72
ATOM     72  C   UNL A   1      37.436  22.096  25.654  1.00  0.00     0.202 C 
BRANCH  72  73
ATOM     73  C   UNL A   1      36.720  23.078  24.710  1.00  0.00     0.261 C 
BRANCH  73  74
ATOM     74  O   UNL A   1      35.525  23.735  25.127  1.00  0.00    -0.463 OA
BRANCH  74  75
ATOM     75  C   UNL A   1      34.346  23.279  24.660  1.00  0.00     0.312 C 
ATOM     76  O   UNL A   1      34.223  22.487  23.730  1.00  0.00    -0.252 OA
BRANCH  75  77
ATOM     77  C   UNL A   1      33.188  23.766  25.482  1.00  0.00     0.147 C 
ATOM     78  C   UNL A   1      32.735  22.785  26.593  1.00  0.00     0.128 C 
ATOM     79  C   UNL A   1      31.888  23.926  24.686  1.00  0.00     0.157 C 
ATOM     80  C   UNL A   1      31.274  22.505  26.213  1.00  0.00     0.155 C 
ATOM     81  C   UNL A   1      30.866  24.638  25.528  1.00  0.00     0.004 C 
ATOM     82  O   UNL A   1      31.357  22.577  24.766  1.00  0.00    -0.365 OA
ATOM     83  C   UNL A   1      30.467  23.754  26.451  1.00  0.00     0.004 C 
BRANCH  78  84
ATOM     84  C   UNL A   1      33.566  21.549  26.921  1.00  0.00     0.227 C 
ATOM     85  O   UNL A   1      34.380  21.633  27.853  1.00  0.00    -0.275 OA
ATOM     86  N   UNL A   1      33.527  20.350  26.294  1.00  0.00    -0.352 N 
ATOM     87  H   UNL A   1      34.219  19.727  26.614  1.00  0.00     0.163 HD
BRANCH  86  88
ATOM     88  C   UNL A   1      32.690  19.782  25.256  1.00  0.00     0.151 C 
BRANCH  88  89
ATOM     89  C   UNL A   1      32.999  18.329  24.929  1.00  0.00    -0.026 A 
ATOM     90  C   UNL A   1      32.330  17.245  25.512  1.00  0.00     0.025 A 
ATOM     91  C   UNL A   1      34.126  18.038  24.148  1.00  0.00     0.025 A 
ATOM     92  C   UNL A   1      32.840  15.961  25.346  1.00  0.00     0.111 A 
ATOM     93  C   UNL A   1      34.551  16.721  24.029  1.00  0.00     0.111 A 
ATOM     94  N   UNL A   1      33.944  15.675  24.627  1.00  0.00    -0.265 NA
ENDBRANCH  88  89
ENDBRANCH  86  88
ENDBRANCH  78  84
ENDBRANCH  75  77
ENDBRANCH  74  75
ENDBRANCH  73  74
ENDBRANCH  72  73
ENDBRANCH  71  72
ENDBRANCH  70  71
ENDBRANCH   1  70
TORSDOF 23
ENDMDL
MODEL 3
REMARK VINA RESULT:      -9.8      4.622     11.924
REMARK SMILES O=C(OCCOCCOCCOC(=O)[C@@H]1[C@H](C(=O)NCc2ccncc2)[C@H]2C=C[C@@H]1O2)c1ccc(-c2c3nc(c(-c4ccc(S(=O)(=O)[O-])cc4)c4ccc([nH]4)c(-c4ccc(S(=O)(=O)[O-])cc4)c4nc(c(-c5ccc(S(=O)(=O)[O-])cc5)c5ccc2[nH]5)C=C4)C=C3)cc1
REMARK SMILES IDX 7 1 6 2 5 3 4 4 3 5 2 6 1 7 32 8 33 9 91 10 34 11 90 12
REMARK SMILES IDX 35 13 36 14 37 15 84 16 38 17 89 18 83 19 85 20 39 21 88 22
REMARK SMILES IDX 82 23 81 24 40 26 70 27 51 28 69 29 52 30 55 31 68 32 86 33
REMARK SMILES IDX 53 34 54 35 67 37 87 38 56 39 41 40 42 41 50 42 43 43 49 44
REMARK SMILES IDX 44 45 45 46 46 47 47 48 48 49 71 50 72 51 80 52 73 53 79 54
REMARK SMILES IDX 74 55 75 56 76 57 77 58 78 59 57 60 58 61 66 62 59 63 65 64
REMARK SMILES IDX 60 65 61 66 62 67 63 68 64 69 8 70 9 71 10 72 11 73 12 74
REMARK SMILES IDX 13 75 14 76 15 77 16 78 30 79 27 80 29 81 31 82 28 83 17 84
REMARK SMILES IDX 18 85 19 86 20 88 21 89 22 90 26 91 23 92 25 93 24 94
REMARK H PARENT 85 25 55 36 19 87
REMARK Flexibility Score: inf
ROOT
ATOM      1  C   UNL A   1      35.230  32.358  32.146  1.00  0.00     0.188 C 
ENDROOT
BRANCH   1   2
ATOM      2  O   UNL A   1      34.256  32.675  31.157  1.00  0.00    -0.376 OA
BRANCH   2   3
ATOM      3  C   UNL A   1      34.688  33.565  30.130  1.00  0.00     0.202 C 
BRANCH   3   4
ATOM      4  C   UNL A   1      34.006  33.436  28.764  1.00  0.00     0.261 C 
BRANCH   4   5
ATOM      5  O   UNL A   1      34.619  32.510  27.859  1.00  0.00    -0.460 OA
BRANCH   5   6
ATOM      6  C   UNL A   1      34.670  31.158  27.908  1.00  0.00     0.338 C 
ATOM      7  O   UNL A   1      33.631  30.541  27.671  1.00  0.00    -0.246 OA
BRANCH   6   8
ATOM      8  C   UNL A   1      35.882  30.358  28.291  1.00  0.00     0.060 A 
ATOM      9  C   UNL A   1      36.117  29.772  29.538  1.00  0.00     0.016 A 
ATOM     10  C   UNL A   1      36.871  30.196  27.296  1.00  0.00     0.016 A 
ATOM     11  C   UNL A   1      37.289  29.087  29.812  1.00  0.00     0.010 A 
ATOM     12  C   UNL A   1      38.080  29.552  27.575  1.00  0.00     0.010 A 
ATOM     13  C   UNL A   1      38.302  29.054  28.861  1.00  0.00    -0.014 A 
BRANCH  13  14
ATOM     14  C   UNL A   1      39.657  28.843  29.392  1.00  0.00     0.031 A 
ATOM     15  C   UNL A   1      40.308  27.540  29.040  1.00  0.00     0.074 A 
ATOM     16  C   UNL A   1      40.344  29.856  29.943  1.00  0.00     0.049 A 
ATOM     17  N   UNL A   1      41.535  27.156  29.242  1.00  0.00    -0.248 NA
ATOM     18  C   UNL A   1      39.483  26.566  28.299  1.00  0.00     0.031 C 
ATOM     19  C   UNL A   1      39.825  31.207  30.097  1.00  0.00     0.029 A 
ATOM     20  N   UNL A   1      41.617  29.935  30.429  1.00  0.00    -0.354 N 
ATOM     21  C   UNL A   1      41.630  25.905  28.647  1.00  0.00     0.074 A 
ATOM     22  C   UNL A   1      40.342  25.585  28.085  1.00  0.00     0.031 C 
ATOM     23  C   UNL A   1      40.753  31.986  30.672  1.00  0.00     0.029 A 
ATOM     24  C   UNL A   1      41.931  31.174  30.940  1.00  0.00     0.049 A 
ATOM     25  H   UNL A   1      42.248  29.180  30.417  1.00  0.00     0.167 HD
ATOM     26  C   UNL A   1      42.709  25.096  28.591  1.00  0.00     0.031 A 
ATOM     27  C   UNL A   1      43.048  31.587  31.563  1.00  0.00     0.031 A 
ATOM     28  C   UNL A   1      43.951  25.430  29.224  1.00  0.00     0.049 A 
ATOM     29  C   UNL A   1      44.175  30.596  31.653  1.00  0.00     0.074 A 
ATOM     30  C   UNL A   1      45.093  24.665  29.345  1.00  0.00     0.029 A 
ATOM     31  N   UNL A   1      44.197  26.637  29.870  1.00  0.00    -0.354 N 
ATOM     32  N   UNL A   1      44.238  29.384  31.148  1.00  0.00    -0.248 NA
ATOM     33  C   UNL A   1      45.380  31.020  32.370  1.00  0.00     0.031 C 
ATOM     34  C   UNL A   1      46.005  25.384  30.127  1.00  0.00     0.029 A 
ATOM     35  C   UNL A   1      45.462  26.628  30.422  1.00  0.00     0.049 A 
ATOM     36  H   UNL A   1      43.562  27.388  29.925  1.00  0.00     0.167 HD
ATOM     37  C   UNL A   1      45.505  28.911  31.449  1.00  0.00     0.074 A 
ATOM     38  C   UNL A   1      46.175  29.976  32.176  1.00  0.00     0.031 C 
ATOM     39  C   UNL A   1      46.073  27.717  31.147  1.00  0.00     0.031 A 
BRANCH  26  40
ATOM     40  C   UNL A   1      42.516  23.756  27.940  1.00  0.00    -0.014 A 
ATOM     41  C   UNL A   1      41.931  22.673  28.624  1.00  0.00     0.010 A 
ATOM     42  C   UNL A   1      42.998  23.560  26.634  1.00  0.00     0.010 A 
ATOM     43  C   UNL A   1      41.870  21.411  28.027  1.00  0.00     0.020 A 
ATOM     44  C   UNL A   1      42.915  22.306  26.024  1.00  0.00     0.020 A 
ATOM     45  C   UNL A   1      42.366  21.235  26.731  1.00  0.00     0.054 A 
BRANCH  45  46
ATOM     46  S   UNL A   1      42.274  19.589  25.975  1.00  0.00     0.124 S 
ATOM     47  O   UNL A   1      40.840  19.445  25.738  1.00  0.00    -0.237 OA
ATOM     48  O   UNL A   1      43.095  19.742  24.777  1.00  0.00    -0.237 OA
ATOM     49  O   UNL A   1      42.828  18.706  26.998  1.00  0.00    -0.744 OA
ENDBRANCH  45  46
ENDBRANCH  26  40
BRANCH  27  50
ATOM     50  C   UNL A   1      43.132  32.953  32.153  1.00  0.00    -0.014 A 
ATOM     51  C   UNL A   1      43.468  34.073  31.375  1.00  0.00     0.010 A 
ATOM     52  C   UNL A   1      42.870  33.139  33.527  1.00  0.00     0.010 A 
ATOM     53  C   UNL A   1      43.566  35.343  31.959  1.00  0.00     0.020 A 
ATOM     54  C   UNL A   1      42.940  34.408  34.109  1.00  0.00     0.020 A 
ATOM     55  C   UNL A   1      43.302  35.502  33.323  1.00  0.00     0.054 A 
BRANCH  55  56
ATOM     56  S   UNL A   1      43.417  37.160  34.054  1.00  0.00     0.124 S 
ATOM     57  O   UNL A   1      43.898  37.956  32.930  1.00  0.00    -0.237 OA
ATOM     58  O   UNL A   1      42.040  37.414  34.468  1.00  0.00    -0.237 OA
ATOM     59  O   UNL A   1      44.367  36.985  35.150  1.00  0.00    -0.744 OA
ENDBRANCH  55  56
ENDBRANCH  27  50
BRANCH  39  60
ATOM     60  C   UNL A   1      47.502  27.532  31.565  1.00  0.00    -0.014 A 
ATOM     61  C   UNL A   1      48.563  27.995  30.769  1.00  0.00     0.010 A 
ATOM     62  C   UNL A   1      47.773  26.927  32.805  1.00  0.00     0.010 A 
ATOM     63  C   UNL A   1      49.880  27.812  31.190  1.00  0.00     0.020 A 
ATOM     64  C   UNL A   1      49.086  26.778  33.245  1.00  0.00     0.020 A 
ATOM     65  C   UNL A   1      50.132  27.204  32.425  1.00  0.00     0.054 A 
BRANCH  65  66
ATOM     66  S   UNL A   1      51.849  27.009  32.964  1.00  0.00     0.124 S 
ATOM     67  O   UNL A   1      52.229  25.759  32.313  1.00  0.00    -0.237 OA
ATOM     68  O   UNL A   1      52.487  28.213  32.438  1.00  0.00    -0.237 OA
ATOM     69  O   UNL A   1      51.750  26.950  34.421  1.00  0.00    -0.744 OA
ENDBRANCH  65  66
ENDBRANCH  39  60
ENDBRANCH  13  14
ENDBRANCH   6   8
ENDBRANCH   5   6
ENDBRANCH   4   5
ENDBRANCH   3   4
ENDBRANCH   2   3
ENDBRANCH   1   2
BRANCH   1  70
ATOM     70  C   UNL A   1      35.622  33.467  33.117  1.00  0.00     0.188 C 
BRANCH  70  71
ATOM     71  O   UNL A   1      36.741  34.277  32.841  1.00  0.00    -0.376 OA
BRANCH  71  72
ATOM     72  C   UNL A   1      38.022  33.721  32.612  1.00  0.00     0.202 C 
BRANCH  72  73
ATOM     73  C   UNL A   1      39.311  34.190  33.311  1.00  0.00     0.261 C 
BRANCH  73  74
ATOM     74  O   UNL A   1      39.251  35.168  34.346  1.00  0.00    -0.463 OA
BRANCH  74  75
ATOM     75  C   UNL A   1      38.975  34.760  35.600  1.00  0.00     0.312 C 
ATOM     76  O   UNL A   1      37.966  34.141  35.926  1.00  0.00    -0.252 OA
BRANCH  75  77
ATOM     77  C   UNL A   1      40.102  35.051  36.548  1.00  0.00     0.147 C 
ATOM     78  C   UNL A   1      40.354  33.942  37.602  1.00  0.00     0.128 C 
ATOM     79  C   UNL A   1      39.852  36.262  37.454  1.00  0.00     0.157 C 
ATOM     80  C   UNL A   1      40.148  34.690  38.927  1.00  0.00     0.155 C 
ATOM     81  C   UNL A   1      41.116  36.614  38.187  1.00  0.00     0.004 C 
ATOM     82  O   UNL A   1      39.120  35.637  38.541  1.00  0.00    -0.365 OA
ATOM     83  C   UNL A   1      41.285  35.661  39.113  1.00  0.00     0.004 C 
BRANCH  78  84
ATOM     84  C   UNL A   1      39.638  32.600  37.500  1.00  0.00     0.227 C 
ATOM     85  O   UNL A   1      38.741  32.362  38.323  1.00  0.00    -0.275 OA
ATOM     86  N   UNL A   1      39.879  31.612  36.608  1.00  0.00    -0.352 N 
ATOM     87  H   UNL A   1      39.360  30.796  36.788  1.00  0.00     0.163 HD
BRANCH  86  88
ATOM     88  C   UNL A   1      40.734  31.492  35.443  1.00  0.00     0.151 C 
BRANCH  88  89
ATOM     89  C   UNL A   1      40.264  30.464  34.426  1.00  0.00    -0.026 A 
ATOM     90  C   UNL A   1      38.954  30.408  33.931  1.00  0.00     0.025 A 
ATOM     91  C   UNL A   1      41.118  29.404  34.094  1.00  0.00     0.025 A 
ATOM     92  C   UNL A   1      38.549  29.294  33.201  1.00  0.00     0.111 A 
ATOM     93  C   UNL A   1      40.626  28.341  33.346  1.00  0.00     0.111 A 
ATOM     94  N   UNL A   1      39.353  28.251  32.908  1.00  0.00    -0.265 NA
ENDBRANCH  88  89
ENDBRANCH  86  88
ENDBRANCH  78  84
ENDBRANCH  75  77
ENDBRANCH  74  75
ENDBRANCH  73  74
ENDBRANCH  72  73
ENDBRANCH  71  72
ENDBRANCH  70  71
ENDBRANCH   1  70
TORSDOF 23
ENDMDL
