MODEL 1
REMARK VINA RESULT:      -8.1      0.000      0.000
REMARK SMILES COCCCNC(=O)C[N@H+]1CC[C@H](C(=O)OCCOCCOCCOC(=O)c2ccc(-c3c4nc(c(-c5ccc(S(=O)(=O)[O-])cc5)c5ccc([nH]5)c(-c5ccc(S(=O)(=O)[O-])cc5)c5nc(c(-c6ccc(S(=O)(=O)[O-])cc6)c6ccc3[nH]6)C=C5)C=C4)cc2)[C@@H]1C
REMARK SMILES IDX 19 1 18 2 17 3 16 4 14 5 15 6 13 7 10 8 11 9 88 10 12 12
REMARK SMILES IDX 89 13 9 14 7 15 6 16 8 18 5 19 4 20 3 21 2 22 1 23 20 24
REMARK SMILES IDX 21 25 22 26 23 27 24 28 25 29 26 30 27 31 28 32 29 33 87 34
REMARK SMILES IDX 30 35 86 36 31 37 32 38 33 39 80 40 34 41 85 42 79 43 81 44
REMARK SMILES IDX 35 45 84 46 78 47 77 48 36 50 66 51 47 52 65 53 48 54 51 55
REMARK SMILES IDX 64 56 82 57 49 58 50 59 63 61 83 62 52 63 37 64 38 65 46 66
REMARK SMILES IDX 39 67 45 68 40 69 41 70 42 71 43 72 44 73 67 74 68 75 76 76
REMARK SMILES IDX 69 77 75 78 70 79 71 80 72 81 73 82 74 83 53 84 54 85 62 86
REMARK SMILES IDX 55 87 61 88 56 89 57 90 58 91 59 92 60 93
REMARK H PARENT 10 11 6 17 81 49 51 60
REMARK Flexibility Score: inf
ROOT
ATOM      1  O   UNL A   1      34.804  31.577  27.516  1.00  0.00    -0.376 OA
ENDROOT
BRANCH   1   2
ATOM      2  C   UNL A   1      33.776  30.631  27.756  1.00  0.00     0.202 C 
BRANCH   2   3
ATOM      3  C   UNL A   1      33.659  29.451  26.787  1.00  0.00     0.261 C 
BRANCH   3   4
ATOM      4  O   UNL A   1      32.333  29.203  26.280  1.00  0.00    -0.463 OA
BRANCH   4   5
ATOM      5  C   UNL A   1      31.722  28.059  26.679  1.00  0.00     0.315 C 
ATOM      6  O   UNL A   1      31.584  27.732  27.852  1.00  0.00    -0.252 OA
BRANCH   5   7
ATOM      7  C   UNL A   1      31.208  27.189  25.537  1.00  0.00     0.162 C 
ATOM      8  N   UNL A   1      32.229  26.275  23.517  1.00  0.00    -0.324 N 
ATOM      9  C   UNL A   1      31.564  27.532  23.160  1.00  0.00     0.264 C 
ATOM     10  C   UNL A   1      32.116  26.086  24.983  1.00  0.00     0.195 C 
ATOM     11  H   UNL A   1      33.223  26.303  23.286  1.00  0.00     0.348 HD
ATOM     12  C   UNL A   1      30.660  27.913  24.318  1.00  0.00     0.083 C 
ATOM     13  C   UNL A   1      33.514  25.983  25.583  1.00  0.00     0.076 C 
BRANCH   8  14
ATOM     14  C   UNL A   1      31.664  25.160  22.728  1.00  0.00     0.363 C 
BRANCH  14  15
ATOM     15  C   UNL A   1      32.672  24.037  22.498  1.00  0.00     0.275 C 
ATOM     16  N   UNL A   1      32.595  22.872  23.199  1.00  0.00    -0.351 N 
ATOM     17  H   UNL A   1      33.220  22.169  22.907  1.00  0.00     0.163 HD
ATOM     18  O   UNL A   1      33.591  24.155  21.683  1.00  0.00    -0.269 OA
BRANCH  16  19
ATOM     19  C   UNL A   1      31.736  22.505  24.310  1.00  0.00     0.118 C 
BRANCH  19  20
ATOM     20  C   UNL A   1      32.301  21.407  25.222  1.00  0.00     0.050 C 
BRANCH  20  21
ATOM     21  C   UNL A   1      33.351  21.824  26.253  1.00  0.00     0.161 C 
BRANCH  21  22
ATOM     22  O   UNL A   1      34.540  21.038  26.220  1.00  0.00    -0.385 OA
ATOM     23  C   UNL A   1      34.940  20.623  24.926  1.00  0.00     0.194 C 
ENDBRANCH  21  22
ENDBRANCH  20  21
ENDBRANCH  19  20
ENDBRANCH  16  19
ENDBRANCH  14  15
ENDBRANCH   8  14
ENDBRANCH   5   7
ENDBRANCH   4   5
ENDBRANCH   3   4
ENDBRANCH   2   3
ENDBRANCH   1   2
BRANCH   1  24
ATOM     24  C   UNL A   1      35.559  32.068  28.617  1.00  0.00     0.188 C 
BRANCH  24  25
ATOM     25  C   UNL A   1      36.319  33.402  28.480  1.00  0.00     0.188 C 
BRANCH  25  26
ATOM     26  O   UNL A   1      35.516  34.536  28.769  1.00  0.00    -0.376 OA
BRANCH  26  27
ATOM     27  C   UNL A   1      34.243  34.560  28.154  1.00  0.00     0.202 C 
BRANCH  27  28
ATOM     28  C   UNL A   1      33.137  35.093  29.070  1.00  0.00     0.261 C 
BRANCH  28  29
ATOM     29  O   UNL A   1      33.588  35.770  30.260  1.00  0.00    -0.460 OA
BRANCH  29  30
ATOM     30  C   UNL A   1      33.225  35.239  31.449  1.00  0.00     0.338 C 
ATOM     31  O   UNL A   1      32.085  35.126  31.872  1.00  0.00    -0.246 OA
BRANCH  30  32
ATOM     32  C   UNL A   1      34.417  34.618  32.078  1.00  0.00     0.060 A 
ATOM     33  C   UNL A   1      35.578  35.386  32.231  1.00  0.00     0.016 A 
ATOM     34  C   UNL A   1      34.399  33.289  32.514  1.00  0.00     0.016 A 
ATOM     35  C   UNL A   1      36.733  34.817  32.778  1.00  0.00     0.010 A 
ATOM     36  C   UNL A   1      35.562  32.717  33.048  1.00  0.00     0.010 A 
ATOM     37  C   UNL A   1      36.747  33.465  33.153  1.00  0.00    -0.014 A 
BRANCH  37  38
ATOM     38  C   UNL A   1      38.037  32.799  33.488  1.00  0.00     0.031 A 
ATOM     39  C   UNL A   1      38.631  33.015  34.858  1.00  0.00     0.074 A 
ATOM     40  C   UNL A   1      38.666  31.989  32.615  1.00  0.00     0.049 A 
ATOM     41  N   UNL A   1      39.742  32.548  35.366  1.00  0.00    -0.248 NA
ATOM     42  C   UNL A   1      37.862  33.871  35.777  1.00  0.00     0.031 C 
ATOM     43  C   UNL A   1      38.193  31.657  31.273  1.00  0.00     0.029 A 
ATOM     44  N   UNL A   1      39.849  31.297  32.735  1.00  0.00    -0.354 N 
ATOM     45  C   UNL A   1      39.808  33.051  36.661  1.00  0.00     0.074 A 
ATOM     46  C   UNL A   1      38.643  33.888  36.848  1.00  0.00     0.031 C 
ATOM     47  C   UNL A   1      39.081  30.832  30.690  1.00  0.00     0.029 A 
ATOM     48  C   UNL A   1      40.200  30.600  31.602  1.00  0.00     0.049 A 
ATOM     49  H   UNL A   1      40.394  31.301  33.554  1.00  0.00     0.167 HD
ATOM     50  C   UNL A   1      40.745  32.832  37.616  1.00  0.00     0.031 A 
ATOM     51  C   UNL A   1      41.303  29.874  31.323  1.00  0.00     0.031 A 
ATOM     52  C   UNL A   1      41.921  32.023  37.432  1.00  0.00     0.049 A 
ATOM     53  C   UNL A   1      42.376  29.711  32.373  1.00  0.00     0.074 A 
ATOM     54  C   UNL A   1      42.926  31.745  38.343  1.00  0.00     0.029 A 
ATOM     55  N   UNL A   1      42.257  31.367  36.258  1.00  0.00    -0.354 N 
ATOM     56  N   UNL A   1      42.410  30.175  33.600  1.00  0.00    -0.248 NA
ATOM     57  C   UNL A   1      43.555  28.914  32.002  1.00  0.00     0.031 C 
ATOM     58  C   UNL A   1      43.899  30.973  37.701  1.00  0.00     0.029 A 
ATOM     59  C   UNL A   1      43.466  30.708  36.412  1.00  0.00     0.049 A 
ATOM     60  H   UNL A   1      41.717  31.370  35.435  1.00  0.00     0.167 HD
ATOM     61  C   UNL A   1      43.599  29.705  34.153  1.00  0.00     0.074 A 
ATOM     62  C   UNL A   1      44.244  28.902  33.135  1.00  0.00     0.031 C 
ATOM     63  C   UNL A   1      44.108  29.915  35.393  1.00  0.00     0.031 A 
BRANCH  50  64
ATOM     64  C   UNL A   1      40.547  33.510  38.948  1.00  0.00    -0.014 A 
ATOM     65  C   UNL A   1      41.295  34.648  39.303  1.00  0.00     0.010 A 
ATOM     66  C   UNL A   1      39.575  33.025  39.842  1.00  0.00     0.010 A 
ATOM     67  C   UNL A   1      41.103  35.261  40.545  1.00  0.00     0.020 A 
ATOM     68  C   UNL A   1      39.359  33.653  41.071  1.00  0.00     0.020 A 
ATOM     69  C   UNL A   1      40.138  34.758  41.422  1.00  0.00     0.054 A 
BRANCH  69  70
ATOM     70  S   UNL A   1      39.901  35.584  43.019  1.00  0.00     0.124 S 
ATOM     71  O   UNL A   1      40.492  36.896  42.771  1.00  0.00    -0.237 OA
ATOM     72  O   UNL A   1      38.449  35.570  43.174  1.00  0.00    -0.237 OA
ATOM     73  O   UNL A   1      40.634  34.739  43.960  1.00  0.00    -0.744 OA
ENDBRANCH  69  70
ENDBRANCH  50  64
BRANCH  51  74
ATOM     74  C   UNL A   1      41.472  29.260  29.974  1.00  0.00    -0.014 A 
ATOM     75  C   UNL A   1      41.044  27.945  29.717  1.00  0.00     0.010 A 
ATOM     76  C   UNL A   1      42.087  29.990  28.938  1.00  0.00     0.010 A 
ATOM     77  C   UNL A   1      41.243  27.367  28.458  1.00  0.00     0.020 A 
ATOM     78  C   UNL A   1      42.259  29.427  27.671  1.00  0.00     0.020 A 
ATOM     79  C   UNL A   1      41.845  28.114  27.441  1.00  0.00     0.054 A 
BRANCH  79  80
ATOM     80  S   UNL A   1      42.048  27.360  25.803  1.00  0.00     0.124 S 
ATOM     81  O   UNL A   1      43.309  26.641  25.953  1.00  0.00    -0.237 OA
ATOM     82  O   UNL A   1      40.854  26.527  25.690  1.00  0.00    -0.237 OA
ATOM     83  O   UNL A   1      42.086  28.509  24.900  1.00  0.00    -0.744 OA
ENDBRANCH  79  80
ENDBRANCH  51  74
BRANCH  63  84
ATOM     84  C   UNL A   1      45.413  29.241  35.738  1.00  0.00    -0.014 A 
ATOM     85  C   UNL A   1      45.450  27.942  36.280  1.00  0.00     0.010 A 
ATOM     86  C   UNL A   1      46.628  29.904  35.480  1.00  0.00     0.010 A 
ATOM     87  C   UNL A   1      46.672  27.340  36.597  1.00  0.00     0.020 A 
ATOM     88  C   UNL A   1      47.853  29.293  35.766  1.00  0.00     0.020 A 
ATOM     89  C   UNL A   1      47.866  28.021  36.340  1.00  0.00     0.054 A 
BRANCH  89  90
ATOM     90  S   UNL A   1      49.439  27.210  36.739  1.00  0.00     0.124 S 
ATOM     91  O   UNL A   1      50.414  28.207  36.306  1.00  0.00    -0.237 OA
ATOM     92  O   UNL A   1      49.341  27.013  38.184  1.00  0.00    -0.237 OA
ATOM     93  O   UNL A   1      49.409  25.984  35.946  1.00  0.00    -0.744 OA
ENDBRANCH  89  90
ENDBRANCH  63  84
ENDBRANCH  37  38
ENDBRANCH  30  32
ENDBRANCH  29  30
ENDBRANCH  28  29
ENDBRANCH  27  28
ENDBRANCH  26  27
ENDBRANCH  25  26
ENDBRANCH  24  25
ENDBRANCH   1  24
TORSDOF 26
ENDMDL
MODEL 2
REMARK VINA RESULT:      -7.8      5.360     12.468
REMARK SMILES COCCCNC(=O)C[N@H+]1CC[C@H](C(=O)OCCOCCOCCOC(=O)c2ccc(-c3c4nc(c(-c5ccc(S(=O)(=O)[O-])cc5)c5ccc([nH]5)c(-c5ccc(S(=O)(=O)[O-])cc5)c5nc(c(-c6ccc(S(=O)(=O)[O-])cc6)c6ccc3[nH]6)C=C5)C=C4)cc2)[C@@H]1C
REMARK SMILES IDX 19 1 18 2 17 3 16 4 14 5 15 6 13 7 10 8 11 9 88 10 12 12
REMARK SMILES IDX 89 13 9 14 7 15 6 16 8 18 5 19 4 20 3 21 2 22 1 23 20 24
REMARK SMILES IDX 21 25 22 26 23 27 24 28 25 29 26 30 27 31 28 32 29 33 87 34
REMARK SMILES IDX 30 35 86 36 31 37 32 38 33 39 80 40 34 41 85 42 79 43 81 44
REMARK SMILES IDX 35 45 84 46 78 47 77 48 36 50 66 51 47 52 65 53 48 54 51 55
REMARK SMILES IDX 64 56 82 57 49 58 50 59 63 61 83 62 52 63 37 64 38 65 46 66
REMARK SMILES IDX 39 67 45 68 40 69 41 70 42 71 43 72 44 73 67 74 68 75 76 76
REMARK SMILES IDX 69 77 75 78 70 79 71 80 72 81 73 82 74 83 53 84 54 85 62 86
REMARK SMILES IDX 55 87 61 88 56 89 57 90 58 91 59 92 60 93
REMARK H PARENT 10 11 6 17 81 49 51 60
REMARK Flexibility Score: inf
ROOT
ATOM      1  O   UNL A   1      44.437  21.397  23.787  1.00  0.00    -0.376 OA
ENDROOT
BRANCH   1   2
ATOM      2  C   UNL A   1      44.859  22.749  23.849  1.00  0.00     0.202 C 
BRANCH   2   3
ATOM      3  C   UNL A   1      46.313  23.020  24.243  1.00  0.00     0.261 C 
BRANCH   3   4
ATOM      4  O   UNL A   1      46.564  24.323  24.805  1.00  0.00    -0.463 OA
BRANCH   4   5
ATOM      5  C   UNL A   1      46.866  24.379  26.126  1.00  0.00     0.315 C 
ATOM      6  O   UNL A   1      46.504  23.544  26.946  1.00  0.00    -0.252 OA
BRANCH   5   7
ATOM      7  C   UNL A   1      47.709  25.586  26.527  1.00  0.00     0.162 C 
ATOM      8  N   UNL A   1      47.561  27.978  26.070  1.00  0.00    -0.324 N 
ATOM      9  C   UNL A   1      48.472  27.385  25.087  1.00  0.00     0.264 C 
ATOM     10  C   UNL A   1      46.999  26.889  26.904  1.00  0.00     0.195 C 
ATOM     11  H   UNL A   1      46.780  28.452  25.614  1.00  0.00     0.348 HD
ATOM     12  C   UNL A   1      48.822  25.991  25.574  1.00  0.00     0.083 C 
ATOM     13  C   UNL A   1      45.479  26.902  26.784  1.00  0.00     0.076 C 
BRANCH   8  14
ATOM     14  C   UNL A   1      48.264  29.022  26.847  1.00  0.00     0.363 C 
BRANCH  14  15
ATOM     15  C   UNL A   1      47.465  29.480  28.065  1.00  0.00     0.275 C 
ATOM     16  N   UNL A   1      46.354  30.254  27.923  1.00  0.00    -0.351 N 
ATOM     17  H   UNL A   1      45.847  30.409  28.754  1.00  0.00     0.163 HD
ATOM     18  O   UNL A   1      47.809  29.175  29.210  1.00  0.00    -0.269 OA
BRANCH  16  19
ATOM     19  C   UNL A   1      45.801  30.887  26.740  1.00  0.00     0.118 C 
BRANCH  19  20
ATOM     20  C   UNL A   1      44.294  31.173  26.811  1.00  0.00     0.050 C 
BRANCH  20  21
ATOM     21  C   UNL A   1      43.563  30.761  28.091  1.00  0.00     0.161 C 
BRANCH  21  22
ATOM     22  O   UNL A   1      43.927  31.526  29.238  1.00  0.00    -0.385 OA
ATOM     23  C   UNL A   1      43.674  32.915  29.128  1.00  0.00     0.194 C 
ENDBRANCH  21  22
ENDBRANCH  20  21
ENDBRANCH  19  20
ENDBRANCH  16  19
ENDBRANCH  14  15
ENDBRANCH   8  14
ENDBRANCH   5   7
ENDBRANCH   4   5
ENDBRANCH   3   4
ENDBRANCH   2   3
ENDBRANCH   1   2
BRANCH   1  24
ATOM     24  C   UNL A   1      45.226  20.400  24.425  1.00  0.00     0.188 C 
BRANCH  24  25
ATOM     25  C   UNL A   1      44.700  18.953  24.502  1.00  0.00     0.188 C 
BRANCH  25  26
ATOM     26  O   UNL A   1      44.170  18.616  25.774  1.00  0.00    -0.376 OA
BRANCH  26  27
ATOM     27  C   UNL A   1      42.773  18.398  25.819  1.00  0.00     0.202 C 
BRANCH  27  28
ATOM     28  C   UNL A   1      42.000  19.551  26.466  1.00  0.00     0.261 C 
BRANCH  28  29
ATOM     29  O   UNL A   1      41.808  20.714  25.636  1.00  0.00    -0.460 OA
BRANCH  29  30
ATOM     30  C   UNL A   1      40.828  21.574  25.993  1.00  0.00     0.338 C 
ATOM     31  O   UNL A   1      39.628  21.410  25.833  1.00  0.00    -0.246 OA
BRANCH  30  32
ATOM     32  C   UNL A   1      41.423  22.663  26.807  1.00  0.00     0.060 A 
ATOM     33  C   UNL A   1      41.467  22.519  28.199  1.00  0.00     0.016 A 
ATOM     34  C   UNL A   1      41.932  23.821  26.210  1.00  0.00     0.016 A 
ATOM     35  C   UNL A   1      41.979  23.547  28.998  1.00  0.00     0.010 A 
ATOM     36  C   UNL A   1      42.431  24.855  27.013  1.00  0.00     0.010 A 
ATOM     37  C   UNL A   1      42.427  24.741  28.414  1.00  0.00    -0.014 A 
BRANCH  37  38
ATOM     38  C   UNL A   1      42.726  25.923  29.272  1.00  0.00     0.031 A 
ATOM     39  C   UNL A   1      44.062  25.994  29.969  1.00  0.00     0.074 A 
ATOM     40  C   UNL A   1      41.851  26.937  29.413  1.00  0.00     0.049 A 
ATOM     41  N   UNL A   1      44.535  26.916  30.768  1.00  0.00    -0.248 NA
ATOM     42  C   UNL A   1      44.987  24.875  29.727  1.00  0.00     0.031 C 
ATOM     43  C   UNL A   1      40.541  27.024  28.771  1.00  0.00     0.029 A 
ATOM     44  N   UNL A   1      41.940  28.094  30.153  1.00  0.00    -0.354 N 
ATOM     45  C   UNL A   1      45.810  26.491  31.125  1.00  0.00     0.074 A 
ATOM     46  C   UNL A   1      46.022  25.211  30.484  1.00  0.00     0.031 C 
ATOM     47  C   UNL A   1      39.944  28.169  29.151  1.00  0.00     0.029 A 
ATOM     48  C   UNL A   1      40.814  28.882  30.086  1.00  0.00     0.049 A 
ATOM     49  H   UNL A   1      42.734  28.335  30.681  1.00  0.00     0.167 HD
ATOM     50  C   UNL A   1      46.729  27.109  31.906  1.00  0.00     0.031 A 
ATOM     51  C   UNL A   1      40.509  30.035  30.718  1.00  0.00     0.031 A 
ATOM     52  C   UNL A   1      46.519  28.368  32.569  1.00  0.00     0.049 A 
ATOM     53  C   UNL A   1      41.516  30.665  31.650  1.00  0.00     0.074 A 
ATOM     54  C   UNL A   1      47.393  29.070  33.382  1.00  0.00     0.029 A 
ATOM     55  N   UNL A   1      45.351  29.113  32.506  1.00  0.00    -0.354 N 
ATOM     56  N   UNL A   1      42.726  30.260  31.957  1.00  0.00    -0.248 NA
ATOM     57  C   UNL A   1      41.118  31.916  32.312  1.00  0.00     0.031 C 
ATOM     58  C   UNL A   1      46.732  30.207  33.858  1.00  0.00     0.029 A 
ATOM     59  C   UNL A   1      45.472  30.252  33.286  1.00  0.00     0.049 A 
ATOM     60  H   UNL A   1      44.552  28.868  31.985  1.00  0.00     0.167 HD
ATOM     61  C   UNL A   1      43.240  31.220  32.826  1.00  0.00     0.074 A 
ATOM     62  C   UNL A   1      42.220  32.236  32.978  1.00  0.00     0.031 C 
ATOM     63  C   UNL A   1      44.450  31.258  33.439  1.00  0.00     0.031 A 
BRANCH  50  64
ATOM     64  C   UNL A   1      48.048  26.407  32.110  1.00  0.00    -0.014 A 
ATOM     65  C   UNL A   1      49.091  26.531  31.174  1.00  0.00     0.010 A 
ATOM     66  C   UNL A   1      48.259  25.641  33.272  1.00  0.00     0.010 A 
ATOM     67  C   UNL A   1      50.305  25.868  31.376  1.00  0.00     0.020 A 
ATOM     68  C   UNL A   1      49.482  25.002  33.492  1.00  0.00     0.020 A 
ATOM     69  C   UNL A   1      50.492  25.106  32.533  1.00  0.00     0.054 A 
BRANCH  69  70
ATOM     70  S   UNL A   1      52.084  24.271  32.775  1.00  0.00     0.124 S 
ATOM     71  O   UNL A   1      52.987  25.111  31.992  1.00  0.00    -0.237 OA
ATOM     72  O   UNL A   1      52.262  24.337  34.223  1.00  0.00    -0.237 OA
ATOM     73  O   UNL A   1      51.858  22.931  32.237  1.00  0.00    -0.744 OA
ENDBRANCH  69  70
ENDBRANCH  50  64
BRANCH  51  74
ATOM     74  C   UNL A   1      39.173  30.667  30.516  1.00  0.00    -0.014 A 
ATOM     75  C   UNL A   1      38.837  31.279  29.295  1.00  0.00     0.010 A 
ATOM     76  C   UNL A   1      38.231  30.677  31.563  1.00  0.00     0.010 A 
ATOM     77  C   UNL A   1      37.594  31.902  29.131  1.00  0.00     0.020 A 
ATOM     78  C   UNL A   1      36.978  31.270  31.393  1.00  0.00     0.020 A 
ATOM     79  C   UNL A   1      36.671  31.889  30.181  1.00  0.00     0.054 A 
BRANCH  79  80
ATOM     80  S   UNL A   1      35.048  32.661  29.928  1.00  0.00     0.124 S 
ATOM     81  O   UNL A   1      34.521  31.899  28.801  1.00  0.00    -0.237 OA
ATOM     82  O   UNL A   1      34.388  32.431  31.211  1.00  0.00    -0.237 OA
ATOM     83  O   UNL A   1      35.373  34.057  29.644  1.00  0.00    -0.744 OA
ENDBRANCH  79  80
ENDBRANCH  51  74
BRANCH  63  84
ATOM     84  C   UNL A   1      44.759  32.454  34.306  1.00  0.00    -0.014 A 
ATOM     85  C   UNL A   1      44.475  32.456  35.685  1.00  0.00     0.010 A 
ATOM     86  C   UNL A   1      45.381  33.582  33.738  1.00  0.00     0.010 A 
ATOM     87  C   UNL A   1      44.766  33.579  36.466  1.00  0.00     0.020 A 
ATOM     88  C   UNL A   1      45.702  34.694  34.523  1.00  0.00     0.020 A 
ATOM     89  C   UNL A   1      45.375  34.693  35.879  1.00  0.00     0.054 A 
BRANCH  89  90
ATOM     90  S   UNL A   1      45.763  36.128  36.919  1.00  0.00     0.124 S 
ATOM     91  O   UNL A   1      45.420  37.242  36.040  1.00  0.00    -0.237 OA
ATOM     92  O   UNL A   1      44.880  35.940  38.068  1.00  0.00    -0.237 OA
ATOM     93  O   UNL A   1      47.187  35.976  37.205  1.00  0.00    -0.744 OA
ENDBRANCH  89  90
ENDBRANCH  63  84
ENDBRANCH  37  38
ENDBRANCH  30  32
ENDBRANCH  29  30
ENDBRANCH  28  29
ENDBRANCH  27  28
ENDBRANCH  26  27
ENDBRANCH  25  26
ENDBRANCH  24  25
ENDBRANCH   1  24
TORSDOF 26
ENDMDL
MODEL 3
REMARK VINA RESULT:      -7.3      5.277      7.699
REMARK SMILES COCCCNC(=O)C[N@H+]1CC[C@H](C(=O)OCCOCCOCCOC(=O)c2ccc(-c3c4nc(c(-c5ccc(S(=O)(=O)[O-])cc5)c5ccc([nH]5)c(-c5ccc(S(=O)(=O)[O-])cc5)c5nc(c(-c6ccc(S(=O)(=O)[O-])cc6)c6ccc3[nH]6)C=C5)C=C4)cc2)[C@@H]1C
REMARK SMILES IDX 19 1 18 2 17 3 16 4 14 5 15 6 13 7 10 8 11 9 88 10 12 12
REMARK SMILES IDX 89 13 9 14 7 15 6 16 8 18 5 19 4 20 3 21 2 22 1 23 20 24
REMARK SMILES IDX 21 25 22 26 23 27 24 28 25 29 26 30 27 31 28 32 29 33 87 34
REMARK SMILES IDX 30 35 86 36 31 37 32 38 33 39 80 40 34 41 85 42 79 43 81 44
REMARK SMILES IDX 35 45 84 46 78 47 77 48 36 50 66 51 47 52 65 53 48 54 51 55
REMARK SMILES IDX 64 56 82 57 49 58 50 59 63 61 83 62 52 63 37 64 38 65 46 66
REMARK SMILES IDX 39 67 45 68 40 69 41 70 42 71 43 72 44 73 67 74 68 75 76 76
REMARK SMILES IDX 69 77 75 78 70 79 71 80 72 81 73 82 74 83 53 84 54 85 62 86
REMARK SMILES IDX 55 87 61 88 56 89 57 90 58 91 59 92 60 93
REMARK H PARENT 10 11 6 17 81 49 51 60
REMARK Flexibility Score: inf
ROOT
ATOM      1  O   UNL A   1      36.159  31.148  27.830  1.00  0.00    -0.376 OA
ENDROOT
BRANCH   1   2
ATOM      2  C   UNL A   1      36.034  29.742  27.712  1.00  0.00     0.202 C 
BRANCH   2   3
ATOM      3  C   UNL A   1      34.633  29.173  27.469  1.00  0.00     0.261 C 
BRANCH   3   4
ATOM      4  O   UNL A   1      34.407  28.638  26.149  1.00  0.00    -0.463 OA
BRANCH   4   5
ATOM      5  C   UNL A   1      33.264  29.009  25.520  1.00  0.00     0.315 C 
ATOM      6  O   UNL A   1      32.786  30.135  25.578  1.00  0.00    -0.252 OA
BRANCH   5   7
ATOM      7  C   UNL A   1      32.601  27.895  24.715  1.00  0.00     0.162 C 
ATOM      8  N   UNL A   1      31.832  27.707  22.406  1.00  0.00    -0.324 N 
ATOM      9  C   UNL A   1      30.688  28.097  23.234  1.00  0.00     0.264 C 
ATOM     10  C   UNL A   1      33.041  27.671  23.265  1.00  0.00     0.195 C 
ATOM     11  H   UNL A   1      32.002  28.385  21.663  1.00  0.00     0.348 HD
ATOM     12  C   UNL A   1      31.082  27.884  24.684  1.00  0.00     0.083 C 
ATOM     13  C   UNL A   1      34.079  28.638  22.705  1.00  0.00     0.076 C 
BRANCH   8  14
ATOM     14  C   UNL A   1      31.550  26.426  21.723  1.00  0.00     0.363 C 
BRANCH  14  15
ATOM     15  C   UNL A   1      32.629  25.377  21.980  1.00  0.00     0.275 C 
ATOM     16  N   UNL A   1      32.491  24.458  22.975  1.00  0.00    -0.351 N 
ATOM     17  H   UNL A   1      33.184  23.758  22.994  1.00  0.00     0.163 HD
ATOM     18  O   UNL A   1      33.661  25.338  21.303  1.00  0.00    -0.269 OA
BRANCH  16  19
ATOM     19  C   UNL A   1      31.481  24.350  24.012  1.00  0.00     0.118 C 
BRANCH  19  20
ATOM     20  C   UNL A   1      31.374  22.961  24.659  1.00  0.00     0.050 C 
BRANCH  20  21
ATOM     21  C   UNL A   1      32.452  21.937  24.302  1.00  0.00     0.161 C 
BRANCH  21  22
ATOM     22  O   UNL A   1      33.764  22.305  24.723  1.00  0.00    -0.385 OA
ATOM     23  C   UNL A   1      34.684  21.231  24.803  1.00  0.00     0.194 C 
ENDBRANCH  21  22
ENDBRANCH  20  21
ENDBRANCH  19  20
ENDBRANCH  16  19
ENDBRANCH  14  15
ENDBRANCH   8  14
ENDBRANCH   5   7
ENDBRANCH   4   5
ENDBRANCH   3   4
ENDBRANCH   2   3
ENDBRANCH   1   2
BRANCH   1  24
ATOM     24  C   UNL A   1      37.282  31.684  28.520  1.00  0.00     0.188 C 
BRANCH  24  25
ATOM     25  C   UNL A   1      37.365  33.204  28.766  1.00  0.00     0.188 C 
BRANCH  25  26
ATOM     26  O   UNL A   1      36.845  33.596  30.026  1.00  0.00    -0.376 OA
BRANCH  26  27
ATOM     27  C   UNL A   1      35.490  34.003  30.032  1.00  0.00     0.202 C 
BRANCH  27  28
ATOM     28  C   UNL A   1      34.521  32.877  30.409  1.00  0.00     0.261 C 
BRANCH  28  29
ATOM     29  O   UNL A   1      34.597  32.423  31.775  1.00  0.00    -0.460 OA
BRANCH  29  30
ATOM     30  C   UNL A   1      35.582  31.549  32.082  1.00  0.00     0.338 C 
ATOM     31  O   UNL A   1      35.929  30.588  31.415  1.00  0.00    -0.246 OA
BRANCH  30  32
ATOM     32  C   UNL A   1      36.323  32.061  33.261  1.00  0.00     0.060 A 
ATOM     33  C   UNL A   1      35.932  33.282  33.826  1.00  0.00     0.016 A 
ATOM     34  C   UNL A   1      37.396  31.352  33.809  1.00  0.00     0.016 A 
ATOM     35  C   UNL A   1      36.639  33.815  34.910  1.00  0.00     0.010 A 
ATOM     36  C   UNL A   1      38.111  31.895  34.885  1.00  0.00     0.010 A 
ATOM     37  C   UNL A   1      37.761  33.146  35.422  1.00  0.00    -0.014 A 
BRANCH  37  38
ATOM     38  C   UNL A   1      38.658  33.833  36.394  1.00  0.00     0.031 A 
ATOM     39  C   UNL A   1      38.392  33.666  37.870  1.00  0.00     0.074 A 
ATOM     40  C   UNL A   1      39.712  34.568  35.990  1.00  0.00     0.049 A 
ATOM     41  N   UNL A   1      39.031  34.175  38.892  1.00  0.00    -0.248 NA
ATOM     42  C   UNL A   1      37.254  32.807  38.237  1.00  0.00     0.031 C 
ATOM     43  C   UNL A   1      40.113  34.786  34.602  1.00  0.00     0.029 A 
ATOM     44  N   UNL A   1      40.640  35.272  36.723  1.00  0.00    -0.354 N 
ATOM     45  C   UNL A   1      38.375  33.699  40.023  1.00  0.00     0.074 A 
ATOM     46  C   UNL A   1      37.268  32.892  39.560  1.00  0.00     0.031 C 
ATOM     47  C   UNL A   1      41.201  35.577  34.582  1.00  0.00     0.029 A 
ATOM     48  C   UNL A   1      41.557  35.948  35.951  1.00  0.00     0.049 A 
ATOM     49  H   UNL A   1      40.646  35.292  37.706  1.00  0.00     0.167 HD
ATOM     50  C   UNL A   1      38.669  33.904  41.330  1.00  0.00     0.031 A 
ATOM     51  C   UNL A   1      42.556  36.784  36.304  1.00  0.00     0.031 A 
ATOM     52  C   UNL A   1      39.752  34.727  41.801  1.00  0.00     0.049 A 
ATOM     53  C   UNL A   1      42.815  37.065  37.764  1.00  0.00     0.074 A 
ATOM     54  C   UNL A   1      40.125  34.994  43.108  1.00  0.00     0.029 A 
ATOM     55  N   UNL A   1      40.632  35.423  40.987  1.00  0.00    -0.354 N 
ATOM     56  N   UNL A   1      42.199  36.588  38.820  1.00  0.00    -0.248 NA
ATOM     57  C   UNL A   1      43.914  37.991  38.079  1.00  0.00     0.031 C 
ATOM     58  C   UNL A   1      41.191  35.899  43.084  1.00  0.00     0.029 A 
ATOM     59  C   UNL A   1      41.529  36.141  41.762  1.00  0.00     0.049 A 
ATOM     60  H   UNL A   1      40.621  35.411  40.003  1.00  0.00     0.167 HD
ATOM     61  C   UNL A   1      42.853  37.135  39.922  1.00  0.00     0.074 A 
ATOM     62  C   UNL A   1      43.924  37.960  39.405  1.00  0.00     0.031 C 
ATOM     63  C   UNL A   1      42.591  36.966  41.243  1.00  0.00     0.031 A 
BRANCH  50  64
ATOM     64  C   UNL A   1      37.778  33.245  42.351  1.00  0.00    -0.014 A 
ATOM     65  C   UNL A   1      36.648  33.907  42.867  1.00  0.00     0.010 A 
ATOM     66  C   UNL A   1      38.053  31.932  42.775  1.00  0.00     0.010 A 
ATOM     67  C   UNL A   1      35.835  33.284  43.818  1.00  0.00     0.020 A 
ATOM     68  C   UNL A   1      37.225  31.294  43.703  1.00  0.00     0.020 A 
ATOM     69  C   UNL A   1      36.131  31.981  44.232  1.00  0.00     0.054 A 
BRANCH  69  70
ATOM     70  S   UNL A   1      35.049  31.192  45.455  1.00  0.00     0.124 S 
ATOM     71  O   UNL A   1      35.727  29.918  45.681  1.00  0.00    -0.237 OA
ATOM     72  O   UNL A   1      35.093  32.133  46.573  1.00  0.00    -0.237 OA
ATOM     73  O   UNL A   1      33.761  31.100  44.772  1.00  0.00    -0.744 OA
ENDBRANCH  69  70
ENDBRANCH  50  64
BRANCH  51  74
ATOM     74  C   UNL A   1      43.382  37.446  35.252  1.00  0.00    -0.014 A 
ATOM     75  C   UNL A   1      42.938  38.617  34.613  1.00  0.00     0.010 A 
ATOM     76  C   UNL A   1      44.618  36.889  34.871  1.00  0.00     0.010 A 
ATOM     77  C   UNL A   1      43.705  39.208  33.601  1.00  0.00     0.020 A 
ATOM     78  C   UNL A   1      45.401  37.493  33.885  1.00  0.00     0.020 A 
ATOM     79  C   UNL A   1      44.934  38.644  33.247  1.00  0.00     0.054 A 
BRANCH  79  80
ATOM     80  S   UNL A   1      45.934  39.455  31.967  1.00  0.00     0.124 S 
ATOM     81  O   UNL A   1      47.119  38.605  31.924  1.00  0.00    -0.237 OA
ATOM     82  O   UNL A   1      45.062  39.385  30.797  1.00  0.00    -0.237 OA
ATOM     83  O   UNL A   1      46.145  40.799  32.500  1.00  0.00    -0.744 OA
ENDBRANCH  79  80
ENDBRANCH  51  74
BRANCH  63  84
ATOM     84  C   UNL A   1      43.499  37.657  42.231  1.00  0.00    -0.014 A 
ATOM     85  C   UNL A   1      44.649  37.027  42.740  1.00  0.00     0.010 A 
ATOM     86  C   UNL A   1      43.215  38.978  42.628  1.00  0.00     0.010 A 
ATOM     87  C   UNL A   1      45.471  37.686  43.659  1.00  0.00     0.020 A 
ATOM     88  C   UNL A   1      44.052  39.653  43.522  1.00  0.00     0.020 A 
ATOM     89  C   UNL A   1      45.166  38.995  44.047  1.00  0.00     0.054 A 
BRANCH  89  90
ATOM     90  S   UNL A   1      46.261  39.837  45.223  1.00  0.00     0.124 S 
ATOM     91  O   UNL A   1      46.895  38.713  45.907  1.00  0.00    -0.237 OA
ATOM     92  O   UNL A   1      47.135  40.614  44.348  1.00  0.00    -0.237 OA
ATOM     93  O   UNL A   1      45.347  40.629  46.043  1.00  0.00    -0.744 OA
ENDBRANCH  89  90
ENDBRANCH  63  84
ENDBRANCH  37  38
ENDBRANCH  30  32
ENDBRANCH  29  30
ENDBRANCH  28  29
ENDBRANCH  27  28
ENDBRANCH  26  27
ENDBRANCH  25  26
ENDBRANCH  24  25
ENDBRANCH   1  24
TORSDOF 26
ENDMDL
