MODEL 1
REMARK VINA RESULT:     -11.0      0.000      0.000
REMARK SMILES O=C(Cn1nc(C(=O)OCCOCCOCCOC(=O)c2ccc(-c3c4nc(c(-c5ccc(S(=O)(=O)[O-])cc5)c5ccc([nH]5)c(-c5ccc(S(=O)(=O)[O-])cc5)c5nc(c(-c6ccc(S(=O)(=O)[O-])cc6)c6ccc3[nH]6)C=C5)C=C4)cc2)c2ccccc2c1=O)NCc1ccc(F)cc1
REMARK SMILES IDX 13 1 12 2 11 3 10 4 9 5 7 6 8 7 6 8 4 9 5 10 87 11 86 12
REMARK SMILES IDX 88 13 81 14 85 15 82 16 84 17 83 18 3 19 2 20 1 21 89 22
REMARK SMILES IDX 90 24 91 25 92 26 97 27 93 28 96 29 94 30 95 31 14 32 15 33
REMARK SMILES IDX 16 34 17 35 18 36 19 37 20 38 21 39 22 40 80 41 23 42 79 43
REMARK SMILES IDX 24 44 25 45 26 46 73 47 27 48 78 49 72 50 74 51 28 52 77 53
REMARK SMILES IDX 71 54 70 55 29 57 59 58 40 59 58 60 41 61 44 62 57 63 75 64
REMARK SMILES IDX 42 65 43 66 56 68 76 69 45 70 30 71 31 72 39 73 32 74 38 75
REMARK SMILES IDX 33 76 34 77 35 78 36 79 37 80 60 81 61 82 69 83 62 84 68 85
REMARK SMILES IDX 63 86 64 87 65 88 66 89 67 90 46 91 47 92 55 93 48 94 54 95
REMARK SMILES IDX 49 96 50 97 51 98 52 99 53 100
REMARK H PARENT 89 23 74 56 44 67
REMARK Flexibility Score: inf
ROOT
ATOM      1  C   UNL A   1      39.812  22.355  26.768  1.00  0.00     0.188 C 
ENDROOT
BRANCH   1   2
ATOM      2  O   UNL A   1      38.878  21.656  25.981  1.00  0.00    -0.376 OA
BRANCH   2   3
ATOM      3  C   UNL A   1      37.829  22.338  25.319  1.00  0.00     0.202 C 
BRANCH   3   4
ATOM      4  C   UNL A   1      36.721  23.158  26.010  1.00  0.00     0.261 C 
BRANCH   4   5
ATOM      5  O   UNL A   1      36.289  24.346  25.349  1.00  0.00    -0.458 OA
BRANCH   5   6
ATOM      6  C   UNL A   1      35.369  24.202  24.372  1.00  0.00     0.359 C 
ATOM      7  O   UNL A   1      35.553  24.043  23.182  1.00  0.00    -0.244 OA
BRANCH   6   8
ATOM      8  C   UNL A   1      33.977  24.194  24.993  1.00  0.00     0.176 A 
ATOM      9  N   UNL A   1      32.080  22.993  25.535  1.00  0.00    -0.219 N 
ATOM     10  N   UNL A   1      33.342  23.058  24.978  1.00  0.00    -0.161 NA
ATOM     11  C   UNL A   1      31.462  24.053  26.192  1.00  0.00     0.275 A 
ATOM     12  C   UNL A   1      32.162  25.348  26.154  1.00  0.00     0.051 A 
ATOM     13  O   UNL A   1      30.383  23.966  26.772  1.00  0.00    -0.267 OA
ATOM     14  C   UNL A   1      33.416  25.438  25.555  1.00  0.00     0.022 A 
ATOM     15  C   UNL A   1      31.555  26.484  26.706  1.00  0.00     0.014 A 
ATOM     16  C   UNL A   1      34.064  26.677  25.497  1.00  0.00     0.011 A 
ATOM     17  C   UNL A   1      32.199  27.718  26.640  1.00  0.00     0.001 A 
ATOM     18  C   UNL A   1      33.449  27.812  26.036  1.00  0.00     0.001 A 
BRANCH   9  19
ATOM     19  C   UNL A   1      31.408  21.690  25.520  1.00  0.00     0.248 C 
BRANCH  19  20
ATOM     20  C   UNL A   1      32.178  20.704  24.638  1.00  0.00     0.242 C 
ATOM     21  O   UNL A   1      31.906  20.509  23.456  1.00  0.00    -0.273 OA
ATOM     22  N   UNL A   1      33.316  20.213  25.239  1.00  0.00    -0.350 N 
ATOM     23  H   UNL A   1      33.513  20.501  26.160  1.00  0.00     0.163 HD
BRANCH  22  24
ATOM     24  C   UNL A   1      34.231  19.307  24.605  1.00  0.00     0.151 C 
BRANCH  24  25
ATOM     25  C   UNL A   1      33.879  17.873  24.904  1.00  0.00    -0.029 A 
ATOM     26  C   UNL A   1      32.600  17.530  25.372  1.00  0.00     0.008 A 
ATOM     27  C   UNL A   1      34.841  16.863  24.742  1.00  0.00     0.008 A 
ATOM     28  C   UNL A   1      32.284  16.197  25.644  1.00  0.00     0.039 A 
ATOM     29  C   UNL A   1      34.521  15.533  25.009  1.00  0.00     0.039 A 
ATOM     30  C   UNL A   1      33.245  15.211  25.454  1.00  0.00     0.123 A 
ATOM     31  F   UNL A   1      32.937  13.933  25.709  1.00  0.00    -0.207 F 
ENDBRANCH  24  25
ENDBRANCH  22  24
ENDBRANCH  19  20
ENDBRANCH   9  19
ENDBRANCH   6   8
ENDBRANCH   5   6
ENDBRANCH   4   5
ENDBRANCH   3   4
ENDBRANCH   2   3
ENDBRANCH   1   2
BRANCH   1  32
ATOM     32  C   UNL A   1      40.968  21.512  27.352  1.00  0.00     0.188 C 
BRANCH  32  33
ATOM     33  O   UNL A   1      42.314  21.824  27.032  1.00  0.00    -0.376 OA
BRANCH  33  34
ATOM     34  C   UNL A   1      42.631  22.325  25.741  1.00  0.00     0.202 C 
BRANCH  34  35
ATOM     35  C   UNL A   1      42.996  23.803  25.525  1.00  0.00     0.261 C 
BRANCH  35  36
ATOM     36  O   UNL A   1      41.946  24.751  25.763  1.00  0.00    -0.460 OA
BRANCH  36  37
ATOM     37  C   UNL A   1      42.298  26.058  25.663  1.00  0.00     0.338 C 
ATOM     38  O   UNL A   1      42.572  26.671  24.645  1.00  0.00    -0.246 OA
BRANCH  37  39
ATOM     39  C   UNL A   1      42.102  26.705  26.976  1.00  0.00     0.060 A 
ATOM     40  C   UNL A   1      42.787  27.877  27.298  1.00  0.00     0.016 A 
ATOM     41  C   UNL A   1      41.216  26.123  27.896  1.00  0.00     0.016 A 
ATOM     42  C   UNL A   1      42.564  28.480  28.538  1.00  0.00     0.010 A 
ATOM     43  C   UNL A   1      41.007  26.719  29.142  1.00  0.00     0.010 A 
ATOM     44  C   UNL A   1      41.663  27.916  29.463  1.00  0.00    -0.014 A 
BRANCH  44  45
ATOM     45  C   UNL A   1      41.286  28.683  30.676  1.00  0.00     0.031 A 
ATOM     46  C   UNL A   1      42.065  28.596  31.951  1.00  0.00     0.074 A 
ATOM     47  C   UNL A   1      40.206  29.485  30.598  1.00  0.00     0.049 A 
ATOM     48  N   UNL A   1      41.911  29.285  33.052  1.00  0.00    -0.248 NA
ATOM     49  C   UNL A   1      43.145  27.603  32.008  1.00  0.00     0.031 C 
ATOM     50  C   UNL A   1      39.359  29.623  29.414  1.00  0.00     0.029 A 
ATOM     51  N   UNL A   1      39.657  30.350  31.510  1.00  0.00    -0.354 N 
ATOM     52  C   UNL A   1      42.878  28.820  33.934  1.00  0.00     0.074 A 
ATOM     53  C   UNL A   1      43.579  27.748  33.256  1.00  0.00     0.031 C 
ATOM     54  C   UNL A   1      38.429  30.558  29.651  1.00  0.00     0.029 A 
ATOM     55  C   UNL A   1      38.591  31.063  31.013  1.00  0.00     0.049 A 
ATOM     56  H   UNL A   1      39.991  30.450  32.431  1.00  0.00     0.167 HD
ATOM     57  C   UNL A   1      43.164  29.269  35.181  1.00  0.00     0.031 A 
ATOM     58  C   UNL A   1      37.840  32.033  31.573  1.00  0.00     0.031 A 
ATOM     59  C   UNL A   1      42.462  30.352  35.830  1.00  0.00     0.049 A 
ATOM     60  C   UNL A   1      38.175  32.514  32.954  1.00  0.00     0.074 A 
ATOM     61  C   UNL A   1      42.730  30.925  37.062  1.00  0.00     0.029 A 
ATOM     62  N   UNL A   1      41.365  31.026  35.311  1.00  0.00    -0.354 N 
ATOM     63  N   UNL A   1      39.147  32.124  33.745  1.00  0.00    -0.248 NA
ATOM     64  C   UNL A   1      37.333  33.579  33.515  1.00  0.00     0.031 C 
ATOM     65  C   UNL A   1      41.749  31.884  37.323  1.00  0.00     0.029 A 
ATOM     66  C   UNL A   1      40.921  31.978  36.215  1.00  0.00     0.049 A 
ATOM     67  H   UNL A   1      40.960  30.852  34.431  1.00  0.00     0.167 HD
ATOM     68  C   UNL A   1      39.042  32.905  34.890  1.00  0.00     0.074 A 
ATOM     69  C   UNL A   1      37.927  33.806  34.680  1.00  0.00     0.031 C 
ATOM     70  C   UNL A   1      39.803  32.871  36.012  1.00  0.00     0.031 A 
BRANCH  57  71
ATOM     71  C   UNL A   1      44.301  28.626  35.939  1.00  0.00    -0.014 A 
ATOM     72  C   UNL A   1      44.104  27.395  36.593  1.00  0.00     0.010 A 
ATOM     73  C   UNL A   1      45.519  29.305  36.130  1.00  0.00     0.010 A 
ATOM     74  C   UNL A   1      45.082  26.872  37.445  1.00  0.00     0.020 A 
ATOM     75  C   UNL A   1      46.515  28.770  36.952  1.00  0.00     0.020 A 
ATOM     76  C   UNL A   1      46.279  27.568  37.625  1.00  0.00     0.054 A 
BRANCH  76  77
ATOM     77  S   UNL A   1      47.528  26.890  38.754  1.00  0.00     0.124 S 
ATOM     78  O   UNL A   1      47.219  25.464  38.737  1.00  0.00    -0.237 OA
ATOM     79  O   UNL A   1      48.781  27.275  38.108  1.00  0.00    -0.237 OA
ATOM     80  O   UNL A   1      47.255  27.576  40.015  1.00  0.00    -0.744 OA
ENDBRANCH  76  77
ENDBRANCH  57  71
BRANCH  58  81
ATOM     81  C   UNL A   1      36.754  32.648  30.761  1.00  0.00    -0.014 A 
ATOM     82  C   UNL A   1      36.979  33.855  30.071  1.00  0.00     0.010 A 
ATOM     83  C   UNL A   1      35.458  32.106  30.785  1.00  0.00     0.010 A 
ATOM     84  C   UNL A   1      35.914  34.548  29.491  1.00  0.00     0.020 A 
ATOM     85  C   UNL A   1      34.395  32.780  30.175  1.00  0.00     0.020 A 
ATOM     86  C   UNL A   1      34.625  34.015  29.566  1.00  0.00     0.054 A 
BRANCH  86  87
ATOM     87  S   UNL A   1      33.245  34.984  28.897  1.00  0.00     0.124 S 
ATOM     88  O   UNL A   1      32.622  34.027  27.987  1.00  0.00    -0.237 OA
ATOM     89  O   UNL A   1      32.476  35.307  30.096  1.00  0.00    -0.237 OA
ATOM     90  O   UNL A   1      33.903  36.121  28.256  1.00  0.00    -0.744 OA
ENDBRANCH  86  87
ENDBRANCH  58  81
BRANCH  70  91
ATOM     91  C   UNL A   1      39.468  33.822  37.135  1.00  0.00    -0.014 A 
ATOM     92  C   UNL A   1      40.029  35.114  37.154  1.00  0.00     0.010 A 
ATOM     93  C   UNL A   1      38.717  33.391  38.244  1.00  0.00     0.010 A 
ATOM     94  C   UNL A   1      39.892  35.934  38.277  1.00  0.00     0.020 A 
ATOM     95  C   UNL A   1      38.547  34.223  39.355  1.00  0.00     0.020 A 
ATOM     96  C   UNL A   1      39.163  35.477  39.377  1.00  0.00     0.054 A 
BRANCH  96  97
ATOM     97  S   UNL A   1      39.048  36.533  40.848  1.00  0.00     0.124 S 
ATOM     98  O   UNL A   1      40.424  36.532  41.335  1.00  0.00    -0.237 OA
ATOM     99  O   UNL A   1      38.575  37.800  40.297  1.00  0.00    -0.237 OA
ATOM    100  O   UNL A   1      38.086  35.834  41.698  1.00  0.00    -0.744 OA
ENDBRANCH  96  97
ENDBRANCH  70  91
ENDBRANCH  44  45
ENDBRANCH  37  39
ENDBRANCH  36  37
ENDBRANCH  35  36
ENDBRANCH  34  35
ENDBRANCH  33  34
ENDBRANCH  32  33
ENDBRANCH   1  32
TORSDOF 24
ENDMDL
MODEL 2
REMARK VINA RESULT:     -10.9      1.782      2.657
REMARK SMILES O=C(Cn1nc(C(=O)OCCOCCOCCOC(=O)c2ccc(-c3c4nc(c(-c5ccc(S(=O)(=O)[O-])cc5)c5ccc([nH]5)c(-c5ccc(S(=O)(=O)[O-])cc5)c5nc(c(-c6ccc(S(=O)(=O)[O-])cc6)c6ccc3[nH]6)C=C5)C=C4)cc2)c2ccccc2c1=O)NCc1ccc(F)cc1
REMARK SMILES IDX 13 1 12 2 11 3 10 4 9 5 7 6 8 7 6 8 4 9 5 10 87 11 86 12
REMARK SMILES IDX 88 13 81 14 85 15 82 16 84 17 83 18 3 19 2 20 1 21 89 22
REMARK SMILES IDX 90 24 91 25 92 26 97 27 93 28 96 29 94 30 95 31 14 32 15 33
REMARK SMILES IDX 16 34 17 35 18 36 19 37 20 38 21 39 22 40 80 41 23 42 79 43
REMARK SMILES IDX 24 44 25 45 26 46 73 47 27 48 78 49 72 50 74 51 28 52 77 53
REMARK SMILES IDX 71 54 70 55 29 57 59 58 40 59 58 60 41 61 44 62 57 63 75 64
REMARK SMILES IDX 42 65 43 66 56 68 76 69 45 70 30 71 31 72 39 73 32 74 38 75
REMARK SMILES IDX 33 76 34 77 35 78 36 79 37 80 60 81 61 82 69 83 62 84 68 85
REMARK SMILES IDX 63 86 64 87 65 88 66 89 67 90 46 91 47 92 55 93 48 94 54 95
REMARK SMILES IDX 49 96 50 97 51 98 52 99 53 100
REMARK H PARENT 89 23 74 56 44 67
REMARK Flexibility Score: inf
ROOT
ATOM      1  C   UNL A   1      37.851  21.864  25.734  1.00  0.00     0.188 C 
ENDROOT
BRANCH   1   2
ATOM      2  O   UNL A   1      37.697  23.236  25.458  1.00  0.00    -0.376 OA
BRANCH   2   3
ATOM      3  C   UNL A   1      36.635  23.979  26.028  1.00  0.00     0.202 C 
BRANCH   3   4
ATOM      4  C   UNL A   1      35.363  24.433  25.283  1.00  0.00     0.261 C 
BRANCH   4   5
ATOM      5  O   UNL A   1      34.667  25.556  25.821  1.00  0.00    -0.458 OA
BRANCH   5   6
ATOM      6  C   UNL A   1      33.332  25.432  25.974  1.00  0.00     0.359 C 
ATOM      7  O   UNL A   1      32.725  24.668  26.698  1.00  0.00    -0.244 OA
BRANCH   6   8
ATOM      8  C   UNL A   1      32.631  26.485  25.123  1.00  0.00     0.176 A 
ATOM      9  N   UNL A   1      31.675  27.047  23.098  1.00  0.00    -0.219 N 
ATOM     10  N   UNL A   1      32.320  26.134  23.909  1.00  0.00    -0.161 NA
ATOM     11  C   UNL A   1      31.259  28.307  23.518  1.00  0.00     0.275 A 
ATOM     12  C   UNL A   1      31.667  28.716  24.873  1.00  0.00     0.051 A 
ATOM     13  O   UNL A   1      30.601  29.079  22.826  1.00  0.00    -0.267 OA
ATOM     14  C   UNL A   1      32.357  27.820  25.685  1.00  0.00     0.022 A 
ATOM     15  C   UNL A   1      31.372  30.008  25.328  1.00  0.00     0.014 A 
ATOM     16  C   UNL A   1      32.766  28.224  26.962  1.00  0.00     0.011 A 
ATOM     17  C   UNL A   1      31.787  30.410  26.596  1.00  0.00     0.001 A 
ATOM     18  C   UNL A   1      32.483  29.519  27.409  1.00  0.00     0.001 A 
BRANCH   9  19
ATOM     19  C   UNL A   1      31.319  26.606  21.745  1.00  0.00     0.248 C 
BRANCH  19  20
ATOM     20  C   UNL A   1      32.318  25.560  21.246  1.00  0.00     0.242 C 
ATOM     21  O   UNL A   1      33.214  25.817  20.445  1.00  0.00    -0.273 OA
ATOM     22  N   UNL A   1      32.238  24.365  21.928  1.00  0.00    -0.350 N 
ATOM     23  H   UNL A   1      31.552  24.277  22.628  1.00  0.00     0.163 HD
BRANCH  22  24
ATOM     24  C   UNL A   1      33.095  23.240  21.678  1.00  0.00     0.151 C 
BRANCH  24  25
ATOM     25  C   UNL A   1      32.856  22.137  22.676  1.00  0.00    -0.029 A 
ATOM     26  C   UNL A   1      32.241  20.936  22.285  1.00  0.00     0.008 A 
ATOM     27  C   UNL A   1      33.225  22.310  24.020  1.00  0.00     0.008 A 
ATOM     28  C   UNL A   1      32.026  19.919  23.217  1.00  0.00     0.039 A 
ATOM     29  C   UNL A   1      33.014  21.291  24.947  1.00  0.00     0.039 A 
ATOM     30  C   UNL A   1      32.420  20.104  24.537  1.00  0.00     0.123 A 
ATOM     31  F   UNL A   1      32.219  19.124  25.428  1.00  0.00    -0.207 F 
ENDBRANCH  24  25
ENDBRANCH  22  24
ENDBRANCH  19  20
ENDBRANCH   9  19
ENDBRANCH   6   8
ENDBRANCH   5   6
ENDBRANCH   4   5
ENDBRANCH   3   4
ENDBRANCH   2   3
ENDBRANCH   1   2
BRANCH   1  32
ATOM     32  C   UNL A   1      39.304  21.366  25.899  1.00  0.00     0.188 C 
BRANCH  32  33
ATOM     33  O   UNL A   1      40.040  21.679  27.069  1.00  0.00    -0.376 OA
BRANCH  33  34
ATOM     34  C   UNL A   1      41.395  22.089  26.960  1.00  0.00     0.202 C 
BRANCH  34  35
ATOM     35  C   UNL A   1      41.774  23.442  26.335  1.00  0.00     0.261 C 
BRANCH  35  36
ATOM     36  O   UNL A   1      40.734  24.429  26.295  1.00  0.00    -0.460 OA
BRANCH  36  37
ATOM     37  C   UNL A   1      41.143  25.709  26.102  1.00  0.00     0.338 C 
ATOM     38  O   UNL A   1      41.389  26.251  25.038  1.00  0.00    -0.246 OA
BRANCH  37  39
ATOM     39  C   UNL A   1      41.053  26.435  27.385  1.00  0.00     0.060 A 
ATOM     40  C   UNL A   1      41.954  27.455  27.687  1.00  0.00     0.016 A 
ATOM     41  C   UNL A   1      40.045  26.083  28.296  1.00  0.00     0.016 A 
ATOM     42  C   UNL A   1      41.831  28.141  28.898  1.00  0.00     0.010 A 
ATOM     43  C   UNL A   1      39.934  26.759  29.513  1.00  0.00     0.010 A 
ATOM     44  C   UNL A   1      40.812  27.810  29.812  1.00  0.00    -0.014 A 
BRANCH  44  45
ATOM     45  C   UNL A   1      40.571  28.686  30.985  1.00  0.00     0.031 A 
ATOM     46  C   UNL A   1      41.431  28.637  32.210  1.00  0.00     0.074 A 
ATOM     47  C   UNL A   1      39.543  29.553  30.917  1.00  0.00     0.049 A 
ATOM     48  N   UNL A   1      41.399  29.413  33.263  1.00  0.00    -0.248 NA
ATOM     49  C   UNL A   1      42.446  27.578  32.272  1.00  0.00     0.031 C 
ATOM     50  C   UNL A   1      38.625  29.665  29.784  1.00  0.00     0.029 A 
ATOM     51  N   UNL A   1      39.115  30.518  31.794  1.00  0.00    -0.354 N 
ATOM     52  C   UNL A   1      42.393  28.946  34.113  1.00  0.00     0.074 A 
ATOM     53  C   UNL A   1      42.974  27.782  33.475  1.00  0.00     0.031 C 
ATOM     54  C   UNL A   1      37.776  30.677  30.009  1.00  0.00     0.029 A 
ATOM     55  C   UNL A   1      38.066  31.266  31.315  1.00  0.00     0.049 A 
ATOM     56  H   UNL A   1      39.519  30.660  32.681  1.00  0.00     0.167 HD
ATOM     57  C   UNL A   1      42.795  29.463  35.300  1.00  0.00     0.031 A 
ATOM     58  C   UNL A   1      37.419  32.323  31.847  1.00  0.00     0.031 A 
ATOM     59  C   UNL A   1      42.211  30.635  35.909  1.00  0.00     0.049 A 
ATOM     60  C   UNL A   1      37.881  32.877  33.163  1.00  0.00     0.074 A 
ATOM     61  C   UNL A   1      42.601  31.275  37.075  1.00  0.00     0.029 A 
ATOM     62  N   UNL A   1      41.125  31.344  35.413  1.00  0.00    -0.354 N 
ATOM     63  N   UNL A   1      38.878  32.478  33.916  1.00  0.00    -0.248 NA
ATOM     64  C   UNL A   1      37.150  34.036  33.694  1.00  0.00     0.031 C 
ATOM     65  C   UNL A   1      41.705  32.317  37.325  1.00  0.00     0.029 A 
ATOM     66  C   UNL A   1      40.809  32.388  36.269  1.00  0.00     0.049 A 
ATOM     67  H   UNL A   1      40.650  31.136  34.577  1.00  0.00     0.167 HD
ATOM     68  C   UNL A   1      38.905  33.345  35.002  1.00  0.00     0.074 A 
ATOM     69  C   UNL A   1      37.838  34.304  34.797  1.00  0.00     0.031 C 
ATOM     70  C   UNL A   1      39.739  33.339  36.071  1.00  0.00     0.031 A 
BRANCH  57  71
ATOM     71  C   UNL A   1      43.938  28.798  36.030  1.00  0.00    -0.014 A 
ATOM     72  C   UNL A   1      45.268  29.142  35.716  1.00  0.00     0.010 A 
ATOM     73  C   UNL A   1      43.707  27.733  36.920  1.00  0.00     0.010 A 
ATOM     74  C   UNL A   1      46.338  28.416  36.248  1.00  0.00     0.020 A 
ATOM     75  C   UNL A   1      44.775  27.027  37.482  1.00  0.00     0.020 A 
ATOM     76  C   UNL A   1      46.084  27.357  37.122  1.00  0.00     0.054 A 
BRANCH  76  77
ATOM     77  S   UNL A   1      47.483  26.409  37.783  1.00  0.00     0.124 S 
ATOM     78  O   UNL A   1      48.614  26.979  37.059  1.00  0.00    -0.237 OA
ATOM     79  O   UNL A   1      47.426  26.714  39.211  1.00  0.00    -0.237 OA
ATOM     80  O   UNL A   1      47.151  25.028  37.439  1.00  0.00    -0.744 OA
ENDBRANCH  76  77
ENDBRANCH  57  71
BRANCH  58  81
ATOM     81  C   UNL A   1      36.321  32.952  31.063  1.00  0.00    -0.014 A 
ATOM     82  C   UNL A   1      36.585  33.529  29.806  1.00  0.00     0.010 A 
ATOM     83  C   UNL A   1      35.042  33.098  31.627  1.00  0.00     0.010 A 
ATOM     84  C   UNL A   1      35.617  34.308  29.166  1.00  0.00     0.020 A 
ATOM     85  C   UNL A   1      34.060  33.848  30.973  1.00  0.00     0.020 A 
ATOM     86  C   UNL A   1      34.368  34.479  29.766  1.00  0.00     0.054 A 
BRANCH  86  87
ATOM     87  S   UNL A   1      33.167  35.579  28.967  1.00  0.00     0.124 S 
ATOM     88  O   UNL A   1      32.492  34.666  28.048  1.00  0.00    -0.237 OA
ATOM     89  O   UNL A   1      32.365  36.043  30.096  1.00  0.00    -0.237 OA
ATOM     90  O   UNL A   1      34.001  36.599  28.337  1.00  0.00    -0.744 OA
ENDBRANCH  86  87
ENDBRANCH  58  81
BRANCH  70  91
ATOM     91  C   UNL A   1      39.545  34.389  37.139  1.00  0.00    -0.014 A 
ATOM     92  C   UNL A   1      40.137  35.659  36.991  1.00  0.00     0.010 A 
ATOM     93  C   UNL A   1      38.903  34.076  38.350  1.00  0.00     0.010 A 
ATOM     94  C   UNL A   1      40.137  36.572  38.048  1.00  0.00     0.020 A 
ATOM     95  C   UNL A   1      38.869  35.000  39.398  1.00  0.00     0.020 A 
ATOM     96  C   UNL A   1      39.514  36.231  39.252  1.00  0.00     0.054 A 
BRANCH  96  97
ATOM     97  S   UNL A   1      39.579  37.407  40.632  1.00  0.00     0.124 S 
ATOM     98  O   UNL A   1      39.005  38.610  40.038  1.00  0.00    -0.237 OA
ATOM     99  O   UNL A   1      38.758  36.751  41.649  1.00  0.00    -0.237 OA
ATOM    100  O   UNL A   1      41.003  37.486  40.949  1.00  0.00    -0.744 OA
ENDBRANCH  96  97
ENDBRANCH  70  91
ENDBRANCH  44  45
ENDBRANCH  37  39
ENDBRANCH  36  37
ENDBRANCH  35  36
ENDBRANCH  34  35
ENDBRANCH  33  34
ENDBRANCH  32  33
ENDBRANCH   1  32
TORSDOF 24
ENDMDL
MODEL 3
REMARK VINA RESULT:     -10.9      5.612      8.080
REMARK SMILES O=C(Cn1nc(C(=O)OCCOCCOCCOC(=O)c2ccc(-c3c4nc(c(-c5ccc(S(=O)(=O)[O-])cc5)c5ccc([nH]5)c(-c5ccc(S(=O)(=O)[O-])cc5)c5nc(c(-c6ccc(S(=O)(=O)[O-])cc6)c6ccc3[nH]6)C=C5)C=C4)cc2)c2ccccc2c1=O)NCc1ccc(F)cc1
REMARK SMILES IDX 13 1 12 2 11 3 10 4 9 5 7 6 8 7 6 8 4 9 5 10 87 11 86 12
REMARK SMILES IDX 88 13 81 14 85 15 82 16 84 17 83 18 3 19 2 20 1 21 89 22
REMARK SMILES IDX 90 24 91 25 92 26 97 27 93 28 96 29 94 30 95 31 14 32 15 33
REMARK SMILES IDX 16 34 17 35 18 36 19 37 20 38 21 39 22 40 80 41 23 42 79 43
REMARK SMILES IDX 24 44 25 45 26 46 73 47 27 48 78 49 72 50 74 51 28 52 77 53
REMARK SMILES IDX 71 54 70 55 29 57 59 58 40 59 58 60 41 61 44 62 57 63 75 64
REMARK SMILES IDX 42 65 43 66 56 68 76 69 45 70 30 71 31 72 39 73 32 74 38 75
REMARK SMILES IDX 33 76 34 77 35 78 36 79 37 80 60 81 61 82 69 83 62 84 68 85
REMARK SMILES IDX 63 86 64 87 65 88 66 89 67 90 46 91 47 92 55 93 48 94 54 95
REMARK SMILES IDX 49 96 50 97 51 98 52 99 53 100
REMARK H PARENT 89 23 74 56 44 67
REMARK Flexibility Score: inf
ROOT
ATOM      1  C   UNL A   1      35.532  22.556  25.699  1.00  0.00     0.188 C 
ENDROOT
BRANCH   1   2
ATOM      2  O   UNL A   1      34.556  21.625  26.103  1.00  0.00    -0.376 OA
BRANCH   2   3
ATOM      3  C   UNL A   1      33.878  21.769  27.338  1.00  0.00     0.202 C 
BRANCH   3   4
ATOM      4  C   UNL A   1      32.868  22.884  27.676  1.00  0.00     0.261 C 
BRANCH   4   5
ATOM      5  O   UNL A   1      31.568  22.773  27.099  1.00  0.00    -0.458 OA
BRANCH   5   6
ATOM      6  C   UNL A   1      31.050  23.887  26.540  1.00  0.00     0.359 C 
ATOM      7  O   UNL A   1      30.081  24.527  26.897  1.00  0.00    -0.244 OA
BRANCH   6   8
ATOM      8  C   UNL A   1      31.927  24.314  25.369  1.00  0.00     0.176 A 
ATOM      9  N   UNL A   1      33.001  23.728  23.410  1.00  0.00    -0.219 N 
ATOM     10  N   UNL A   1      32.216  23.393  24.496  1.00  0.00    -0.161 NA
ATOM     11  C   UNL A   1      33.447  25.019  23.138  1.00  0.00     0.275 A 
ATOM     12  C   UNL A   1      33.165  26.040  24.161  1.00  0.00     0.051 A 
ATOM     13  O   UNL A   1      34.062  25.332  22.123  1.00  0.00    -0.267 OA
ATOM     14  C   UNL A   1      32.412  25.704  25.283  1.00  0.00     0.022 A 
ATOM     15  C   UNL A   1      33.669  27.338  24.005  1.00  0.00     0.014 A 
ATOM     16  C   UNL A   1      32.171  26.672  26.265  1.00  0.00     0.011 A 
ATOM     17  C   UNL A   1      33.434  28.298  24.987  1.00  0.00     0.001 A 
ATOM     18  C   UNL A   1      32.688  27.963  26.114  1.00  0.00     0.001 A 
BRANCH   9  19
ATOM     19  C   UNL A   1      33.284  22.668  22.436  1.00  0.00     0.248 C 
BRANCH  19  20
ATOM     20  C   UNL A   1      32.395  21.452  22.699  1.00  0.00     0.242 C 
ATOM     21  O   UNL A   1      31.525  21.076  21.917  1.00  0.00    -0.273 OA
ATOM     22  N   UNL A   1      32.795  20.713  23.790  1.00  0.00    -0.350 N 
ATOM     23  H   UNL A   1      33.569  21.033  24.307  1.00  0.00     0.163 HD
BRANCH  22  24
ATOM     24  C   UNL A   1      32.152  19.503  24.220  1.00  0.00     0.151 C 
BRANCH  24  25
ATOM     25  C   UNL A   1      33.159  18.422  24.517  1.00  0.00    -0.029 A 
ATOM     26  C   UNL A   1      34.534  18.657  24.354  1.00  0.00     0.008 A 
ATOM     27  C   UNL A   1      32.727  17.154  24.938  1.00  0.00     0.008 A 
ATOM     28  C   UNL A   1      35.459  17.650  24.635  1.00  0.00     0.039 A 
ATOM     29  C   UNL A   1      33.653  16.151  25.223  1.00  0.00     0.039 A 
ATOM     30  C   UNL A   1      35.010  16.409  25.072  1.00  0.00     0.123 A 
ATOM     31  F   UNL A   1      35.899  15.446  25.347  1.00  0.00    -0.207 F 
ENDBRANCH  24  25
ENDBRANCH  22  24
ENDBRANCH  19  20
ENDBRANCH   9  19
ENDBRANCH   6   8
ENDBRANCH   5   6
ENDBRANCH   4   5
ENDBRANCH   3   4
ENDBRANCH   2   3
ENDBRANCH   1   2
BRANCH   1  32
ATOM     32  C   UNL A   1      36.425  22.129  24.513  1.00  0.00     0.188 C 
BRANCH  32  33
ATOM     33  O   UNL A   1      37.251  20.981  24.617  1.00  0.00    -0.376 OA
BRANCH  33  34
ATOM     34  C   UNL A   1      38.439  21.038  25.391  1.00  0.00     0.202 C 
BRANCH  34  35
ATOM     35  C   UNL A   1      39.266  19.775  25.681  1.00  0.00     0.261 C 
BRANCH  35  36
ATOM     36  O   UNL A   1      40.327  19.923  26.635  1.00  0.00    -0.460 OA
BRANCH  36  37
ATOM     37  C   UNL A   1      41.586  19.860  26.133  1.00  0.00     0.338 C 
ATOM     38  O   UNL A   1      42.041  19.005  25.391  1.00  0.00    -0.246 OA
BRANCH  37  39
ATOM     39  C   UNL A   1      42.291  21.117  26.458  1.00  0.00     0.060 A 
ATOM     40  C   UNL A   1      42.747  21.957  25.443  1.00  0.00     0.016 A 
ATOM     41  C   UNL A   1      42.495  21.452  27.806  1.00  0.00     0.016 A 
ATOM     42  C   UNL A   1      43.390  23.151  25.780  1.00  0.00     0.010 A 
ATOM     43  C   UNL A   1      43.152  22.638  28.140  1.00  0.00     0.010 A 
ATOM     44  C   UNL A   1      43.584  23.508  27.129  1.00  0.00    -0.014 A 
BRANCH  44  45
ATOM     45  C   UNL A   1      44.074  24.869  27.461  1.00  0.00     0.031 A 
ATOM     46  C   UNL A   1      45.498  25.281  27.248  1.00  0.00     0.074 A 
ATOM     47  C   UNL A   1      43.185  25.749  27.960  1.00  0.00     0.049 A 
ATOM     48  N   UNL A   1      46.038  26.463  27.395  1.00  0.00    -0.248 NA
ATOM     49  C   UNL A   1      46.440  24.234  26.830  1.00  0.00     0.031 C 
ATOM     50  C   UNL A   1      41.780  25.445  28.233  1.00  0.00     0.029 A 
ATOM     51  N   UNL A   1      43.316  27.073  28.296  1.00  0.00    -0.354 N 
ATOM     52  C   UNL A   1      47.382  26.311  27.082  1.00  0.00     0.074 A 
ATOM     53  C   UNL A   1      47.586  24.907  26.789  1.00  0.00     0.031 C 
ATOM     54  C   UNL A   1      41.165  26.563  28.644  1.00  0.00     0.029 A 
ATOM     55  C   UNL A   1      42.135  27.654  28.695  1.00  0.00     0.049 A 
ATOM     56  H   UNL A   1      44.171  27.559  28.256  1.00  0.00     0.167 HD
ATOM     57  C   UNL A   1      48.344  27.265  27.020  1.00  0.00     0.031 A 
ATOM     58  C   UNL A   1      41.850  28.926  29.041  1.00  0.00     0.031 A 
ATOM     59  C   UNL A   1      48.113  28.663  27.300  1.00  0.00     0.049 A 
ATOM     60  C   UNL A   1      42.931  29.965  28.966  1.00  0.00     0.074 A 
ATOM     61  C   UNL A   1      49.009  29.714  27.193  1.00  0.00     0.029 A 
ATOM     62  N   UNL A   1      46.914  29.209  27.738  1.00  0.00    -0.354 N 
ATOM     63  N   UNL A   1      44.179  29.825  28.585  1.00  0.00    -0.248 NA
ATOM     64  C   UNL A   1      42.567  31.338  29.343  1.00  0.00     0.031 C 
ATOM     65  C   UNL A   1      48.378  30.876  27.641  1.00  0.00     0.029 A 
ATOM     66  C   UNL A   1      47.060  30.573  27.943  1.00  0.00     0.049 A 
ATOM     67  H   UNL A   1      46.082  28.703  27.883  1.00  0.00     0.167 HD
ATOM     68  C   UNL A   1      44.745  31.092  28.662  1.00  0.00     0.074 A 
ATOM     69  C   UNL A   1      43.697  31.990  29.104  1.00  0.00     0.031 C 
ATOM     70  C   UNL A   1      46.019  31.469  28.393  1.00  0.00     0.031 A 
BRANCH  57  71
ATOM     71  C   UNL A   1      49.740  26.861  26.610  1.00  0.00    -0.014 A 
ATOM     72  C   UNL A   1      50.101  26.860  25.248  1.00  0.00     0.010 A 
ATOM     73  C   UNL A   1      50.650  26.345  27.551  1.00  0.00     0.010 A 
ATOM     74  C   UNL A   1      51.323  26.322  24.833  1.00  0.00     0.020 A 
ATOM     75  C   UNL A   1      51.888  25.839  27.144  1.00  0.00     0.020 A 
ATOM     76  C   UNL A   1      52.206  25.807  25.784  1.00  0.00     0.054 A 
BRANCH  76  77
ATOM     77  S   UNL A   1      53.777  25.089  25.227  1.00  0.00     0.124 S 
ATOM     78  O   UNL A   1      53.887  25.604  23.866  1.00  0.00    -0.237 OA
ATOM     79  O   UNL A   1      54.732  25.633  26.189  1.00  0.00    -0.237 OA
ATOM     80  O   UNL A   1      53.551  23.649  25.336  1.00  0.00    -0.744 OA
ENDBRANCH  76  77
ENDBRANCH  57  71
BRANCH  58  81
ATOM     81  C   UNL A   1      40.448  29.266  29.405  1.00  0.00    -0.014 A 
ATOM     82  C   UNL A   1      39.562  29.767  28.432  1.00  0.00     0.010 A 
ATOM     83  C   UNL A   1      40.034  29.221  30.748  1.00  0.00     0.010 A 
ATOM     84  C   UNL A   1      38.321  30.290  28.805  1.00  0.00     0.020 A 
ATOM     85  C   UNL A   1      38.779  29.712  31.120  1.00  0.00     0.020 A 
ATOM     86  C   UNL A   1      37.948  30.278  30.151  1.00  0.00     0.054 A 
BRANCH  86  87
ATOM     87  S   UNL A   1      36.380  31.058  30.623  1.00  0.00     0.124 S 
ATOM     88  O   UNL A   1      36.796  31.922  31.724  1.00  0.00    -0.237 OA
ATOM     89  O   UNL A   1      35.987  31.746  29.396  1.00  0.00    -0.237 OA
ATOM     90  O   UNL A   1      35.534  29.928  31.000  1.00  0.00    -0.744 OA
ENDBRANCH  86  87
ENDBRANCH  58  81
BRANCH  70  91
ATOM     91  C   UNL A   1      46.392  32.920  28.577  1.00  0.00    -0.014 A 
ATOM     92  C   UNL A   1      46.291  33.814  27.493  1.00  0.00     0.010 A 
ATOM     93  C   UNL A   1      46.979  33.368  29.774  1.00  0.00     0.010 A 
ATOM     94  C   UNL A   1      46.814  35.106  27.584  1.00  0.00     0.020 A 
ATOM     95  C   UNL A   1      47.472  34.672  29.882  1.00  0.00     0.020 A 
ATOM     96  C   UNL A   1      47.414  35.523  28.775  1.00  0.00     0.054 A 
BRANCH  96  97
ATOM     97  S   UNL A   1      48.142  37.183  28.853  1.00  0.00     0.124 S 
ATOM     98  O   UNL A   1      46.961  38.039  28.810  1.00  0.00    -0.237 OA
ATOM     99  O   UNL A   1      48.858  37.159  30.126  1.00  0.00    -0.237 OA
ATOM    100  O   UNL A   1      48.996  37.240  27.668  1.00  0.00    -0.744 OA
ENDBRANCH  96  97
ENDBRANCH  70  91
ENDBRANCH  44  45
ENDBRANCH  37  39
ENDBRANCH  36  37
ENDBRANCH  35  36
ENDBRANCH  34  35
ENDBRANCH  33  34
ENDBRANCH  32  33
ENDBRANCH   1  32
TORSDOF 24
ENDMDL
