MODEL 1
REMARK VINA RESULT:      -9.5      0.000      0.000
REMARK SMILES CC(C)(C)c1ccc(C(=O)C[C@H](C(=O)OCCOCCOCCOC(=O)c2ccc(-c3c4nc(c(-c5ccc(S(=O)(=O)[O-])cc5)c5ccc([nH]5)c(-c5ccc(S(=O)(=O)[O-])cc5)c5nc(c(-c6ccc(S(=O)(=O)[O-])cc6)c6ccc3[nH]6)C=C5)C=C4)cc2)[NH+]2CCCC2)cc1
REMARK SMILES IDX 19 1 18 2 17 3 16 4 15 5 13 6 14 7 12 8 11 9 9 10 10 11 8 12
REMARK SMILES IDX 5 13 6 14 93 15 7 16 92 17 2 18 1 19 3 20 4 21 87 22 88 23
REMARK SMILES IDX 91 24 89 26 90 27 20 28 21 29 22 30 23 31 24 32 25 33 26 34
REMARK SMILES IDX 27 35 28 36 86 37 29 38 85 39 30 40 31 41 32 42 79 43 33 44
REMARK SMILES IDX 84 45 78 46 80 47 34 48 83 49 77 50 76 51 35 53 65 54 46 55
REMARK SMILES IDX 64 56 47 57 50 58 63 59 81 60 48 61 49 62 62 64 82 65 51 66
REMARK SMILES IDX 36 67 37 68 45 69 38 70 44 71 39 72 40 73 41 74 42 75 43 76
REMARK SMILES IDX 66 77 67 78 75 79 68 80 74 81 69 82 70 83 71 84 72 85 73 86
REMARK SMILES IDX 52 87 53 88 61 89 54 90 60 91 55 92 56 93 57 94 58 95 59 96
REMARK H PARENT 87 25 80 52 50 63
REMARK Flexibility Score: inf
ROOT
ATOM      1  C   UNL A   1      38.518  22.104  25.496  1.00  0.00     0.188 C 
ENDROOT
BRANCH   1   2
ATOM      2  O   UNL A   1      37.659  23.160  25.905  1.00  0.00    -0.376 OA
BRANCH   2   3
ATOM      3  C   UNL A   1      36.647  23.534  24.972  1.00  0.00     0.202 C 
BRANCH   3   4
ATOM      4  C   UNL A   1      35.514  24.367  25.581  1.00  0.00     0.261 C 
BRANCH   4   5
ATOM      5  O   UNL A   1      34.808  25.099  24.567  1.00  0.00    -0.459 OA
BRANCH   5   6
ATOM      6  C   UNL A   1      33.807  25.921  24.989  1.00  0.00     0.365 C 
ATOM      7  O   UNL A   1      33.889  26.628  25.983  1.00  0.00    -0.245 OA
BRANCH   6   8
ATOM      8  C   UNL A   1      32.644  25.884  23.963  1.00  0.00     0.302 C 
BRANCH   8   9
ATOM      9  C   UNL A   1      31.961  24.508  23.996  1.00  0.00     0.158 C 
BRANCH   9  10
ATOM     10  C   UNL A   1      32.433  23.449  23.006  1.00  0.00     0.169 C 
ATOM     11  O   UNL A   1      32.859  23.762  21.893  1.00  0.00    -0.294 OA
BRANCH  10  12
ATOM     12  C   UNL A   1      32.610  22.048  23.444  1.00  0.00     0.018 A 
ATOM     13  C   UNL A   1      33.155  19.346  24.060  1.00  0.00    -0.043 A 
ATOM     14  C   UNL A   1      32.303  19.694  22.994  1.00  0.00     0.005 A 
ATOM     15  C   UNL A   1      33.612  20.389  24.883  1.00  0.00     0.005 A 
ATOM     16  C   UNL A   1      32.040  21.032  22.678  1.00  0.00     0.012 A 
ATOM     17  C   UNL A   1      33.323  21.726  24.593  1.00  0.00     0.012 A 
BRANCH  13  18
ATOM     18  C   UNL A   1      33.563  17.881  24.301  1.00  0.00    -0.013 C 
ATOM     19  C   UNL A   1      33.202  17.044  23.062  1.00  0.00     0.016 C 
ATOM     20  C   UNL A   1      32.869  17.250  25.532  1.00  0.00     0.016 C 
ATOM     21  C   UNL A   1      35.085  17.775  24.561  1.00  0.00     0.016 C 
ENDBRANCH  13  18
ENDBRANCH  10  12
ENDBRANCH   9  10
ENDBRANCH   8   9
BRANCH   8  22
ATOM     22  N   UNL A   1      31.732  27.036  24.096  1.00  0.00    -0.323 N 
ATOM     23  C   UNL A   1      30.355  26.821  23.640  1.00  0.00     0.263 C 
ATOM     24  C   UNL A   1      32.215  28.323  23.606  1.00  0.00     0.263 C 
ATOM     25  H   UNL A   1      31.717  27.099  25.114  1.00  0.00     0.348 HD
ATOM     26  C   UNL A   1      30.107  27.857  22.563  1.00  0.00     0.067 C 
ATOM     27  C   UNL A   1      31.026  28.998  22.945  1.00  0.00     0.067 C 
ENDBRANCH   8  22
ENDBRANCH   6   8
ENDBRANCH   5   6
ENDBRANCH   4   5
ENDBRANCH   3   4
ENDBRANCH   2   3
ENDBRANCH   1   2
BRANCH   1  28
ATOM     28  C   UNL A   1      39.557  21.636  26.543  1.00  0.00     0.188 C 
BRANCH  28  29
ATOM     29  O   UNL A   1      40.671  20.844  26.159  1.00  0.00    -0.376 OA
BRANCH  29  30
ATOM     30  C   UNL A   1      41.979  21.240  26.538  1.00  0.00     0.202 C 
BRANCH  30  31
ATOM     31  C   UNL A   1      42.783  22.169  25.618  1.00  0.00     0.261 C 
BRANCH  31  32
ATOM     32  O   UNL A   1      42.305  23.522  25.552  1.00  0.00    -0.460 OA
BRANCH  32  33
ATOM     33  C   UNL A   1      43.187  24.457  25.974  1.00  0.00     0.338 C 
ATOM     34  O   UNL A   1      44.353  24.586  25.614  1.00  0.00    -0.246 OA
BRANCH  33  35
ATOM     35  C   UNL A   1      42.521  25.451  26.833  1.00  0.00     0.060 A 
ATOM     36  C   UNL A   1      43.059  26.743  26.876  1.00  0.00     0.016 A 
ATOM     37  C   UNL A   1      41.459  25.099  27.670  1.00  0.00     0.016 A 
ATOM     38  C   UNL A   1      42.581  27.671  27.797  1.00  0.00     0.010 A 
ATOM     39  C   UNL A   1      40.992  26.027  28.610  1.00  0.00     0.010 A 
ATOM     40  C   UNL A   1      41.585  27.299  28.709  1.00  0.00    -0.014 A 
BRANCH  40  41
ATOM     41  C   UNL A   1      41.344  28.165  29.890  1.00  0.00     0.031 A 
ATOM     42  C   UNL A   1      42.269  28.040  31.073  1.00  0.00     0.074 A 
ATOM     43  C   UNL A   1      40.374  29.097  29.889  1.00  0.00     0.049 A 
ATOM     44  N   UNL A   1      42.287  28.724  32.188  1.00  0.00    -0.248 NA
ATOM     45  C   UNL A   1      43.314  27.007  30.985  1.00  0.00     0.031 C 
ATOM     46  C   UNL A   1      39.443  29.351  28.792  1.00  0.00     0.029 A 
ATOM     47  N   UNL A   1      40.022  30.012  30.850  1.00  0.00    -0.354 N 
ATOM     48  C   UNL A   1      43.343  28.207  32.931  1.00  0.00     0.074 A 
ATOM     49  C   UNL A   1      43.917  27.129  32.157  1.00  0.00     0.031 C 
ATOM     50  C   UNL A   1      38.622  30.358  29.142  1.00  0.00     0.029 A 
ATOM     51  C   UNL A   1      38.958  30.805  30.494  1.00  0.00     0.049 A 
ATOM     52  H   UNL A   1      40.488  30.093  31.714  1.00  0.00     0.167 HD
ATOM     53  C   UNL A   1      43.803  28.597  34.144  1.00  0.00     0.031 A 
ATOM     54  C   UNL A   1      38.322  31.775  31.182  1.00  0.00     0.031 A 
ATOM     55  C   UNL A   1      43.224  29.658  34.925  1.00  0.00     0.049 A 
ATOM     56  C   UNL A   1      38.811  32.150  32.558  1.00  0.00     0.074 A 
ATOM     57  C   UNL A   1      43.621  30.131  36.163  1.00  0.00     0.029 A 
ATOM     58  N   UNL A   1      42.121  30.407  34.546  1.00  0.00    -0.354 N 
ATOM     59  N   UNL A   1      39.825  31.666  33.236  1.00  0.00    -0.248 NA
ATOM     60  C   UNL A   1      38.075  33.216  33.253  1.00  0.00     0.031 C 
ATOM     61  C   UNL A   1      42.726  31.132  36.557  1.00  0.00     0.029 A 
ATOM     62  C   UNL A   1      41.808  31.324  35.536  1.00  0.00     0.049 A 
ATOM     63  H   UNL A   1      41.631  30.302  33.698  1.00  0.00     0.167 HD
ATOM     64  C   UNL A   1      39.867  32.390  34.423  1.00  0.00     0.074 A 
ATOM     65  C   UNL A   1      38.786  33.353  34.365  1.00  0.00     0.031 C 
ATOM     66  C   UNL A   1      40.727  32.273  35.467  1.00  0.00     0.031 A 
BRANCH  53  67
ATOM     67  C   UNL A   1      44.973  27.842  34.716  1.00  0.00    -0.014 A 
ATOM     68  C   UNL A   1      46.279  28.357  34.644  1.00  0.00     0.010 A 
ATOM     69  C   UNL A   1      44.759  26.606  35.354  1.00  0.00     0.010 A 
ATOM     70  C   UNL A   1      47.356  27.634  35.165  1.00  0.00     0.020 A 
ATOM     71  C   UNL A   1      45.828  25.893  35.901  1.00  0.00     0.020 A 
ATOM     72  C   UNL A   1      47.123  26.403  35.787  1.00  0.00     0.054 A 
BRANCH  72  73
ATOM     73  S   UNL A   1      48.535  25.491  36.470  1.00  0.00     0.124 S 
ATOM     74  O   UNL A   1      47.923  24.792  37.598  1.00  0.00    -0.237 OA
ATOM     75  O   UNL A   1      48.940  24.643  35.352  1.00  0.00    -0.237 OA
ATOM     76  O   UNL A   1      49.484  26.540  36.829  1.00  0.00    -0.744 OA
ENDBRANCH  72  73
ENDBRANCH  53  67
BRANCH  54  77
ATOM     77  C   UNL A   1      37.146  32.463  30.583  1.00  0.00    -0.014 A 
ATOM     78  C   UNL A   1      35.843  31.977  30.792  1.00  0.00     0.010 A 
ATOM     79  C   UNL A   1      37.328  33.610  29.790  1.00  0.00     0.010 A 
ATOM     80  C   UNL A   1      34.747  32.616  30.206  1.00  0.00     0.020 A 
ATOM     81  C   UNL A   1      36.233  34.268  29.224  1.00  0.00     0.020 A 
ATOM     82  C   UNL A   1      34.949  33.760  29.427  1.00  0.00     0.054 A 
BRANCH  82  83
ATOM     83  S   UNL A   1      33.507  34.606  28.723  1.00  0.00     0.124 S 
ATOM     84  O   UNL A   1      32.698  34.868  29.909  1.00  0.00    -0.237 OA
ATOM     85  O   UNL A   1      34.107  35.780  28.092  1.00  0.00    -0.237 OA
ATOM     86  O   UNL A   1      32.956  33.624  27.792  1.00  0.00    -0.744 OA
ENDBRANCH  82  83
ENDBRANCH  54  77
BRANCH  66  87
ATOM     87  C   UNL A   1      40.559  33.236  36.615  1.00  0.00    -0.014 A 
ATOM     88  C   UNL A   1      41.182  34.496  36.613  1.00  0.00     0.010 A 
ATOM     89  C   UNL A   1      39.738  32.881  37.701  1.00  0.00     0.010 A 
ATOM     90  C   UNL A   1      41.025  35.365  37.696  1.00  0.00     0.020 A 
ATOM     91  C   UNL A   1      39.555  33.758  38.774  1.00  0.00     0.020 A 
ATOM     92  C   UNL A   1      40.218  34.987  38.775  1.00  0.00     0.054 A 
BRANCH  92  93
ATOM     93  S   UNL A   1      40.018  36.134  40.166  1.00  0.00     0.124 S 
ATOM     94  O   UNL A   1      40.941  35.577  41.151  1.00  0.00    -0.237 OA
ATOM     95  O   UNL A   1      40.416  37.414  39.587  1.00  0.00    -0.237 OA
ATOM     96  O   UNL A   1      38.602  36.024  40.505  1.00  0.00    -0.744 OA
ENDBRANCH  92  93
ENDBRANCH  66  87
ENDBRANCH  40  41
ENDBRANCH  33  35
ENDBRANCH  32  33
ENDBRANCH  31  32
ENDBRANCH  30  31
ENDBRANCH  29  30
ENDBRANCH  28  29
ENDBRANCH   1  28
TORSDOF 25
ENDMDL
MODEL 2
REMARK VINA RESULT:      -9.5      1.770      4.147
REMARK SMILES CC(C)(C)c1ccc(C(=O)C[C@H](C(=O)OCCOCCOCCOC(=O)c2ccc(-c3c4nc(c(-c5ccc(S(=O)(=O)[O-])cc5)c5ccc([nH]5)c(-c5ccc(S(=O)(=O)[O-])cc5)c5nc(c(-c6ccc(S(=O)(=O)[O-])cc6)c6ccc3[nH]6)C=C5)C=C4)cc2)[NH+]2CCCC2)cc1
REMARK SMILES IDX 19 1 18 2 17 3 16 4 15 5 13 6 14 7 12 8 11 9 9 10 10 11 8 12
REMARK SMILES IDX 5 13 6 14 93 15 7 16 92 17 2 18 1 19 3 20 4 21 87 22 88 23
REMARK SMILES IDX 91 24 89 26 90 27 20 28 21 29 22 30 23 31 24 32 25 33 26 34
REMARK SMILES IDX 27 35 28 36 86 37 29 38 85 39 30 40 31 41 32 42 79 43 33 44
REMARK SMILES IDX 84 45 78 46 80 47 34 48 83 49 77 50 76 51 35 53 65 54 46 55
REMARK SMILES IDX 64 56 47 57 50 58 63 59 81 60 48 61 49 62 62 64 82 65 51 66
REMARK SMILES IDX 36 67 37 68 45 69 38 70 44 71 39 72 40 73 41 74 42 75 43 76
REMARK SMILES IDX 66 77 67 78 75 79 68 80 74 81 69 82 70 83 71 84 72 85 73 86
REMARK SMILES IDX 52 87 53 88 61 89 54 90 60 91 55 92 56 93 57 94 58 95 59 96
REMARK H PARENT 87 25 80 52 50 63
REMARK Flexibility Score: inf
ROOT
ATOM      1  C   UNL A   1      39.427  21.415  25.891  1.00  0.00     0.188 C 
ENDROOT
BRANCH   1   2
ATOM      2  O   UNL A   1      38.445  22.325  26.366  1.00  0.00    -0.376 OA
BRANCH   2   3
ATOM      3  C   UNL A   1      37.168  22.248  25.734  1.00  0.00     0.202 C 
BRANCH   3   4
ATOM      4  C   UNL A   1      36.496  23.607  25.519  1.00  0.00     0.261 C 
BRANCH   4   5
ATOM      5  O   UNL A   1      36.354  23.897  24.119  1.00  0.00    -0.459 OA
BRANCH   5   6
ATOM      6  C   UNL A   1      35.108  23.756  23.587  1.00  0.00     0.365 C 
ATOM      7  O   UNL A   1      34.886  23.195  22.524  1.00  0.00    -0.245 OA
BRANCH   6   8
ATOM      8  C   UNL A   1      34.058  24.310  24.587  1.00  0.00     0.302 C 
BRANCH   8   9
ATOM      9  C   UNL A   1      33.498  25.644  24.071  1.00  0.00     0.158 C 
BRANCH   9  10
ATOM     10  C   UNL A   1      32.873  26.599  25.082  1.00  0.00     0.169 C 
ATOM     11  O   UNL A   1      33.399  26.799  26.178  1.00  0.00    -0.294 OA
BRANCH  10  12
ATOM     12  C   UNL A   1      31.757  27.482  24.680  1.00  0.00     0.018 A 
ATOM     13  C   UNL A   1      29.784  29.225  23.660  1.00  0.00    -0.043 A 
ATOM     14  C   UNL A   1      30.936  29.722  24.300  1.00  0.00     0.005 A 
ATOM     15  C   UNL A   1      29.593  27.833  23.670  1.00  0.00     0.005 A 
ATOM     16  C   UNL A   1      31.921  28.861  24.796  1.00  0.00     0.012 A 
ATOM     17  C   UNL A   1      30.559  26.970  24.196  1.00  0.00     0.012 A 
BRANCH  13  18
ATOM     18  C   UNL A   1      28.785  30.179  22.979  1.00  0.00    -0.013 C 
ATOM     19  C   UNL A   1      28.779  31.525  23.723  1.00  0.00     0.016 C 
ATOM     20  C   UNL A   1      27.337  29.630  22.958  1.00  0.00     0.016 C 
ATOM     21  C   UNL A   1      29.177  30.416  21.501  1.00  0.00     0.016 C 
ENDBRANCH  13  18
ENDBRANCH  10  12
ENDBRANCH   9  10
ENDBRANCH   8   9
BRANCH   8  22
ATOM     22  N   UNL A   1      33.039  23.307  24.954  1.00  0.00    -0.323 N 
ATOM     23  C   UNL A   1      31.770  23.384  24.224  1.00  0.00     0.263 C 
ATOM     24  C   UNL A   1      32.775  23.123  26.378  1.00  0.00     0.263 C 
ATOM     25  H   UNL A   1      33.530  22.470  24.639  1.00  0.00     0.348 HD
ATOM     26  C   UNL A   1      30.697  23.585  25.274  1.00  0.00     0.067 C 
ATOM     27  C   UNL A   1      31.275  22.925  26.508  1.00  0.00     0.067 C 
ENDBRANCH   8  22
ENDBRANCH   6   8
ENDBRANCH   5   6
ENDBRANCH   4   5
ENDBRANCH   3   4
ENDBRANCH   2   3
ENDBRANCH   1   2
BRANCH   1  28
ATOM     28  C   UNL A   1      40.651  21.200  26.814  1.00  0.00     0.188 C 
BRANCH  28  29
ATOM     29  O   UNL A   1      41.780  20.465  26.365  1.00  0.00    -0.376 OA
BRANCH  29  30
ATOM     30  C   UNL A   1      43.051  21.093  26.313  1.00  0.00     0.202 C 
BRANCH  30  31
ATOM     31  C   UNL A   1      43.462  21.861  25.049  1.00  0.00     0.261 C 
BRANCH  31  32
ATOM     32  O   UNL A   1      42.790  23.116  24.856  1.00  0.00    -0.460 OA
BRANCH  32  33
ATOM     33  C   UNL A   1      43.534  24.209  25.139  1.00  0.00     0.338 C 
ATOM     34  O   UNL A   1      44.604  24.526  24.628  1.00  0.00    -0.246 OA
BRANCH  33  35
ATOM     35  C   UNL A   1      42.812  25.107  26.057  1.00  0.00     0.060 A 
ATOM     36  C   UNL A   1      43.184  26.458  26.076  1.00  0.00     0.016 A 
ATOM     37  C   UNL A   1      41.868  24.620  26.964  1.00  0.00     0.016 A 
ATOM     38  C   UNL A   1      42.661  27.314  27.042  1.00  0.00     0.010 A 
ATOM     39  C   UNL A   1      41.357  25.478  27.946  1.00  0.00     0.010 A 
ATOM     40  C   UNL A   1      41.789  26.815  28.018  1.00  0.00    -0.014 A 
BRANCH  40  41
ATOM     41  C   UNL A   1      41.527  27.639  29.224  1.00  0.00     0.031 A 
ATOM     42  C   UNL A   1      42.423  27.462  30.424  1.00  0.00     0.074 A 
ATOM     43  C   UNL A   1      40.566  28.581  29.235  1.00  0.00     0.049 A 
ATOM     44  N   UNL A   1      42.420  28.106  31.563  1.00  0.00    -0.248 NA
ATOM     45  C   UNL A   1      43.461  26.424  30.322  1.00  0.00     0.031 C 
ATOM     46  C   UNL A   1      39.663  28.883  28.125  1.00  0.00     0.029 A 
ATOM     47  N   UNL A   1      40.198  29.463  30.220  1.00  0.00    -0.354 N 
ATOM     48  C   UNL A   1      43.453  27.551  32.312  1.00  0.00     0.074 A 
ATOM     49  C   UNL A   1      44.037  26.497  31.512  1.00  0.00     0.031 C 
ATOM     50  C   UNL A   1      38.844  29.884  28.493  1.00  0.00     0.029 A 
ATOM     51  C   UNL A   1      39.150  30.278  29.868  1.00  0.00     0.049 A 
ATOM     52  H   UNL A   1      40.644  29.507  31.097  1.00  0.00     0.167 HD
ATOM     53  C   UNL A   1      43.886  27.892  33.549  1.00  0.00     0.031 A 
ATOM     54  C   UNL A   1      38.506  31.228  30.576  1.00  0.00     0.031 A 
ATOM     55  C   UNL A   1      43.299  28.930  34.354  1.00  0.00     0.049 A 
ATOM     56  C   UNL A   1      38.965  31.548  31.976  1.00  0.00     0.074 A 
ATOM     57  C   UNL A   1      43.670  29.353  35.618  1.00  0.00     0.029 A 
ATOM     58  N   UNL A   1      42.211  29.702  33.977  1.00  0.00    -0.354 N 
ATOM     59  N   UNL A   1      39.958  31.030  32.660  1.00  0.00    -0.248 NA
ATOM     60  C   UNL A   1      38.222  32.595  32.693  1.00  0.00     0.031 C 
ATOM     61  C   UNL A   1      42.773  30.347  36.027  1.00  0.00     0.029 A 
ATOM     62  C   UNL A   1      41.882  30.585  34.992  1.00  0.00     0.049 A 
ATOM     63  H   UNL A   1      41.741  29.633  33.114  1.00  0.00     0.167 HD
ATOM     64  C   UNL A   1      39.978  31.710  33.874  1.00  0.00     0.074 A 
ATOM     65  C   UNL A   1      38.907  32.684  33.825  1.00  0.00     0.031 C 
ATOM     66  C   UNL A   1      40.811  31.546  34.933  1.00  0.00     0.031 A 
BRANCH  53  67
ATOM     67  C   UNL A   1      45.036  27.106  34.119  1.00  0.00    -0.014 A 
ATOM     68  C   UNL A   1      44.823  26.060  35.035  1.00  0.00     0.010 A 
ATOM     69  C   UNL A   1      46.351  27.404  33.716  1.00  0.00     0.010 A 
ATOM     70  C   UNL A   1      45.905  25.352  35.567  1.00  0.00     0.020 A 
ATOM     71  C   UNL A   1      47.433  26.682  34.225  1.00  0.00     0.020 A 
ATOM     72  C   UNL A   1      47.204  25.671  35.161  1.00  0.00     0.054 A 
BRANCH  72  73
ATOM     73  S   UNL A   1      48.590  24.728  35.853  1.00  0.00     0.124 S 
ATOM     74  O   UNL A   1      49.062  23.986  34.686  1.00  0.00    -0.237 OA
ATOM     75  O   UNL A   1      49.485  25.777  36.333  1.00  0.00    -0.237 OA
ATOM     76  O   UNL A   1      47.970  23.917  36.897  1.00  0.00    -0.744 OA
ENDBRANCH  72  73
ENDBRANCH  53  67
BRANCH  54  77
ATOM     77  C   UNL A   1      37.351  31.948  29.975  1.00  0.00    -0.014 A 
ATOM     78  C   UNL A   1      37.540  33.143  29.259  1.00  0.00     0.010 A 
ATOM     79  C   UNL A   1      36.047  31.441  30.127  1.00  0.00     0.010 A 
ATOM     80  C   UNL A   1      36.445  33.826  28.719  1.00  0.00     0.020 A 
ATOM     81  C   UNL A   1      34.954  32.105  29.566  1.00  0.00     0.020 A 
ATOM     82  C   UNL A   1      35.158  33.301  28.874  1.00  0.00     0.054 A 
BRANCH  82  83
ATOM     83  S   UNL A   1      33.759  34.172  28.117  1.00  0.00     0.124 S 
ATOM     84  O   UNL A   1      34.421  34.990  27.106  1.00  0.00    -0.237 OA
ATOM     85  O   UNL A   1      32.941  33.074  27.609  1.00  0.00    -0.237 OA
ATOM     86  O   UNL A   1      33.172  34.909  29.234  1.00  0.00    -0.744 OA
ENDBRANCH  82  83
ENDBRANCH  54  77
BRANCH  66  87
ATOM     87  C   UNL A   1      40.624  32.468  36.111  1.00  0.00    -0.014 A 
ATOM     88  C   UNL A   1      41.429  33.607  36.287  1.00  0.00     0.010 A 
ATOM     89  C   UNL A   1      39.602  32.202  37.041  1.00  0.00     0.010 A 
ATOM     90  C   UNL A   1      41.248  34.437  37.397  1.00  0.00     0.020 A 
ATOM     91  C   UNL A   1      39.398  33.046  38.137  1.00  0.00     0.020 A 
ATOM     92  C   UNL A   1      40.237  34.147  38.319  1.00  0.00     0.054 A 
BRANCH  92  93
ATOM     93  S   UNL A   1      40.011  35.243  39.746  1.00  0.00     0.124 S 
ATOM     94  O   UNL A   1      40.757  34.542  40.788  1.00  0.00    -0.237 OA
ATOM     95  O   UNL A   1      40.604  36.497  39.286  1.00  0.00    -0.237 OA
ATOM     96  O   UNL A   1      38.563  35.278  39.931  1.00  0.00    -0.744 OA
ENDBRANCH  92  93
ENDBRANCH  66  87
ENDBRANCH  40  41
ENDBRANCH  33  35
ENDBRANCH  32  33
ENDBRANCH  31  32
ENDBRANCH  30  31
ENDBRANCH  29  30
ENDBRANCH  28  29
ENDBRANCH   1  28
TORSDOF 25
ENDMDL
MODEL 3
REMARK VINA RESULT:      -8.7      7.023     15.075
REMARK SMILES CC(C)(C)c1ccc(C(=O)C[C@H](C(=O)OCCOCCOCCOC(=O)c2ccc(-c3c4nc(c(-c5ccc(S(=O)(=O)[O-])cc5)c5ccc([nH]5)c(-c5ccc(S(=O)(=O)[O-])cc5)c5nc(c(-c6ccc(S(=O)(=O)[O-])cc6)c6ccc3[nH]6)C=C5)C=C4)cc2)[NH+]2CCCC2)cc1
REMARK SMILES IDX 19 1 18 2 17 3 16 4 15 5 13 6 14 7 12 8 11 9 9 10 10 11 8 12
REMARK SMILES IDX 5 13 6 14 93 15 7 16 92 17 2 18 1 19 3 20 4 21 87 22 88 23
REMARK SMILES IDX 91 24 89 26 90 27 20 28 21 29 22 30 23 31 24 32 25 33 26 34
REMARK SMILES IDX 27 35 28 36 86 37 29 38 85 39 30 40 31 41 32 42 79 43 33 44
REMARK SMILES IDX 84 45 78 46 80 47 34 48 83 49 77 50 76 51 35 53 65 54 46 55
REMARK SMILES IDX 64 56 47 57 50 58 63 59 81 60 48 61 49 62 62 64 82 65 51 66
REMARK SMILES IDX 36 67 37 68 45 69 38 70 44 71 39 72 40 73 41 74 42 75 43 76
REMARK SMILES IDX 66 77 67 78 75 79 68 80 74 81 69 82 70 83 71 84 72 85 73 86
REMARK SMILES IDX 52 87 53 88 61 89 54 90 60 91 55 92 56 93 57 94 58 95 59 96
REMARK H PARENT 87 25 80 52 50 63
REMARK Flexibility Score: inf
ROOT
ATOM      1  C   UNL A   1      50.274  20.772  40.646  1.00  0.00     0.188 C 
ENDROOT
BRANCH   1   2
ATOM      2  O   UNL A   1      49.042  20.128  40.938  1.00  0.00    -0.376 OA
BRANCH   2   3
ATOM      3  C   UNL A   1      49.136  18.909  41.673  1.00  0.00     0.202 C 
BRANCH   3   4
ATOM      4  C   UNL A   1      47.967  17.947  41.440  1.00  0.00     0.261 C 
BRANCH   4   5
ATOM      5  O   UNL A   1      46.855  18.269  42.291  1.00  0.00    -0.459 OA
BRANCH   5   6
ATOM      6  C   UNL A   1      45.689  18.606  41.674  1.00  0.00     0.365 C 
ATOM      7  O   UNL A   1      45.512  19.671  41.100  1.00  0.00    -0.245 OA
BRANCH   6   8
ATOM      8  C   UNL A   1      44.713  17.401  41.729  1.00  0.00     0.302 C 
BRANCH   8   9
ATOM      9  C   UNL A   1      43.857  17.480  43.002  1.00  0.00     0.158 C 
BRANCH   9  10
ATOM     10  C   UNL A   1      44.336  16.725  44.237  1.00  0.00     0.169 C 
ATOM     11  O   UNL A   1      44.479  17.298  45.318  1.00  0.00    -0.294 OA
BRANCH  10  12
ATOM     12  C   UNL A   1      44.411  15.248  44.222  1.00  0.00     0.018 A 
ATOM     13  C   UNL A   1      44.607  12.444  44.494  1.00  0.00    -0.043 A 
ATOM     14  C   UNL A   1      45.758  13.252  44.415  1.00  0.00     0.005 A 
ATOM     15  C   UNL A   1      43.366  13.074  44.297  1.00  0.00     0.005 A 
ATOM     16  C   UNL A   1      45.664  14.643  44.292  1.00  0.00     0.012 A 
ATOM     17  C   UNL A   1      43.270  14.459  44.139  1.00  0.00     0.012 A 
BRANCH  13  18
ATOM     18  C   UNL A   1      44.717  10.936  44.787  1.00  0.00    -0.013 C 
ATOM     19  C   UNL A   1      44.804  10.720  46.308  1.00  0.00     0.016 C 
ATOM     20  C   UNL A   1      45.956  10.278  44.133  1.00  0.00     0.016 C 
ATOM     21  C   UNL A   1      43.484  10.182  44.235  1.00  0.00     0.016 C 
ENDBRANCH  13  18
ENDBRANCH  10  12
ENDBRANCH   9  10
ENDBRANCH   8   9
BRANCH   8  22
ATOM     22  N   UNL A   1      43.952  17.229  40.476  1.00  0.00    -0.323 N 
ATOM     23  C   UNL A   1      42.754  16.388  40.563  1.00  0.00     0.263 C 
ATOM     24  C   UNL A   1      44.714  16.874  39.283  1.00  0.00     0.263 C 
ATOM     25  H   UNL A   1      43.647  18.193  40.350  1.00  0.00     0.348 HD
ATOM     26  C   UNL A   1      42.964  15.260  39.573  1.00  0.00     0.067 C 
ATOM     27  C   UNL A   1      43.865  15.872  38.520  1.00  0.00     0.067 C 
ENDBRANCH   8  22
ENDBRANCH   6   8
ENDBRANCH   5   6
ENDBRANCH   4   5
ENDBRANCH   3   4
ENDBRANCH   2   3
ENDBRANCH   1   2
BRANCH   1  28
ATOM     28  C   UNL A   1      50.183  22.023  39.740  1.00  0.00     0.188 C 
BRANCH  28  29
ATOM     29  O   UNL A   1      49.235  23.046  40.005  1.00  0.00    -0.376 OA
BRANCH  29  30
ATOM     30  C   UNL A   1      48.971  24.032  39.020  1.00  0.00     0.202 C 
BRANCH  30  31
ATOM     31  C   UNL A   1      47.798  25.001  39.218  1.00  0.00     0.261 C 
BRANCH  31  32
ATOM     32  O   UNL A   1      47.144  25.420  38.010  1.00  0.00    -0.460 OA
BRANCH  32  33
ATOM     33  C   UNL A   1      47.627  26.561  37.468  1.00  0.00     0.338 C 
ATOM     34  O   UNL A   1      48.794  26.802  37.175  1.00  0.00    -0.246 OA
BRANCH  33  35
ATOM     35  C   UNL A   1      46.527  27.469  37.099  1.00  0.00     0.060 A 
ATOM     36  C   UNL A   1      45.222  27.084  37.436  1.00  0.00     0.016 A 
ATOM     37  C   UNL A   1      46.751  28.619  36.339  1.00  0.00     0.016 A 
ATOM     38  C   UNL A   1      44.133  27.812  36.963  1.00  0.00     0.010 A 
ATOM     39  C   UNL A   1      45.655  29.340  35.848  1.00  0.00     0.010 A 
ATOM     40  C   UNL A   1      44.343  28.910  36.117  1.00  0.00    -0.014 A 
BRANCH  40  41
ATOM     41  C   UNL A   1      43.190  29.445  35.351  1.00  0.00     0.031 A 
ATOM     42  C   UNL A   1      42.402  30.585  35.942  1.00  0.00     0.074 A 
ATOM     43  C   UNL A   1      42.891  28.986  34.122  1.00  0.00     0.049 A 
ATOM     44  N   UNL A   1      41.394  31.248  35.435  1.00  0.00    -0.248 NA
ATOM     45  C   UNL A   1      42.807  31.040  37.283  1.00  0.00     0.031 C 
ATOM     46  C   UNL A   1      43.602  27.920  33.419  1.00  0.00     0.029 A 
ATOM     47  N   UNL A   1      41.907  29.371  33.246  1.00  0.00    -0.354 N 
ATOM     48  C   UNL A   1      41.046  32.196  36.392  1.00  0.00     0.074 A 
ATOM     49  C   UNL A   1      41.927  31.999  37.523  1.00  0.00     0.031 C 
ATOM     50  C   UNL A   1      43.029  27.736  32.216  1.00  0.00     0.029 A 
ATOM     51  C   UNL A   1      41.901  28.655  32.073  1.00  0.00     0.049 A 
ATOM     52  H   UNL A   1      41.265  30.092  33.440  1.00  0.00     0.167 HD
ATOM     53  C   UNL A   1      40.089  33.152  36.336  1.00  0.00     0.031 A 
ATOM     54  C   UNL A   1      41.075  28.728  31.010  1.00  0.00     0.031 A 
ATOM     55  C   UNL A   1      39.201  33.342  35.219  1.00  0.00     0.049 A 
ATOM     56  C   UNL A   1      39.975  29.758  30.995  1.00  0.00     0.074 A 
ATOM     57  C   UNL A   1      38.201  34.286  35.065  1.00  0.00     0.029 A 
ATOM     58  N   UNL A   1      39.200  32.567  34.069  1.00  0.00    -0.354 N 
ATOM     59  N   UNL A   1      39.675  30.662  31.898  1.00  0.00    -0.248 NA
ATOM     60  C   UNL A   1      39.111  29.786  29.805  1.00  0.00     0.031 C 
ATOM     61  C   UNL A   1      37.561  34.049  33.843  1.00  0.00     0.029 A 
ATOM     62  C   UNL A   1      38.203  32.997  33.209  1.00  0.00     0.049 A 
ATOM     63  H   UNL A   1      39.817  31.821  33.890  1.00  0.00     0.167 HD
ATOM     64  C   UNL A   1      38.609  31.385  31.371  1.00  0.00     0.074 A 
ATOM     65  C   UNL A   1      38.326  30.823  30.067  1.00  0.00     0.031 C 
ATOM     66  C   UNL A   1      37.929  32.425  31.916  1.00  0.00     0.031 A 
BRANCH  53  67
ATOM     67  C   UNL A   1      39.932  34.046  37.537  1.00  0.00    -0.014 A 
ATOM     68  C   UNL A   1      39.045  33.722  38.578  1.00  0.00     0.010 A 
ATOM     69  C   UNL A   1      40.703  35.220  37.635  1.00  0.00     0.010 A 
ATOM     70  C   UNL A   1      38.901  34.573  39.677  1.00  0.00     0.020 A 
ATOM     71  C   UNL A   1      40.582  36.060  38.744  1.00  0.00     0.020 A 
ATOM     72  C   UNL A   1      39.668  35.740  39.751  1.00  0.00     0.054 A 
BRANCH  72  73
ATOM     73  S   UNL A   1      39.475  36.821  41.195  1.00  0.00     0.124 S 
ATOM     74  O   UNL A   1      38.727  37.943  40.633  1.00  0.00    -0.237 OA
ATOM     75  O   UNL A   1      38.734  35.978  42.130  1.00  0.00    -0.237 OA
ATOM     76  O   UNL A   1      40.849  37.123  41.587  1.00  0.00    -0.744 OA
ENDBRANCH  72  73
ENDBRANCH  53  67
BRANCH  54  77
ATOM     77  C   UNL A   1      41.253  27.793  29.865  1.00  0.00    -0.014 A 
ATOM     78  C   UNL A   1      42.387  27.873  29.039  1.00  0.00     0.010 A 
ATOM     79  C   UNL A   1      40.275  26.818  29.593  1.00  0.00     0.010 A 
ATOM     80  C   UNL A   1      42.532  27.006  27.951  1.00  0.00     0.020 A 
ATOM     81  C   UNL A   1      40.430  25.933  28.523  1.00  0.00     0.020 A 
ATOM     82  C   UNL A   1      41.553  26.039  27.702  1.00  0.00     0.054 A 
BRANCH  82  83
ATOM     83  S   UNL A   1      41.790  24.888  26.320  1.00  0.00     0.124 S 
ATOM     84  O   UNL A   1      43.096  24.313  26.623  1.00  0.00    -0.237 OA
ATOM     85  O   UNL A   1      40.651  23.985  26.463  1.00  0.00    -0.237 OA
ATOM     86  O   UNL A   1      41.743  25.754  25.143  1.00  0.00    -0.744 OA
ENDBRANCH  82  83
ENDBRANCH  54  77
BRANCH  66  87
ATOM     87  C   UNL A   1      36.837  33.051  31.086  1.00  0.00    -0.014 A 
ATOM     88  C   UNL A   1      37.131  33.865  29.979  1.00  0.00     0.010 A 
ATOM     89  C   UNL A   1      35.491  32.791  31.405  1.00  0.00     0.010 A 
ATOM     90  C   UNL A   1      36.101  34.447  29.235  1.00  0.00     0.020 A 
ATOM     91  C   UNL A   1      34.457  33.347  30.646  1.00  0.00     0.020 A 
ATOM     92  C   UNL A   1      34.769  34.190  29.578  1.00  0.00     0.054 A 
BRANCH  92  93
ATOM     93  S   UNL A   1      33.448  34.947  28.592  1.00  0.00     0.124 S 
ATOM     94  O   UNL A   1      32.545  35.443  29.627  1.00  0.00    -0.237 OA
ATOM     95  O   UNL A   1      34.159  35.974  27.835  1.00  0.00    -0.237 OA
ATOM     96  O   UNL A   1      32.933  33.837  27.793  1.00  0.00    -0.744 OA
ENDBRANCH  92  93
ENDBRANCH  66  87
ENDBRANCH  40  41
ENDBRANCH  33  35
ENDBRANCH  32  33
ENDBRANCH  31  32
ENDBRANCH  30  31
ENDBRANCH  29  30
ENDBRANCH  28  29
ENDBRANCH   1  28
TORSDOF 25
ENDMDL
