MODEL 1
REMARK VINA RESULT:      -7.9      0.000      0.000
REMARK SMILES CS(=O)(=O)c1ccc(-c2cc(Cl)cc3c2O[C@H](C(F)(F)F)C(C(=O)OCCOCCOCCOC(=O)c2ccc(-c4c5nc(c(-c6ccc(S(=O)(=O)[O-])cc6)c6ccc([nH]6)c(-c6ccc(S(=O)(=O)[O-])cc6)c6nc(c(-c7ccc(S(=O)(=O)[O-])cc7)c7ccc4[nH]7)C=C6)C=C5)cc2)=C3)cc1
REMARK SMILES IDX 30 1 29 2 28 3 27 4 26 5 25 6 23 7 24 8 22 9 9 10 10 11
REMARK SMILES IDX 15 12 11 13 14 14 16 15 12 16 13 17 97 18 17 19 8 20 5 21
REMARK SMILES IDX 6 22 99 23 7 24 98 25 2 26 1 27 3 28 4 29 18 30 19 31 20 32
REMARK SMILES IDX 21 33 31 34 32 35 33 36 34 37 35 38 36 39 37 40 38 41 96 42
REMARK SMILES IDX 39 43 95 44 40 45 41 46 42 47 89 48 43 49 94 50 88 51 90 52
REMARK SMILES IDX 44 53 93 54 87 55 86 56 45 58 75 59 56 60 74 61 57 62 60 63
REMARK SMILES IDX 73 64 91 65 58 66 59 67 72 69 92 70 61 71 46 72 47 73 55 74
REMARK SMILES IDX 48 75 54 76 49 77 50 78 51 79 52 80 53 81 76 82 77 83 85 84
REMARK SMILES IDX 78 85 84 86 79 87 80 88 81 89 82 90 83 91 62 92 63 93 71 94
REMARK SMILES IDX 64 95 70 96 65 97 66 98 67 99 68 100 69 101
REMARK H PARENT 90 57 60 68
REMARK Flexibility Score: inf
ROOT
ATOM      1  C   UNL A   1      35.293  33.454  31.679  1.00  0.00     0.188 C 
ENDROOT
BRANCH   1   2
ATOM      2  C   UNL A   1      36.746  33.490  31.153  1.00  0.00     0.188 C 
BRANCH   2   3
ATOM      3  O   UNL A   1      37.604  34.375  31.848  1.00  0.00    -0.376 OA
BRANCH   3   4
ATOM      4  C   UNL A   1      38.171  33.881  33.058  1.00  0.00     0.202 C 
BRANCH   4   5
ATOM      5  C   UNL A   1      37.796  34.650  34.333  1.00  0.00     0.261 C 
BRANCH   5   6
ATOM      6  O   UNL A   1      38.325  34.014  35.527  1.00  0.00    -0.460 OA
BRANCH   6   7
ATOM      7  C   UNL A   1      39.602  34.328  35.832  1.00  0.00     0.338 C 
ATOM      8  O   UNL A   1      40.126  35.402  35.566  1.00  0.00    -0.246 OA
BRANCH   7   9
ATOM      9  C   UNL A   1      40.284  33.272  36.632  1.00  0.00     0.087 C 
ATOM     10  C   UNL A   1      41.246  29.459  35.302  1.00  0.00     0.026 A 
ATOM     11  C   UNL A   1      40.413  29.307  34.172  1.00  0.00     0.033 A 
ATOM     12  C   UNL A   1      40.990  30.611  36.064  1.00  0.00     0.135 A 
ATOM     13  C   UNL A   1      39.288  30.097  33.938  1.00  0.00     0.042 A 
ATOM     14  C   UNL A   1      39.721  31.223  35.977  1.00  0.00     0.019 A 
ATOM     15  O   UNL A   1      41.961  31.371  36.726  1.00  0.00    -0.475 OA
ATOM     16  Cl  UNL A   1      38.365  29.919  32.503  1.00  0.00    -0.084 Cl
ATOM     17  C   UNL A   1      38.882  31.000  34.896  1.00  0.00     0.032 A 
ATOM     18  C   UNL A   1      39.415  32.299  36.944  1.00  0.00     0.027 C 
ATOM     19  C   UNL A   1      41.747  32.856  36.473  1.00  0.00     0.316 C 
BRANCH  10  20
ATOM     20  C   UNL A   1      41.960  28.191  35.680  1.00  0.00    -0.015 A 
ATOM     21  C   UNL A   1      43.894  26.055  35.728  1.00  0.00     0.067 A 
ATOM     22  C   UNL A   1      44.022  27.156  36.578  1.00  0.00     0.021 A 
ATOM     23  C   UNL A   1      42.802  26.001  34.861  1.00  0.00     0.021 A 
ATOM     24  C   UNL A   1      43.062  28.192  36.556  1.00  0.00     0.010 A 
ATOM     25  C   UNL A   1      41.854  27.057  34.843  1.00  0.00     0.010 A 
BRANCH  21  26
ATOM     26  S   UNL A   1      45.047  24.693  35.907  1.00  0.00     0.175 S 
ATOM     27  C   UNL A   1      45.607  24.578  37.582  1.00  0.00     0.163 C 
ATOM     28  O   UNL A   1      46.199  25.066  35.098  1.00  0.00    -0.224 OA
ATOM     29  O   UNL A   1      44.317  23.477  35.631  1.00  0.00    -0.224 OA
ENDBRANCH  21  26
ENDBRANCH  10  20
BRANCH  19  30
ATOM     30  C   UNL A   1      42.595  33.745  37.393  1.00  0.00     0.430 C 
ATOM     31  F   UNL A   1      41.845  34.615  38.104  1.00  0.00    -0.167 F 
ATOM     32  F   UNL A   1      43.333  33.022  38.264  1.00  0.00    -0.167 F 
ATOM     33  F   UNL A   1      43.473  34.487  36.666  1.00  0.00    -0.167 F 
ENDBRANCH  19  30
ENDBRANCH   7   9
ENDBRANCH   6   7
ENDBRANCH   5   6
ENDBRANCH   4   5
ENDBRANCH   3   4
ENDBRANCH   2   3
ENDBRANCH   1   2
BRANCH   1  34
ATOM     34  O   UNL A   1      34.203  33.702  30.800  1.00  0.00    -0.376 OA
BRANCH  34  35
ATOM     35  C   UNL A   1      34.461  34.065  29.450  1.00  0.00     0.202 C 
BRANCH  35  36
ATOM     36  C   UNL A   1      34.278  33.022  28.339  1.00  0.00     0.261 C 
BRANCH  36  37
ATOM     37  O   UNL A   1      34.240  31.653  28.777  1.00  0.00    -0.460 OA
BRANCH  37  38
ATOM     38  C   UNL A   1      34.464  30.727  27.819  1.00  0.00     0.338 C 
ATOM     39  O   UNL A   1      33.738  30.475  26.854  1.00  0.00    -0.246 OA
BRANCH  38  40
ATOM     40  C   UNL A   1      35.806  30.137  27.963  1.00  0.00     0.060 A 
ATOM     41  C   UNL A   1      36.147  29.564  29.191  1.00  0.00     0.016 A 
ATOM     42  C   UNL A   1      36.756  30.224  26.941  1.00  0.00     0.016 A 
ATOM     43  C   UNL A   1      37.443  29.097  29.405  1.00  0.00     0.010 A 
ATOM     44  C   UNL A   1      38.062  29.762  27.166  1.00  0.00     0.010 A 
ATOM     45  C   UNL A   1      38.421  29.205  28.403  1.00  0.00    -0.014 A 
BRANCH  45  46
ATOM     46  C   UNL A   1      39.839  28.875  28.721  1.00  0.00     0.031 A 
ATOM     47  C   UNL A   1      40.623  29.814  29.590  1.00  0.00     0.074 A 
ATOM     48  C   UNL A   1      40.427  27.757  28.257  1.00  0.00     0.049 A 
ATOM     49  N   UNL A   1      41.838  29.688  30.052  1.00  0.00    -0.248 NA
ATOM     50  C   UNL A   1      39.961  31.077  29.949  1.00  0.00     0.031 C 
ATOM     51  C   UNL A   1      39.791  26.801  27.363  1.00  0.00     0.029 A 
ATOM     52  N   UNL A   1      41.659  27.200  28.509  1.00  0.00    -0.354 N 
ATOM     53  C   UNL A   1      42.121  30.889  30.690  1.00  0.00     0.074 A 
ATOM     54  C   UNL A   1      40.930  31.707  30.596  1.00  0.00     0.031 C 
ATOM     55  C   UNL A   1      40.566  25.706  27.261  1.00  0.00     0.029 A 
ATOM     56  C   UNL A   1      41.795  25.920  28.013  1.00  0.00     0.049 A 
ATOM     57  H   UNL A   1      42.374  27.669  28.996  1.00  0.00     0.167 HD
ATOM     58  C   UNL A   1      43.288  31.295  31.246  1.00  0.00     0.031 A 
ATOM     59  C   UNL A   1      42.785  25.018  28.168  1.00  0.00     0.031 A 
ATOM     60  C   UNL A   1      44.481  30.491  31.295  1.00  0.00     0.049 A 
ATOM     61  C   UNL A   1      44.041  25.446  28.889  1.00  0.00     0.074 A 
ATOM     62  C   UNL A   1      45.724  30.829  31.802  1.00  0.00     0.029 A 
ATOM     63  N   UNL A   1      44.586  29.191  30.819  1.00  0.00    -0.354 N 
ATOM     64  N   UNL A   1      44.302  26.587  29.479  1.00  0.00    -0.248 NA
ATOM     65  C   UNL A   1      45.148  24.479  28.936  1.00  0.00     0.031 C 
ATOM     66  C   UNL A   1      46.599  29.765  31.562  1.00  0.00     0.029 A 
ATOM     67  C   UNL A   1      45.883  28.729  30.980  1.00  0.00     0.049 A 
ATOM     68  H   UNL A   1      43.848  28.674  30.423  1.00  0.00     0.167 HD
ATOM     69  C   UNL A   1      45.599  26.479  29.972  1.00  0.00     0.074 A 
ATOM     70  C   UNL A   1      46.060  25.147  29.634  1.00  0.00     0.031 C 
ATOM     71  C   UNL A   1      46.344  27.406  30.627  1.00  0.00     0.031 A 
BRANCH  58  72
ATOM     72  C   UNL A   1      43.354  32.722  31.727  1.00  0.00    -0.014 A 
ATOM     73  C   UNL A   1      43.701  33.783  30.873  1.00  0.00     0.010 A 
ATOM     74  C   UNL A   1      43.079  32.997  33.080  1.00  0.00     0.010 A 
ATOM     75  C   UNL A   1      43.825  35.083  31.375  1.00  0.00     0.020 A 
ATOM     76  C   UNL A   1      43.169  34.297  33.579  1.00  0.00     0.020 A 
ATOM     77  C   UNL A   1      43.566  35.329  32.728  1.00  0.00     0.054 A 
BRANCH  77  78
ATOM     78  S   UNL A   1      43.746  37.021  33.358  1.00  0.00     0.124 S 
ATOM     79  O   UNL A   1      45.035  36.950  34.044  1.00  0.00    -0.237 OA
ATOM     80  O   UNL A   1      43.728  37.822  32.138  1.00  0.00    -0.237 OA
ATOM     81  O   UNL A   1      42.587  37.192  34.230  1.00  0.00    -0.744 OA
ENDBRANCH  77  78
ENDBRANCH  58  72
BRANCH  59  82
ATOM     82  C   UNL A   1      42.609  23.604  27.713  1.00  0.00    -0.014 A 
ATOM     83  C   UNL A   1      43.008  23.259  26.409  1.00  0.00     0.010 A 
ATOM     84  C   UNL A   1      42.085  22.592  28.531  1.00  0.00     0.010 A 
ATOM     85  C   UNL A   1      42.829  21.973  25.900  1.00  0.00     0.020 A 
ATOM     86  C   UNL A   1      41.948  21.280  28.046  1.00  0.00     0.020 A 
ATOM     87  C   UNL A   1      42.296  20.986  26.724  1.00  0.00     0.054 A 
BRANCH  87  88
ATOM     88  S   UNL A   1      42.137  19.303  26.067  1.00  0.00     0.124 S 
ATOM     89  O   UNL A   1      43.019  19.349  24.906  1.00  0.00    -0.237 OA
ATOM     90  O   UNL A   1      42.606  18.480  27.182  1.00  0.00    -0.237 OA
ATOM     91  O   UNL A   1      40.711  19.189  25.776  1.00  0.00    -0.744 OA
ENDBRANCH  87  88
ENDBRANCH  59  82
BRANCH  71  92
ATOM     92  C   UNL A   1      47.755  27.038  31.021  1.00  0.00    -0.014 A 
ATOM     93  C   UNL A   1      48.069  26.641  32.334  1.00  0.00     0.010 A 
ATOM     94  C   UNL A   1      48.762  26.986  30.037  1.00  0.00     0.010 A 
ATOM     95  C   UNL A   1      49.365  26.228  32.661  1.00  0.00     0.020 A 
ATOM     96  C   UNL A   1      50.051  26.545  30.354  1.00  0.00     0.020 A 
ATOM     97  C   UNL A   1      50.347  26.181  31.668  1.00  0.00     0.054 A 
BRANCH  97  98
ATOM     98  S   UNL A   1      52.005  25.585  32.108  1.00  0.00     0.124 S 
ATOM     99  O   UNL A   1      52.804  26.044  30.975  1.00  0.00    -0.237 OA
ATOM    100  O   UNL A   1      52.265  26.263  33.376  1.00  0.00    -0.237 OA
ATOM    101  O   UNL A   1      51.840  24.136  32.206  1.00  0.00    -0.744 OA
ENDBRANCH  97  98
ENDBRANCH  71  92
ENDBRANCH  45  46
ENDBRANCH  38  40
ENDBRANCH  37  38
ENDBRANCH  36  37
ENDBRANCH  35  36
ENDBRANCH  34  35
ENDBRANCH   1  34
TORSDOF 23
ENDMDL
MODEL 2
REMARK VINA RESULT:      -7.5      5.612     12.579
REMARK SMILES CS(=O)(=O)c1ccc(-c2cc(Cl)cc3c2O[C@H](C(F)(F)F)C(C(=O)OCCOCCOCCOC(=O)c2ccc(-c4c5nc(c(-c6ccc(S(=O)(=O)[O-])cc6)c6ccc([nH]6)c(-c6ccc(S(=O)(=O)[O-])cc6)c6nc(c(-c7ccc(S(=O)(=O)[O-])cc7)c7ccc4[nH]7)C=C6)C=C5)cc2)=C3)cc1
REMARK SMILES IDX 30 1 29 2 28 3 27 4 26 5 25 6 23 7 24 8 22 9 9 10 10 11
REMARK SMILES IDX 15 12 11 13 14 14 16 15 12 16 13 17 97 18 17 19 8 20 5 21
REMARK SMILES IDX 6 22 99 23 7 24 98 25 2 26 1 27 3 28 4 29 18 30 19 31 20 32
REMARK SMILES IDX 21 33 31 34 32 35 33 36 34 37 35 38 36 39 37 40 38 41 96 42
REMARK SMILES IDX 39 43 95 44 40 45 41 46 42 47 89 48 43 49 94 50 88 51 90 52
REMARK SMILES IDX 44 53 93 54 87 55 86 56 45 58 75 59 56 60 74 61 57 62 60 63
REMARK SMILES IDX 73 64 91 65 58 66 59 67 72 69 92 70 61 71 46 72 47 73 55 74
REMARK SMILES IDX 48 75 54 76 49 77 50 78 51 79 52 80 53 81 76 82 77 83 85 84
REMARK SMILES IDX 78 85 84 86 79 87 80 88 81 89 82 90 83 91 62 92 63 93 71 94
REMARK SMILES IDX 64 95 70 96 65 97 66 98 67 99 68 100 69 101
REMARK H PARENT 90 57 60 68
REMARK Flexibility Score: inf
ROOT
ATOM      1  C   UNL A   1      51.279  24.775  37.427  1.00  0.00     0.188 C 
ENDROOT
BRANCH   1   2
ATOM      2  C   UNL A   1      52.214  24.516  36.223  1.00  0.00     0.188 C 
BRANCH   2   3
ATOM      3  O   UNL A   1      51.621  24.736  34.957  1.00  0.00    -0.376 OA
BRANCH   3   4
ATOM      4  C   UNL A   1      51.861  23.739  33.967  1.00  0.00     0.202 C 
BRANCH   4   5
ATOM      5  C   UNL A   1      50.612  23.048  33.402  1.00  0.00     0.261 C 
BRANCH   5   6
ATOM      6  O   UNL A   1      50.139  21.985  34.272  1.00  0.00    -0.460 OA
BRANCH   6   7
ATOM      7  C   UNL A   1      48.969  22.230  34.900  1.00  0.00     0.338 C 
ATOM      8  O   UNL A   1      48.501  23.349  35.065  1.00  0.00    -0.246 OA
BRANCH   7   9
ATOM      9  C   UNL A   1      48.243  20.985  35.280  1.00  0.00     0.087 C 
ATOM     10  C   UNL A   1      47.964  19.408  39.110  1.00  0.00     0.026 A 
ATOM     11  C   UNL A   1      49.026  20.048  39.785  1.00  0.00     0.033 A 
ATOM     12  C   UNL A   1      47.939  19.628  37.723  1.00  0.00     0.135 A 
ATOM     13  C   UNL A   1      50.091  20.664  39.129  1.00  0.00     0.042 A 
ATOM     14  C   UNL A   1      49.131  20.003  37.066  1.00  0.00     0.019 A 
ATOM     15  O   UNL A   1      46.780  19.756  36.948  1.00  0.00    -0.475 OA
ATOM     16  Cl  UNL A   1      51.308  21.498  40.005  1.00  0.00    -0.084 Cl
ATOM     17  C   UNL A   1      50.196  20.557  37.759  1.00  0.00     0.032 A 
ATOM     18  C   UNL A   1      49.120  20.018  35.588  1.00  0.00     0.027 C 
ATOM     19  C   UNL A   1      46.895  20.940  36.000  1.00  0.00     0.316 C 
BRANCH  10  20
ATOM     20  C   UNL A   1      47.316  18.325  39.927  1.00  0.00    -0.015 A 
ATOM     21  C   UNL A   1      46.049  16.941  42.114  1.00  0.00     0.067 A 
ATOM     22  C   UNL A   1      45.287  17.551  41.115  1.00  0.00     0.021 A 
ATOM     23  C   UNL A   1      47.440  17.003  42.028  1.00  0.00     0.021 A 
ATOM     24  C   UNL A   1      45.917  18.216  40.040  1.00  0.00     0.010 A 
ATOM     25  C   UNL A   1      48.056  17.687  40.948  1.00  0.00     0.010 A 
BRANCH  21  26
ATOM     26  S   UNL A   1      45.206  15.973  43.367  1.00  0.00     0.175 S 
ATOM     27  C   UNL A   1      44.691  17.012  44.704  1.00  0.00     0.163 C 
ATOM     28  O   UNL A   1      46.222  15.073  43.894  1.00  0.00    -0.224 OA
ATOM     29  O   UNL A   1      44.002  15.449  42.763  1.00  0.00    -0.224 OA
ENDBRANCH  21  26
ENDBRANCH  10  20
BRANCH  19  30
ATOM     30  C   UNL A   1      45.788  20.959  34.936  1.00  0.00     0.430 C 
ATOM     31  F   UNL A   1      46.282  21.049  33.681  1.00  0.00    -0.167 F 
ATOM     32  F   UNL A   1      45.001  19.863  34.997  1.00  0.00    -0.167 F 
ATOM     33  F   UNL A   1      44.971  22.031  35.114  1.00  0.00    -0.167 F 
ENDBRANCH  19  30
ENDBRANCH   7   9
ENDBRANCH   6   7
ENDBRANCH   5   6
ENDBRANCH   4   5
ENDBRANCH   3   4
ENDBRANCH   2   3
ENDBRANCH   1   2
BRANCH   1  34
ATOM     34  O   UNL A   1      49.978  25.311  37.225  1.00  0.00    -0.376 OA
BRANCH  34  35
ATOM     35  C   UNL A   1      48.971  25.092  38.203  1.00  0.00     0.202 C 
BRANCH  35  36
ATOM     36  C   UNL A   1      48.688  26.176  39.252  1.00  0.00     0.261 C 
BRANCH  36  37
ATOM     37  O   UNL A   1      47.507  26.965  39.021  1.00  0.00    -0.460 OA
BRANCH  37  38
ATOM     38  C   UNL A   1      47.695  28.105  38.322  1.00  0.00     0.338 C 
ATOM     39  O   UNL A   1      48.722  28.787  38.285  1.00  0.00    -0.246 OA
BRANCH  38  40
ATOM     40  C   UNL A   1      46.548  28.372  37.437  1.00  0.00     0.060 A 
ATOM     41  C   UNL A   1      46.679  29.374  36.471  1.00  0.00     0.016 A 
ATOM     42  C   UNL A   1      45.325  27.716  37.605  1.00  0.00     0.016 A 
ATOM     43  C   UNL A   1      45.582  29.734  35.689  1.00  0.00     0.010 A 
ATOM     44  C   UNL A   1      44.222  28.090  36.822  1.00  0.00     0.010 A 
ATOM     45  C   UNL A   1      44.337  29.111  35.866  1.00  0.00    -0.014 A 
BRANCH  45  46
ATOM     46  C   UNL A   1      43.140  29.643  35.155  1.00  0.00     0.031 A 
ATOM     47  C   UNL A   1      42.355  30.751  35.790  1.00  0.00     0.074 A 
ATOM     48  C   UNL A   1      42.755  29.161  33.958  1.00  0.00     0.049 A 
ATOM     49  N   UNL A   1      41.332  31.412  35.319  1.00  0.00    -0.248 NA
ATOM     50  C   UNL A   1      42.753  31.135  37.153  1.00  0.00     0.031 C 
ATOM     51  C   UNL A   1      43.399  28.053  33.269  1.00  0.00     0.029 A 
ATOM     52  N   UNL A   1      41.775  29.567  33.083  1.00  0.00    -0.354 N 
ATOM     53  C   UNL A   1      40.908  32.235  36.354  1.00  0.00     0.074 A 
ATOM     54  C   UNL A   1      41.820  32.024  37.460  1.00  0.00     0.031 C 
ATOM     55  C   UNL A   1      42.908  27.962  32.020  1.00  0.00     0.029 A 
ATOM     56  C   UNL A   1      41.850  28.950  31.851  1.00  0.00     0.049 A 
ATOM     57  H   UNL A   1      41.088  30.232  33.312  1.00  0.00     0.167 HD
ATOM     58  C   UNL A   1      39.823  33.045  36.400  1.00  0.00     0.031 A 
ATOM     59  C   UNL A   1      41.163  29.172  30.713  1.00  0.00     0.031 A 
ATOM     60  C   UNL A   1      38.896  33.214  35.311  1.00  0.00     0.049 A 
ATOM     61  C   UNL A   1      40.022  30.161  30.744  1.00  0.00     0.074 A 
ATOM     62  C   UNL A   1      37.745  33.981  35.275  1.00  0.00     0.029 A 
ATOM     63  N   UNL A   1      39.010  32.608  34.067  1.00  0.00    -0.354 N 
ATOM     64  N   UNL A   1      39.624  30.927  31.732  1.00  0.00    -0.248 NA
ATOM     65  C   UNL A   1      39.217  30.293  29.521  1.00  0.00     0.031 C 
ATOM     66  C   UNL A   1      37.122  33.778  34.039  1.00  0.00     0.029 A 
ATOM     67  C   UNL A   1      37.927  32.949  33.272  1.00  0.00     0.049 A 
ATOM     68  H   UNL A   1      39.751  32.021  33.790  1.00  0.00     0.167 HD
ATOM     69  C   UNL A   1      38.525  31.634  31.254  1.00  0.00     0.074 A 
ATOM     70  C   UNL A   1      38.339  31.225  29.875  1.00  0.00     0.031 C 
ATOM     71  C   UNL A   1      37.735  32.527  31.903  1.00  0.00     0.031 A 
BRANCH  58  72
ATOM     72  C   UNL A   1      39.518  33.702  37.721  1.00  0.00    -0.014 A 
ATOM     73  C   UNL A   1      39.785  35.061  37.960  1.00  0.00     0.010 A 
ATOM     74  C   UNL A   1      38.965  32.923  38.756  1.00  0.00     0.010 A 
ATOM     75  C   UNL A   1      39.556  35.615  39.224  1.00  0.00     0.020 A 
ATOM     76  C   UNL A   1      38.704  33.479  40.009  1.00  0.00     0.020 A 
ATOM     77  C   UNL A   1      39.025  34.816  40.243  1.00  0.00     0.054 A 
BRANCH  77  78
ATOM     78  S   UNL A   1      38.749  35.554  41.878  1.00  0.00     0.124 S 
ATOM     79  O   UNL A   1      39.742  34.857  42.693  1.00  0.00    -0.237 OA
ATOM     80  O   UNL A   1      39.014  36.969  41.640  1.00  0.00    -0.237 OA
ATOM     81  O   UNL A   1      37.358  35.225  42.178  1.00  0.00    -0.744 OA
ENDBRANCH  77  78
ENDBRANCH  58  72
BRANCH  59  82
ATOM     82  C   UNL A   1      41.574  28.521  29.431  1.00  0.00    -0.014 A 
ATOM     83  C   UNL A   1      42.231  29.297  28.460  1.00  0.00     0.010 A 
ATOM     84  C   UNL A   1      41.357  27.163  29.153  1.00  0.00     0.010 A 
ATOM     85  C   UNL A   1      42.599  28.770  27.221  1.00  0.00     0.020 A 
ATOM     86  C   UNL A   1      41.770  26.609  27.929  1.00  0.00     0.020 A 
ATOM     87  C   UNL A   1      42.364  27.423  26.961  1.00  0.00     0.054 A 
BRANCH  87  88
ATOM     88  S   UNL A   1      42.915  26.740  25.374  1.00  0.00     0.124 S 
ATOM     89  O   UNL A   1      42.782  27.892  24.489  1.00  0.00    -0.237 OA
ATOM     90  O   UNL A   1      44.286  26.322  25.665  1.00  0.00    -0.237 OA
ATOM     91  O   UNL A   1      41.977  25.647  25.135  1.00  0.00    -0.744 OA
ENDBRANCH  87  88
ENDBRANCH  59  82
BRANCH  71  92
ATOM     92  C   UNL A   1      36.570  33.127  31.152  1.00  0.00    -0.014 A 
ATOM     93  C   UNL A   1      35.250  32.989  31.618  1.00  0.00     0.010 A 
ATOM     94  C   UNL A   1      36.811  33.931  30.021  1.00  0.00     0.010 A 
ATOM     95  C   UNL A   1      34.192  33.618  30.953  1.00  0.00     0.020 A 
ATOM     96  C   UNL A   1      35.759  34.586  29.371  1.00  0.00     0.020 A 
ATOM     97  C   UNL A   1      34.454  34.415  29.834  1.00  0.00     0.054 A 
BRANCH  97  98
ATOM     98  S   UNL A   1      33.069  35.267  29.025  1.00  0.00     0.124 S 
ATOM     99  O   UNL A   1      32.178  35.534  30.151  1.00  0.00    -0.237 OA
ATOM    100  O   UNL A   1      33.712  36.441  28.441  1.00  0.00    -0.237 OA
ATOM    101  O   UNL A   1      32.576  34.288  28.059  1.00  0.00    -0.744 OA
ENDBRANCH  97  98
ENDBRANCH  71  92
ENDBRANCH  45  46
ENDBRANCH  38  40
ENDBRANCH  37  38
ENDBRANCH  36  37
ENDBRANCH  35  36
ENDBRANCH  34  35
ENDBRANCH   1  34
TORSDOF 23
ENDMDL
MODEL 3
REMARK VINA RESULT:      -7.5      5.461      9.042
REMARK SMILES CS(=O)(=O)c1ccc(-c2cc(Cl)cc3c2O[C@H](C(F)(F)F)C(C(=O)OCCOCCOCCOC(=O)c2ccc(-c4c5nc(c(-c6ccc(S(=O)(=O)[O-])cc6)c6ccc([nH]6)c(-c6ccc(S(=O)(=O)[O-])cc6)c6nc(c(-c7ccc(S(=O)(=O)[O-])cc7)c7ccc4[nH]7)C=C6)C=C5)cc2)=C3)cc1
REMARK SMILES IDX 30 1 29 2 28 3 27 4 26 5 25 6 23 7 24 8 22 9 9 10 10 11
REMARK SMILES IDX 15 12 11 13 14 14 16 15 12 16 13 17 97 18 17 19 8 20 5 21
REMARK SMILES IDX 6 22 99 23 7 24 98 25 2 26 1 27 3 28 4 29 18 30 19 31 20 32
REMARK SMILES IDX 21 33 31 34 32 35 33 36 34 37 35 38 36 39 37 40 38 41 96 42
REMARK SMILES IDX 39 43 95 44 40 45 41 46 42 47 89 48 43 49 94 50 88 51 90 52
REMARK SMILES IDX 44 53 93 54 87 55 86 56 45 58 75 59 56 60 74 61 57 62 60 63
REMARK SMILES IDX 73 64 91 65 58 66 59 67 72 69 92 70 61 71 46 72 47 73 55 74
REMARK SMILES IDX 48 75 54 76 49 77 50 78 51 79 52 80 53 81 76 82 77 83 85 84
REMARK SMILES IDX 78 85 84 86 79 87 80 88 81 89 82 90 83 91 62 92 63 93 71 94
REMARK SMILES IDX 64 95 70 96 65 97 66 98 67 99 68 100 69 101
REMARK H PARENT 90 57 60 68
REMARK Flexibility Score: inf
ROOT
ATOM      1  C   UNL A   1      40.391  32.592  34.217  1.00  0.00     0.188 C 
ENDROOT
BRANCH   1   2
ATOM      2  C   UNL A   1      41.879  33.007  34.160  1.00  0.00     0.188 C 
BRANCH   2   3
ATOM      3  O   UNL A   1      42.229  33.801  33.042  1.00  0.00    -0.376 OA
BRANCH   3   4
ATOM      4  C   UNL A   1      41.906  33.264  31.763  1.00  0.00     0.202 C 
BRANCH   4   5
ATOM      5  C   UNL A   1      41.263  34.244  30.771  1.00  0.00     0.261 C 
BRANCH   5   6
ATOM      6  O   UNL A   1      42.040  34.370  29.550  1.00  0.00    -0.460 OA
BRANCH   6   7
ATOM      7  C   UNL A   1      42.844  35.453  29.485  1.00  0.00     0.338 C 
ATOM      8  O   UNL A   1      43.672  35.743  30.338  1.00  0.00    -0.246 OA
BRANCH   7   9
ATOM      9  C   UNL A   1      42.700  36.206  28.208  1.00  0.00     0.087 C 
ATOM     10  C   UNL A   1      44.092  40.050  27.486  1.00  0.00     0.026 A 
ATOM     11  C   UNL A   1      44.290  40.557  28.788  1.00  0.00     0.033 A 
ATOM     12  C   UNL A   1      43.443  38.806  27.436  1.00  0.00     0.135 A 
ATOM     13  C   UNL A   1      43.706  39.998  29.924  1.00  0.00     0.042 A 
ATOM     14  C   UNL A   1      42.642  38.406  28.529  1.00  0.00     0.019 A 
ATOM     15  O   UNL A   1      43.709  37.794  26.506  1.00  0.00    -0.475 OA
ATOM     16  Cl  UNL A   1      44.053  40.608  31.489  1.00  0.00    -0.084 Cl
ATOM     17  C   UNL A   1      42.797  38.972  29.785  1.00  0.00     0.032 A 
ATOM     18  C   UNL A   1      41.808  37.197  28.357  1.00  0.00     0.027 C 
ATOM     19  C   UNL A   1      43.823  36.444  27.197  1.00  0.00     0.316 C 
BRANCH  10  20
ATOM     20  C   UNL A   1      44.256  41.096  26.417  1.00  0.00    -0.015 A 
ATOM     21  C   UNL A   1      44.526  42.341  23.833  1.00  0.00     0.067 A 
ATOM     22  C   UNL A   1      43.275  42.219  24.441  1.00  0.00     0.021 A 
ATOM     23  C   UNL A   1      45.649  41.860  24.507  1.00  0.00     0.021 A 
ATOM     24  C   UNL A   1      43.153  41.618  25.713  1.00  0.00     0.010 A 
ATOM     25  C   UNL A   1      45.508  41.248  25.778  1.00  0.00     0.010 A 
BRANCH  21  26
ATOM     26  S   UNL A   1      44.647  43.254  22.294  1.00  0.00     0.175 S 
ATOM     27  C   UNL A   1      43.405  42.710  21.156  1.00  0.00     0.163 C 
ATOM     28  O   UNL A   1      45.936  42.874  21.731  1.00  0.00    -0.224 OA
ATOM     29  O   UNL A   1      44.356  44.637  22.594  1.00  0.00    -0.224 OA
ENDBRANCH  21  26
ENDBRANCH  10  20
BRANCH  19  30
ATOM     30  C   UNL A   1      43.828  35.269  26.209  1.00  0.00     0.430 C 
ATOM     31  F   UNL A   1      44.923  35.264  25.418  1.00  0.00    -0.167 F 
ATOM     32  F   UNL A   1      43.761  34.074  26.836  1.00  0.00    -0.167 F 
ATOM     33  F   UNL A   1      42.748  35.332  25.384  1.00  0.00    -0.167 F 
ENDBRANCH  19  30
ENDBRANCH   7   9
ENDBRANCH   6   7
ENDBRANCH   5   6
ENDBRANCH   4   5
ENDBRANCH   3   4
ENDBRANCH   2   3
ENDBRANCH   1   2
BRANCH   1  34
ATOM     34  O   UNL A   1      39.977  31.327  33.716  1.00  0.00    -0.376 OA
BRANCH  34  35
ATOM     35  C   UNL A   1      38.615  31.123  33.367  1.00  0.00     0.202 C 
BRANCH  35  36
ATOM     36  C   UNL A   1      38.238  30.892  31.897  1.00  0.00     0.261 C 
BRANCH  36  37
ATOM     37  O   UNL A   1      37.713  29.588  31.592  1.00  0.00    -0.460 OA
BRANCH  37  38
ATOM     38  C   UNL A   1      37.520  29.329  30.280  1.00  0.00     0.338 C 
ATOM     39  O   UNL A   1      36.469  29.463  29.649  1.00  0.00    -0.246 OA
BRANCH  38  40
ATOM     40  C   UNL A   1      38.795  29.014  29.615  1.00  0.00     0.060 A 
ATOM     41  C   UNL A   1      39.722  28.226  30.304  1.00  0.00     0.016 A 
ATOM     42  C   UNL A   1      39.125  29.556  28.369  1.00  0.00     0.016 A 
ATOM     43  C   UNL A   1      40.984  27.998  29.757  1.00  0.00     0.010 A 
ATOM     44  C   UNL A   1      40.401  29.332  27.829  1.00  0.00     0.010 A 
ATOM     45  C   UNL A   1      41.347  28.561  28.523  1.00  0.00    -0.014 A 
BRANCH  45  46
ATOM     46  C   UNL A   1      42.757  28.462  28.054  1.00  0.00     0.031 A 
ATOM     47  C   UNL A   1      43.729  29.532  28.453  1.00  0.00     0.074 A 
ATOM     48  C   UNL A   1      43.181  27.434  27.294  1.00  0.00     0.049 A 
ATOM     49  N   UNL A   1      45.013  29.607  28.223  1.00  0.00    -0.248 NA
ATOM     50  C   UNL A   1      43.169  30.688  29.168  1.00  0.00     0.031 C 
ATOM     51  C   UNL A   1      42.323  26.368  26.798  1.00  0.00     0.029 A 
ATOM     52  N   UNL A   1      44.433  27.080  26.852  1.00  0.00    -0.354 N 
ATOM     53  C   UNL A   1      45.405  30.854  28.693  1.00  0.00     0.074 A 
ATOM     54  C   UNL A   1      44.229  31.477  29.266  1.00  0.00     0.031 C 
ATOM     55  C   UNL A   1      43.086  25.403  26.255  1.00  0.00     0.029 A 
ATOM     56  C   UNL A   1      44.480  25.823  26.285  1.00  0.00     0.049 A 
ATOM     57  H   UNL A   1      45.220  27.666  26.931  1.00  0.00     0.167 HD
ATOM     58  C   UNL A   1      46.618  31.449  28.598  1.00  0.00     0.031 A 
ATOM     59  C   UNL A   1      45.528  25.088  25.863  1.00  0.00     0.031 A 
ATOM     60  C   UNL A   1      47.770  30.840  27.987  1.00  0.00     0.049 A 
ATOM     61  C   UNL A   1      46.899  25.723  25.865  1.00  0.00     0.074 A 
ATOM     62  C   UNL A   1      49.033  31.378  27.807  1.00  0.00     0.029 A 
ATOM     63  N   UNL A   1      47.804  29.559  27.452  1.00  0.00    -0.354 N 
ATOM     64  N   UNL A   1      47.256  26.907  26.302  1.00  0.00    -0.248 NA
ATOM     65  C   UNL A   1      48.000  24.939  25.288  1.00  0.00     0.031 C 
ATOM     66  C   UNL A   1      49.805  30.454  27.096  1.00  0.00     0.029 A 
ATOM     67  C   UNL A   1      49.051  29.306  26.904  1.00  0.00     0.049 A 
ATOM     68  H   UNL A   1      47.052  28.924  27.460  1.00  0.00     0.167 HD
ATOM     69  C   UNL A   1      48.622  27.012  26.058  1.00  0.00     0.074 A 
ATOM     70  C   UNL A   1      49.033  25.757  25.459  1.00  0.00     0.031 C 
ATOM     71  C   UNL A   1      49.454  28.060  26.292  1.00  0.00     0.031 A 
BRANCH  58  72
ATOM     72  C   UNL A   1      46.713  32.882  29.056  1.00  0.00    -0.014 A 
ATOM     73  C   UNL A   1      46.649  33.960  28.157  1.00  0.00     0.010 A 
ATOM     74  C   UNL A   1      46.891  33.147  30.427  1.00  0.00     0.010 A 
ATOM     75  C   UNL A   1      46.816  35.272  28.613  1.00  0.00     0.020 A 
ATOM     76  C   UNL A   1      47.026  34.456  30.892  1.00  0.00     0.020 A 
ATOM     77  C   UNL A   1      47.013  35.510  29.978  1.00  0.00     0.054 A 
BRANCH  77  78
ATOM     78  S   UNL A   1      47.240  37.219  30.543  1.00  0.00     0.124 S 
ATOM     79  O   UNL A   1      48.690  37.377  30.444  1.00  0.00    -0.237 OA
ATOM     80  O   UNL A   1      46.458  37.984  29.577  1.00  0.00    -0.237 OA
ATOM     81  O   UNL A   1      46.708  37.209  31.903  1.00  0.00    -0.744 OA
ENDBRANCH  77  78
ENDBRANCH  58  72
BRANCH  59  82
ATOM     82  C   UNL A   1      45.353  23.652  25.484  1.00  0.00    -0.014 A 
ATOM     83  C   UNL A   1      45.176  23.329  24.127  1.00  0.00     0.010 A 
ATOM     84  C   UNL A   1      45.376  22.602  26.414  1.00  0.00     0.010 A 
ATOM     85  C   UNL A   1      44.957  22.018  23.704  1.00  0.00     0.020 A 
ATOM     86  C   UNL A   1      45.209  21.271  25.993  1.00  0.00     0.020 A 
ATOM     87  C   UNL A   1      44.973  20.992  24.644  1.00  0.00     0.054 A 
BRANCH  87  88
ATOM     88  S   UNL A   1      44.757  19.285  24.067  1.00  0.00     0.124 S 
ATOM     89  O   UNL A   1      46.095  18.734  24.251  1.00  0.00    -0.237 OA
ATOM     90  O   UNL A   1      43.732  18.770  24.974  1.00  0.00    -0.237 OA
ATOM     91  O   UNL A   1      44.326  19.451  22.682  1.00  0.00    -0.744 OA
ENDBRANCH  87  88
ENDBRANCH  59  82
BRANCH  71  92
ATOM     92  C   UNL A   1      50.903  27.923  25.890  1.00  0.00    -0.014 A 
ATOM     93  C   UNL A   1      51.333  28.231  24.586  1.00  0.00     0.010 A 
ATOM     94  C   UNL A   1      51.866  27.586  26.861  1.00  0.00     0.010 A 
ATOM     95  C   UNL A   1      52.691  28.174  24.254  1.00  0.00     0.020 A 
ATOM     96  C   UNL A   1      53.228  27.557  26.539  1.00  0.00     0.020 A 
ATOM     97  C   UNL A   1      53.630  27.840  25.234  1.00  0.00     0.054 A 
BRANCH  97  98
ATOM     98  S   UNL A   1      55.391  27.832  24.789  1.00  0.00     0.124 S 
ATOM     99  O   UNL A   1      55.586  29.193  24.298  1.00  0.00    -0.237 OA
ATOM    100  O   UNL A   1      56.042  27.524  26.060  1.00  0.00    -0.237 OA
ATOM    101  O   UNL A   1      55.488  26.785  23.775  1.00  0.00    -0.744 OA
ENDBRANCH  97  98
ENDBRANCH  71  92
ENDBRANCH  45  46
ENDBRANCH  38  40
ENDBRANCH  37  38
ENDBRANCH  36  37
ENDBRANCH  35  36
ENDBRANCH  34  35
ENDBRANCH   1  34
TORSDOF 23
ENDMDL
