MODEL 1
REMARK VINA RESULT:      -9.6      0.000      0.000
REMARK SMILES Cc1ncsc1Cn1c(SCC(=O)OCCOCCOCCOC(=O)c2ccc(-c3c4nc(c(-c5ccc(S(=O)(=O)[O-])cc5)c5ccc([nH]5)c(-c5ccc(S(=O)(=O)[O-])cc5)c5nc(c(-c6ccc(S(=O)(=O)[O-])cc6)c6ccc3[nH]6)C=C5)C=C4)cc2)nc2cnccc21
REMARK SMILES IDX 18 1 17 2 16 3 15 4 14 5 12 6 13 7 11 8 10 9 9 10 8 11 92 12
REMARK SMILES IDX 86 13 87 14 91 15 88 16 90 17 89 18 7 19 6 20 1 21 2 22 3 23
REMARK SMILES IDX 4 24 5 25 19 26 20 27 21 28 22 29 23 30 24 31 25 32 26 33
REMARK SMILES IDX 27 34 85 35 28 36 84 37 29 38 30 39 31 40 78 41 32 42 83 43
REMARK SMILES IDX 77 44 79 45 33 46 82 47 76 48 75 49 34 51 64 52 45 53 63 54
REMARK SMILES IDX 46 55 49 56 62 57 80 58 47 59 48 60 61 62 81 63 50 64 35 65
REMARK SMILES IDX 36 66 44 67 37 68 43 69 38 70 39 71 40 72 41 73 42 74 65 75
REMARK SMILES IDX 66 76 74 77 67 78 73 79 68 80 69 81 70 82 71 83 72 84 51 85
REMARK SMILES IDX 52 86 60 87 53 88 59 89 54 90 55 91 56 92 57 93 58 94
REMARK H PARENT 79 50 49 61
REMARK Flexibility Score: inf
ROOT
ATOM      1  C   UNL A   1      47.770  19.951  39.378  1.00  0.00     0.188 C 
ENDROOT
BRANCH   1   2
ATOM      2  O   UNL A   1      48.036  18.588  39.689  1.00  0.00    -0.376 OA
BRANCH   2   3
ATOM      3  C   UNL A   1      47.055  17.933  40.491  1.00  0.00     0.202 C 
BRANCH   3   4
ATOM      4  C   UNL A   1      46.108  17.017  39.705  1.00  0.00     0.261 C 
BRANCH   4   5
ATOM      5  O   UNL A   1      44.841  17.663  39.421  1.00  0.00    -0.463 OA
BRANCH   5   6
ATOM      6  C   UNL A   1      43.738  16.907  39.694  1.00  0.00     0.316 C 
ATOM      7  O   UNL A   1      42.675  17.036  39.096  1.00  0.00    -0.251 OA
BRANCH   6   8
ATOM      8  C   UNL A   1      43.937  15.811  40.733  1.00  0.00     0.200 C 
BRANCH   8   9
ATOM      9  S   UNL A   1      42.663  15.711  41.990  1.00  0.00    -0.076 SA
BRANCH   9  10
ATOM     10  C   UNL A   1      43.518  15.851  43.508  1.00  0.00     0.170 A 
ATOM     11  N   UNL A   1      44.038  14.785  44.232  1.00  0.00    -0.313 N 
ATOM     12  C   UNL A   1      45.315  15.224  44.602  1.00  0.00     0.072 A 
ATOM     13  N   UNL A   1      44.134  16.977  43.802  1.00  0.00    -0.221 NA
ATOM     14  C   UNL A   1      45.307  16.603  44.397  1.00  0.00     0.108 A 
ATOM     15  C   UNL A   1      46.504  14.610  44.987  1.00  0.00     0.049 A 
ATOM     16  C   UNL A   1      46.457  17.358  44.679  1.00  0.00     0.141 A 
ATOM     17  C   UNL A   1      47.603  15.421  45.243  1.00  0.00     0.113 A 
ATOM     18  N   UNL A   1      47.598  16.759  45.115  1.00  0.00    -0.262 NA
BRANCH  11  19
ATOM     19  C   UNL A   1      43.566  13.387  44.189  1.00  0.00     0.173 C 
BRANCH  19  20
ATOM     20  C   UNL A   1      43.590  12.537  45.465  1.00  0.00     0.047 A 
ATOM     21  C   UNL A   1      42.824  13.960  47.766  1.00  0.00     0.068 C 
ATOM     22  C   UNL A   1      43.884  13.140  47.077  1.00  0.00     0.053 A 
ATOM     23  N   UNL A   1      45.208  12.064  47.988  1.00  0.00    -0.250 NA
ATOM     24  C   UNL A   1      45.611  10.566  47.216  1.00  0.00     0.176 A 
ATOM     25  S   UNL A   1      44.458  10.397  45.178  1.00  0.00    -0.125 S 
ENDBRANCH  19  20
ENDBRANCH  11  19
ENDBRANCH   9  10
ENDBRANCH   8   9
ENDBRANCH   6   8
ENDBRANCH   5   6
ENDBRANCH   4   5
ENDBRANCH   3   4
ENDBRANCH   2   3
ENDBRANCH   1   2
BRANCH   1  26
ATOM     26  C   UNL A   1      46.939  20.170  38.107  1.00  0.00     0.188 C 
BRANCH  26  27
ATOM     27  O   UNL A   1      47.846  20.203  37.016  1.00  0.00    -0.376 OA
BRANCH  27  28
ATOM     28  C   UNL A   1      47.267  20.429  35.749  1.00  0.00     0.202 C 
BRANCH  28  29
ATOM     29  C   UNL A   1      48.153  21.056  34.645  1.00  0.00     0.261 C 
BRANCH  29  30
ATOM     30  O   UNL A   1      48.899  22.233  35.009  1.00  0.00    -0.460 OA
BRANCH  30  31
ATOM     31  C   UNL A   1      50.177  22.326  34.528  1.00  0.00     0.338 C 
ATOM     32  O   UNL A   1      51.033  21.463  34.576  1.00  0.00    -0.246 OA
BRANCH  31  33
ATOM     33  C   UNL A   1      50.262  23.553  33.696  1.00  0.00     0.060 A 
ATOM     34  C   UNL A   1      49.270  24.490  33.715  1.00  0.00     0.016 A 
ATOM     35  C   UNL A   1      51.268  23.722  32.762  1.00  0.00     0.016 A 
ATOM     36  C   UNL A   1      49.097  25.303  32.580  1.00  0.00     0.010 A 
ATOM     37  C   UNL A   1      51.012  24.451  31.567  1.00  0.00     0.010 A 
ATOM     38  C   UNL A   1      49.704  25.140  31.144  1.00  0.00    -0.014 A 
BRANCH  38  39
ATOM     39  C   UNL A   1      49.133  26.011  29.238  1.00  0.00     0.031 A 
ATOM     40  C   UNL A   1      47.939  27.346  29.129  1.00  0.00     0.074 A 
ATOM     41  C   UNL A   1      49.362  25.979  27.790  1.00  0.00     0.049 A 
ATOM     42  N   UNL A   1      46.671  27.177  28.832  1.00  0.00    -0.248 NA
ATOM     43  C   UNL A   1      48.246  28.717  29.620  1.00  0.00     0.031 C 
ATOM     44  C   UNL A   1      50.313  25.187  26.965  1.00  0.00     0.029 A 
ATOM     45  N   UNL A   1      48.703  26.646  26.757  1.00  0.00    -0.354 N 
ATOM     46  C   UNL A   1      46.034  28.370  29.169  1.00  0.00     0.074 A 
ATOM     47  C   UNL A   1      47.026  29.210  29.778  1.00  0.00     0.031 C 
ATOM     48  C   UNL A   1      50.346  25.587  25.677  1.00  0.00     0.029 A 
ATOM     49  C   UNL A   1      49.274  26.529  25.488  1.00  0.00     0.049 A 
ATOM     50  H   UNL A   1      47.884  27.169  26.912  1.00  0.00     0.167 HD
ATOM     51  C   UNL A   1      44.723  28.674  28.959  1.00  0.00     0.031 A 
ATOM     52  C   UNL A   1      48.839  26.994  24.291  1.00  0.00     0.031 A 
ATOM     53  C   UNL A   1      43.926  27.539  28.602  1.00  0.00     0.049 A 
ATOM     54  C   UNL A   1      47.380  27.148  24.366  1.00  0.00     0.074 A 
ATOM     55  C   UNL A   1      43.656  26.327  29.216  1.00  0.00     0.029 A 
ATOM     56  N   UNL A   1      43.603  27.348  27.281  1.00  0.00    -0.354 N 
ATOM     57  N   UNL A   1      46.544  26.152  24.334  1.00  0.00    -0.248 NA
ATOM     58  C   UNL A   1      46.842  28.424  24.786  1.00  0.00     0.031 C 
ATOM     59  C   UNL A   1      43.741  25.362  28.170  1.00  0.00     0.029 A 
ATOM     60  C   UNL A   1      43.998  26.063  26.992  1.00  0.00     0.049 A 
ATOM     61  H   UNL A   1      43.179  27.995  26.670  1.00  0.00     0.167 HD
ATOM     62  C   UNL A   1      45.483  26.566  25.116  1.00  0.00     0.074 A 
ATOM     63  C   UNL A   1      45.681  28.006  25.284  1.00  0.00     0.031 C 
ATOM     64  C   UNL A   1      44.676  25.681  25.771  1.00  0.00     0.031 A 
BRANCH  51  65
ATOM     65  C   UNL A   1      44.241  30.100  28.972  1.00  0.00    -0.014 A 
ATOM     66  C   UNL A   1      43.500  30.612  30.062  1.00  0.00     0.010 A 
ATOM     67  C   UNL A   1      44.597  31.011  27.965  1.00  0.00     0.010 A 
ATOM     68  C   UNL A   1      42.997  31.906  30.085  1.00  0.00     0.020 A 
ATOM     69  C   UNL A   1      44.162  32.349  28.017  1.00  0.00     0.020 A 
ATOM     70  C   UNL A   1      43.333  32.774  29.059  1.00  0.00     0.054 A 
BRANCH  70  71
ATOM     71  S   UNL A   1      42.729  34.474  29.175  1.00  0.00     0.124 S 
ATOM     72  O   UNL A   1      42.959  34.968  27.820  1.00  0.00    -0.237 OA
ATOM     73  O   UNL A   1      41.330  34.289  29.546  1.00  0.00    -0.237 OA
ATOM     74  O   UNL A   1      43.573  35.064  30.210  1.00  0.00    -0.744 OA
ENDBRANCH  70  71
ENDBRANCH  51  65
BRANCH  52  75
ATOM     75  C   UNL A   1      49.606  27.524  23.135  1.00  0.00    -0.014 A 
ATOM     76  C   UNL A   1      48.956  27.747  21.907  1.00  0.00     0.010 A 
ATOM     77  C   UNL A   1      51.015  27.453  23.134  1.00  0.00     0.010 A 
ATOM     78  C   UNL A   1      49.675  27.762  20.706  1.00  0.00     0.020 A 
ATOM     79  C   UNL A   1      51.741  27.460  21.933  1.00  0.00     0.020 A 
ATOM     80  C   UNL A   1      51.057  27.563  20.722  1.00  0.00     0.054 A 
BRANCH  80  81
ATOM     81  S   UNL A   1      51.915  27.311  19.141  1.00  0.00     0.124 S 
ATOM     82  O   UNL A   1      52.648  26.071  19.390  1.00  0.00    -0.237 OA
ATOM     83  O   UNL A   1      50.809  27.204  18.195  1.00  0.00    -0.237 OA
ATOM     84  O   UNL A   1      52.743  28.506  18.998  1.00  0.00    -0.744 OA
ENDBRANCH  80  81
ENDBRANCH  52  75
BRANCH  64  85
ATOM     85  C   UNL A   1      44.710  24.199  25.441  1.00  0.00    -0.014 A 
ATOM     86  C   UNL A   1      43.478  23.571  25.169  1.00  0.00     0.010 A 
ATOM     87  C   UNL A   1      45.855  23.381  25.536  1.00  0.00     0.010 A 
ATOM     88  C   UNL A   1      43.380  22.184  25.029  1.00  0.00     0.020 A 
ATOM     89  C   UNL A   1      45.770  21.989  25.362  1.00  0.00     0.020 A 
ATOM     90  C   UNL A   1      44.526  21.399  25.136  1.00  0.00     0.054 A 
BRANCH  90  91
ATOM     91  S   UNL A   1      44.350  19.600  24.992  1.00  0.00     0.124 S 
ATOM     92  O   UNL A   1      43.033  19.372  25.584  1.00  0.00    -0.237 OA
ATOM     93  O   UNL A   1      44.430  19.380  23.549  1.00  0.00    -0.237 OA
ATOM     94  O   UNL A   1      45.475  19.070  25.759  1.00  0.00    -0.744 OA
ENDBRANCH  90  91
ENDBRANCH  64  85
ENDBRANCH  38  39
ENDBRANCH  31  33
ENDBRANCH  30  31
ENDBRANCH  29  30
ENDBRANCH  28  29
ENDBRANCH  27  28
ENDBRANCH  26  27
ENDBRANCH   1  26
TORSDOF 24
ENDMDL
MODEL 2
REMARK VINA RESULT:      -9.1      7.898     11.626
REMARK SMILES Cc1ncsc1Cn1c(SCC(=O)OCCOCCOCCOC(=O)c2ccc(-c3c4nc(c(-c5ccc(S(=O)(=O)[O-])cc5)c5ccc([nH]5)c(-c5ccc(S(=O)(=O)[O-])cc5)c5nc(c(-c6ccc(S(=O)(=O)[O-])cc6)c6ccc3[nH]6)C=C5)C=C4)cc2)nc2cnccc21
REMARK SMILES IDX 18 1 17 2 16 3 15 4 14 5 12 6 13 7 11 8 10 9 9 10 8 11 92 12
REMARK SMILES IDX 86 13 87 14 91 15 88 16 90 17 89 18 7 19 6 20 1 21 2 22 3 23
REMARK SMILES IDX 4 24 5 25 19 26 20 27 21 28 22 29 23 30 24 31 25 32 26 33
REMARK SMILES IDX 27 34 85 35 28 36 84 37 29 38 30 39 31 40 78 41 32 42 83 43
REMARK SMILES IDX 77 44 79 45 33 46 82 47 76 48 75 49 34 51 64 52 45 53 63 54
REMARK SMILES IDX 46 55 49 56 62 57 80 58 47 59 48 60 61 62 81 63 50 64 35 65
REMARK SMILES IDX 36 66 44 67 37 68 43 69 38 70 39 71 40 72 41 73 42 74 65 75
REMARK SMILES IDX 66 76 74 77 67 78 73 79 68 80 69 81 70 82 71 83 72 84 51 85
REMARK SMILES IDX 52 86 60 87 53 88 59 89 54 90 55 91 56 92 57 93 58 94
REMARK H PARENT 79 50 49 61
REMARK Flexibility Score: inf
ROOT
ATOM      1  C   UNL A   1      46.313  18.470  38.877  1.00  0.00     0.188 C 
ENDROOT
BRANCH   1   2
ATOM      2  O   UNL A   1      45.171  17.915  39.519  1.00  0.00    -0.376 OA
BRANCH   2   3
ATOM      3  C   UNL A   1      45.424  17.208  40.732  1.00  0.00     0.202 C 
BRANCH   3   4
ATOM      4  C   UNL A   1      44.266  16.316  41.196  1.00  0.00     0.261 C 
BRANCH   4   5
ATOM      5  O   UNL A   1      43.596  15.674  40.083  1.00  0.00    -0.463 OA
BRANCH   5   6
ATOM      6  C   UNL A   1      42.501  14.934  40.422  1.00  0.00     0.316 C 
ATOM      7  O   UNL A   1      42.175  13.910  39.830  1.00  0.00    -0.251 OA
BRANCH   6   8
ATOM      8  C   UNL A   1      41.749  15.407  41.661  1.00  0.00     0.200 C 
BRANCH   8   9
ATOM      9  S   UNL A   1      41.351  14.124  42.847  1.00  0.00    -0.076 SA
BRANCH   9  10
ATOM     10  C   UNL A   1      42.899  13.508  43.378  1.00  0.00     0.170 A 
ATOM     11  N   UNL A   1      43.679  14.068  44.382  1.00  0.00    -0.313 N 
ATOM     12  C   UNL A   1      44.088  12.966  45.142  1.00  0.00     0.072 A 
ATOM     13  N   UNL A   1      43.181  12.233  43.206  1.00  0.00    -0.221 NA
ATOM     14  C   UNL A   1      43.837  11.851  44.343  1.00  0.00     0.108 A 
ATOM     15  C   UNL A   1      44.543  12.769  46.444  1.00  0.00     0.049 A 
ATOM     16  C   UNL A   1      44.142  10.565  44.821  1.00  0.00     0.141 A 
ATOM     17  C   UNL A   1      44.818  11.469  46.849  1.00  0.00     0.113 A 
ATOM     18  N   UNL A   1      44.645  10.385  46.072  1.00  0.00    -0.262 NA
BRANCH  11  19
ATOM     19  C   UNL A   1      43.663  15.479  44.816  1.00  0.00     0.173 C 
BRANCH  19  20
ATOM     20  C   UNL A   1      44.911  16.349  44.621  1.00  0.00     0.047 A 
ATOM     21  C   UNL A   1      47.313  14.982  45.138  1.00  0.00     0.068 C 
ATOM     22  C   UNL A   1      46.424  16.152  45.470  1.00  0.00     0.053 A 
ATOM     23  N   UNL A   1      47.046  17.842  46.175  1.00  0.00    -0.250 NA
ATOM     24  C   UNL A   1      46.215  19.245  45.591  1.00  0.00     0.176 A 
ATOM     25  S   UNL A   1      44.461  18.588  44.176  1.00  0.00    -0.125 S 
ENDBRANCH  19  20
ENDBRANCH  11  19
ENDBRANCH   9  10
ENDBRANCH   8   9
ENDBRANCH   6   8
ENDBRANCH   5   6
ENDBRANCH   4   5
ENDBRANCH   3   4
ENDBRANCH   2   3
ENDBRANCH   1   2
BRANCH   1  26
ATOM     26  C   UNL A   1      46.048  19.052  37.483  1.00  0.00     0.188 C 
BRANCH  26  27
ATOM     27  O   UNL A   1      46.583  20.366  37.471  1.00  0.00    -0.376 OA
BRANCH  27  28
ATOM     28  C   UNL A   1      45.850  21.315  36.728  1.00  0.00     0.202 C 
BRANCH  28  29
ATOM     29  C   UNL A   1      46.295  22.797  36.799  1.00  0.00     0.261 C 
BRANCH  29  30
ATOM     30  O   UNL A   1      45.641  23.709  35.897  1.00  0.00    -0.460 OA
BRANCH  30  31
ATOM     31  C   UNL A   1      44.829  24.656  36.460  1.00  0.00     0.338 C 
ATOM     32  O   UNL A   1      44.478  24.709  37.624  1.00  0.00    -0.246 OA
BRANCH  31  33
ATOM     33  C   UNL A   1      44.669  25.761  35.480  1.00  0.00     0.060 A 
ATOM     34  C   UNL A   1      45.093  27.026  35.766  1.00  0.00     0.016 A 
ATOM     35  C   UNL A   1      43.955  25.587  34.308  1.00  0.00     0.016 A 
ATOM     36  C   UNL A   1      44.465  28.104  35.116  1.00  0.00     0.010 A 
ATOM     37  C   UNL A   1      43.231  26.677  33.750  1.00  0.00     0.010 A 
ATOM     38  C   UNL A   1      43.138  28.118  34.280  1.00  0.00    -0.014 A 
BRANCH  38  39
ATOM     39  C   UNL A   1      41.842  29.752  33.673  1.00  0.00     0.031 A 
ATOM     40  C   UNL A   1      42.480  31.402  33.371  1.00  0.00     0.074 A 
ATOM     41  C   UNL A   1      40.466  30.126  33.334  1.00  0.00     0.049 A 
ATOM     42  N   UNL A   1      42.428  32.383  34.242  1.00  0.00    -0.248 NA
ATOM     43  C   UNL A   1      43.349  31.706  32.201  1.00  0.00     0.031 C 
ATOM     44  C   UNL A   1      39.227  29.312  33.226  1.00  0.00     0.029 A 
ATOM     45  N   UNL A   1      39.909  31.379  33.071  1.00  0.00    -0.354 N 
ATOM     46  C   UNL A   1      43.298  33.363  33.773  1.00  0.00     0.074 A 
ATOM     47  C   UNL A   1      43.935  32.825  32.604  1.00  0.00     0.031 C 
ATOM     48  C   UNL A   1      38.193  30.001  32.701  1.00  0.00     0.029 A 
ATOM     49  C   UNL A   1      38.592  31.381  32.613  1.00  0.00     0.049 A 
ATOM     50  H   UNL A   1      40.416  32.212  33.202  1.00  0.00     0.167 HD
ATOM     51  C   UNL A   1      43.503  34.594  34.320  1.00  0.00     0.031 A 
ATOM     52  C   UNL A   1      37.765  32.421  32.342  1.00  0.00     0.031 A 
ATOM     53  C   UNL A   1      42.947  34.731  35.633  1.00  0.00     0.049 A 
ATOM     54  C   UNL A   1      38.206  33.572  33.141  1.00  0.00     0.074 A 
ATOM     55  C   UNL A   1      43.131  34.052  36.827  1.00  0.00     0.029 A 
ATOM     56  N   UNL A   1      41.749  35.387  35.778  1.00  0.00    -0.354 N 
ATOM     57  N   UNL A   1      38.004  33.686  34.421  1.00  0.00    -0.248 NA
ATOM     58  C   UNL A   1      39.161  34.491  32.558  1.00  0.00     0.031 C 
ATOM     59  C   UNL A   1      41.817  33.884  37.356  1.00  0.00     0.029 A 
ATOM     60  C   UNL A   1      40.942  34.521  36.477  1.00  0.00     0.049 A 
ATOM     61  H   UNL A   1      41.518  36.287  35.451  1.00  0.00     0.167 HD
ATOM     62  C   UNL A   1      39.093  34.400  34.880  1.00  0.00     0.074 A 
ATOM     63  C   UNL A   1      39.717  34.949  33.677  1.00  0.00     0.031 C 
ATOM     64  C   UNL A   1      39.549  34.283  36.163  1.00  0.00     0.031 A 
BRANCH  51  65
ATOM     65  C   UNL A   1      44.129  35.708  33.525  1.00  0.00    -0.014 A 
ATOM     66  C   UNL A   1      45.466  35.623  33.074  1.00  0.00     0.010 A 
ATOM     67  C   UNL A   1      43.388  36.823  33.104  1.00  0.00     0.010 A 
ATOM     68  C   UNL A   1      46.091  36.652  32.382  1.00  0.00     0.020 A 
ATOM     69  C   UNL A   1      43.987  37.836  32.331  1.00  0.00     0.020 A 
ATOM     70  C   UNL A   1      45.345  37.759  32.010  1.00  0.00     0.054 A 
BRANCH  70  71
ATOM     71  S   UNL A   1      46.176  39.033  31.033  1.00  0.00     0.124 S 
ATOM     72  O   UNL A   1      46.643  38.271  29.879  1.00  0.00    -0.237 OA
ATOM     73  O   UNL A   1      45.098  39.980  30.765  1.00  0.00    -0.237 OA
ATOM     74  O   UNL A   1      47.221  39.520  31.929  1.00  0.00    -0.744 OA
ENDBRANCH  70  71
ENDBRANCH  51  65
BRANCH  52  75
ATOM     75  C   UNL A   1      36.737  32.575  31.281  1.00  0.00    -0.014 A 
ATOM     76  C   UNL A   1      37.065  33.223  30.076  1.00  0.00     0.010 A 
ATOM     77  C   UNL A   1      35.370  32.424  31.600  1.00  0.00     0.010 A 
ATOM     78  C   UNL A   1      36.073  33.819  29.288  1.00  0.00     0.020 A 
ATOM     79  C   UNL A   1      34.372  33.024  30.817  1.00  0.00     0.020 A 
ATOM     80  C   UNL A   1      34.738  33.762  29.692  1.00  0.00     0.054 A 
BRANCH  80  81
ATOM     81  S   UNL A   1      33.519  34.774  28.803  1.00  0.00     0.124 S 
ATOM     82  O   UNL A   1      32.985  33.819  27.833  1.00  0.00    -0.237 OA
ATOM     83  O   UNL A   1      32.598  35.166  29.866  1.00  0.00    -0.237 OA
ATOM     84  O   UNL A   1      34.314  35.860  28.236  1.00  0.00    -0.744 OA
ENDBRANCH  80  81
ENDBRANCH  52  75
BRANCH  64  85
ATOM     85  C   UNL A   1      38.712  33.600  37.230  1.00  0.00    -0.014 A 
ATOM     86  C   UNL A   1      38.595  34.254  38.474  1.00  0.00     0.010 A 
ATOM     87  C   UNL A   1      38.176  32.300  37.121  1.00  0.00     0.010 A 
ATOM     88  C   UNL A   1      37.999  33.631  39.573  1.00  0.00     0.020 A 
ATOM     89  C   UNL A   1      37.545  31.680  38.213  1.00  0.00     0.020 A 
ATOM     90  C   UNL A   1      37.485  32.342  39.440  1.00  0.00     0.054 A 
BRANCH  90  91
ATOM     91  S   UNL A   1      36.760  31.552  40.902  1.00  0.00     0.124 S 
ATOM     92  O   UNL A   1      37.635  30.396  41.092  1.00  0.00    -0.237 OA
ATOM     93  O   UNL A   1      36.874  32.592  41.922  1.00  0.00    -0.237 OA
ATOM     94  O   UNL A   1      35.394  31.235  40.494  1.00  0.00    -0.744 OA
ENDBRANCH  90  91
ENDBRANCH  64  85
ENDBRANCH  38  39
ENDBRANCH  31  33
ENDBRANCH  30  31
ENDBRANCH  29  30
ENDBRANCH  28  29
ENDBRANCH  27  28
ENDBRANCH  26  27
ENDBRANCH   1  26
TORSDOF 24
ENDMDL
MODEL 3
REMARK VINA RESULT:      -8.6      9.560     17.507
REMARK SMILES Cc1ncsc1Cn1c(SCC(=O)OCCOCCOCCOC(=O)c2ccc(-c3c4nc(c(-c5ccc(S(=O)(=O)[O-])cc5)c5ccc([nH]5)c(-c5ccc(S(=O)(=O)[O-])cc5)c5nc(c(-c6ccc(S(=O)(=O)[O-])cc6)c6ccc3[nH]6)C=C5)C=C4)cc2)nc2cnccc21
REMARK SMILES IDX 18 1 17 2 16 3 15 4 14 5 12 6 13 7 11 8 10 9 9 10 8 11 92 12
REMARK SMILES IDX 86 13 87 14 91 15 88 16 90 17 89 18 7 19 6 20 1 21 2 22 3 23
REMARK SMILES IDX 4 24 5 25 19 26 20 27 21 28 22 29 23 30 24 31 25 32 26 33
REMARK SMILES IDX 27 34 85 35 28 36 84 37 29 38 30 39 31 40 78 41 32 42 83 43
REMARK SMILES IDX 77 44 79 45 33 46 82 47 76 48 75 49 34 51 64 52 45 53 63 54
REMARK SMILES IDX 46 55 49 56 62 57 80 58 47 59 48 60 61 62 81 63 50 64 35 65
REMARK SMILES IDX 36 66 44 67 37 68 43 69 38 70 39 71 40 72 41 73 42 74 65 75
REMARK SMILES IDX 66 76 74 77 67 78 73 79 68 80 69 81 70 82 71 83 72 84 51 85
REMARK SMILES IDX 52 86 60 87 53 88 59 89 54 90 55 91 56 92 57 93 58 94
REMARK H PARENT 79 50 49 61
REMARK Flexibility Score: inf
ROOT
ATOM      1  C   UNL A   1      50.487  33.204  31.483  1.00  0.00     0.188 C 
ENDROOT
BRANCH   1   2
ATOM      2  O   UNL A   1      51.263  32.017  31.606  1.00  0.00    -0.376 OA
BRANCH   2   3
ATOM      3  C   UNL A   1      50.524  30.807  31.764  1.00  0.00     0.202 C 
BRANCH   3   4
ATOM      4  C   UNL A   1      49.490  30.550  30.660  1.00  0.00     0.261 C 
BRANCH   4   5
ATOM      5  O   UNL A   1      49.100  29.156  30.597  1.00  0.00    -0.463 OA
BRANCH   5   6
ATOM      6  C   UNL A   1      48.729  28.719  29.358  1.00  0.00     0.316 C 
ATOM      7  O   UNL A   1      48.502  27.541  29.103  1.00  0.00    -0.251 OA
BRANCH   6   8
ATOM      8  C   UNL A   1      48.512  29.811  28.317  1.00  0.00     0.200 C 
BRANCH   8   9
ATOM      9  S   UNL A   1      47.923  29.239  26.724  1.00  0.00    -0.076 SA
BRANCH   9  10
ATOM     10  C   UNL A   1      46.360  29.996  26.524  1.00  0.00     0.170 A 
ATOM     11  N   UNL A   1      45.252  29.761  27.327  1.00  0.00    -0.313 N 
ATOM     12  C   UNL A   1      44.742  31.042  27.577  1.00  0.00     0.072 A 
ATOM     13  N   UNL A   1      46.281  31.167  25.925  1.00  0.00    -0.221 NA
ATOM     14  C   UNL A   1      45.346  31.871  26.631  1.00  0.00     0.108 A 
ATOM     15  C   UNL A   1      43.926  31.615  28.548  1.00  0.00     0.049 A 
ATOM     16  C   UNL A   1      45.042  33.243  26.610  1.00  0.00     0.141 A 
ATOM     17  C   UNL A   1      43.675  32.979  28.466  1.00  0.00     0.113 A 
ATOM     18  N   UNL A   1      44.194  33.786  27.524  1.00  0.00    -0.262 NA
BRANCH  11  19
ATOM     19  C   UNL A   1      44.984  28.540  28.112  1.00  0.00     0.173 C 
BRANCH  19  20
ATOM     20  C   UNL A   1      43.845  27.602  27.694  1.00  0.00     0.047 A 
ATOM     21  C   UNL A   1      41.411  28.936  27.246  1.00  0.00     0.068 C 
ATOM     22  C   UNL A   1      42.148  27.867  28.010  1.00  0.00     0.053 A 
ATOM     23  N   UNL A   1      41.328  26.283  28.756  1.00  0.00    -0.250 NA
ATOM     24  C   UNL A   1      42.283  24.841  28.677  1.00  0.00     0.176 A 
ATOM     25  S   UNL A   1      44.388  25.341  27.766  1.00  0.00    -0.125 S 
ENDBRANCH  19  20
ENDBRANCH  11  19
ENDBRANCH   9  10
ENDBRANCH   8   9
ENDBRANCH   6   8
ENDBRANCH   5   6
ENDBRANCH   4   5
ENDBRANCH   3   4
ENDBRANCH   2   3
ENDBRANCH   1   2
BRANCH   1  26
ATOM     26  C   UNL A   1      51.079  34.434  32.183  1.00  0.00     0.188 C 
BRANCH  26  27
ATOM     27  O   UNL A   1      50.593  35.577  31.497  1.00  0.00    -0.376 OA
BRANCH  27  28
ATOM     28  C   UNL A   1      49.341  36.061  31.932  1.00  0.00     0.202 C 
BRANCH  28  29
ATOM     29  C   UNL A   1      48.720  37.260  31.174  1.00  0.00     0.261 C 
BRANCH  29  30
ATOM     30  O   UNL A   1      47.561  37.871  31.773  1.00  0.00    -0.460 OA
BRANCH  30  31
ATOM     31  C   UNL A   1      46.720  38.550  30.934  1.00  0.00     0.338 C 
ATOM     32  O   UNL A   1      47.036  39.166  29.933  1.00  0.00    -0.246 OA
BRANCH  31  33
ATOM     33  C   UNL A   1      45.326  38.185  31.295  1.00  0.00     0.060 A 
ATOM     34  C   UNL A   1      44.753  38.637  32.448  1.00  0.00     0.016 A 
ATOM     35  C   UNL A   1      44.610  37.259  30.558  1.00  0.00     0.016 A 
ATOM     36  C   UNL A   1      43.716  37.878  33.021  1.00  0.00     0.010 A 
ATOM     37  C   UNL A   1      43.656  36.424  31.204  1.00  0.00     0.010 A 
ATOM     38  C   UNL A   1      43.263  36.414  32.690  1.00  0.00    -0.014 A 
BRANCH  38  39
ATOM     39  C   UNL A   1      42.052  35.000  33.809  1.00  0.00     0.031 A 
ATOM     40  C   UNL A   1      42.293  33.228  33.666  1.00  0.00     0.074 A 
ATOM     41  C   UNL A   1      40.977  34.863  34.796  1.00  0.00     0.049 A 
ATOM     42  N   UNL A   1      41.562  32.445  32.906  1.00  0.00    -0.248 NA
ATOM     43  C   UNL A   1      43.508  32.554  34.202  1.00  0.00     0.031 C 
ATOM     44  C   UNL A   1      40.216  35.883  35.566  1.00  0.00     0.029 A 
ATOM     45  N   UNL A   1      40.311  33.725  35.255  1.00  0.00    -0.354 N 
ATOM     46  C   UNL A   1      42.256  31.240  32.814  1.00  0.00     0.074 A 
ATOM     47  C   UNL A   1      43.500  31.426  33.505  1.00  0.00     0.031 C 
ATOM     48  C   UNL A   1      39.432  35.341  36.520  1.00  0.00     0.029 A 
ATOM     49  C   UNL A   1      39.441  33.914  36.329  1.00  0.00     0.049 A 
ATOM     50  H   UNL A   1      40.448  32.841  34.845  1.00  0.00     0.167 HD
ATOM     51  C   UNL A   1      41.831  30.108  32.187  1.00  0.00     0.031 A 
ATOM     52  C   UNL A   1      38.613  33.034  36.944  1.00  0.00     0.031 A 
ATOM     53  C   UNL A   1      40.690  30.317  31.348  1.00  0.00     0.049 A 
ATOM     54  C   UNL A   1      38.282  31.974  35.983  1.00  0.00     0.074 A 
ATOM     55  C   UNL A   1      40.437  31.140  30.262  1.00  0.00     0.029 A 
ATOM     56  N   UNL A   1      39.450  29.955  31.817  1.00  0.00    -0.354 N 
ATOM     57  N   UNL A   1      37.457  32.127  34.990  1.00  0.00    -0.248 NA
ATOM     58  C   UNL A   1      39.118  30.792  35.947  1.00  0.00     0.031 C 
ATOM     59  C   UNL A   1      39.131  31.663  30.498  1.00  0.00     0.029 A 
ATOM     60  C   UNL A   1      38.667  31.076  31.675  1.00  0.00     0.049 A 
ATOM     61  H   UNL A   1      39.181  29.079  32.177  1.00  0.00     0.167 HD
ATOM     62  C   UNL A   1      37.947  31.295  34.002  1.00  0.00     0.074 A 
ATOM     63  C   UNL A   1      38.909  30.430  34.683  1.00  0.00     0.031 C 
ATOM     64  C   UNL A   1      37.727  31.536  32.676  1.00  0.00     0.031 A 
BRANCH  51  65
ATOM     65  C   UNL A   1      42.446  28.769  32.494  1.00  0.00    -0.014 A 
ATOM     66  C   UNL A   1      43.256  28.102  31.547  1.00  0.00     0.010 A 
ATOM     67  C   UNL A   1      42.336  28.176  33.762  1.00  0.00     0.010 A 
ATOM     68  C   UNL A   1      43.798  26.844  31.777  1.00  0.00     0.020 A 
ATOM     69  C   UNL A   1      42.949  26.939  34.036  1.00  0.00     0.020 A 
ATOM     70  C   UNL A   1      43.643  26.266  33.026  1.00  0.00     0.054 A 
BRANCH  70  71
ATOM     71  S   UNL A   1      44.440  24.667  33.309  1.00  0.00     0.124 S 
ATOM     72  O   UNL A   1      43.428  23.960  34.089  1.00  0.00    -0.237 OA
ATOM     73  O   UNL A   1      44.645  24.171  31.951  1.00  0.00    -0.237 OA
ATOM     74  O   UNL A   1      45.659  25.018  34.032  1.00  0.00    -0.744 OA
ENDBRANCH  70  71
ENDBRANCH  51  65
BRANCH  52  75
ATOM     75  C   UNL A   1      38.238  32.913  38.376  1.00  0.00    -0.014 A 
ATOM     76  C   UNL A   1      39.191  33.183  39.375  1.00  0.00     0.010 A 
ATOM     77  C   UNL A   1      37.085  32.187  38.742  1.00  0.00     0.010 A 
ATOM     78  C   UNL A   1      39.066  32.632  40.656  1.00  0.00     0.020 A 
ATOM     79  C   UNL A   1      36.956  31.627  40.022  1.00  0.00     0.020 A 
ATOM     80  C   UNL A   1      37.976  31.812  40.955  1.00  0.00     0.054 A 
BRANCH  80  81
ATOM     81  S   UNL A   1      37.985  30.894  42.522  1.00  0.00     0.124 S 
ATOM     82  O   UNL A   1      36.601  31.046  42.969  1.00  0.00    -0.237 OA
ATOM     83  O   UNL A   1      38.362  29.549  42.098  1.00  0.00    -0.237 OA
ATOM     84  O   UNL A   1      38.981  31.593  43.330  1.00  0.00    -0.744 OA
ENDBRANCH  80  81
ENDBRANCH  52  75
BRANCH  64  85
ATOM     85  C   UNL A   1      36.690  32.551  32.227  1.00  0.00    -0.014 A 
ATOM     86  C   UNL A   1      36.876  33.887  32.639  1.00  0.00     0.010 A 
ATOM     87  C   UNL A   1      35.488  32.231  31.564  1.00  0.00     0.010 A 
ATOM     88  C   UNL A   1      35.893  34.858  32.431  1.00  0.00     0.020 A 
ATOM     89  C   UNL A   1      34.509  33.211  31.321  1.00  0.00     0.020 A 
ATOM     90  C   UNL A   1      34.710  34.513  31.780  1.00  0.00     0.054 A 
BRANCH  90  91
ATOM     91  S   UNL A   1      33.442  35.792  31.570  1.00  0.00     0.124 S 
ATOM     92  O   UNL A   1      33.989  36.899  32.352  1.00  0.00    -0.237 OA
ATOM     93  O   UNL A   1      33.428  35.999  30.123  1.00  0.00    -0.237 OA
ATOM     94  O   UNL A   1      32.231  35.185  32.117  1.00  0.00    -0.744 OA
ENDBRANCH  90  91
ENDBRANCH  64  85
ENDBRANCH  38  39
ENDBRANCH  31  33
ENDBRANCH  30  31
ENDBRANCH  29  30
ENDBRANCH  28  29
ENDBRANCH  27  28
ENDBRANCH  26  27
ENDBRANCH   1  26
TORSDOF 24
ENDMDL
