MODEL 1
REMARK VINA RESULT:      -9.6      0.000      0.000
REMARK SMILES O=C(CNc1cc(N2CCCC2)c2noc3c2c1C(=O)c1ccccc1-3)OCCOCCOCCOC(=O)c1ccc(-c2c3nc(c(-c4ccc(S(=O)(=O)[O-])cc4)c4ccc([nH]4)c(-c4ccc(S(=O)(=O)[O-])cc4)c4nc(c(-c5ccc(S(=O)(=O)[O-])cc5)c5ccc2[nH]5)C=C4)C=C3)cc1
REMARK SMILES IDX 31 1 30 2 29 3 28 4 27 5 2 6 1 7 3 8 4 9 5 11 6 12 18 13
REMARK SMILES IDX 7 14 17 15 19 16 13 17 16 18 20 19 21 20 14 21 15 22 26 23
REMARK SMILES IDX 22 24 25 25 23 26 24 27 8 28 9 29 12 30 10 31 11 32 32 33
REMARK SMILES IDX 33 34 34 35 35 36 36 37 37 38 38 39 39 40 40 41 98 42 41 43
REMARK SMILES IDX 97 44 42 45 43 46 44 47 91 48 45 49 96 50 90 51 92 52 46 53
REMARK SMILES IDX 95 54 89 55 88 56 47 58 77 59 58 60 76 61 59 62 62 63 75 64
REMARK SMILES IDX 93 65 60 66 61 67 74 69 94 70 63 71 48 72 49 73 57 74 50 75
REMARK SMILES IDX 56 76 51 77 52 78 53 79 54 80 55 81 78 82 79 83 87 84 80 85
REMARK SMILES IDX 86 86 81 87 82 88 83 89 84 90 85 91 64 92 65 93 73 94 66 95
REMARK SMILES IDX 72 96 67 97 68 98 69 99 70 100 71 101
REMARK H PARENT 4 10 92 57 62 68
REMARK Flexibility Score: inf
ROOT
ATOM      1  C   UNL A   1      46.122  20.139  25.285  1.00  0.00     0.188 C 
ENDROOT
BRANCH   1   2
ATOM      2  O   UNL A   1      46.308  21.541  25.198  1.00  0.00    -0.376 OA
BRANCH   2   3
ATOM      3  C   UNL A   1      45.350  22.407  25.786  1.00  0.00     0.202 C 
BRANCH   3   4
ATOM      4  C   UNL A   1      45.751  23.413  26.868  1.00  0.00     0.261 C 
BRANCH   4   5
ATOM      5  O   UNL A   1      45.883  24.814  26.551  1.00  0.00    -0.462 OA
BRANCH   5   6
ATOM      6  C   UNL A   1      46.008  25.417  25.348  1.00  0.00     0.325 C 
ATOM      7  O   UNL A   1      46.572  24.805  24.441  1.00  0.00    -0.250 OA
BRANCH   6   8
ATOM      8  C   UNL A   1      45.509  26.843  25.167  1.00  0.00     0.236 C 
BRANCH   8   9
ATOM      9  N   UNL A   1      46.609  27.787  25.050  1.00  0.00    -0.374 N 
ATOM     10  H   UNL A   1      46.356  28.684  24.735  1.00  0.00     0.161 HD
BRANCH   9  11
ATOM     11  C   UNL A   1      47.958  27.617  25.313  1.00  0.00     0.049 A 
ATOM     12  C   UNL A   1      48.226  27.486  26.733  1.00  0.00     0.054 A 
ATOM     13  C   UNL A   1      49.029  27.445  24.401  1.00  0.00     0.059 A 
ATOM     14  C   UNL A   1      49.478  27.208  27.354  1.00  0.00     0.069 A 
ATOM     15  C   UNL A   1      50.249  27.406  25.059  1.00  0.00     0.065 A 
ATOM     16  C   UNL A   1      49.086  27.176  22.942  1.00  0.00     0.196 C 
ATOM     17  C   UNL A   1      50.543  27.277  26.434  1.00  0.00     0.138 A 
ATOM     18  C   UNL A   1      51.428  27.347  24.393  1.00  0.00     0.176 A 
ATOM     19  O   UNL A   1      48.076  26.967  22.295  1.00  0.00    -0.288 OA
ATOM     20  C   UNL A   1      50.429  27.060  22.265  1.00  0.00     0.034 A 
ATOM     21  N   UNL A   1      51.885  27.155  26.572  1.00  0.00    -0.077 NA
ATOM     22  O   UNL A   1      52.433  27.210  25.285  1.00  0.00    -0.355 OA
ATOM     23  C   UNL A   1      51.615  27.259  22.976  1.00  0.00     0.032 A 
ATOM     24  C   UNL A   1      50.502  26.707  20.928  1.00  0.00     0.013 A 
ATOM     25  C   UNL A   1      52.840  27.273  22.310  1.00  0.00     0.013 A 
ATOM     26  C   UNL A   1      51.713  26.711  20.245  1.00  0.00     0.001 A 
ATOM     27  C   UNL A   1      52.880  27.031  20.932  1.00  0.00     0.001 A 
BRANCH  14  28
ATOM     28  N   UNL A   1      49.598  26.896  28.684  1.00  0.00    -0.370 N 
ATOM     29  C   UNL A   1      50.808  26.287  29.224  1.00  0.00     0.116 C 
ATOM     30  C   UNL A   1      48.392  26.401  29.333  1.00  0.00     0.116 C 
ATOM     31  C   UNL A   1      50.284  25.145  30.080  1.00  0.00     0.023 C 
ATOM     32  C   UNL A   1      48.933  25.667  30.554  1.00  0.00     0.023 C 
ENDBRANCH  14  28
ENDBRANCH   9  11
ENDBRANCH   8   9
ENDBRANCH   6   8
ENDBRANCH   5   6
ENDBRANCH   4   5
ENDBRANCH   3   4
ENDBRANCH   2   3
ENDBRANCH   1   2
BRANCH   1  33
ATOM     33  C   UNL A   1      45.396  19.556  24.072  1.00  0.00     0.188 C 
BRANCH  33  34
ATOM     34  O   UNL A   1      44.001  19.317  24.251  1.00  0.00    -0.376 OA
BRANCH  34  35
ATOM     35  C   UNL A   1      43.618  18.682  25.473  1.00  0.00     0.202 C 
BRANCH  35  36
ATOM     36  C   UNL A   1      42.447  19.310  26.249  1.00  0.00     0.261 C 
BRANCH  36  37
ATOM     37  O   UNL A   1      42.423  20.751  26.226  1.00  0.00    -0.460 OA
BRANCH  37  38
ATOM     38  C   UNL A   1      41.205  21.346  26.319  1.00  0.00     0.338 C 
ATOM     39  O   UNL A   1      40.126  20.854  26.021  1.00  0.00    -0.246 OA
BRANCH  38  40
ATOM     40  C   UNL A   1      41.367  22.767  26.698  1.00  0.00     0.060 A 
ATOM     41  C   UNL A   1      41.812  23.659  25.717  1.00  0.00     0.016 A 
ATOM     42  C   UNL A   1      41.158  23.219  28.002  1.00  0.00     0.016 A 
ATOM     43  C   UNL A   1      42.201  24.956  26.079  1.00  0.00     0.010 A 
ATOM     44  C   UNL A   1      41.540  24.523  28.358  1.00  0.00     0.010 A 
ATOM     45  C   UNL A   1      42.155  25.368  27.421  1.00  0.00    -0.014 A 
BRANCH  45  46
ATOM     46  C   UNL A   1      42.720  26.714  27.750  1.00  0.00     0.031 A 
ATOM     47  C   UNL A   1      41.591  27.684  27.940  1.00  0.00     0.074 A 
ATOM     48  C   UNL A   1      43.783  26.867  28.582  1.00  0.00     0.049 A 
ATOM     49  N   UNL A   1      40.886  27.860  29.016  1.00  0.00    -0.248 NA
ATOM     50  C   UNL A   1      41.037  28.319  26.742  1.00  0.00     0.031 C 
ATOM     51  C   UNL A   1      43.840  26.408  29.971  1.00  0.00     0.029 A 
ATOM     52  N   UNL A   1      44.868  27.740  28.477  1.00  0.00    -0.354 N 
ATOM     53  C   UNL A   1      39.779  28.608  28.642  1.00  0.00     0.074 A 
ATOM     54  C   UNL A   1      39.903  28.843  27.220  1.00  0.00     0.031 C 
ATOM     55  C   UNL A   1      44.845  27.033  30.613  1.00  0.00     0.029 A 
ATOM     56  C   UNL A   1      45.485  27.992  29.709  1.00  0.00     0.049 A 
ATOM     57  H   UNL A   1      45.167  28.138  27.628  1.00  0.00     0.167 HD
ATOM     58  C   UNL A   1      38.822  29.041  29.504  1.00  0.00     0.031 A 
ATOM     59  C   UNL A   1      45.994  29.200  30.109  1.00  0.00     0.031 A 
ATOM     60  C   UNL A   1      39.079  28.791  30.887  1.00  0.00     0.049 A 
ATOM     61  C   UNL A   1      44.790  29.814  30.789  1.00  0.00     0.074 A 
ATOM     62  C   UNL A   1      38.662  27.931  31.877  1.00  0.00     0.029 A 
ATOM     63  N   UNL A   1      40.006  29.600  31.499  1.00  0.00    -0.354 N 
ATOM     64  N   UNL A   1      44.342  29.569  31.993  1.00  0.00    -0.248 NA
ATOM     65  C   UNL A   1      43.811  30.421  29.883  1.00  0.00     0.031 C 
ATOM     66  C   UNL A   1      39.673  27.994  32.889  1.00  0.00     0.029 A 
ATOM     67  C   UNL A   1      40.670  28.858  32.437  1.00  0.00     0.049 A 
ATOM     68  H   UNL A   1      40.165  30.550  31.297  1.00  0.00     0.167 HD
ATOM     69  C   UNL A   1      42.950  29.656  31.883  1.00  0.00     0.074 A 
ATOM     70  C   UNL A   1      42.696  30.210  30.567  1.00  0.00     0.031 C 
ATOM     71  C   UNL A   1      42.067  29.086  32.756  1.00  0.00     0.031 A 
BRANCH  58  72
ATOM     72  C   UNL A   1      37.731  29.953  29.087  1.00  0.00    -0.014 A 
ATOM     73  C   UNL A   1      36.568  29.509  28.442  1.00  0.00     0.010 A 
ATOM     74  C   UNL A   1      37.850  31.311  29.435  1.00  0.00     0.010 A 
ATOM     75  C   UNL A   1      35.534  30.415  28.166  1.00  0.00     0.020 A 
ATOM     76  C   UNL A   1      36.824  32.212  29.169  1.00  0.00     0.020 A 
ATOM     77  C   UNL A   1      35.669  31.760  28.537  1.00  0.00     0.054 A 
BRANCH  77  78
ATOM     78  S   UNL A   1      34.311  32.914  28.212  1.00  0.00     0.124 S 
ATOM     79  O   UNL A   1      33.869  33.253  29.562  1.00  0.00    -0.237 OA
ATOM     80  O   UNL A   1      34.977  33.987  27.479  1.00  0.00    -0.237 OA
ATOM     81  O   UNL A   1      33.363  32.125  27.430  1.00  0.00    -0.744 OA
ENDBRANCH  77  78
ENDBRANCH  58  72
BRANCH  59  82
ATOM     82  C   UNL A   1      46.864  29.955  29.150  1.00  0.00    -0.014 A 
ATOM     83  C   UNL A   1      48.223  30.256  29.351  1.00  0.00     0.010 A 
ATOM     84  C   UNL A   1      46.258  30.451  27.977  1.00  0.00     0.010 A 
ATOM     85  C   UNL A   1      48.874  31.205  28.554  1.00  0.00     0.020 A 
ATOM     86  C   UNL A   1      46.914  31.369  27.150  1.00  0.00     0.020 A 
ATOM     87  C   UNL A   1      48.193  31.800  27.493  1.00  0.00     0.054 A 
BRANCH  87  88
ATOM     88  S   UNL A   1      48.947  33.216  26.651  1.00  0.00     0.124 S 
ATOM     89  O   UNL A   1      50.026  32.572  25.906  1.00  0.00    -0.237 OA
ATOM     90  O   UNL A   1      47.846  33.735  25.845  1.00  0.00    -0.237 OA
ATOM     91  O   UNL A   1      49.380  34.080  27.746  1.00  0.00    -0.744 OA
ENDBRANCH  87  88
ENDBRANCH  59  82
BRANCH  71  92
ATOM     92  C   UNL A   1      42.602  28.527  34.037  1.00  0.00    -0.014 A 
ATOM     93  C   UNL A   1      42.765  29.349  35.168  1.00  0.00     0.010 A 
ATOM     94  C   UNL A   1      43.137  27.230  34.051  1.00  0.00     0.010 A 
ATOM     95  C   UNL A   1      43.565  28.934  36.233  1.00  0.00     0.020 A 
ATOM     96  C   UNL A   1      43.918  26.800  35.126  1.00  0.00     0.020 A 
ATOM     97  C   UNL A   1      44.166  27.674  36.186  1.00  0.00     0.054 A 
BRANCH  97  98
ATOM     98  S   UNL A   1      45.348  27.234  37.488  1.00  0.00     0.124 S 
ATOM     99  O   UNL A   1      46.540  27.978  37.088  1.00  0.00    -0.237 OA
ATOM    100  O   UNL A   1      44.685  27.722  38.696  1.00  0.00    -0.237 OA
ATOM    101  O   UNL A   1      45.460  25.782  37.385  1.00  0.00    -0.744 OA
ENDBRANCH  97  98
ENDBRANCH  71  92
ENDBRANCH  45  46
ENDBRANCH  38  40
ENDBRANCH  37  38
ENDBRANCH  36  37
ENDBRANCH  35  36
ENDBRANCH  34  35
ENDBRANCH  33  34
ENDBRANCH   1  33
TORSDOF 23
ENDMDL
MODEL 2
REMARK VINA RESULT:      -8.3      6.714     14.746
REMARK SMILES O=C(CNc1cc(N2CCCC2)c2noc3c2c1C(=O)c1ccccc1-3)OCCOCCOCCOC(=O)c1ccc(-c2c3nc(c(-c4ccc(S(=O)(=O)[O-])cc4)c4ccc([nH]4)c(-c4ccc(S(=O)(=O)[O-])cc4)c4nc(c(-c5ccc(S(=O)(=O)[O-])cc5)c5ccc2[nH]5)C=C4)C=C3)cc1
REMARK SMILES IDX 31 1 30 2 29 3 28 4 27 5 2 6 1 7 3 8 4 9 5 11 6 12 18 13
REMARK SMILES IDX 7 14 17 15 19 16 13 17 16 18 20 19 21 20 14 21 15 22 26 23
REMARK SMILES IDX 22 24 25 25 23 26 24 27 8 28 9 29 12 30 10 31 11 32 32 33
REMARK SMILES IDX 33 34 34 35 35 36 36 37 37 38 38 39 39 40 40 41 98 42 41 43
REMARK SMILES IDX 97 44 42 45 43 46 44 47 91 48 45 49 96 50 90 51 92 52 46 53
REMARK SMILES IDX 95 54 89 55 88 56 47 58 77 59 58 60 76 61 59 62 62 63 75 64
REMARK SMILES IDX 93 65 60 66 61 67 74 69 94 70 63 71 48 72 49 73 57 74 50 75
REMARK SMILES IDX 56 76 51 77 52 78 53 79 54 80 55 81 78 82 79 83 87 84 80 85
REMARK SMILES IDX 86 86 81 87 82 88 83 89 84 90 85 91 64 92 65 93 73 94 66 95
REMARK SMILES IDX 72 96 67 97 68 98 69 99 70 100 71 101
REMARK H PARENT 4 10 92 57 62 68
REMARK Flexibility Score: inf
ROOT
ATOM      1  C   UNL A   1      33.624  35.452  29.993  1.00  0.00     0.188 C 
ENDROOT
BRANCH   1   2
ATOM      2  O   UNL A   1      33.887  35.290  28.611  1.00  0.00    -0.376 OA
BRANCH   2   3
ATOM      3  C   UNL A   1      34.028  33.981  28.078  1.00  0.00     0.202 C 
BRANCH   3   4
ATOM      4  C   UNL A   1      35.114  33.031  28.589  1.00  0.00     0.261 C 
BRANCH   4   5
ATOM      5  O   UNL A   1      35.575  31.938  27.768  1.00  0.00    -0.462 OA
BRANCH   5   6
ATOM      6  C   UNL A   1      35.498  30.606  27.985  1.00  0.00     0.325 C 
ATOM      7  O   UNL A   1      35.746  30.180  29.113  1.00  0.00    -0.250 OA
BRANCH   6   8
ATOM      8  C   UNL A   1      35.170  29.674  26.828  1.00  0.00     0.236 C 
BRANCH   8   9
ATOM      9  N   UNL A   1      33.911  28.978  27.037  1.00  0.00    -0.374 N 
ATOM     10  H   UNL A   1      33.578  28.991  27.963  1.00  0.00     0.161 HD
BRANCH   9  11
ATOM     11  C   UNL A   1      33.109  28.299  26.135  1.00  0.00     0.049 A 
ATOM     12  C   UNL A   1      33.340  26.867  26.169  1.00  0.00     0.054 A 
ATOM     13  C   UNL A   1      32.065  28.800  25.318  1.00  0.00     0.059 A 
ATOM     14  C   UNL A   1      32.632  25.861  25.451  1.00  0.00     0.069 A 
ATOM     15  C   UNL A   1      31.567  27.816  24.478  1.00  0.00     0.065 A 
ATOM     16  C   UNL A   1      31.337  30.093  25.281  1.00  0.00     0.196 C 
ATOM     17  C   UNL A   1      31.769  26.418  24.486  1.00  0.00     0.138 A 
ATOM     18  C   UNL A   1      30.631  28.076  23.534  1.00  0.00     0.176 A 
ATOM     19  O   UNL A   1      31.533  30.957  26.118  1.00  0.00    -0.288 OA
ATOM     20  C   UNL A   1      30.260  30.305  24.246  1.00  0.00     0.034 A 
ATOM     21  N   UNL A   1      30.965  25.867  23.546  1.00  0.00    -0.077 NA
ATOM     22  O   UNL A   1      30.260  26.918  22.946  1.00  0.00    -0.355 OA
ATOM     23  C   UNL A   1      29.980  29.328  23.288  1.00  0.00     0.032 A 
ATOM     24  C   UNL A   1      29.501  31.463  24.264  1.00  0.00     0.013 A 
ATOM     25  C   UNL A   1      29.071  29.590  22.263  1.00  0.00     0.013 A 
ATOM     26  C   UNL A   1      28.587  31.743  23.254  1.00  0.00     0.001 A 
ATOM     27  C   UNL A   1      28.399  30.818  22.231  1.00  0.00     0.001 A 
BRANCH  14  28
ATOM     28  N   UNL A   1      32.779  24.521  25.702  1.00  0.00    -0.370 N 
ATOM     29  C   UNL A   1      31.730  23.740  26.349  1.00  0.00     0.116 C 
ATOM     30  C   UNL A   1      34.113  24.090  26.097  1.00  0.00     0.116 C 
ATOM     31  C   UNL A   1      32.476  22.954  27.417  1.00  0.00     0.023 C 
ATOM     32  C   UNL A   1      33.855  22.762  26.798  1.00  0.00     0.023 C 
ENDBRANCH  14  28
ENDBRANCH   9  11
ENDBRANCH   8   9
ENDBRANCH   6   8
ENDBRANCH   5   6
ENDBRANCH   4   5
ENDBRANCH   3   4
ENDBRANCH   2   3
ENDBRANCH   1   2
BRANCH   1  33
ATOM     33  C   UNL A   1      32.815  36.711  30.304  1.00  0.00     0.188 C 
BRANCH  33  34
ATOM     34  O   UNL A   1      33.068  37.303  31.577  1.00  0.00    -0.376 OA
BRANCH  34  35
ATOM     35  C   UNL A   1      33.184  36.404  32.682  1.00  0.00     0.202 C 
BRANCH  35  36
ATOM     36  C   UNL A   1      34.593  36.187  33.261  1.00  0.00     0.261 C 
BRANCH  36  37
ATOM     37  O   UNL A   1      34.814  34.873  33.811  1.00  0.00    -0.460 OA
BRANCH  37  38
ATOM     38  C   UNL A   1      35.316  33.931  32.970  1.00  0.00     0.338 C 
ATOM     39  O   UNL A   1      34.679  33.209  32.217  1.00  0.00    -0.246 OA
BRANCH  38  40
ATOM     40  C   UNL A   1      36.770  33.779  33.197  1.00  0.00     0.060 A 
ATOM     41  C   UNL A   1      37.186  32.934  34.231  1.00  0.00     0.016 A 
ATOM     42  C   UNL A   1      37.718  34.495  32.464  1.00  0.00     0.016 A 
ATOM     43  C   UNL A   1      38.528  32.935  34.635  1.00  0.00     0.010 A 
ATOM     44  C   UNL A   1      39.063  34.485  32.866  1.00  0.00     0.010 A 
ATOM     45  C   UNL A   1      39.461  33.781  34.014  1.00  0.00    -0.014 A 
BRANCH  45  46
ATOM     46  C   UNL A   1      40.840  33.831  34.591  1.00  0.00     0.031 A 
ATOM     47  C   UNL A   1      41.833  33.501  33.516  1.00  0.00     0.074 A 
ATOM     48  C   UNL A   1      41.218  34.792  35.475  1.00  0.00     0.049 A 
ATOM     49  N   UNL A   1      42.317  34.311  32.624  1.00  0.00    -0.248 NA
ATOM     50  C   UNL A   1      42.100  32.085  33.255  1.00  0.00     0.031 C 
ATOM     51  C   UNL A   1      41.179  36.233  35.224  1.00  0.00     0.029 A 
ATOM     52  N   UNL A   1      42.015  34.677  36.616  1.00  0.00    -0.354 N 
ATOM     53  C   UNL A   1      42.934  33.519  31.668  1.00  0.00     0.074 A 
ATOM     54  C   UNL A   1      42.749  32.147  32.088  1.00  0.00     0.031 C 
ATOM     55  C   UNL A   1      41.954  36.871  36.121  1.00  0.00     0.029 A 
ATOM     56  C   UNL A   1      42.606  35.890  36.991  1.00  0.00     0.049 A 
ATOM     57  H   UNL A   1      42.149  33.832  37.105  1.00  0.00     0.167 HD
ATOM     58  C   UNL A   1      43.605  34.004  30.590  1.00  0.00     0.031 A 
ATOM     59  C   UNL A   1      43.875  36.033  37.492  1.00  0.00     0.031 A 
ATOM     60  C   UNL A   1      43.762  35.423  30.549  1.00  0.00     0.049 A 
ATOM     61  C   UNL A   1      44.668  36.245  36.221  1.00  0.00     0.074 A 
ATOM     62  C   UNL A   1      43.226  36.504  29.886  1.00  0.00     0.029 A 
ATOM     63  N   UNL A   1      44.705  35.965  31.388  1.00  0.00    -0.354 N 
ATOM     64  N   UNL A   1      44.783  37.348  35.527  1.00  0.00    -0.248 NA
ATOM     65  C   UNL A   1      44.996  35.021  35.485  1.00  0.00     0.031 C 
ATOM     66  C   UNL A   1      43.570  37.647  30.677  1.00  0.00     0.029 A 
ATOM     67  C   UNL A   1      44.260  37.191  31.800  1.00  0.00     0.049 A 
ATOM     68  H   UNL A   1      45.555  35.543  31.649  1.00  0.00     0.167 HD
ATOM     69  C   UNL A   1      44.846  36.927  34.194  1.00  0.00     0.074 A 
ATOM     70  C   UNL A   1      44.999  35.486  34.246  1.00  0.00     0.031 C 
ATOM     71  C   UNL A   1      44.559  37.720  33.118  1.00  0.00     0.031 A 
BRANCH  58  72
ATOM     72  C   UNL A   1      44.366  33.129  29.668  1.00  0.00    -0.014 A 
ATOM     73  C   UNL A   1      45.671  32.689  29.934  1.00  0.00     0.010 A 
ATOM     74  C   UNL A   1      43.705  32.663  28.518  1.00  0.00     0.010 A 
ATOM     75  C   UNL A   1      46.293  31.783  29.064  1.00  0.00     0.020 A 
ATOM     76  C   UNL A   1      44.315  31.759  27.654  1.00  0.00     0.020 A 
ATOM     77  C   UNL A   1      45.607  31.321  27.933  1.00  0.00     0.054 A 
BRANCH  77  78
ATOM     78  S   UNL A   1      46.404  30.119  26.836  1.00  0.00     0.124 S 
ATOM     79  O   UNL A   1      47.334  30.960  26.087  1.00  0.00    -0.237 OA
ATOM     80  O   UNL A   1      47.017  29.189  27.782  1.00  0.00    -0.237 OA
ATOM     81  O   UNL A   1      45.297  29.571  26.058  1.00  0.00    -0.744 OA
ENDBRANCH  77  78
ENDBRANCH  58  72
BRANCH  59  82
ATOM     82  C   UNL A   1      44.315  35.107  38.584  1.00  0.00    -0.014 A 
ATOM     83  C   UNL A   1      44.147  33.710  38.581  1.00  0.00     0.010 A 
ATOM     84  C   UNL A   1      44.895  35.685  39.731  1.00  0.00     0.010 A 
ATOM     85  C   UNL A   1      44.317  32.962  39.753  1.00  0.00     0.020 A 
ATOM     86  C   UNL A   1      45.109  34.939  40.896  1.00  0.00     0.020 A 
ATOM     87  C   UNL A   1      44.741  33.596  40.919  1.00  0.00     0.054 A 
BRANCH  87  88
ATOM     88  S   UNL A   1      44.688  32.681  42.483  1.00  0.00     0.124 S 
ATOM     89  O   UNL A   1      45.498  31.507  42.160  1.00  0.00    -0.237 OA
ATOM     90  O   UNL A   1      45.287  33.620  43.425  1.00  0.00    -0.237 OA
ATOM     91  O   UNL A   1      43.266  32.417  42.682  1.00  0.00    -0.744 OA
ENDBRANCH  87  88
ENDBRANCH  59  82
BRANCH  71  92
ATOM     92  C   UNL A   1      44.388  39.189  33.348  1.00  0.00    -0.014 A 
ATOM     93  C   UNL A   1      43.127  39.722  33.675  1.00  0.00     0.010 A 
ATOM     94  C   UNL A   1      45.440  40.062  33.034  1.00  0.00     0.010 A 
ATOM     95  C   UNL A   1      42.887  41.091  33.555  1.00  0.00     0.020 A 
ATOM     96  C   UNL A   1      45.211  41.436  32.937  1.00  0.00     0.020 A 
ATOM     97  C   UNL A   1      43.924  41.934  33.150  1.00  0.00     0.054 A 
BRANCH  97  98
ATOM     98  S   UNL A   1      43.542  43.675  32.819  1.00  0.00     0.124 S 
ATOM     99  O   UNL A   1      43.288  44.196  34.161  1.00  0.00    -0.237 OA
ATOM    100  O   UNL A   1      44.769  44.154  32.186  1.00  0.00    -0.237 OA
ATOM    101  O   UNL A   1      42.373  43.618  31.945  1.00  0.00    -0.744 OA
ENDBRANCH  97  98
ENDBRANCH  71  92
ENDBRANCH  45  46
ENDBRANCH  38  40
ENDBRANCH  37  38
ENDBRANCH  36  37
ENDBRANCH  35  36
ENDBRANCH  34  35
ENDBRANCH  33  34
ENDBRANCH   1  33
TORSDOF 23
ENDMDL
MODEL 3
REMARK VINA RESULT:      -8.2      6.927     11.126
REMARK SMILES O=C(CNc1cc(N2CCCC2)c2noc3c2c1C(=O)c1ccccc1-3)OCCOCCOCCOC(=O)c1ccc(-c2c3nc(c(-c4ccc(S(=O)(=O)[O-])cc4)c4ccc([nH]4)c(-c4ccc(S(=O)(=O)[O-])cc4)c4nc(c(-c5ccc(S(=O)(=O)[O-])cc5)c5ccc2[nH]5)C=C4)C=C3)cc1
REMARK SMILES IDX 31 1 30 2 29 3 28 4 27 5 2 6 1 7 3 8 4 9 5 11 6 12 18 13
REMARK SMILES IDX 7 14 17 15 19 16 13 17 16 18 20 19 21 20 14 21 15 22 26 23
REMARK SMILES IDX 22 24 25 25 23 26 24 27 8 28 9 29 12 30 10 31 11 32 32 33
REMARK SMILES IDX 33 34 34 35 35 36 36 37 37 38 38 39 39 40 40 41 98 42 41 43
REMARK SMILES IDX 97 44 42 45 43 46 44 47 91 48 45 49 96 50 90 51 92 52 46 53
REMARK SMILES IDX 95 54 89 55 88 56 47 58 77 59 58 60 76 61 59 62 62 63 75 64
REMARK SMILES IDX 93 65 60 66 61 67 74 69 94 70 63 71 48 72 49 73 57 74 50 75
REMARK SMILES IDX 56 76 51 77 52 78 53 79 54 80 55 81 78 82 79 83 87 84 80 85
REMARK SMILES IDX 86 86 81 87 82 88 83 89 84 90 85 91 64 92 65 93 73 94 66 95
REMARK SMILES IDX 72 96 67 97 68 98 69 99 70 100 71 101
REMARK H PARENT 4 10 92 57 62 68
REMARK Flexibility Score: inf
ROOT
ATOM      1  C   UNL A   1      36.327  29.677  28.554  1.00  0.00     0.188 C 
ENDROOT
BRANCH   1   2
ATOM      2  O   UNL A   1      37.335  29.085  27.755  1.00  0.00    -0.376 OA
BRANCH   2   3
ATOM      3  C   UNL A   1      38.605  28.809  28.329  1.00  0.00     0.202 C 
BRANCH   3   4
ATOM      4  C   UNL A   1      39.006  27.382  28.713  1.00  0.00     0.261 C 
BRANCH   4   5
ATOM      5  O   UNL A   1      40.364  27.082  29.096  1.00  0.00    -0.462 OA
BRANCH   5   6
ATOM      6  C   UNL A   1      41.459  26.915  28.322  1.00  0.00     0.325 C 
ATOM      7  O   UNL A   1      42.070  27.916  27.945  1.00  0.00    -0.250 OA
BRANCH   6   8
ATOM      8  C   UNL A   1      41.868  25.514  27.891  1.00  0.00     0.236 C 
BRANCH   8   9
ATOM      9  N   UNL A   1      41.014  25.007  26.830  1.00  0.00    -0.374 N 
ATOM     10  H   UNL A   1      40.632  25.694  26.239  1.00  0.00     0.161 HD
BRANCH   9  11
ATOM     11  C   UNL A   1      40.654  23.705  26.523  1.00  0.00     0.049 A 
ATOM     12  C   UNL A   1      39.219  23.559  26.357  1.00  0.00     0.054 A 
ATOM     13  C   UNL A   1      41.486  22.591  26.249  1.00  0.00     0.059 A 
ATOM     14  C   UNL A   1      38.511  22.393  25.949  1.00  0.00     0.069 A 
ATOM     15  C   UNL A   1      40.739  21.434  26.082  1.00  0.00     0.065 A 
ATOM     16  C   UNL A   1      42.940  22.451  25.984  1.00  0.00     0.196 C 
ATOM     17  C   UNL A   1      39.348  21.260  25.916  1.00  0.00     0.138 A 
ATOM     18  C   UNL A   1      41.316  20.221  25.908  1.00  0.00     0.176 A 
ATOM     19  O   UNL A   1      43.664  23.426  25.883  1.00  0.00    -0.288 OA
ATOM     20  C   UNL A   1      43.517  21.080  25.737  1.00  0.00     0.034 A 
ATOM     21  N   UNL A   1      39.112  19.951  25.658  1.00  0.00    -0.077 NA
ATOM     22  O   UNL A   1      40.354  19.305  25.665  1.00  0.00    -0.355 OA
ATOM     23  C   UNL A   1      42.716  19.937  25.811  1.00  0.00     0.032 A 
ATOM     24  C   UNL A   1      44.849  20.942  25.387  1.00  0.00     0.013 A 
ATOM     25  C   UNL A   1      43.290  18.670  25.704  1.00  0.00     0.013 A 
ATOM     26  C   UNL A   1      45.440  19.688  25.271  1.00  0.00     0.001 A 
ATOM     27  C   UNL A   1      44.664  18.550  25.468  1.00  0.00     0.001 A 
BRANCH  14  28
ATOM     28  N   UNL A   1      37.180  22.405  25.619  1.00  0.00    -0.370 N 
ATOM     29  C   UNL A   1      36.259  21.381  26.098  1.00  0.00     0.116 C 
ATOM     30  C   UNL A   1      36.865  22.845  24.267  1.00  0.00     0.116 C 
ATOM     31  C   UNL A   1      35.490  20.977  24.849  1.00  0.00     0.023 C 
ATOM     32  C   UNL A   1      35.477  22.261  24.028  1.00  0.00     0.023 C 
ENDBRANCH  14  28
ENDBRANCH   9  11
ENDBRANCH   8   9
ENDBRANCH   6   8
ENDBRANCH   5   6
ENDBRANCH   4   5
ENDBRANCH   3   4
ENDBRANCH   2   3
ENDBRANCH   1   2
BRANCH   1  33
ATOM     33  C   UNL A   1      36.015  31.119  28.152  1.00  0.00     0.188 C 
BRANCH  33  34
ATOM     34  O   UNL A   1      34.736  31.604  28.558  1.00  0.00    -0.376 OA
BRANCH  34  35
ATOM     35  C   UNL A   1      34.734  32.788  29.359  1.00  0.00     0.202 C 
BRANCH  35  36
ATOM     36  C   UNL A   1      35.871  33.797  29.119  1.00  0.00     0.261 C 
BRANCH  36  37
ATOM     37  O   UNL A   1      36.576  34.194  30.312  1.00  0.00    -0.460 OA
BRANCH  37  38
ATOM     38  C   UNL A   1      37.527  33.342  30.776  1.00  0.00     0.338 C 
ATOM     39  O   UNL A   1      37.382  32.480  31.631  1.00  0.00    -0.246 OA
BRANCH  38  40
ATOM     40  C   UNL A   1      38.844  33.701  30.207  1.00  0.00     0.060 A 
ATOM     41  C   UNL A   1      39.893  32.788  30.358  1.00  0.00     0.016 A 
ATOM     42  C   UNL A   1      39.080  34.933  29.594  1.00  0.00     0.016 A 
ATOM     43  C   UNL A   1      41.204  33.174  30.046  1.00  0.00     0.010 A 
ATOM     44  C   UNL A   1      40.394  35.311  29.273  1.00  0.00     0.010 A 
ATOM     45  C   UNL A   1      41.476  34.474  29.587  1.00  0.00    -0.014 A 
BRANCH  45  46
ATOM     46  C   UNL A   1      42.911  34.857  29.411  1.00  0.00     0.031 A 
ATOM     47  C   UNL A   1      42.986  36.101  28.576  1.00  0.00     0.074 A 
ATOM     48  C   UNL A   1      43.812  34.765  30.424  1.00  0.00     0.049 A 
ATOM     49  N   UNL A   1      42.843  37.326  28.985  1.00  0.00    -0.248 NA
ATOM     50  C   UNL A   1      42.953  35.941  27.121  1.00  0.00     0.031 C 
ATOM     51  C   UNL A   1      43.701  35.443  31.717  1.00  0.00     0.029 A 
ATOM     52  N   UNL A   1      45.142  34.341  30.387  1.00  0.00    -0.354 N 
ATOM     53  C   UNL A   1      42.677  38.102  27.847  1.00  0.00     0.074 A 
ATOM     54  C   UNL A   1      42.724  37.196  26.720  1.00  0.00     0.031 C 
ATOM     55  C   UNL A   1      44.901  35.454  32.327  1.00  0.00     0.029 A 
ATOM     56  C   UNL A   1      45.902  34.837  31.454  1.00  0.00     0.049 A 
ATOM     57  H   UNL A   1      45.508  33.756  29.684  1.00  0.00     0.167 HD
ATOM     58  C   UNL A   1      42.544  39.454  27.857  1.00  0.00     0.031 A 
ATOM     59  C   UNL A   1      47.208  35.247  31.376  1.00  0.00     0.031 A 
ATOM     60  C   UNL A   1      42.716  40.082  29.129  1.00  0.00     0.049 A 
ATOM     61  C   UNL A   1      47.034  36.715  31.051  1.00  0.00     0.074 A 
ATOM     62  C   UNL A   1      41.941  40.648  30.115  1.00  0.00     0.029 A 
ATOM     63  N   UNL A   1      44.004  40.198  29.591  1.00  0.00    -0.354 N 
ATOM     64  N   UNL A   1      46.745  37.686  31.878  1.00  0.00    -0.248 NA
ATOM     65  C   UNL A   1      46.759  37.009  29.642  1.00  0.00     0.031 C 
ATOM     66  C   UNL A   1      42.767  40.671  31.285  1.00  0.00     0.029 A 
ATOM     67  C   UNL A   1      43.984  40.076  30.954  1.00  0.00     0.049 A 
ATOM     68  H   UNL A   1      44.805  40.343  29.037  1.00  0.00     0.167 HD
ATOM     69  C   UNL A   1      45.932  38.555  31.142  1.00  0.00     0.074 A 
ATOM     70  C   UNL A   1      46.006  38.090  29.770  1.00  0.00     0.031 C 
ATOM     71  C   UNL A   1      45.074  39.466  31.692  1.00  0.00     0.031 A 
BRANCH  58  72
ATOM     72  C   UNL A   1      42.507  40.258  26.613  1.00  0.00    -0.014 A 
ATOM     73  C   UNL A   1      41.322  40.533  25.915  1.00  0.00     0.010 A 
ATOM     74  C   UNL A   1      43.714  40.831  26.173  1.00  0.00     0.010 A 
ATOM     75  C   UNL A   1      41.351  41.383  24.800  1.00  0.00     0.020 A 
ATOM     76  C   UNL A   1      43.746  41.680  25.071  1.00  0.00     0.020 A 
ATOM     77  C   UNL A   1      42.563  41.954  24.390  1.00  0.00     0.054 A 
BRANCH  77  78
ATOM     78  S   UNL A   1      42.582  43.084  22.974  1.00  0.00     0.124 S 
ATOM     79  O   UNL A   1      42.963  44.348  23.597  1.00  0.00    -0.237 OA
ATOM     80  O   UNL A   1      43.587  42.481  22.104  1.00  0.00    -0.237 OA
ATOM     81  O   UNL A   1      41.212  43.030  22.468  1.00  0.00    -0.744 OA
ENDBRANCH  77  78
ENDBRANCH  58  72
BRANCH  59  82
ATOM     82  C   UNL A   1      48.187  34.364  30.664  1.00  0.00    -0.014 A 
ATOM     83  C   UNL A   1      48.049  32.976  30.487  1.00  0.00     0.010 A 
ATOM     84  C   UNL A   1      49.367  34.964  30.178  1.00  0.00     0.010 A 
ATOM     85  C   UNL A   1      49.133  32.192  30.075  1.00  0.00     0.020 A 
ATOM     86  C   UNL A   1      50.444  34.192  29.726  1.00  0.00     0.020 A 
ATOM     87  C   UNL A   1      50.344  32.804  29.755  1.00  0.00     0.054 A 
BRANCH  87  88
ATOM     88  S   UNL A   1      51.808  31.767  29.496  1.00  0.00     0.124 S 
ATOM     89  O   UNL A   1      52.812  32.766  29.136  1.00  0.00    -0.237 OA
ATOM     90  O   UNL A   1      51.987  31.133  30.798  1.00  0.00    -0.237 OA
ATOM     91  O   UNL A   1      51.411  30.871  28.414  1.00  0.00    -0.744 OA
ENDBRANCH  87  88
ENDBRANCH  59  82
BRANCH  71  92
ATOM     92  C   UNL A   1      45.165  39.722  33.163  1.00  0.00    -0.014 A 
ATOM     93  C   UNL A   1      44.133  39.314  34.028  1.00  0.00     0.010 A 
ATOM     94  C   UNL A   1      46.182  40.554  33.655  1.00  0.00     0.010 A 
ATOM     95  C   UNL A   1      44.044  39.839  35.319  1.00  0.00     0.020 A 
ATOM     96  C   UNL A   1      46.112  41.062  34.954  1.00  0.00     0.020 A 
ATOM     97  C   UNL A   1      45.017  40.740  35.759  1.00  0.00     0.054 A 
BRANCH  97  98
ATOM     98  S   UNL A   1      44.779  41.551  37.362  1.00  0.00     0.124 S 
ATOM     99  O   UNL A   1      46.045  42.256  37.543  1.00  0.00    -0.237 OA
ATOM    100  O   UNL A   1      43.618  42.405  37.116  1.00  0.00    -0.237 OA
ATOM    101  O   UNL A   1      44.549  40.443  38.286  1.00  0.00    -0.744 OA
ENDBRANCH  97  98
ENDBRANCH  71  92
ENDBRANCH  45  46
ENDBRANCH  38  40
ENDBRANCH  37  38
ENDBRANCH  36  37
ENDBRANCH  35  36
ENDBRANCH  34  35
ENDBRANCH  33  34
ENDBRANCH   1  33
TORSDOF 23
ENDMDL
