MODEL 1
REMARK VINA RESULT:      -6.6      0.000      0.000
REMARK SMILES C[C@@H](CO)CS[C@@H](C)C[C@@](C)([NH3+])C(=O)OCCOCCOCCOC(=O)c1ccc(-c2c3nc(c(-c4ccc(S(=O)(=O)[O-])cc4)c4ccc([nH]4)c(-c4ccc(S(=O)(=O)[O-])cc4)c4nc(c(-c5ccc(S(=O)(=O)[O-])cc5)c5ccc2[nH]5)C=C4)C=C3)cc1
REMARK SMILES IDX 17 1 16 2 15 3 13 4 14 5 10 6 11 7 9 8 7 9 8 10 6 11 5 12
REMARK SMILES IDX 2 13 1 14 3 15 4 16 12 18 18 22 19 23 20 24 21 25 22 26
REMARK SMILES IDX 23 27 24 28 25 29 26 30 27 31 28 32 86 33 29 34 85 35 30 36
REMARK SMILES IDX 31 37 32 38 79 39 33 40 84 41 78 42 80 43 34 44 83 45 77 46
REMARK SMILES IDX 76 47 35 49 65 50 46 51 64 52 47 53 50 54 63 55 81 56 48 57
REMARK SMILES IDX 49 58 62 60 82 61 51 62 36 63 37 64 45 65 38 66 44 67 39 68
REMARK SMILES IDX 40 69 41 70 42 71 43 72 66 73 67 74 75 75 68 76 74 77 69 78
REMARK SMILES IDX 70 79 71 80 72 81 73 82 52 83 53 84 61 85 54 86 60 87 55 88
REMARK SMILES IDX 56 89 57 90 58 91 59 92
REMARK H PARENT 4 17 12 19 12 20 12 21 80 48 50 59
REMARK Flexibility Score: inf
ROOT
ATOM      1  C   UNL A   1      47.754  26.706  26.519  1.00  0.00     0.202 C 
ENDROOT
BRANCH   1   2
ATOM      2  C   UNL A   1      48.148  27.965  27.334  1.00  0.00     0.261 C 
BRANCH   2   3
ATOM      3  O   UNL A   1      47.119  28.411  28.223  1.00  0.00    -0.459 OA
BRANCH   3   4
ATOM      4  C   UNL A   1      47.304  28.438  29.567  1.00  0.00     0.367 C 
ATOM      5  O   UNL A   1      47.812  27.525  30.204  1.00  0.00    -0.245 OA
BRANCH   4   6
ATOM      6  C   UNL A   1      46.670  29.726  30.191  1.00  0.00     0.191 C 
ATOM      7  C   UNL A   1      47.606  30.883  29.819  1.00  0.00     0.092 C 
BRANCH   6   8
ATOM      8  C   UNL A   1      45.189  30.037  29.832  1.00  0.00     0.094 C 
BRANCH   8   9
ATOM      9  C   UNL A   1      44.662  31.466  29.525  1.00  0.00     0.050 C 
ATOM     10  C   UNL A   1      43.241  31.652  30.081  1.00  0.00     0.019 C 
BRANCH   9  11
ATOM     11  S   UNL A   1      44.842  32.111  27.797  1.00  0.00    -0.158 SA
BRANCH  11  12
ATOM     12  C   UNL A   1      44.250  33.853  27.775  1.00  0.00     0.075 C 
BRANCH  12  13
ATOM     13  C   UNL A   1      43.712  34.262  26.400  1.00  0.00     0.021 C 
ATOM     14  C   UNL A   1      43.578  35.768  26.297  1.00  0.00     0.011 C 
BRANCH  13  15
ATOM     15  C   UNL A   1      44.561  33.717  25.245  1.00  0.00     0.160 C 
BRANCH  15  16
ATOM     16  O   UNL A   1      43.769  33.192  24.194  1.00  0.00    -0.396 OA
ATOM     17  H   UNL A   1      42.831  33.336  24.394  1.00  0.00     0.210 HD
ENDBRANCH  15  16
ENDBRANCH  13  15
ENDBRANCH  12  13
ENDBRANCH  11  12
ENDBRANCH   9  11
ENDBRANCH   8   9
ENDBRANCH   6   8
BRANCH   6  18
ATOM     18  N   UNL A   1      46.703  29.688  31.696  1.00  0.00    -0.344 N 
ATOM     19  H   UNL A   1      47.098  30.560  32.049  1.00  0.00     0.345 HD
ATOM     20  H   UNL A   1      47.280  28.906  32.004  1.00  0.00     0.345 HD
ATOM     21  H   UNL A   1      45.755  29.574  32.054  1.00  0.00     0.345 HD
ENDBRANCH   6  18
ENDBRANCH   4   6
ENDBRANCH   3   4
ENDBRANCH   2   3
ENDBRANCH   1   2
BRANCH   1  22
ATOM     22  O   UNL A   1      46.459  26.100  26.613  1.00  0.00    -0.376 OA
BRANCH  22  23
ATOM     23  C   UNL A   1      46.230  25.239  27.723  1.00  0.00     0.188 C 
BRANCH  23  24
ATOM     24  C   UNL A   1      45.819  23.832  27.330  1.00  0.00     0.188 C 
BRANCH  24  25
ATOM     25  O   UNL A   1      45.590  23.656  25.935  1.00  0.00    -0.376 OA
BRANCH  25  26
ATOM     26  C   UNL A   1      44.220  23.669  25.561  1.00  0.00     0.202 C 
BRANCH  26  27
ATOM     27  C   UNL A   1      43.202  23.542  26.706  1.00  0.00     0.261 C 
BRANCH  27  28
ATOM     28  O   UNL A   1      41.910  24.132  26.480  1.00  0.00    -0.460 OA
BRANCH  28  29
ATOM     29  C   UNL A   1      41.916  25.445  26.118  1.00  0.00     0.338 C 
ATOM     30  O   UNL A   1      41.948  25.893  24.982  1.00  0.00    -0.246 OA
BRANCH  29  31
ATOM     31  C   UNL A   1      41.743  26.282  27.332  1.00  0.00     0.060 A 
ATOM     32  C   UNL A   1      40.672  26.028  28.202  1.00  0.00     0.016 A 
ATOM     33  C   UNL A   1      42.637  27.315  27.621  1.00  0.00     0.016 A 
ATOM     34  C   UNL A   1      40.514  26.788  29.375  1.00  0.00     0.010 A 
ATOM     35  C   UNL A   1      42.469  28.082  28.785  1.00  0.00     0.010 A 
ATOM     36  C   UNL A   1      41.411  27.826  29.679  1.00  0.00    -0.014 A 
BRANCH  36  37
ATOM     37  C   UNL A   1      41.080  28.841  30.725  1.00  0.00     0.031 A 
ATOM     38  C   UNL A   1      41.909  28.770  31.983  1.00  0.00     0.074 A 
ATOM     39  C   UNL A   1      40.095  29.761  30.637  1.00  0.00     0.049 A 
ATOM     40  N   UNL A   1      41.834  29.492  33.069  1.00  0.00    -0.248 NA
ATOM     41  C   UNL A   1      42.958  27.734  32.014  1.00  0.00     0.031 C 
ATOM     42  C   UNL A   1      39.212  29.987  29.501  1.00  0.00     0.029 A 
ATOM     43  N   UNL A   1      39.654  30.690  31.559  1.00  0.00    -0.354 N 
ATOM     44  C   UNL A   1      42.832  29.007  33.903  1.00  0.00     0.074 A 
ATOM     45  C   UNL A   1      43.457  27.894  33.227  1.00  0.00     0.031 C 
ATOM     46  C   UNL A   1      38.331  30.960  29.785  1.00  0.00     0.029 A 
ATOM     47  C   UNL A   1      38.565  31.428  31.141  1.00  0.00     0.049 A 
ATOM     48  H   UNL A   1      40.079  30.814  32.438  1.00  0.00     0.167 HD
ATOM     49  C   UNL A   1      43.218  29.455  35.119  1.00  0.00     0.031 A 
ATOM     50  C   UNL A   1      37.826  32.366  31.768  1.00  0.00     0.031 A 
ATOM     51  C   UNL A   1      42.573  30.523  35.825  1.00  0.00     0.049 A 
ATOM     52  C   UNL A   1      38.208  32.782  33.165  1.00  0.00     0.074 A 
ATOM     53  C   UNL A   1      42.891  31.046  37.065  1.00  0.00     0.029 A 
ATOM     54  N   UNL A   1      41.466  31.219  35.365  1.00  0.00    -0.354 N 
ATOM     55  N   UNL A   1      39.200  32.354  33.908  1.00  0.00    -0.248 NA
ATOM     56  C   UNL A   1      37.386  33.825  33.797  1.00  0.00     0.031 C 
ATOM     57  C   UNL A   1      41.938  32.017  37.383  1.00  0.00     0.029 A 
ATOM     58  C   UNL A   1      41.073  32.152  36.308  1.00  0.00     0.049 A 
ATOM     59  H   UNL A   1      41.025  31.071  34.497  1.00  0.00     0.167 HD
ATOM     60  C   UNL A   1      39.153  33.113  35.074  1.00  0.00     0.074 A 
ATOM     61  C   UNL A   1      38.038  34.027  34.933  1.00  0.00     0.031 C 
ATOM     62  C   UNL A   1      39.969  33.064  36.155  1.00  0.00     0.031 A 
BRANCH  49  63
ATOM     63  C   UNL A   1      44.381  28.750  35.757  1.00  0.00    -0.014 A 
ATOM     64  C   UNL A   1      44.184  27.594  36.535  1.00  0.00     0.010 A 
ATOM     65  C   UNL A   1      45.681  29.258  35.594  1.00  0.00     0.010 A 
ATOM     66  C   UNL A   1      45.263  26.986  37.179  1.00  0.00     0.020 A 
ATOM     67  C   UNL A   1      46.766  28.633  36.209  1.00  0.00     0.020 A 
ATOM     68  C   UNL A   1      46.547  27.511  37.013  1.00  0.00     0.054 A 
BRANCH  68  69
ATOM     69  S   UNL A   1      47.931  26.692  37.847  1.00  0.00     0.124 S 
ATOM     70  O   UNL A   1      49.010  26.863  36.878  1.00  0.00    -0.237 OA
ATOM     71  O   UNL A   1      48.064  27.465  39.079  1.00  0.00    -0.237 OA
ATOM     72  O   UNL A   1      47.466  25.318  38.023  1.00  0.00    -0.744 OA
ENDBRANCH  68  69
ENDBRANCH  49  63
BRANCH  50  73
ATOM     73  C   UNL A   1      36.654  33.003  31.090  1.00  0.00    -0.014 A 
ATOM     74  C   UNL A   1      36.724  33.378  29.736  1.00  0.00     0.010 A 
ATOM     75  C   UNL A   1      35.473  33.277  31.806  1.00  0.00     0.010 A 
ATOM     76  C   UNL A   1      35.655  34.041  29.121  1.00  0.00     0.020 A 
ATOM     77  C   UNL A   1      34.391  33.913  31.187  1.00  0.00     0.020 A 
ATOM     78  C   UNL A   1      34.494  34.306  29.851  1.00  0.00     0.054 A 
BRANCH  78  79
ATOM     79  S   UNL A   1      33.114  35.147  29.022  1.00  0.00     0.124 S 
ATOM     80  O   UNL A   1      32.701  34.155  28.034  1.00  0.00    -0.237 OA
ATOM     81  O   UNL A   1      32.179  35.372  30.121  1.00  0.00    -0.237 OA
ATOM     82  O   UNL A   1      33.727  36.356  28.475  1.00  0.00    -0.744 OA
ENDBRANCH  78  79
ENDBRANCH  50  73
BRANCH  62  83
ATOM     83  C   UNL A   1      39.739  34.070  37.252  1.00  0.00    -0.014 A 
ATOM     84  C   UNL A   1      39.124  33.715  38.465  1.00  0.00     0.010 A 
ATOM     85  C   UNL A   1      40.206  35.386  37.080  1.00  0.00     0.010 A 
ATOM     86  C   UNL A   1      38.950  34.668  39.472  1.00  0.00     0.020 A 
ATOM     87  C   UNL A   1      40.066  36.332  38.096  1.00  0.00     0.020 A 
ATOM     88  C   UNL A   1      39.423  35.970  39.281  1.00  0.00     0.054 A 
BRANCH  88  89
ATOM     89  S   UNL A   1      39.224  37.177  40.620  1.00  0.00     0.124 S 
ATOM     90  O   UNL A   1      38.548  36.385  41.645  1.00  0.00    -0.237 OA
ATOM     91  O   UNL A   1      40.603  37.551  40.921  1.00  0.00    -0.237 OA
ATOM     92  O   UNL A   1      38.415  38.234  40.016  1.00  0.00    -0.744 OA
ENDBRANCH  88  89
ENDBRANCH  62  83
ENDBRANCH  36  37
ENDBRANCH  29  31
ENDBRANCH  28  29
ENDBRANCH  27  28
ENDBRANCH  26  27
ENDBRANCH  25  26
ENDBRANCH  24  25
ENDBRANCH  23  24
ENDBRANCH  22  23
ENDBRANCH   1  22
TORSDOF 28
ENDMDL
MODEL 2
REMARK VINA RESULT:      -6.2      4.960     11.484
REMARK SMILES C[C@@H](CO)CS[C@@H](C)C[C@@](C)([NH3+])C(=O)OCCOCCOCCOC(=O)c1ccc(-c2c3nc(c(-c4ccc(S(=O)(=O)[O-])cc4)c4ccc([nH]4)c(-c4ccc(S(=O)(=O)[O-])cc4)c4nc(c(-c5ccc(S(=O)(=O)[O-])cc5)c5ccc2[nH]5)C=C4)C=C3)cc1
REMARK SMILES IDX 17 1 16 2 15 3 13 4 14 5 10 6 11 7 9 8 7 9 8 10 6 11 5 12
REMARK SMILES IDX 2 13 1 14 3 15 4 16 12 18 18 22 19 23 20 24 21 25 22 26
REMARK SMILES IDX 23 27 24 28 25 29 26 30 27 31 28 32 86 33 29 34 85 35 30 36
REMARK SMILES IDX 31 37 32 38 79 39 33 40 84 41 78 42 80 43 34 44 83 45 77 46
REMARK SMILES IDX 76 47 35 49 65 50 46 51 64 52 47 53 50 54 63 55 81 56 48 57
REMARK SMILES IDX 49 58 62 60 82 61 51 62 36 63 37 64 45 65 38 66 44 67 39 68
REMARK SMILES IDX 40 69 41 70 42 71 43 72 66 73 67 74 75 75 68 76 74 77 69 78
REMARK SMILES IDX 70 79 71 80 72 81 73 82 52 83 53 84 61 85 54 86 60 87 55 88
REMARK SMILES IDX 56 89 57 90 58 91 59 92
REMARK H PARENT 4 17 12 19 12 20 12 21 80 48 50 59
REMARK Flexibility Score: inf
ROOT
ATOM      1  C   UNL A   1      38.427  24.278  26.737  1.00  0.00     0.202 C 
ENDROOT
BRANCH   1   2
ATOM      2  C   UNL A   1      37.621  23.429  25.721  1.00  0.00     0.261 C 
BRANCH   2   3
ATOM      3  O   UNL A   1      36.335  23.979  25.413  1.00  0.00    -0.459 OA
BRANCH   3   4
ATOM      4  C   UNL A   1      35.189  23.353  25.778  1.00  0.00     0.367 C 
ATOM      5  O   UNL A   1      34.984  22.903  26.897  1.00  0.00    -0.245 OA
BRANCH   4   6
ATOM      6  C   UNL A   1      34.235  23.177  24.550  1.00  0.00     0.191 C 
ATOM      7  C   UNL A   1      33.895  21.682  24.486  1.00  0.00     0.092 C 
BRANCH   6   8
ATOM      8  C   UNL A   1      32.958  24.066  24.506  1.00  0.00     0.094 C 
BRANCH   8   9
ATOM      9  C   UNL A   1      32.486  24.949  25.693  1.00  0.00     0.050 C 
ATOM     10  C   UNL A   1      31.615  24.135  26.663  1.00  0.00     0.019 C 
BRANCH   9  11
ATOM     11  S   UNL A   1      31.764  26.613  25.312  1.00  0.00    -0.158 SA
BRANCH  11  12
ATOM     12  C   UNL A   1      31.594  27.536  26.895  1.00  0.00     0.075 C 
BRANCH  12  13
ATOM     13  C   UNL A   1      31.949  29.018  26.740  1.00  0.00     0.021 C 
ATOM     14  C   UNL A   1      33.389  29.275  27.133  1.00  0.00     0.011 C 
BRANCH  13  15
ATOM     15  C   UNL A   1      31.675  29.549  25.327  1.00  0.00     0.160 C 
BRANCH  15  16
ATOM     16  O   UNL A   1      31.240  30.897  25.332  1.00  0.00    -0.396 OA
ATOM     17  H   UNL A   1      30.473  30.987  25.919  1.00  0.00     0.210 HD
ENDBRANCH  15  16
ENDBRANCH  13  15
ENDBRANCH  12  13
ENDBRANCH  11  12
ENDBRANCH   9  11
ENDBRANCH   8   9
ENDBRANCH   6   8
BRANCH   6  18
ATOM     18  N   UNL A   1      34.943  23.454  23.250  1.00  0.00    -0.344 N 
ATOM     19  H   UNL A   1      34.361  23.142  22.473  1.00  0.00     0.345 HD
ATOM     20  H   UNL A   1      35.830  22.951  23.233  1.00  0.00     0.345 HD
ATOM     21  H   UNL A   1      35.117  24.455  23.165  1.00  0.00     0.345 HD
ENDBRANCH   6  18
ENDBRANCH   4   6
ENDBRANCH   3   4
ENDBRANCH   2   3
ENDBRANCH   1   2
BRANCH   1  22
ATOM     22  O   UNL A   1      39.626  24.975  26.381  1.00  0.00    -0.376 OA
BRANCH  22  23
ATOM     23  C   UNL A   1      40.729  24.858  27.273  1.00  0.00     0.188 C 
BRANCH  23  24
ATOM     24  C   UNL A   1      40.598  25.711  28.521  1.00  0.00     0.188 C 
BRANCH  24  25
ATOM     25  O   UNL A   1      41.311  26.943  28.468  1.00  0.00    -0.376 OA
BRANCH  25  26
ATOM     26  C   UNL A   1      40.535  28.049  28.029  1.00  0.00     0.202 C 
BRANCH  26  27
ATOM     27  C   UNL A   1      39.050  28.038  28.427  1.00  0.00     0.261 C 
BRANCH  27  28
ATOM     28  O   UNL A   1      38.743  28.482  29.759  1.00  0.00    -0.460 OA
BRANCH  28  29
ATOM     29  C   UNL A   1      39.085  29.768  30.047  1.00  0.00     0.338 C 
ATOM     30  O   UNL A   1      38.800  30.766  29.401  1.00  0.00    -0.246 OA
BRANCH  29  31
ATOM     31  C   UNL A   1      39.765  29.804  31.367  1.00  0.00     0.060 A 
ATOM     32  C   UNL A   1      41.024  30.412  31.480  1.00  0.00     0.016 A 
ATOM     33  C   UNL A   1      39.163  29.246  32.497  1.00  0.00     0.016 A 
ATOM     34  C   UNL A   1      41.666  30.486  32.729  1.00  0.00     0.010 A 
ATOM     35  C   UNL A   1      39.812  29.309  33.740  1.00  0.00     0.010 A 
ATOM     36  C   UNL A   1      41.068  29.934  33.874  1.00  0.00    -0.014 A 
BRANCH  36  37
ATOM     37  C   UNL A   1      41.862  29.712  35.121  1.00  0.00     0.031 A 
ATOM     38  C   UNL A   1      41.810  30.830  36.130  1.00  0.00     0.074 A 
ATOM     39  C   UNL A   1      42.627  28.629  35.377  1.00  0.00     0.049 A 
ATOM     40  N   UNL A   1      42.415  30.938  37.283  1.00  0.00    -0.248 NA
ATOM     41  C   UNL A   1      40.963  31.986  35.780  1.00  0.00     0.031 C 
ATOM     42  C   UNL A   1      42.784  27.452  34.533  1.00  0.00     0.029 A 
ATOM     43  N   UNL A   1      43.453  28.351  36.448  1.00  0.00    -0.354 N 
ATOM     44  C   UNL A   1      42.012  32.163  37.798  1.00  0.00     0.074 A 
ATOM     45  C   UNL A   1      41.162  32.788  36.811  1.00  0.00     0.031 C 
ATOM     46  C   UNL A   1      43.652  26.593  35.092  1.00  0.00     0.029 A 
ATOM     47  C   UNL A   1      44.142  27.160  36.337  1.00  0.00     0.049 A 
ATOM     48  H   UNL A   1      43.543  28.950  37.224  1.00  0.00     0.167 HD
ATOM     49  C   UNL A   1      42.300  32.719  38.996  1.00  0.00     0.031 A 
ATOM     50  C   UNL A   1      45.068  26.585  37.131  1.00  0.00     0.031 A 
ATOM     51  C   UNL A   1      43.184  32.136  39.962  1.00  0.00     0.049 A 
ATOM     52  C   UNL A   1      45.455  27.270  38.415  1.00  0.00     0.074 A 
ATOM     53  C   UNL A   1      43.540  32.627  41.205  1.00  0.00     0.029 A 
ATOM     54  N   UNL A   1      43.867  30.942  39.789  1.00  0.00    -0.354 N 
ATOM     55  N   UNL A   1      45.008  28.398  38.913  1.00  0.00    -0.248 NA
ATOM     56  C   UNL A   1      46.452  26.592  39.258  1.00  0.00     0.031 C 
ATOM     57  C   UNL A   1      44.488  31.762  41.758  1.00  0.00     0.029 A 
ATOM     58  C   UNL A   1      44.663  30.693  40.893  1.00  0.00     0.049 A 
ATOM     59  H   UNL A   1      43.797  30.360  38.998  1.00  0.00     0.167 HD
ATOM     60  C   UNL A   1      45.630  28.537  40.150  1.00  0.00     0.074 A 
ATOM     61  C   UNL A   1      46.480  27.378  40.325  1.00  0.00     0.031 C 
ATOM     62  C   UNL A   1      45.497  29.531  41.063  1.00  0.00     0.031 A 
BRANCH  49  63
ATOM     63  C   UNL A   1      41.662  34.046  39.292  1.00  0.00    -0.014 A 
ATOM     64  C   UNL A   1      42.271  35.247  38.882  1.00  0.00     0.010 A 
ATOM     65  C   UNL A   1      40.450  34.096  40.002  1.00  0.00     0.010 A 
ATOM     66  C   UNL A   1      41.704  36.477  39.220  1.00  0.00     0.020 A 
ATOM     67  C   UNL A   1      39.863  35.323  40.313  1.00  0.00     0.020 A 
ATOM     68  C   UNL A   1      40.504  36.506  39.936  1.00  0.00     0.054 A 
BRANCH  68  69
ATOM     69  S   UNL A   1      39.783  38.116  40.348  1.00  0.00     0.124 S 
ATOM     70  O   UNL A   1      39.451  37.944  41.760  1.00  0.00    -0.237 OA
ATOM     71  O   UNL A   1      40.881  39.039  40.069  1.00  0.00    -0.237 OA
ATOM     72  O   UNL A   1      38.637  38.224  39.448  1.00  0.00    -0.744 OA
ENDBRANCH  68  69
ENDBRANCH  49  63
BRANCH  50  73
ATOM     73  C   UNL A   1      45.696  25.278  36.759  1.00  0.00    -0.014 A 
ATOM     74  C   UNL A   1      46.916  25.241  36.059  1.00  0.00     0.010 A 
ATOM     75  C   UNL A   1      45.058  24.062  37.068  1.00  0.00     0.010 A 
ATOM     76  C   UNL A   1      47.466  24.021  35.645  1.00  0.00     0.020 A 
ATOM     77  C   UNL A   1      45.620  22.839  36.682  1.00  0.00     0.020 A 
ATOM     78  C   UNL A   1      46.814  22.827  35.959  1.00  0.00     0.054 A 
BRANCH  78  79
ATOM     79  S   UNL A   1      47.562  21.259  35.431  1.00  0.00     0.124 S 
ATOM     80  O   UNL A   1      46.436  20.581  34.796  1.00  0.00    -0.237 OA
ATOM     81  O   UNL A   1      48.621  21.705  34.530  1.00  0.00    -0.237 OA
ATOM     82  O   UNL A   1      48.027  20.661  36.682  1.00  0.00    -0.744 OA
ENDBRANCH  78  79
ENDBRANCH  50  73
BRANCH  62  83
ATOM     83  C   UNL A   1      46.231  29.385  42.369  1.00  0.00    -0.014 A 
ATOM     84  C   UNL A   1      47.514  29.927  42.562  1.00  0.00     0.010 A 
ATOM     85  C   UNL A   1      45.591  28.741  43.444  1.00  0.00     0.010 A 
ATOM     86  C   UNL A   1      48.155  29.795  43.796  1.00  0.00     0.020 A 
ATOM     87  C   UNL A   1      46.213  28.637  44.688  1.00  0.00     0.020 A 
ATOM     88  C   UNL A   1      47.501  29.152  44.852  1.00  0.00     0.054 A 
BRANCH  88  89
ATOM     89  S   UNL A   1      48.337  29.032  46.456  1.00  0.00     0.124 S 
ATOM     90  O   UNL A   1      48.111  30.362  47.017  1.00  0.00    -0.237 OA
ATOM     91  O   UNL A   1      47.618  27.942  47.111  1.00  0.00    -0.237 OA
ATOM     92  O   UNL A   1      49.723  28.733  46.103  1.00  0.00    -0.744 OA
ENDBRANCH  88  89
ENDBRANCH  62  83
ENDBRANCH  36  37
ENDBRANCH  29  31
ENDBRANCH  28  29
ENDBRANCH  27  28
ENDBRANCH  26  27
ENDBRANCH  25  26
ENDBRANCH  24  25
ENDBRANCH  23  24
ENDBRANCH  22  23
ENDBRANCH   1  22
TORSDOF 28
ENDMDL
MODEL 3
REMARK VINA RESULT:      -6.2      4.160     15.949
REMARK SMILES C[C@@H](CO)CS[C@@H](C)C[C@@](C)([NH3+])C(=O)OCCOCCOCCOC(=O)c1ccc(-c2c3nc(c(-c4ccc(S(=O)(=O)[O-])cc4)c4ccc([nH]4)c(-c4ccc(S(=O)(=O)[O-])cc4)c4nc(c(-c5ccc(S(=O)(=O)[O-])cc5)c5ccc2[nH]5)C=C4)C=C3)cc1
REMARK SMILES IDX 17 1 16 2 15 3 13 4 14 5 10 6 11 7 9 8 7 9 8 10 6 11 5 12
REMARK SMILES IDX 2 13 1 14 3 15 4 16 12 18 18 22 19 23 20 24 21 25 22 26
REMARK SMILES IDX 23 27 24 28 25 29 26 30 27 31 28 32 86 33 29 34 85 35 30 36
REMARK SMILES IDX 31 37 32 38 79 39 33 40 84 41 78 42 80 43 34 44 83 45 77 46
REMARK SMILES IDX 76 47 35 49 65 50 46 51 64 52 47 53 50 54 63 55 81 56 48 57
REMARK SMILES IDX 49 58 62 60 82 61 51 62 36 63 37 64 45 65 38 66 44 67 39 68
REMARK SMILES IDX 40 69 41 70 42 71 43 72 66 73 67 74 75 75 68 76 74 77 69 78
REMARK SMILES IDX 70 79 71 80 72 81 73 82 52 83 53 84 61 85 54 86 60 87 55 88
REMARK SMILES IDX 56 89 57 90 58 91 59 92
REMARK H PARENT 4 17 12 19 12 20 12 21 80 48 50 59
REMARK Flexibility Score: inf
ROOT
ATOM      1  C   UNL A   1      35.011  37.423  46.289  1.00  0.00     0.202 C 
ENDROOT
BRANCH   1   2
ATOM      2  C   UNL A   1      33.491  37.298  46.008  1.00  0.00     0.261 C 
BRANCH   2   3
ATOM      3  O   UNL A   1      33.193  36.622  44.782  1.00  0.00    -0.459 OA
BRANCH   3   4
ATOM      4  C   UNL A   1      32.222  35.678  44.709  1.00  0.00     0.367 C 
ATOM      5  O   UNL A   1      31.025  35.923  44.796  1.00  0.00    -0.245 OA
BRANCH   4   6
ATOM      6  C   UNL A   1      32.842  34.244  44.629  1.00  0.00     0.191 C 
ATOM      7  C   UNL A   1      31.676  33.265  44.819  1.00  0.00     0.092 C 
BRANCH   6   8
ATOM      8  C   UNL A   1      33.688  33.903  43.368  1.00  0.00     0.094 C 
BRANCH   8   9
ATOM      9  C   UNL A   1      35.008  33.084  43.416  1.00  0.00     0.050 C 
ATOM     10  C   UNL A   1      36.049  33.677  42.454  1.00  0.00     0.019 C 
BRANCH   9  11
ATOM     11  S   UNL A   1      34.895  31.239  43.296  1.00  0.00    -0.158 SA
BRANCH  11  12
ATOM     12  C   UNL A   1      35.004  30.550  44.999  1.00  0.00     0.075 C 
BRANCH  12  13
ATOM     13  C   UNL A   1      36.372  29.921  45.282  1.00  0.00     0.021 C 
ATOM     14  C   UNL A   1      37.438  30.520  44.388  1.00  0.00     0.011 C 
BRANCH  13  15
ATOM     15  C   UNL A   1      36.781  30.033  46.756  1.00  0.00     0.160 C 
BRANCH  15  16
ATOM     16  O   UNL A   1      37.900  29.222  47.068  1.00  0.00    -0.396 OA
ATOM     17  H   UNL A   1      37.991  28.526  46.400  1.00  0.00     0.210 HD
ENDBRANCH  15  16
ENDBRANCH  13  15
ENDBRANCH  12  13
ENDBRANCH  11  12
ENDBRANCH   9  11
ENDBRANCH   8   9
ENDBRANCH   6   8
BRANCH   6  18
ATOM     18  N   UNL A   1      33.756  33.967  45.793  1.00  0.00    -0.344 N 
ATOM     19  H   UNL A   1      33.728  32.973  46.018  1.00  0.00     0.345 HD
ATOM     20  H   UNL A   1      33.448  34.506  46.602  1.00  0.00     0.345 HD
ATOM     21  H   UNL A   1      34.709  34.234  45.548  1.00  0.00     0.345 HD
ENDBRANCH   6  18
ENDBRANCH   4   6
ENDBRANCH   3   4
ENDBRANCH   2   3
ENDBRANCH   1   2
BRANCH   1  22
ATOM     22  O   UNL A   1      35.844  36.285  46.542  1.00  0.00    -0.376 OA
BRANCH  22  23
ATOM     23  C   UNL A   1      36.620  35.800  45.451  1.00  0.00     0.188 C 
BRANCH  23  24
ATOM     24  C   UNL A   1      37.591  34.700  45.835  1.00  0.00     0.188 C 
BRANCH  24  25
ATOM     25  O   UNL A   1      38.569  34.407  44.840  1.00  0.00    -0.376 OA
BRANCH  25  26
ATOM     26  C   UNL A   1      39.702  35.263  44.866  1.00  0.00     0.202 C 
BRANCH  26  27
ATOM     27  C   UNL A   1      39.743  36.371  43.802  1.00  0.00     0.261 C 
BRANCH  27  28
ATOM     28  O   UNL A   1      38.887  36.191  42.661  1.00  0.00    -0.460 OA
BRANCH  28  29
ATOM     29  C   UNL A   1      39.246  36.874  41.539  1.00  0.00     0.338 C 
ATOM     30  O   UNL A   1      39.344  38.086  41.416  1.00  0.00    -0.246 OA
BRANCH  29  31
ATOM     31  C   UNL A   1      39.637  35.903  40.486  1.00  0.00     0.060 A 
ATOM     32  C   UNL A   1      40.261  36.363  39.316  1.00  0.00     0.016 A 
ATOM     33  C   UNL A   1      39.398  34.536  40.648  1.00  0.00     0.016 A 
ATOM     34  C   UNL A   1      40.671  35.453  38.325  1.00  0.00     0.010 A 
ATOM     35  C   UNL A   1      39.795  33.631  39.652  1.00  0.00     0.010 A 
ATOM     36  C   UNL A   1      40.440  34.076  38.481  1.00  0.00    -0.014 A 
BRANCH  36  37
ATOM     37  C   UNL A   1      40.565  33.143  37.320  1.00  0.00     0.031 A 
ATOM     38  C   UNL A   1      39.466  33.237  36.292  1.00  0.00     0.074 A 
ATOM     39  C   UNL A   1      41.544  32.226  37.155  1.00  0.00     0.049 A 
ATOM     40  N   UNL A   1      39.287  32.540  35.202  1.00  0.00    -0.248 NA
ATOM     41  C   UNL A   1      38.425  34.251  36.541  1.00  0.00     0.031 C 
ATOM     42  C   UNL A   1      42.688  32.007  38.029  1.00  0.00     0.029 A 
ATOM     43  N   UNL A   1      41.719  31.272  36.173  1.00  0.00    -0.354 N 
ATOM     44  C   UNL A   1      38.124  33.042  34.630  1.00  0.00     0.074 A 
ATOM     45  C   UNL A   1      37.608  34.055  35.521  1.00  0.00     0.031 C 
ATOM     46  C   UNL A   1      43.432  30.988  37.571  1.00  0.00     0.029 A 
ATOM     47  C   UNL A   1      42.812  30.454  36.369  1.00  0.00     0.049 A 
ATOM     48  H   UNL A   1      41.116  31.183  35.400  1.00  0.00     0.167 HD
ATOM     49  C   UNL A   1      37.541  32.710  33.457  1.00  0.00     0.031 A 
ATOM     50  C   UNL A   1      43.269  29.389  35.677  1.00  0.00     0.031 A 
ATOM     51  C   UNL A   1      38.011  31.671  32.589  1.00  0.00     0.049 A 
ATOM     52  C   UNL A   1      42.545  28.968  34.425  1.00  0.00     0.074 A 
ATOM     53  C   UNL A   1      37.484  31.260  31.379  1.00  0.00     0.029 A 
ATOM     54  N   UNL A   1      39.108  30.863  32.847  1.00  0.00    -0.354 N 
ATOM     55  N   UNL A   1      41.485  29.503  33.869  1.00  0.00    -0.248 NA
ATOM     56  C   UNL A   1      43.095  27.817  33.694  1.00  0.00     0.031 C 
ATOM     57  C   UNL A   1      38.224  30.162  30.934  1.00  0.00     0.029 A 
ATOM     58  C   UNL A   1      39.259  29.939  31.828  1.00  0.00     0.049 A 
ATOM     59  H   UNL A   1      39.692  30.936  33.637  1.00  0.00     0.167 HD
ATOM     60  C   UNL A   1      41.272  28.786  32.695  1.00  0.00     0.074 A 
ATOM     61  C   UNL A   1      42.316  27.784  32.622  1.00  0.00     0.031 C 
ATOM     62  C   UNL A   1      40.307  28.953  31.758  1.00  0.00     0.031 A 
BRANCH  49  63
ATOM     63  C   UNL A   1      36.306  33.478  33.080  1.00  0.00    -0.014 A 
ATOM     64  C   UNL A   1      36.402  34.712  32.409  1.00  0.00     0.010 A 
ATOM     65  C   UNL A   1      35.039  32.973  33.415  1.00  0.00     0.010 A 
ATOM     66  C   UNL A   1      35.252  35.450  32.124  1.00  0.00     0.020 A 
ATOM     67  C   UNL A   1      33.885  33.692  33.100  1.00  0.00     0.020 A 
ATOM     68  C   UNL A   1      34.001  34.935  32.474  1.00  0.00     0.054 A 
BRANCH  68  69
ATOM     69  S   UNL A   1      32.525  35.908  32.076  1.00  0.00     0.124 S 
ATOM     70  O   UNL A   1      32.769  37.142  32.819  1.00  0.00    -0.237 OA
ATOM     71  O   UNL A   1      32.602  36.024  30.622  1.00  0.00    -0.237 OA
ATOM     72  O   UNL A   1      31.423  35.089  32.576  1.00  0.00    -0.744 OA
ENDBRANCH  68  69
ENDBRANCH  49  63
BRANCH  50  73
ATOM     73  C   UNL A   1      44.484  28.641  36.129  1.00  0.00    -0.014 A 
ATOM     74  C   UNL A   1      44.366  27.514  36.963  1.00  0.00     0.010 A 
ATOM     75  C   UNL A   1      45.772  29.076  35.760  1.00  0.00     0.010 A 
ATOM     76  C   UNL A   1      45.505  26.859  37.446  1.00  0.00     0.020 A 
ATOM     77  C   UNL A   1      46.913  28.406  36.217  1.00  0.00     0.020 A 
ATOM     78  C   UNL A   1      46.773  27.310  37.070  1.00  0.00     0.054 A 
BRANCH  78  79
ATOM     79  S   UNL A   1      48.233  26.427  37.693  1.00  0.00     0.124 S 
ATOM     80  O   UNL A   1      48.461  27.081  38.978  1.00  0.00    -0.237 OA
ATOM     81  O   UNL A   1      47.759  25.047  37.761  1.00  0.00    -0.237 OA
ATOM     82  O   UNL A   1      49.249  26.682  36.673  1.00  0.00    -0.744 OA
ENDBRANCH  78  79
ENDBRANCH  50  73
BRANCH  62  83
ATOM     83  C   UNL A   1      40.364  28.082  30.531  1.00  0.00    -0.014 A 
ATOM     84  C   UNL A   1      39.349  27.156  30.232  1.00  0.00     0.010 A 
ATOM     85  C   UNL A   1      41.432  28.243  29.629  1.00  0.00     0.010 A 
ATOM     86  C   UNL A   1      39.422  26.383  29.071  1.00  0.00     0.020 A 
ATOM     87  C   UNL A   1      41.490  27.499  28.450  1.00  0.00     0.020 A 
ATOM     88  C   UNL A   1      40.491  26.560  28.187  1.00  0.00     0.054 A 
BRANCH  88  89
ATOM     89  S   UNL A   1      40.539  25.575  26.665  1.00  0.00     0.124 S 
ATOM     90  O   UNL A   1      39.196  25.001  26.632  1.00  0.00    -0.237 OA
ATOM     91  O   UNL A   1      40.819  26.580  25.643  1.00  0.00    -0.237 OA
ATOM     92  O   UNL A   1      41.618  24.620  26.904  1.00  0.00    -0.744 OA
ENDBRANCH  88  89
ENDBRANCH  62  83
ENDBRANCH  36  37
ENDBRANCH  29  31
ENDBRANCH  28  29
ENDBRANCH  27  28
ENDBRANCH  26  27
ENDBRANCH  25  26
ENDBRANCH  24  25
ENDBRANCH  23  24
ENDBRANCH  22  23
ENDBRANCH   1  22
TORSDOF 28
ENDMDL
