MODEL 1
REMARK VINA RESULT:      -9.2      0.000      0.000
REMARK SMILES CCc1ncc(C[N@H+]2CCC[C@@H](c3cccc(C(=O)OCCOCCOCCOC(=O)c4ccc(-c5c6nc(c(-c7ccc(S(=O)(=O)[O-])cc7)c7ccc([nH]7)c(-c7ccc(S(=O)(=O)[O-])cc7)c7nc(c(-c8ccc(S(=O)(=O)[O-])cc8)c8ccc5[nH]8)C=C7)C=C6)cc4)c3)C2)cn1
REMARK SMILES IDX 24 1 23 2 22 3 21 4 20 5 18 6 19 7 17 8 13 9 14 10 92 11
REMARK SMILES IDX 15 12 16 13 12 14 8 15 9 16 93 17 10 19 11 20 7 21 6 22 3 23
REMARK SMILES IDX 4 24 95 25 5 26 94 27 2 28 1 29 25 30 26 31 27 32 28 33
REMARK SMILES IDX 29 34 30 35 31 36 32 37 33 38 91 39 34 40 90 41 35 42 36 43
REMARK SMILES IDX 37 44 84 45 38 46 89 47 83 48 85 49 39 50 88 51 82 52 81 53
REMARK SMILES IDX 40 55 70 56 51 57 69 58 52 59 55 60 68 61 86 62 53 63 54 64
REMARK SMILES IDX 67 66 87 67 56 68 41 69 42 70 50 71 43 72 49 73 44 74 45 75
REMARK SMILES IDX 46 76 47 77 48 78 71 79 72 80 80 81 73 82 79 83 74 84 75 85
REMARK SMILES IDX 76 86 77 87 78 88 57 89 58 90 66 91 59 92 65 93 60 94 61 95
REMARK SMILES IDX 62 96 63 97 64 98
REMARK H PARENT 8 18 85 54 55 65
REMARK Flexibility Score: inf
ROOT
ATOM      1  C   UNL A   1      39.044  34.562  32.748  1.00  0.00     0.188 C 
ENDROOT
BRANCH   1   2
ATOM      2  O   UNL A   1      38.876  33.560  31.768  1.00  0.00    -0.376 OA
BRANCH   2   3
ATOM      3  C   UNL A   1      38.087  33.799  30.613  1.00  0.00     0.202 C 
BRANCH   3   4
ATOM      4  C   UNL A   1      36.547  33.833  30.585  1.00  0.00     0.261 C 
BRANCH   4   5
ATOM      5  O   UNL A   1      35.931  33.751  29.299  1.00  0.00    -0.460 OA
BRANCH   5   6
ATOM      6  C   UNL A   1      34.772  33.046  29.250  1.00  0.00     0.338 C 
ATOM      7  O   UNL A   1      33.671  33.412  29.630  1.00  0.00    -0.246 OA
BRANCH   6   8
ATOM      8  C   UNL A   1      34.993  31.823  28.450  1.00  0.00     0.060 A 
ATOM      9  C   UNL A   1      34.159  29.868  27.270  1.00  0.00    -0.038 A 
ATOM     10  C   UNL A   1      35.489  29.450  27.088  1.00  0.00     0.004 A 
ATOM     11  C   UNL A   1      33.920  31.059  27.977  1.00  0.00     0.020 A 
ATOM     12  C   UNL A   1      36.557  30.209  27.570  1.00  0.00     0.001 A 
ATOM     13  C   UNL A   1      36.310  31.406  28.236  1.00  0.00     0.016 A 
BRANCH   9  14
ATOM     14  C   UNL A   1      32.996  29.183  26.565  1.00  0.00     0.074 C 
ATOM     15  N   UNL A   1      32.624  27.660  24.578  1.00  0.00    -0.331 N 
ATOM     16  C   UNL A   1      31.850  26.738  25.419  1.00  0.00     0.262 C 
ATOM     17  C   UNL A   1      33.599  28.417  25.371  1.00  0.00     0.270 C 
ATOM     18  H   UNL A   1      31.951  28.319  24.189  1.00  0.00     0.348 HD
ATOM     19  C   UNL A   1      31.153  27.475  26.569  1.00  0.00     0.062 C 
ATOM     20  C   UNL A   1      32.158  28.236  27.436  1.00  0.00     0.020 C 
BRANCH  15  21
ATOM     21  C   UNL A   1      33.264  26.999  23.419  1.00  0.00     0.302 C 
BRANCH  21  22
ATOM     22  C   UNL A   1      33.449  25.511  23.518  1.00  0.00     0.043 A 
ATOM     23  C   UNL A   1      33.579  22.827  23.918  1.00  0.00     0.127 A 
ATOM     24  N   UNL A   1      32.662  23.286  23.044  1.00  0.00    -0.241 NA
ATOM     25  N   UNL A   1      34.487  23.595  24.543  1.00  0.00    -0.241 NA
ATOM     26  C   UNL A   1      32.623  24.621  22.866  1.00  0.00     0.124 A 
ATOM     27  C   UNL A   1      34.404  24.920  24.321  1.00  0.00     0.124 A 
BRANCH  23  28
ATOM     28  C   UNL A   1      33.568  21.360  24.240  1.00  0.00     0.074 C 
ATOM     29  C   UNL A   1      34.805  20.954  25.017  1.00  0.00     0.012 C 
ENDBRANCH  23  28
ENDBRANCH  21  22
ENDBRANCH  15  21
ENDBRANCH   9  14
ENDBRANCH   6   8
ENDBRANCH   5   6
ENDBRANCH   4   5
ENDBRANCH   3   4
ENDBRANCH   2   3
ENDBRANCH   1   2
BRANCH   1  30
ATOM     30  C   UNL A   1      38.352  34.396  34.116  1.00  0.00     0.188 C 
BRANCH  30  31
ATOM     31  O   UNL A   1      37.123  33.709  34.186  1.00  0.00    -0.376 OA
BRANCH  31  32
ATOM     32  C   UNL A   1      37.094  32.344  34.563  1.00  0.00     0.202 C 
BRANCH  32  33
ATOM     33  C   UNL A   1      38.197  31.305  34.276  1.00  0.00     0.261 C 
BRANCH  33  34
ATOM     34  O   UNL A   1      37.805  29.997  33.849  1.00  0.00    -0.460 OA
BRANCH  34  35
ATOM     35  C   UNL A   1      37.363  29.913  32.569  1.00  0.00     0.338 C 
ATOM     36  O   UNL A   1      36.276  30.258  32.140  1.00  0.00    -0.246 OA
BRANCH  35  37
ATOM     37  C   UNL A   1      38.481  29.493  31.703  1.00  0.00     0.060 A 
ATOM     38  C   UNL A   1      39.553  28.791  32.271  1.00  0.00     0.016 A 
ATOM     39  C   UNL A   1      38.490  29.832  30.351  1.00  0.00     0.016 A 
ATOM     40  C   UNL A   1      40.653  28.441  31.489  1.00  0.00     0.010 A 
ATOM     41  C   UNL A   1      39.603  29.501  29.574  1.00  0.00     0.010 A 
ATOM     42  C   UNL A   1      40.702  28.831  30.145  1.00  0.00    -0.014 A 
BRANCH  42  43
ATOM     43  C   UNL A   1      41.965  28.704  29.377  1.00  0.00     0.031 A 
ATOM     44  C   UNL A   1      42.288  27.377  28.744  1.00  0.00     0.074 A 
ATOM     45  C   UNL A   1      42.813  29.741  29.245  1.00  0.00     0.049 A 
ATOM     46  N   UNL A   1      43.365  27.004  28.103  1.00  0.00    -0.248 NA
ATOM     47  C   UNL A   1      41.259  26.329  28.855  1.00  0.00     0.031 C 
ATOM     48  C   UNL A   1      42.591  31.088  29.767  1.00  0.00     0.029 A 
ATOM     49  N   UNL A   1      44.043  29.811  28.639  1.00  0.00    -0.354 N 
ATOM     50  C   UNL A   1      43.151  25.676  27.750  1.00  0.00     0.074 A 
ATOM     51  C   UNL A   1      41.855  25.302  28.271  1.00  0.00     0.031 C 
ATOM     52  C   UNL A   1      43.659  31.849  29.471  1.00  0.00     0.029 A 
ATOM     53  C   UNL A   1      44.655  31.033  28.777  1.00  0.00     0.049 A 
ATOM     54  H   UNL A   1      44.447  29.058  28.152  1.00  0.00     0.167 HD
ATOM     55  C   UNL A   1      43.962  24.843  27.055  1.00  0.00     0.031 A 
ATOM     56  C   UNL A   1      45.889  31.439  28.411  1.00  0.00     0.031 A 
ATOM     57  C   UNL A   1      45.259  25.216  26.555  1.00  0.00     0.049 A 
ATOM     58  C   UNL A   1      46.808  30.470  27.709  1.00  0.00     0.074 A 
ATOM     59  C   UNL A   1      46.150  24.448  25.825  1.00  0.00     0.029 A 
ATOM     60  N   UNL A   1      45.855  26.454  26.739  1.00  0.00    -0.354 N 
ATOM     61  N   UNL A   1      46.585  29.224  27.362  1.00  0.00    -0.248 NA
ATOM     62  C   UNL A   1      48.143  30.965  27.344  1.00  0.00     0.031 C 
ATOM     63  C   UNL A   1      47.312  25.201  25.627  1.00  0.00     0.029 A 
ATOM     64  C   UNL A   1      47.115  26.463  26.164  1.00  0.00     0.049 A 
ATOM     65  H   UNL A   1      45.444  27.215  27.210  1.00  0.00     0.167 HD
ATOM     66  C   UNL A   1      47.739  28.800  26.706  1.00  0.00     0.074 A 
ATOM     67  C   UNL A   1      48.650  29.925  26.696  1.00  0.00     0.031 C 
ATOM     68  C   UNL A   1      48.013  27.591  26.155  1.00  0.00     0.031 A 
BRANCH  55  69
ATOM     69  C   UNL A   1      43.487  23.431  26.833  1.00  0.00    -0.014 A 
ATOM     70  C   UNL A   1      43.238  22.936  25.540  1.00  0.00     0.010 A 
ATOM     71  C   UNL A   1      43.322  22.573  27.935  1.00  0.00     0.010 A 
ATOM     72  C   UNL A   1      42.796  21.623  25.357  1.00  0.00     0.020 A 
ATOM     73  C   UNL A   1      42.912  21.250  27.756  1.00  0.00     0.020 A 
ATOM     74  C   UNL A   1      42.637  20.788  26.468  1.00  0.00     0.054 A 
BRANCH  74  75
ATOM     75  S   UNL A   1      42.088  19.081  26.198  1.00  0.00     0.124 S 
ATOM     76  O   UNL A   1      43.032  18.617  25.183  1.00  0.00    -0.237 OA
ATOM     77  O   UNL A   1      42.246  18.482  27.521  1.00  0.00    -0.237 OA
ATOM     78  O   UNL A   1      40.708  19.225  25.744  1.00  0.00    -0.744 OA
ENDBRANCH  74  75
ENDBRANCH  55  69
BRANCH  56  79
ATOM     79  C   UNL A   1      46.341  32.824  28.721  1.00  0.00    -0.014 A 
ATOM     80  C   UNL A   1      46.917  33.132  29.967  1.00  0.00     0.010 A 
ATOM     81  C   UNL A   1      46.191  33.851  27.770  1.00  0.00     0.010 A 
ATOM     82  C   UNL A   1      47.315  34.439  30.262  1.00  0.00     0.020 A 
ATOM     83  C   UNL A   1      46.618  35.153  28.048  1.00  0.00     0.020 A 
ATOM     84  C   UNL A   1      47.168  35.441  29.298  1.00  0.00     0.054 A 
BRANCH  84  85
ATOM     85  S   UNL A   1      47.738  37.118  29.688  1.00  0.00     0.124 S 
ATOM     86  O   UNL A   1      47.363  37.248  31.093  1.00  0.00    -0.237 OA
ATOM     87  O   UNL A   1      49.171  37.033  29.420  1.00  0.00    -0.237 OA
ATOM     88  O   UNL A   1      46.985  37.960  28.760  1.00  0.00    -0.744 OA
ENDBRANCH  84  85
ENDBRANCH  56  79
BRANCH  68  89
ATOM     89  C   UNL A   1      49.333  27.425  25.444  1.00  0.00    -0.014 A 
ATOM     90  C   UNL A   1      50.513  27.112  26.142  1.00  0.00     0.010 A 
ATOM     91  C   UNL A   1      49.375  27.520  24.040  1.00  0.00     0.010 A 
ATOM     92  C   UNL A   1      51.715  26.925  25.451  1.00  0.00     0.020 A 
ATOM     93  C   UNL A   1      50.567  27.303  23.343  1.00  0.00     0.020 A 
ATOM     94  C   UNL A   1      51.733  27.019  24.055  1.00  0.00     0.054 A 
BRANCH  94  95
ATOM     95  S   UNL A   1      53.294  26.725  23.180  1.00  0.00     0.124 S 
ATOM     96  O   UNL A   1      53.542  25.314  23.465  1.00  0.00    -0.237 OA
ATOM     97  O   UNL A   1      52.948  27.034  21.794  1.00  0.00    -0.237 OA
ATOM     98  O   UNL A   1      54.226  27.659  23.807  1.00  0.00    -0.744 OA
ENDBRANCH  94  95
ENDBRANCH  68  89
ENDBRANCH  42  43
ENDBRANCH  35  37
ENDBRANCH  34  35
ENDBRANCH  33  34
ENDBRANCH  32  33
ENDBRANCH  31  32
ENDBRANCH  30  31
ENDBRANCH   1  30
TORSDOF 24
ENDMDL
MODEL 2
REMARK VINA RESULT:      -9.0      3.634      9.995
REMARK SMILES CCc1ncc(C[N@H+]2CCC[C@@H](c3cccc(C(=O)OCCOCCOCCOC(=O)c4ccc(-c5c6nc(c(-c7ccc(S(=O)(=O)[O-])cc7)c7ccc([nH]7)c(-c7ccc(S(=O)(=O)[O-])cc7)c7nc(c(-c8ccc(S(=O)(=O)[O-])cc8)c8ccc5[nH]8)C=C7)C=C6)cc4)c3)C2)cn1
REMARK SMILES IDX 24 1 23 2 22 3 21 4 20 5 18 6 19 7 17 8 13 9 14 10 92 11
REMARK SMILES IDX 15 12 16 13 12 14 8 15 9 16 93 17 10 19 11 20 7 21 6 22 3 23
REMARK SMILES IDX 4 24 95 25 5 26 94 27 2 28 1 29 25 30 26 31 27 32 28 33
REMARK SMILES IDX 29 34 30 35 31 36 32 37 33 38 91 39 34 40 90 41 35 42 36 43
REMARK SMILES IDX 37 44 84 45 38 46 89 47 83 48 85 49 39 50 88 51 82 52 81 53
REMARK SMILES IDX 40 55 70 56 51 57 69 58 52 59 55 60 68 61 86 62 53 63 54 64
REMARK SMILES IDX 67 66 87 67 56 68 41 69 42 70 50 71 43 72 49 73 44 74 45 75
REMARK SMILES IDX 46 76 47 77 48 78 71 79 72 80 80 81 73 82 79 83 74 84 75 85
REMARK SMILES IDX 76 86 77 87 78 88 57 89 58 90 66 91 59 92 65 93 60 94 61 95
REMARK SMILES IDX 62 96 63 97 64 98
REMARK H PARENT 8 18 85 54 55 65
REMARK Flexibility Score: inf
ROOT
ATOM      1  C   UNL A   1      40.948  24.973  27.164  1.00  0.00     0.188 C 
ENDROOT
BRANCH   1   2
ATOM      2  O   UNL A   1      39.747  24.763  26.453  1.00  0.00    -0.376 OA
BRANCH   2   3
ATOM      3  C   UNL A   1      39.177  23.467  26.355  1.00  0.00     0.202 C 
BRANCH   3   4
ATOM      4  C   UNL A   1      37.702  23.173  26.019  1.00  0.00     0.261 C 
BRANCH   4   5
ATOM      5  O   UNL A   1      37.460  22.363  24.868  1.00  0.00    -0.460 OA
BRANCH   5   6
ATOM      6  C   UNL A   1      36.562  22.861  23.980  1.00  0.00     0.338 C 
ATOM      7  O   UNL A   1      36.780  23.217  22.833  1.00  0.00    -0.246 OA
BRANCH   6   8
ATOM      8  C   UNL A   1      35.203  22.704  24.540  1.00  0.00     0.060 A 
ATOM      9  C   UNL A   1      33.268  23.585  25.719  1.00  0.00    -0.038 A 
ATOM     10  C   UNL A   1      32.713  22.292  25.710  1.00  0.00     0.004 A 
ATOM     11  C   UNL A   1      34.535  23.776  25.142  1.00  0.00     0.020 A 
ATOM     12  C   UNL A   1      33.387  21.223  25.118  1.00  0.00     0.001 A 
ATOM     13  C   UNL A   1      34.624  21.431  24.516  1.00  0.00     0.016 A 
BRANCH   9  14
ATOM     14  C   UNL A   1      32.463  24.802  26.152  1.00  0.00     0.074 C 
ATOM     15  N   UNL A   1      32.493  27.309  25.804  1.00  0.00    -0.331 N 
ATOM     16  C   UNL A   1      31.076  27.281  25.419  1.00  0.00     0.262 C 
ATOM     17  C   UNL A   1      33.150  26.029  25.521  1.00  0.00     0.270 C 
ATOM     18  H   UNL A   1      32.507  27.457  26.813  1.00  0.00     0.348 HD
ATOM     19  C   UNL A   1      30.329  26.129  26.100  1.00  0.00     0.062 C 
ATOM     20  C   UNL A   1      30.973  24.778  25.781  1.00  0.00     0.020 C 
BRANCH  15  21
ATOM     21  C   UNL A   1      33.238  28.444  25.216  1.00  0.00     0.302 C 
BRANCH  21  22
ATOM     22  C   UNL A   1      33.831  29.427  26.185  1.00  0.00     0.043 A 
ATOM     23  C   UNL A   1      34.780  31.037  28.157  1.00  0.00     0.127 A 
ATOM     24  N   UNL A   1      35.545  29.995  27.778  1.00  0.00    -0.241 NA
ATOM     25  N   UNL A   1      33.620  31.384  27.573  1.00  0.00    -0.241 NA
ATOM     26  C   UNL A   1      35.048  29.215  26.798  1.00  0.00     0.124 A 
ATOM     27  C   UNL A   1      33.177  30.572  26.595  1.00  0.00     0.124 A 
BRANCH  23  28
ATOM     28  C   UNL A   1      35.238  31.853  29.332  1.00  0.00     0.074 C 
ATOM     29  C   UNL A   1      34.290  33.002  29.614  1.00  0.00     0.012 C 
ENDBRANCH  23  28
ENDBRANCH  21  22
ENDBRANCH  15  21
ENDBRANCH   9  14
ENDBRANCH   6   8
ENDBRANCH   5   6
ENDBRANCH   4   5
ENDBRANCH   3   4
ENDBRANCH   2   3
ENDBRANCH   1   2
BRANCH   1  30
ATOM     30  C   UNL A   1      42.211  25.401  26.391  1.00  0.00     0.188 C 
BRANCH  30  31
ATOM     31  O   UNL A   1      42.787  24.508  25.466  1.00  0.00    -0.376 OA
BRANCH  31  32
ATOM     32  C   UNL A   1      42.878  23.128  25.774  1.00  0.00     0.202 C 
BRANCH  32  33
ATOM     33  C   UNL A   1      44.055  22.440  26.496  1.00  0.00     0.261 C 
BRANCH  33  34
ATOM     34  O   UNL A   1      44.941  23.250  27.275  1.00  0.00    -0.460 OA
BRANCH  34  35
ATOM     35  C   UNL A   1      46.028  23.720  26.614  1.00  0.00     0.338 C 
ATOM     36  O   UNL A   1      46.715  23.121  25.805  1.00  0.00    -0.246 OA
BRANCH  35  37
ATOM     37  C   UNL A   1      46.170  25.162  26.889  1.00  0.00     0.060 A 
ATOM     38  C   UNL A   1      46.630  25.571  28.148  1.00  0.00     0.016 A 
ATOM     39  C   UNL A   1      45.804  26.102  25.926  1.00  0.00     0.016 A 
ATOM     40  C   UNL A   1      46.708  26.929  28.457  1.00  0.00     0.010 A 
ATOM     41  C   UNL A   1      45.860  27.461  26.246  1.00  0.00     0.010 A 
ATOM     42  C   UNL A   1      46.284  27.880  27.521  1.00  0.00    -0.014 A 
BRANCH  42  43
ATOM     43  C   UNL A   1      46.109  29.297  27.925  1.00  0.00     0.031 A 
ATOM     44  C   UNL A   1      44.833  29.692  28.619  1.00  0.00     0.074 A 
ATOM     45  C   UNL A   1      47.059  30.218  27.679  1.00  0.00     0.049 A 
ATOM     46  N   UNL A   1      44.422  30.878  28.986  1.00  0.00    -0.248 NA
ATOM     47  C   UNL A   1      43.894  28.603  28.936  1.00  0.00     0.031 C 
ATOM     48  C   UNL A   1      48.356  29.953  27.059  1.00  0.00     0.029 A 
ATOM     49  N   UNL A   1      47.065  31.571  27.910  1.00  0.00    -0.354 N 
ATOM     50  C   UNL A   1      43.171  30.680  29.560  1.00  0.00     0.074 A 
ATOM     51  C   UNL A   1      42.881  29.267  29.469  1.00  0.00     0.031 C 
ATOM     52  C   UNL A   1      49.029  31.112  26.947  1.00  0.00     0.029 A 
ATOM     53  C   UNL A   1      48.194  32.204  27.447  1.00  0.00     0.049 A 
ATOM     54  H   UNL A   1      46.332  32.044  28.366  1.00  0.00     0.167 HD
ATOM     55  C   UNL A   1      42.339  31.595  30.113  1.00  0.00     0.031 A 
ATOM     56  C   UNL A   1      48.504  33.516  27.403  1.00  0.00     0.031 A 
ATOM     57  C   UNL A   1      42.626  33.003  30.186  1.00  0.00     0.049 A 
ATOM     58  C   UNL A   1      47.527  34.526  27.951  1.00  0.00     0.074 A 
ATOM     59  C   UNL A   1      41.853  34.008  30.741  1.00  0.00     0.029 A 
ATOM     60  N   UNL A   1      43.766  33.608  29.680  1.00  0.00    -0.354 N 
ATOM     61  N   UNL A   1      46.358  34.324  28.512  1.00  0.00    -0.248 NA
ATOM     62  C   UNL A   1      47.916  35.941  27.868  1.00  0.00     0.031 C 
ATOM     63  C   UNL A   1      42.496  35.229  30.511  1.00  0.00     0.029 A 
ATOM     64  C   UNL A   1      43.705  34.977  29.882  1.00  0.00     0.049 A 
ATOM     65  H   UNL A   1      44.510  33.134  29.241  1.00  0.00     0.167 HD
ATOM     66  C   UNL A   1      45.890  35.584  28.879  1.00  0.00     0.074 A 
ATOM     67  C   UNL A   1      46.906  36.536  28.487  1.00  0.00     0.031 C 
ATOM     68  C   UNL A   1      44.726  35.917  29.492  1.00  0.00     0.031 A 
BRANCH  55  69
ATOM     69  C   UNL A   1      41.018  31.104  30.646  1.00  0.00    -0.014 A 
ATOM     70  C   UNL A   1      40.884  30.655  31.973  1.00  0.00     0.010 A 
ATOM     71  C   UNL A   1      39.883  31.127  29.815  1.00  0.00     0.010 A 
ATOM     72  C   UNL A   1      39.649  30.204  32.445  1.00  0.00     0.020 A 
ATOM     73  C   UNL A   1      38.639  30.708  30.293  1.00  0.00     0.020 A 
ATOM     74  C   UNL A   1      38.534  30.233  31.601  1.00  0.00     0.054 A 
BRANCH  74  75
ATOM     75  S   UNL A   1      36.938  29.666  32.250  1.00  0.00     0.124 S 
ATOM     76  O   UNL A   1      36.275  29.181  31.040  1.00  0.00    -0.237 OA
ATOM     77  O   UNL A   1      37.331  28.633  33.206  1.00  0.00    -0.237 OA
ATOM     78  O   UNL A   1      36.354  30.867  32.840  1.00  0.00    -0.744 OA
ENDBRANCH  74  75
ENDBRANCH  55  69
BRANCH  56  79
ATOM     79  C   UNL A   1      49.792  33.958  26.797  1.00  0.00    -0.014 A 
ATOM     80  C   UNL A   1      50.977  33.973  27.554  1.00  0.00     0.010 A 
ATOM     81  C   UNL A   1      49.839  34.377  25.453  1.00  0.00     0.010 A 
ATOM     82  C   UNL A   1      52.177  34.413  26.987  1.00  0.00     0.020 A 
ATOM     83  C   UNL A   1      51.042  34.787  24.873  1.00  0.00     0.020 A 
ATOM     84  C   UNL A   1      52.203  34.814  25.648  1.00  0.00     0.054 A 
BRANCH  84  85
ATOM     85  S   UNL A   1      53.782  35.334  24.923  1.00  0.00     0.124 S 
ATOM     86  O   UNL A   1      54.417  34.054  24.627  1.00  0.00    -0.237 OA
ATOM     87  O   UNL A   1      53.355  36.113  23.765  1.00  0.00    -0.237 OA
ATOM     88  O   UNL A   1      54.410  36.110  25.991  1.00  0.00    -0.744 OA
ENDBRANCH  84  85
ENDBRANCH  56  79
BRANCH  68  89
ATOM     89  C   UNL A   1      44.502  37.370  29.831  1.00  0.00    -0.014 A 
ATOM     90  C   UNL A   1      43.957  38.270  28.898  1.00  0.00     0.010 A 
ATOM     91  C   UNL A   1      44.780  37.824  31.135  1.00  0.00     0.010 A 
ATOM     92  C   UNL A   1      43.724  39.603  29.254  1.00  0.00     0.020 A 
ATOM     93  C   UNL A   1      44.518  39.145  31.504  1.00  0.00     0.020 A 
ATOM     94  C   UNL A   1      44.003  40.030  30.557  1.00  0.00     0.054 A 
BRANCH  94  95
ATOM     95  S   UNL A   1      43.646  41.751  31.006  1.00  0.00     0.124 S 
ATOM     96  O   UNL A   1      44.479  41.936  32.192  1.00  0.00    -0.237 OA
ATOM     97  O   UNL A   1      44.071  42.487  29.818  1.00  0.00    -0.237 OA
ATOM     98  O   UNL A   1      42.206  41.754  31.252  1.00  0.00    -0.744 OA
ENDBRANCH  94  95
ENDBRANCH  68  89
ENDBRANCH  42  43
ENDBRANCH  35  37
ENDBRANCH  34  35
ENDBRANCH  33  34
ENDBRANCH  32  33
ENDBRANCH  31  32
ENDBRANCH  30  31
ENDBRANCH   1  30
TORSDOF 24
ENDMDL
MODEL 3
REMARK VINA RESULT:      -9.0      3.961     10.091
REMARK SMILES CCc1ncc(C[N@H+]2CCC[C@@H](c3cccc(C(=O)OCCOCCOCCOC(=O)c4ccc(-c5c6nc(c(-c7ccc(S(=O)(=O)[O-])cc7)c7ccc([nH]7)c(-c7ccc(S(=O)(=O)[O-])cc7)c7nc(c(-c8ccc(S(=O)(=O)[O-])cc8)c8ccc5[nH]8)C=C7)C=C6)cc4)c3)C2)cn1
REMARK SMILES IDX 24 1 23 2 22 3 21 4 20 5 18 6 19 7 17 8 13 9 14 10 92 11
REMARK SMILES IDX 15 12 16 13 12 14 8 15 9 16 93 17 10 19 11 20 7 21 6 22 3 23
REMARK SMILES IDX 4 24 95 25 5 26 94 27 2 28 1 29 25 30 26 31 27 32 28 33
REMARK SMILES IDX 29 34 30 35 31 36 32 37 33 38 91 39 34 40 90 41 35 42 36 43
REMARK SMILES IDX 37 44 84 45 38 46 89 47 83 48 85 49 39 50 88 51 82 52 81 53
REMARK SMILES IDX 40 55 70 56 51 57 69 58 52 59 55 60 68 61 86 62 53 63 54 64
REMARK SMILES IDX 67 66 87 67 56 68 41 69 42 70 50 71 43 72 49 73 44 74 45 75
REMARK SMILES IDX 46 76 47 77 48 78 71 79 72 80 80 81 73 82 79 83 74 84 75 85
REMARK SMILES IDX 76 86 77 87 78 88 57 89 58 90 66 91 59 92 65 93 60 94 61 95
REMARK SMILES IDX 62 96 63 97 64 98
REMARK H PARENT 8 18 85 54 55 65
REMARK Flexibility Score: inf
ROOT
ATOM      1  C   UNL A   1      40.894  24.895  27.103  1.00  0.00     0.188 C 
ENDROOT
BRANCH   1   2
ATOM      2  O   UNL A   1      39.623  24.740  26.511  1.00  0.00    -0.376 OA
BRANCH   2   3
ATOM      3  C   UNL A   1      38.991  23.471  26.466  1.00  0.00     0.202 C 
BRANCH   3   4
ATOM      4  C   UNL A   1      37.566  23.211  25.941  1.00  0.00     0.261 C 
BRANCH   4   5
ATOM      5  O   UNL A   1      37.453  22.377  24.787  1.00  0.00    -0.460 OA
BRANCH   5   6
ATOM      6  C   UNL A   1      36.507  22.747  23.887  1.00  0.00     0.338 C 
ATOM      7  O   UNL A   1      36.680  23.039  22.714  1.00  0.00    -0.246 OA
BRANCH   6   8
ATOM      8  C   UNL A   1      35.172  22.531  24.484  1.00  0.00     0.060 A 
ATOM      9  C   UNL A   1      33.123  23.373  25.484  1.00  0.00    -0.038 A 
ATOM     10  C   UNL A   1      32.741  22.045  25.745  1.00  0.00     0.004 A 
ATOM     11  C   UNL A   1      34.362  23.607  24.864  1.00  0.00     0.020 A 
ATOM     12  C   UNL A   1      33.556  20.975  25.374  1.00  0.00     0.001 A 
ATOM     13  C   UNL A   1      34.764  21.216  24.727  1.00  0.00     0.016 A 
BRANCH   9  14
ATOM     14  C   UNL A   1      32.160  24.538  25.671  1.00  0.00     0.074 C 
ATOM     15  N   UNL A   1      31.028  26.302  24.251  1.00  0.00    -0.331 N 
ATOM     16  C   UNL A   1      29.726  25.938  24.824  1.00  0.00     0.262 C 
ATOM     17  C   UNL A   1      31.959  25.168  24.279  1.00  0.00     0.270 C 
ATOM     18  H   UNL A   1      31.404  27.036  24.850  1.00  0.00     0.348 HD
ATOM     19  C   UNL A   1      29.869  25.393  26.250  1.00  0.00     0.062 C 
ATOM     20  C   UNL A   1      30.803  24.182  26.294  1.00  0.00     0.020 C 
BRANCH  15  21
ATOM     21  C   UNL A   1      30.929  26.890  22.897  1.00  0.00     0.302 C 
BRANCH  21  22
ATOM     22  C   UNL A   1      30.131  28.157  22.777  1.00  0.00     0.043 A 
ATOM     23  C   UNL A   1      28.595  30.345  22.290  1.00  0.00     0.127 A 
ATOM     24  N   UNL A   1      28.011  29.292  22.894  1.00  0.00    -0.241 NA
ATOM     25  N   UNL A   1      29.902  30.420  21.988  1.00  0.00    -0.241 NA
ATOM     26  C   UNL A   1      28.798  28.222  23.123  1.00  0.00     0.124 A 
ATOM     27  C   UNL A   1      30.641  29.324  22.246  1.00  0.00     0.124 A 
BRANCH  23  28
ATOM     28  C   UNL A   1      27.723  31.504  21.903  1.00  0.00     0.074 C 
ATOM     29  C   UNL A   1      28.030  31.984  20.497  1.00  0.00     0.012 C 
ENDBRANCH  23  28
ENDBRANCH  21  22
ENDBRANCH  15  21
ENDBRANCH   9  14
ENDBRANCH   6   8
ENDBRANCH   5   6
ENDBRANCH   4   5
ENDBRANCH   3   4
ENDBRANCH   2   3
ENDBRANCH   1   2
BRANCH   1  30
ATOM     30  C   UNL A   1      42.057  25.442  26.250  1.00  0.00     0.188 C 
BRANCH  30  31
ATOM     31  O   UNL A   1      42.707  24.583  25.342  1.00  0.00    -0.376 OA
BRANCH  31  32
ATOM     32  C   UNL A   1      42.854  23.207  25.647  1.00  0.00     0.202 C 
BRANCH  32  33
ATOM     33  C   UNL A   1      44.037  22.573  26.407  1.00  0.00     0.261 C 
BRANCH  33  34
ATOM     34  O   UNL A   1      44.897  23.430  27.163  1.00  0.00    -0.460 OA
BRANCH  34  35
ATOM     35  C   UNL A   1      45.969  23.917  26.489  1.00  0.00     0.338 C 
ATOM     36  O   UNL A   1      46.652  23.330  25.669  1.00  0.00    -0.246 OA
BRANCH  35  37
ATOM     37  C   UNL A   1      46.094  25.360  26.768  1.00  0.00     0.060 A 
ATOM     38  C   UNL A   1      46.583  25.771  28.015  1.00  0.00     0.016 A 
ATOM     39  C   UNL A   1      45.686  26.298  25.820  1.00  0.00     0.016 A 
ATOM     40  C   UNL A   1      46.647  27.129  28.329  1.00  0.00     0.010 A 
ATOM     41  C   UNL A   1      45.730  27.656  26.144  1.00  0.00     0.010 A 
ATOM     42  C   UNL A   1      46.182  28.077  27.409  1.00  0.00    -0.014 A 
BRANCH  42  43
ATOM     43  C   UNL A   1      45.995  29.489  27.825  1.00  0.00     0.031 A 
ATOM     44  C   UNL A   1      44.719  29.866  28.528  1.00  0.00     0.074 A 
ATOM     45  C   UNL A   1      46.935  30.421  27.581  1.00  0.00     0.049 A 
ATOM     46  N   UNL A   1      44.299  31.045  28.906  1.00  0.00    -0.248 NA
ATOM     47  C   UNL A   1      43.793  28.766  28.841  1.00  0.00     0.031 C 
ATOM     48  C   UNL A   1      48.232  30.173  26.953  1.00  0.00     0.029 A 
ATOM     49  N   UNL A   1      46.930  31.772  27.823  1.00  0.00    -0.354 N 
ATOM     50  C   UNL A   1      43.052  30.831  29.485  1.00  0.00     0.074 A 
ATOM     51  C   UNL A   1      42.775  29.416  29.384  1.00  0.00     0.031 C 
ATOM     52  C   UNL A   1      48.893  31.339  26.846  1.00  0.00     0.029 A 
ATOM     53  C   UNL A   1      48.050  32.419  27.358  1.00  0.00     0.049 A 
ATOM     54  H   UNL A   1      46.194  32.234  28.286  1.00  0.00     0.167 HD
ATOM     55  C   UNL A   1      42.214  31.733  30.049  1.00  0.00     0.031 A 
ATOM     56  C   UNL A   1      48.347  33.735  27.323  1.00  0.00     0.031 A 
ATOM     57  C   UNL A   1      42.488  33.144  30.131  1.00  0.00     0.049 A 
ATOM     58  C   UNL A   1      47.363  34.731  27.884  1.00  0.00     0.074 A 
ATOM     59  C   UNL A   1      41.709  34.138  30.697  1.00  0.00     0.029 A 
ATOM     60  N   UNL A   1      43.620  33.764  29.624  1.00  0.00    -0.354 N 
ATOM     61  N   UNL A   1      46.199  34.514  28.448  1.00  0.00    -0.248 NA
ATOM     62  C   UNL A   1      47.738  36.151  27.809  1.00  0.00     0.031 C 
ATOM     63  C   UNL A   1      42.339  35.366  30.473  1.00  0.00     0.029 A 
ATOM     64  C   UNL A   1      43.547  35.130  29.836  1.00  0.00     0.049 A 
ATOM     65  H   UNL A   1      44.366  33.301  29.177  1.00  0.00     0.167 HD
ATOM     66  C   UNL A   1      45.720  35.766  28.828  1.00  0.00     0.074 A 
ATOM     67  C   UNL A   1      46.725  36.731  28.438  1.00  0.00     0.031 C 
ATOM     68  C   UNL A   1      44.557  36.084  29.449  1.00  0.00     0.031 A 
BRANCH  55  69
ATOM     69  C   UNL A   1      40.901  31.226  30.585  1.00  0.00    -0.014 A 
ATOM     70  C   UNL A   1      40.827  30.524  31.801  1.00  0.00     0.010 A 
ATOM     71  C   UNL A   1      39.715  31.489  29.876  1.00  0.00     0.010 A 
ATOM     72  C   UNL A   1      39.598  30.062  32.279  1.00  0.00     0.020 A 
ATOM     73  C   UNL A   1      38.479  31.058  30.365  1.00  0.00     0.020 A 
ATOM     74  C   UNL A   1      38.431  30.332  31.556  1.00  0.00     0.054 A 
BRANCH  74  75
ATOM     75  S   UNL A   1      36.847  29.743  32.213  1.00  0.00     0.124 S 
ATOM     76  O   UNL A   1      36.326  30.942  32.867  1.00  0.00    -0.237 OA
ATOM     77  O   UNL A   1      36.135  29.328  31.007  1.00  0.00    -0.237 OA
ATOM     78  O   UNL A   1      37.225  28.658  33.115  1.00  0.00    -0.744 OA
ENDBRANCH  74  75
ENDBRANCH  55  69
BRANCH  56  79
ATOM     79  C   UNL A   1      49.627  34.194  26.714  1.00  0.00    -0.014 A 
ATOM     80  C   UNL A   1      49.673  34.629  25.377  1.00  0.00     0.010 A 
ATOM     81  C   UNL A   1      50.816  34.190  27.469  1.00  0.00     0.010 A 
ATOM     82  C   UNL A   1      50.882  35.034  24.803  1.00  0.00     0.020 A 
ATOM     83  C   UNL A   1      52.021  34.625  26.908  1.00  0.00     0.020 A 
ATOM     84  C   UNL A   1      52.048  35.034  25.574  1.00  0.00     0.054 A 
BRANCH  84  85
ATOM     85  S   UNL A   1      53.594  35.610  24.820  1.00  0.00     0.124 S 
ATOM     86  O   UNL A   1      54.253  34.354  24.479  1.00  0.00    -0.237 OA
ATOM     87  O   UNL A   1      53.115  36.402  23.690  1.00  0.00    -0.237 OA
ATOM     88  O   UNL A   1      54.229  36.380  25.888  1.00  0.00    -0.744 OA
ENDBRANCH  84  85
ENDBRANCH  56  79
BRANCH  68  89
ATOM     89  C   UNL A   1      44.320  37.532  29.800  1.00  0.00    -0.014 A 
ATOM     90  C   UNL A   1      43.543  38.371  28.983  1.00  0.00     0.010 A 
ATOM     91  C   UNL A   1      44.832  38.039  31.009  1.00  0.00     0.010 A 
ATOM     92  C   UNL A   1      43.308  39.699  29.355  1.00  0.00     0.020 A 
ATOM     93  C   UNL A   1      44.572  39.355  31.400  1.00  0.00     0.020 A 
ATOM     94  C   UNL A   1      43.822  40.181  30.563  1.00  0.00     0.054 A 
BRANCH  94  95
ATOM     95  S   UNL A   1      43.462  41.893  31.045  1.00  0.00     0.124 S 
ATOM     96  O   UNL A   1      42.074  42.044  30.617  1.00  0.00    -0.237 OA
ATOM     97  O   UNL A   1      43.674  41.870  32.490  1.00  0.00    -0.237 OA
ATOM     98  O   UNL A   1      44.435  42.679  30.290  1.00  0.00    -0.744 OA
ENDBRANCH  94  95
ENDBRANCH  68  89
ENDBRANCH  42  43
ENDBRANCH  35  37
ENDBRANCH  34  35
ENDBRANCH  33  34
ENDBRANCH  32  33
ENDBRANCH  31  32
ENDBRANCH  30  31
ENDBRANCH   1  30
TORSDOF 24
ENDMDL
