MODEL 1
REMARK VINA RESULT:     -10.3      0.000      0.000
REMARK SMILES O=C(COc1ccccc1C[NH+]1CCC2(CC[NH2+]CC2)CC1)OCCOCCOCCOC(=O)c1ccc(-c2c3nc(c(-c4ccc(S(=O)(=O)[O-])cc4)c4ccc([nH]4)c(-c4ccc(S(=O)(=O)[O-])cc4)c4nc(c(-c5ccc(S(=O)(=O)[O-])cc5)c5ccc2[nH]5)C=C4)C=C3)cc1
REMARK SMILES IDX 27 1 26 2 25 3 24 4 23 5 2 6 1 7 3 8 4 9 5 10 6 11 10 12
REMARK SMILES IDX 7 13 9 14 8 15 11 16 12 17 13 18 22 19 14 21 21 22 15 23
REMARK SMILES IDX 16 24 20 25 17 26 19 27 18 28 28 31 29 32 30 33 31 34 32 35
REMARK SMILES IDX 33 36 34 37 35 38 36 39 94 40 37 41 93 42 38 43 39 44 40 45
REMARK SMILES IDX 87 46 41 47 92 48 86 49 88 50 42 51 91 52 85 53 84 54 43 56
REMARK SMILES IDX 73 57 54 58 72 59 55 60 58 61 71 62 89 63 56 64 57 65 70 67
REMARK SMILES IDX 90 68 59 69 44 70 45 71 53 72 46 73 52 74 47 75 48 76 49 77
REMARK SMILES IDX 50 78 51 79 74 80 75 81 83 82 76 83 82 84 77 85 78 86 79 87
REMARK SMILES IDX 80 88 81 89 60 90 61 91 69 92 62 93 68 94 63 95 64 96 65 97
REMARK SMILES IDX 66 98 67 99
REMARK H PARENT 12 20 18 29 18 30 88 55 58 66
REMARK Flexibility Score: inf
ROOT
ATOM      1  C   UNL A   1      43.223  19.099  25.380  1.00  0.00     0.188 C 
ENDROOT
BRANCH   1   2
ATOM      2  O   UNL A   1      41.924  19.676  25.450  1.00  0.00    -0.376 OA
BRANCH   2   3
ATOM      3  C   UNL A   1      41.434  19.957  26.746  1.00  0.00     0.202 C 
BRANCH   3   4
ATOM      4  C   UNL A   1      40.484  21.143  26.767  1.00  0.00     0.261 C 
BRANCH   4   5
ATOM      5  O   UNL A   1      39.508  21.146  25.695  1.00  0.00    -0.461 OA
BRANCH   5   6
ATOM      6  C   UNL A   1      38.286  21.735  25.652  1.00  0.00     0.344 C 
ATOM      7  O   UNL A   1      38.154  22.899  26.025  1.00  0.00    -0.248 OA
BRANCH   6   8
ATOM      8  C   UNL A   1      37.116  20.924  25.152  1.00  0.00     0.351 C 
BRANCH   8   9
ATOM      9  O   UNL A   1      35.880  21.367  25.716  1.00  0.00    -0.481 OA
BRANCH   9  10
ATOM     10  C   UNL A   1      34.850  20.691  25.120  1.00  0.00     0.129 A 
ATOM     11  C   UNL A   1      35.122  19.352  24.829  1.00  0.00     0.047 A 
ATOM     12  C   UNL A   1      33.579  21.260  24.916  1.00  0.00     0.048 A 
ATOM     13  C   UNL A   1      34.087  18.514  24.443  1.00  0.00     0.004 A 
ATOM     14  C   UNL A   1      32.532  20.357  24.681  1.00  0.00     0.013 A 
ATOM     15  C   UNL A   1      32.786  19.006  24.419  1.00  0.00     0.001 A 
BRANCH  12  16
ATOM     16  C   UNL A   1      33.288  22.751  24.986  1.00  0.00     0.302 C 
BRANCH  16  17
ATOM     17  N   UNL A   1      33.686  23.686  23.922  1.00  0.00    -0.331 N 
ATOM     18  C   UNL A   1      32.600  24.408  23.261  1.00  0.00     0.263 C 
ATOM     19  C   UNL A   1      34.821  24.542  24.185  1.00  0.00     0.263 C 
ATOM     20  H   UNL A   1      34.030  23.009  23.241  1.00  0.00     0.348 HD
ATOM     21  C   UNL A   1      32.094  25.603  24.065  1.00  0.00     0.069 C 
ATOM     22  C   UNL A   1      34.455  25.745  25.047  1.00  0.00     0.069 C 
ATOM     23  C   UNL A   1      33.227  26.546  24.554  1.00  0.00    -0.008 C 
ATOM     24  C   UNL A   1      33.716  27.481  23.421  1.00  0.00     0.069 C 
ATOM     25  C   UNL A   1      32.698  27.367  25.761  1.00  0.00     0.069 C 
ATOM     26  C   UNL A   1      32.824  28.695  23.188  1.00  0.00     0.261 C 
ATOM     27  C   UNL A   1      31.829  28.549  25.360  1.00  0.00     0.261 C 
ATOM     28  N   UNL A   1      32.550  29.417  24.430  1.00  0.00    -0.346 N 
ATOM     29  H   UNL A   1      31.983  30.239  24.226  1.00  0.00     0.346 HD
ATOM     30  H   UNL A   1      33.433  29.703  24.853  1.00  0.00     0.346 HD
ENDBRANCH  16  17
ENDBRANCH  12  16
ENDBRANCH   9  10
ENDBRANCH   8   9
ENDBRANCH   6   8
ENDBRANCH   5   6
ENDBRANCH   4   5
ENDBRANCH   3   4
ENDBRANCH   2   3
ENDBRANCH   1   2
BRANCH   1  31
ATOM     31  C   UNL A   1      44.368  20.144  25.382  1.00  0.00     0.188 C 
BRANCH  31  32
ATOM     32  O   UNL A   1      44.267  21.266  24.514  1.00  0.00    -0.376 OA
BRANCH  32  33
ATOM     33  C   UNL A   1      44.172  22.548  25.107  1.00  0.00     0.202 C 
BRANCH  33  34
ATOM     34  C   UNL A   1      42.817  23.272  25.009  1.00  0.00     0.261 C 
BRANCH  34  35
ATOM     35  O   UNL A   1      42.397  24.002  26.187  1.00  0.00    -0.460 OA
BRANCH  35  36
ATOM     36  C   UNL A   1      42.161  25.333  26.045  1.00  0.00     0.338 C 
ATOM     37  O   UNL A   1      41.819  25.893  25.011  1.00  0.00    -0.246 OA
BRANCH  36  38
ATOM     38  C   UNL A   1      42.174  26.032  27.368  1.00  0.00     0.060 A 
ATOM     39  C   UNL A   1      41.105  25.829  28.260  1.00  0.00     0.016 A 
ATOM     40  C   UNL A   1      43.182  26.932  27.711  1.00  0.00     0.016 A 
ATOM     41  C   UNL A   1      41.002  26.571  29.449  1.00  0.00     0.010 A 
ATOM     42  C   UNL A   1      43.064  27.694  28.888  1.00  0.00     0.010 A 
ATOM     43  C   UNL A   1      41.947  27.560  29.739  1.00  0.00    -0.014 A 
BRANCH  43  44
ATOM     44  C   UNL A   1      41.649  28.641  30.729  1.00  0.00     0.031 A 
ATOM     45  C   UNL A   1      42.479  28.678  31.993  1.00  0.00     0.074 A 
ATOM     46  C   UNL A   1      40.673  29.555  30.566  1.00  0.00     0.049 A 
ATOM     47  N   UNL A   1      42.323  29.395  33.076  1.00  0.00    -0.248 NA
ATOM     48  C   UNL A   1      43.634  27.767  32.035  1.00  0.00     0.031 C 
ATOM     49  C   UNL A   1      39.836  29.709  29.380  1.00  0.00     0.029 A 
ATOM     50  N   UNL A   1      40.209  30.524  31.432  1.00  0.00    -0.354 N 
ATOM     51  C   UNL A   1      43.340  28.999  33.940  1.00  0.00     0.074 A 
ATOM     52  C   UNL A   1      44.090  27.965  33.262  1.00  0.00     0.031 C 
ATOM     53  C   UNL A   1      38.942  30.693  29.601  1.00  0.00     0.029 A 
ATOM     54  C   UNL A   1      39.114  31.212  30.960  1.00  0.00     0.049 A 
ATOM     55  H   UNL A   1      40.624  30.706  32.305  1.00  0.00     0.167 HD
ATOM     56  C   UNL A   1      43.628  29.445  35.187  1.00  0.00     0.031 A 
ATOM     57  C   UNL A   1      38.321  32.127  31.561  1.00  0.00     0.031 A 
ATOM     58  C   UNL A   1      42.883  30.466  35.876  1.00  0.00     0.049 A 
ATOM     59  C   UNL A   1      38.601  32.553  32.983  1.00  0.00     0.074 A 
ATOM     60  C   UNL A   1      43.108  30.990  37.138  1.00  0.00     0.029 A 
ATOM     61  N   UNL A   1      41.768  31.112  35.368  1.00  0.00    -0.354 N 
ATOM     62  N   UNL A   1      39.563  32.167  33.788  1.00  0.00    -0.248 NA
ATOM     63  C   UNL A   1      37.688  33.543  33.578  1.00  0.00     0.031 C 
ATOM     64  C   UNL A   1      42.090  31.905  37.419  1.00  0.00     0.029 A 
ATOM     65  C   UNL A   1      41.277  32.010  36.303  1.00  0.00     0.049 A 
ATOM     66  H   UNL A   1      41.382  30.958  34.477  1.00  0.00     0.167 HD
ATOM     67  C   UNL A   1      39.391  32.895  34.966  1.00  0.00     0.074 A 
ATOM     68  C   UNL A   1      38.239  33.745  34.768  1.00  0.00     0.031 C 
ATOM     69  C   UNL A   1      40.132  32.864  36.103  1.00  0.00     0.031 A 
BRANCH  56  70
ATOM     70  C   UNL A   1      44.775  28.787  35.911  1.00  0.00    -0.014 A 
ATOM     71  C   UNL A   1      46.039  29.400  35.998  1.00  0.00     0.010 A 
ATOM     72  C   UNL A   1      44.576  27.540  36.532  1.00  0.00     0.010 A 
ATOM     73  C   UNL A   1      47.095  28.752  36.646  1.00  0.00     0.020 A 
ATOM     74  C   UNL A   1      45.620  26.905  37.210  1.00  0.00     0.020 A 
ATOM     75  C   UNL A   1      46.879  27.507  37.244  1.00  0.00     0.054 A 
BRANCH  75  76
ATOM     76  S   UNL A   1      48.267  26.693  38.083  1.00  0.00     0.124 S 
ATOM     77  O   UNL A   1      47.812  25.305  38.137  1.00  0.00    -0.237 OA
ATOM     78  O   UNL A   1      49.384  26.954  37.180  1.00  0.00    -0.237 OA
ATOM     79  O   UNL A   1      48.340  27.374  39.374  1.00  0.00    -0.744 OA
ENDBRANCH  75  76
ENDBRANCH  56  70
BRANCH  57  80
ATOM     80  C   UNL A   1      37.150  32.695  30.828  1.00  0.00    -0.014 A 
ATOM     81  C   UNL A   1      35.875  32.116  30.948  1.00  0.00     0.010 A 
ATOM     82  C   UNL A   1      37.310  33.820  29.996  1.00  0.00     0.010 A 
ATOM     83  C   UNL A   1      34.783  32.648  30.252  1.00  0.00     0.020 A 
ATOM     84  C   UNL A   1      36.216  34.373  29.323  1.00  0.00     0.020 A 
ATOM     85  C   UNL A   1      34.959  33.780  29.452  1.00  0.00     0.054 A 
BRANCH  85  86
ATOM     86  S   UNL A   1      33.512  34.503  28.628  1.00  0.00     0.124 S 
ATOM     87  O   UNL A   1      32.653  34.843  29.757  1.00  0.00    -0.237 OA
ATOM     88  O   UNL A   1      34.095  35.635  27.910  1.00  0.00    -0.237 OA
ATOM     89  O   UNL A   1      33.027  33.420  27.774  1.00  0.00    -0.744 OA
ENDBRANCH  85  86
ENDBRANCH  57  80
BRANCH  69  90
ATOM     90  C   UNL A   1      39.768  33.815  37.217  1.00  0.00    -0.014 A 
ATOM     91  C   UNL A   1      38.905  33.439  38.262  1.00  0.00     0.010 A 
ATOM     92  C   UNL A   1      40.369  35.089  37.257  1.00  0.00     0.010 A 
ATOM     93  C   UNL A   1      38.632  34.326  39.309  1.00  0.00     0.020 A 
ATOM     94  C   UNL A   1      40.121  35.966  38.317  1.00  0.00     0.020 A 
ATOM     95  C   UNL A   1      39.244  35.583  39.332  1.00  0.00     0.054 A 
BRANCH  95  96
ATOM     96  S   UNL A   1      38.912  36.694  40.728  1.00  0.00     0.124 S 
ATOM     97  O   UNL A   1      38.067  35.865  41.583  1.00  0.00    -0.237 OA
ATOM     98  O   UNL A   1      40.251  36.968  41.244  1.00  0.00    -0.237 OA
ATOM     99  O   UNL A   1      38.242  37.836  40.111  1.00  0.00    -0.744 OA
ENDBRANCH  95  96
ENDBRANCH  69  90
ENDBRANCH  43  44
ENDBRANCH  36  38
ENDBRANCH  35  36
ENDBRANCH  34  35
ENDBRANCH  33  34
ENDBRANCH  32  33
ENDBRANCH  31  32
ENDBRANCH   1  31
TORSDOF 24
ENDMDL
MODEL 2
REMARK VINA RESULT:     -10.2      0.758      7.859
REMARK SMILES O=C(COc1ccccc1C[NH+]1CCC2(CC[NH2+]CC2)CC1)OCCOCCOCCOC(=O)c1ccc(-c2c3nc(c(-c4ccc(S(=O)(=O)[O-])cc4)c4ccc([nH]4)c(-c4ccc(S(=O)(=O)[O-])cc4)c4nc(c(-c5ccc(S(=O)(=O)[O-])cc5)c5ccc2[nH]5)C=C4)C=C3)cc1
REMARK SMILES IDX 27 1 26 2 25 3 24 4 23 5 2 6 1 7 3 8 4 9 5 10 6 11 10 12
REMARK SMILES IDX 7 13 9 14 8 15 11 16 12 17 13 18 22 19 14 21 21 22 15 23
REMARK SMILES IDX 16 24 20 25 17 26 19 27 18 28 28 31 29 32 30 33 31 34 32 35
REMARK SMILES IDX 33 36 34 37 35 38 36 39 94 40 37 41 93 42 38 43 39 44 40 45
REMARK SMILES IDX 87 46 41 47 92 48 86 49 88 50 42 51 91 52 85 53 84 54 43 56
REMARK SMILES IDX 73 57 54 58 72 59 55 60 58 61 71 62 89 63 56 64 57 65 70 67
REMARK SMILES IDX 90 68 59 69 44 70 45 71 53 72 46 73 52 74 47 75 48 76 49 77
REMARK SMILES IDX 50 78 51 79 74 80 75 81 83 82 76 83 82 84 77 85 78 86 79 87
REMARK SMILES IDX 80 88 81 89 60 90 61 91 69 92 62 93 68 94 63 95 64 96 65 97
REMARK SMILES IDX 66 98 67 99
REMARK H PARENT 12 20 18 29 18 30 88 55 58 66
REMARK Flexibility Score: inf
ROOT
ATOM      1  C   UNL A   1      43.193  18.970  25.398  1.00  0.00     0.188 C 
ENDROOT
BRANCH   1   2
ATOM      2  O   UNL A   1      41.886  19.521  25.521  1.00  0.00    -0.376 OA
BRANCH   2   3
ATOM      3  C   UNL A   1      41.490  19.905  26.823  1.00  0.00     0.202 C 
BRANCH   3   4
ATOM      4  C   UNL A   1      40.446  21.009  26.814  1.00  0.00     0.261 C 
BRANCH   4   5
ATOM      5  O   UNL A   1      39.393  20.828  25.835  1.00  0.00    -0.461 OA
BRANCH   5   6
ATOM      6  C   UNL A   1      38.265  21.558  25.647  1.00  0.00     0.344 C 
ATOM      7  O   UNL A   1      38.295  22.779  25.788  1.00  0.00    -0.248 OA
BRANCH   6   8
ATOM      8  C   UNL A   1      36.994  20.833  25.279  1.00  0.00     0.351 C 
BRANCH   8   9
ATOM      9  O   UNL A   1      35.831  21.538  25.715  1.00  0.00    -0.481 OA
BRANCH   9  10
ATOM     10  C   UNL A   1      34.727  20.993  25.118  1.00  0.00     0.129 A 
ATOM     11  C   UNL A   1      34.846  19.637  24.803  1.00  0.00     0.047 A 
ATOM     12  C   UNL A   1      33.526  21.703  24.936  1.00  0.00     0.048 A 
ATOM     13  C   UNL A   1      33.721  18.926  24.412  1.00  0.00     0.004 A 
ATOM     14  C   UNL A   1      32.383  20.927  24.697  1.00  0.00     0.013 A 
ATOM     15  C   UNL A   1      32.483  19.560  24.410  1.00  0.00     0.001 A 
BRANCH  12  16
ATOM     16  C   UNL A   1      33.404  23.216  25.034  1.00  0.00     0.302 C 
BRANCH  16  17
ATOM     17  N   UNL A   1      32.274  23.958  24.453  1.00  0.00    -0.331 N 
ATOM     18  C   UNL A   1      31.504  24.786  25.380  1.00  0.00     0.263 C 
ATOM     19  C   UNL A   1      32.503  24.630  23.193  1.00  0.00     0.263 C 
ATOM     20  H   UNL A   1      31.675  23.167  24.216  1.00  0.00     0.348 HD
ATOM     21  C   UNL A   1      32.171  26.124  25.690  1.00  0.00     0.069 C 
ATOM     22  C   UNL A   1      33.233  25.957  23.365  1.00  0.00     0.069 C 
ATOM     23  C   UNL A   1      32.616  26.903  24.422  1.00  0.00    -0.008 C 
ATOM     24  C   UNL A   1      31.422  27.623  23.750  1.00  0.00     0.069 C 
ATOM     25  C   UNL A   1      33.718  27.918  24.829  1.00  0.00     0.069 C 
ATOM     26  C   UNL A   1      31.039  28.942  24.411  1.00  0.00     0.261 C 
ATOM     27  C   UNL A   1      33.172  29.185  25.469  1.00  0.00     0.261 C 
ATOM     28  N   UNL A   1      32.195  29.821  24.585  1.00  0.00    -0.346 N 
ATOM     29  H   UNL A   1      31.891  30.703  24.995  1.00  0.00     0.346 HD
ATOM     30  H   UNL A   1      32.626  29.992  23.676  1.00  0.00     0.346 HD
ENDBRANCH  16  17
ENDBRANCH  12  16
ENDBRANCH   9  10
ENDBRANCH   8   9
ENDBRANCH   6   8
ENDBRANCH   5   6
ENDBRANCH   4   5
ENDBRANCH   3   4
ENDBRANCH   2   3
ENDBRANCH   1   2
BRANCH   1  31
ATOM     31  C   UNL A   1      44.320  20.034  25.416  1.00  0.00     0.188 C 
BRANCH  31  32
ATOM     32  O   UNL A   1      44.152  21.217  24.645  1.00  0.00    -0.376 OA
BRANCH  32  33
ATOM     33  C   UNL A   1      44.485  22.450  25.253  1.00  0.00     0.202 C 
BRANCH  33  34
ATOM     34  C   UNL A   1      43.449  23.069  26.209  1.00  0.00     0.261 C 
BRANCH  34  35
ATOM     35  O   UNL A   1      43.906  24.182  27.013  1.00  0.00    -0.460 OA
BRANCH  35  36
ATOM     36  C   UNL A   1      43.754  25.430  26.496  1.00  0.00     0.338 C 
ATOM     37  O   UNL A   1      44.051  25.775  25.359  1.00  0.00    -0.246 OA
BRANCH  36  38
ATOM     38  C   UNL A   1      42.983  26.313  27.425  1.00  0.00     0.060 A 
ATOM     39  C   UNL A   1      43.368  27.659  27.571  1.00  0.00     0.016 A 
ATOM     40  C   UNL A   1      41.934  25.820  28.202  1.00  0.00     0.016 A 
ATOM     41  C   UNL A   1      42.766  28.486  28.534  1.00  0.00     0.010 A 
ATOM     42  C   UNL A   1      41.351  26.641  29.185  1.00  0.00     0.010 A 
ATOM     43  C   UNL A   1      41.798  27.962  29.398  1.00  0.00    -0.014 A 
BRANCH  43  44
ATOM     44  C   UNL A   1      41.461  28.650  30.682  1.00  0.00     0.031 A 
ATOM     45  C   UNL A   1      40.284  29.600  30.677  1.00  0.00     0.074 A 
ATOM     46  C   UNL A   1      42.160  28.488  31.822  1.00  0.00     0.049 A 
ATOM     47  N   UNL A   1      39.883  30.441  31.596  1.00  0.00    -0.248 NA
ATOM     48  C   UNL A   1      39.462  29.605  29.456  1.00  0.00     0.031 C 
ATOM     49  C   UNL A   1      43.267  27.558  32.020  1.00  0.00     0.029 A 
ATOM     50  N   UNL A   1      42.043  29.134  33.035  1.00  0.00    -0.354 N 
ATOM     51  C   UNL A   1      38.782  31.097  31.052  1.00  0.00     0.074 A 
ATOM     52  C   UNL A   1      38.595  30.570  29.718  1.00  0.00     0.031 C 
ATOM     53  C   UNL A   1      43.748  27.710  33.270  1.00  0.00     0.029 A 
ATOM     54  C   UNL A   1      43.011  28.779  33.949  1.00  0.00     0.049 A 
ATOM     55  H   UNL A   1      41.334  29.786  33.229  1.00  0.00     0.167 HD
ATOM     56  C   UNL A   1      37.996  32.053  31.603  1.00  0.00     0.031 A 
ATOM     57  C   UNL A   1      43.294  29.278  35.172  1.00  0.00     0.031 A 
ATOM     58  C   UNL A   1      38.179  32.592  32.925  1.00  0.00     0.049 A 
ATOM     59  C   UNL A   1      42.463  30.405  35.740  1.00  0.00     0.074 A 
ATOM     60  C   UNL A   1      37.425  33.556  33.571  1.00  0.00     0.029 A 
ATOM     61  N   UNL A   1      39.188  32.221  33.800  1.00  0.00    -0.354 N 
ATOM     62  N   UNL A   1      41.428  31.017  35.214  1.00  0.00    -0.248 NA
ATOM     63  C   UNL A   1      42.837  30.908  37.073  1.00  0.00     0.031 C 
ATOM     64  C   UNL A   1      38.016  33.816  34.811  1.00  0.00     0.029 A 
ATOM     65  C   UNL A   1      39.092  32.958  34.969  1.00  0.00     0.049 A 
ATOM     66  H   UNL A   1      39.869  31.536  33.618  1.00  0.00     0.167 HD
ATOM     67  C   UNL A   1      41.008  31.946  36.165  1.00  0.00     0.074 A 
ATOM     68  C   UNL A   1      41.895  31.814  37.300  1.00  0.00     0.031 C 
ATOM     69  C   UNL A   1      39.971  32.821  36.104  1.00  0.00     0.031 A 
BRANCH  56  70
ATOM     70  C   UNL A   1      36.891  32.620  30.748  1.00  0.00    -0.014 A 
ATOM     71  C   UNL A   1      37.121  33.691  29.864  1.00  0.00     0.010 A 
ATOM     72  C   UNL A   1      35.605  32.056  30.818  1.00  0.00     0.010 A 
ATOM     73  C   UNL A   1      36.071  34.220  29.107  1.00  0.00     0.020 A 
ATOM     74  C   UNL A   1      34.560  32.560  30.038  1.00  0.00     0.020 A 
ATOM     75  C   UNL A   1      34.797  33.653  29.202  1.00  0.00     0.054 A 
BRANCH  75  76
ATOM     76  S   UNL A   1      33.455  34.357  28.204  1.00  0.00     0.124 S 
ATOM     77  O   UNL A   1      34.190  35.206  27.269  1.00  0.00    -0.237 OA
ATOM     78  O   UNL A   1      32.835  33.170  27.621  1.00  0.00    -0.237 OA
ATOM     79  O   UNL A   1      32.635  35.071  29.180  1.00  0.00    -0.744 OA
ENDBRANCH  75  76
ENDBRANCH  56  70
BRANCH  57  80
ATOM     80  C   UNL A   1      44.447  28.735  35.951  1.00  0.00    -0.014 A 
ATOM     81  C   UNL A   1      45.719  29.327  35.862  1.00  0.00     0.010 A 
ATOM     82  C   UNL A   1      44.277  27.611  36.782  1.00  0.00     0.010 A 
ATOM     83  C   UNL A   1      46.798  28.809  36.588  1.00  0.00     0.020 A 
ATOM     84  C   UNL A   1      45.345  27.108  37.532  1.00  0.00     0.020 A 
ATOM     85  C   UNL A   1      46.601  27.708  37.426  1.00  0.00     0.054 A 
BRANCH  85  86
ATOM     86  S   UNL A   1      47.994  27.106  38.423  1.00  0.00     0.124 S 
ATOM     87  O   UNL A   1      47.336  26.187  39.346  1.00  0.00    -0.237 OA
ATOM     88  O   UNL A   1      48.854  26.487  37.417  1.00  0.00    -0.237 OA
ATOM     89  O   UNL A   1      48.533  28.323  39.028  1.00  0.00    -0.744 OA
ENDBRANCH  85  86
ENDBRANCH  57  80
BRANCH  69  90
ATOM     90  C   UNL A   1      39.688  33.677  37.314  1.00  0.00    -0.014 A 
ATOM     91  C   UNL A   1      38.851  33.238  38.355  1.00  0.00     0.010 A 
ATOM     92  C   UNL A   1      40.342  34.919  37.445  1.00  0.00     0.010 A 
ATOM     93  C   UNL A   1      38.654  34.034  39.488  1.00  0.00     0.020 A 
ATOM     94  C   UNL A   1      40.171  35.702  38.590  1.00  0.00     0.020 A 
ATOM     95  C   UNL A   1      39.318  35.260  39.600  1.00  0.00     0.054 A 
BRANCH  95  96
ATOM     96  S   UNL A   1      39.084  36.248  41.105  1.00  0.00     0.124 S 
ATOM     97  O   UNL A   1      38.104  35.456  41.842  1.00  0.00    -0.237 OA
ATOM     98  O   UNL A   1      40.427  36.279  41.679  1.00  0.00    -0.237 OA
ATOM     99  O   UNL A   1      38.597  37.532  40.605  1.00  0.00    -0.744 OA
ENDBRANCH  95  96
ENDBRANCH  69  90
ENDBRANCH  43  44
ENDBRANCH  36  38
ENDBRANCH  35  36
ENDBRANCH  34  35
ENDBRANCH  33  34
ENDBRANCH  32  33
ENDBRANCH  31  32
ENDBRANCH   1  31
TORSDOF 24
ENDMDL
MODEL 3
REMARK VINA RESULT:      -9.9      6.100     11.220
REMARK SMILES O=C(COc1ccccc1C[NH+]1CCC2(CC[NH2+]CC2)CC1)OCCOCCOCCOC(=O)c1ccc(-c2c3nc(c(-c4ccc(S(=O)(=O)[O-])cc4)c4ccc([nH]4)c(-c4ccc(S(=O)(=O)[O-])cc4)c4nc(c(-c5ccc(S(=O)(=O)[O-])cc5)c5ccc2[nH]5)C=C4)C=C3)cc1
REMARK SMILES IDX 27 1 26 2 25 3 24 4 23 5 2 6 1 7 3 8 4 9 5 10 6 11 10 12
REMARK SMILES IDX 7 13 9 14 8 15 11 16 12 17 13 18 22 19 14 21 21 22 15 23
REMARK SMILES IDX 16 24 20 25 17 26 19 27 18 28 28 31 29 32 30 33 31 34 32 35
REMARK SMILES IDX 33 36 34 37 35 38 36 39 94 40 37 41 93 42 38 43 39 44 40 45
REMARK SMILES IDX 87 46 41 47 92 48 86 49 88 50 42 51 91 52 85 53 84 54 43 56
REMARK SMILES IDX 73 57 54 58 72 59 55 60 58 61 71 62 89 63 56 64 57 65 70 67
REMARK SMILES IDX 90 68 59 69 44 70 45 71 53 72 46 73 52 74 47 75 48 76 49 77
REMARK SMILES IDX 50 78 51 79 74 80 75 81 83 82 76 83 82 84 77 85 78 86 79 87
REMARK SMILES IDX 80 88 81 89 60 90 61 91 69 92 62 93 68 94 63 95 64 96 65 97
REMARK SMILES IDX 66 98 67 99
REMARK H PARENT 12 20 18 29 18 30 88 55 58 66
REMARK Flexibility Score: inf
ROOT
ATOM      1  C   UNL A   1      35.852  23.578  26.131  1.00  0.00     0.188 C 
ENDROOT
BRANCH   1   2
ATOM      2  O   UNL A   1      35.039  23.788  24.983  1.00  0.00    -0.376 OA
BRANCH   2   3
ATOM      3  C   UNL A   1      35.580  23.364  23.747  1.00  0.00     0.202 C 
BRANCH   3   4
ATOM      4  C   UNL A   1      34.607  23.535  22.593  1.00  0.00     0.261 C 
BRANCH   4   5
ATOM      5  O   UNL A   1      34.160  24.898  22.384  1.00  0.00    -0.461 OA
BRANCH   5   6
ATOM      6  C   UNL A   1      33.070  25.348  21.712  1.00  0.00     0.344 C 
ATOM      7  O   UNL A   1      33.210  25.931  20.639  1.00  0.00    -0.248 OA
BRANCH   6   8
ATOM      8  C   UNL A   1      31.709  25.125  22.323  1.00  0.00     0.351 C 
BRANCH   8   9
ATOM      9  O   UNL A   1      31.679  23.960  23.150  1.00  0.00    -0.481 OA
BRANCH   9  10
ATOM     10  C   UNL A   1      31.288  24.318  24.412  1.00  0.00     0.129 A 
ATOM     11  C   UNL A   1      31.109  25.691  24.599  1.00  0.00     0.047 A 
ATOM     12  C   UNL A   1      30.979  23.379  25.413  1.00  0.00     0.048 A 
ATOM     13  C   UNL A   1      30.495  26.149  25.755  1.00  0.00     0.004 A 
ATOM     14  C   UNL A   1      30.220  23.856  26.491  1.00  0.00     0.013 A 
ATOM     15  C   UNL A   1      30.006  25.227  26.675  1.00  0.00     0.001 A 
BRANCH  12  16
ATOM     16  C   UNL A   1      31.372  21.911  25.357  1.00  0.00     0.302 C 
BRANCH  16  17
ATOM     17  N   UNL A   1      32.674  21.458  24.840  1.00  0.00    -0.331 N 
ATOM     18  C   UNL A   1      33.558  20.807  25.805  1.00  0.00     0.263 C 
ATOM     19  C   UNL A   1      32.678  20.781  23.563  1.00  0.00     0.263 C 
ATOM     20  H   UNL A   1      33.089  22.370  24.647  1.00  0.00     0.348 HD
ATOM     21  C   UNL A   1      33.198  19.345  26.062  1.00  0.00     0.069 C 
ATOM     22  C   UNL A   1      32.262  19.319  23.678  1.00  0.00     0.069 C 
ATOM     23  C   UNL A   1      33.016  18.514  24.762  1.00  0.00    -0.008 C 
ATOM     24  C   UNL A   1      34.381  18.101  24.159  1.00  0.00     0.069 C 
ATOM     25  C   UNL A   1      32.154  17.266  25.092  1.00  0.00     0.069 C 
ATOM     26  C   UNL A   1      35.017  16.889  24.830  1.00  0.00     0.261 C 
ATOM     27  C   UNL A   1      32.938  16.142  25.752  1.00  0.00     0.261 C 
ATOM     28  N   UNL A   1      34.084  15.767  24.924  1.00  0.00    -0.346 N 
ATOM     29  H   UNL A   1      34.557  14.967  25.345  1.00  0.00     0.346 HD
ATOM     30  H   UNL A   1      33.757  15.522  23.990  1.00  0.00     0.346 HD
ENDBRANCH  16  17
ENDBRANCH  12  16
ENDBRANCH   9  10
ENDBRANCH   8   9
ENDBRANCH   6   8
ENDBRANCH   5   6
ENDBRANCH   4   5
ENDBRANCH   3   4
ENDBRANCH   2   3
ENDBRANCH   1   2
BRANCH   1  31
ATOM     31  C   UNL A   1      37.364  23.806  25.873  1.00  0.00     0.188 C 
BRANCH  31  32
ATOM     32  O   UNL A   1      38.264  22.732  26.113  1.00  0.00    -0.376 OA
BRANCH  32  33
ATOM     33  C   UNL A   1      38.052  21.526  25.403  1.00  0.00     0.202 C 
BRANCH  33  34
ATOM     34  C   UNL A   1      39.078  20.397  25.608  1.00  0.00     0.261 C 
BRANCH  34  35
ATOM     35  O   UNL A   1      40.118  20.648  26.583  1.00  0.00    -0.460 OA
BRANCH  35  36
ATOM     36  C   UNL A   1      41.362  20.174  26.304  1.00  0.00     0.338 C 
ATOM     37  O   UNL A   1      41.615  19.116  25.742  1.00  0.00    -0.246 OA
BRANCH  36  38
ATOM     38  C   UNL A   1      42.411  21.201  26.589  1.00  0.00     0.060 A 
ATOM     39  C   UNL A   1      42.647  21.591  27.921  1.00  0.00     0.016 A 
ATOM     40  C   UNL A   1      43.114  21.834  25.563  1.00  0.00     0.016 A 
ATOM     41  C   UNL A   1      43.518  22.650  28.224  1.00  0.00     0.010 A 
ATOM     42  C   UNL A   1      43.965  22.913  25.865  1.00  0.00     0.010 A 
ATOM     43  C   UNL A   1      44.133  23.366  27.191  1.00  0.00    -0.014 A 
BRANCH  43  44
ATOM     44  C   UNL A   1      44.695  24.731  27.431  1.00  0.00     0.031 A 
ATOM     45  C   UNL A   1      43.728  25.825  27.826  1.00  0.00     0.074 A 
ATOM     46  C   UNL A   1      45.999  25.036  27.290  1.00  0.00     0.049 A 
ATOM     47  N   UNL A   1      43.921  27.115  27.930  1.00  0.00    -0.248 NA
ATOM     48  C   UNL A   1      42.354  25.395  28.129  1.00  0.00     0.031 C 
ATOM     49  C   UNL A   1      47.071  24.091  26.992  1.00  0.00     0.029 A 
ATOM     50  N   UNL A   1      46.639  26.256  27.360  1.00  0.00    -0.354 N 
ATOM     51  C   UNL A   1      42.686  27.654  28.279  1.00  0.00     0.074 A 
ATOM     52  C   UNL A   1      41.750  26.552  28.347  1.00  0.00     0.031 C 
ATOM     53  C   UNL A   1      48.231  24.767  26.878  1.00  0.00     0.029 A 
ATOM     54  C   UNL A   1      47.979  26.200  27.052  1.00  0.00     0.049 A 
ATOM     55  H   UNL A   1      46.179  27.090  27.609  1.00  0.00     0.167 HD
ATOM     56  C   UNL A   1      42.351  28.945  28.519  1.00  0.00     0.031 A 
ATOM     57  C   UNL A   1      48.890  27.185  26.893  1.00  0.00     0.031 A 
ATOM     58  C   UNL A   1      43.271  30.049  28.444  1.00  0.00     0.049 A 
ATOM     59  C   UNL A   1      48.483  28.629  27.079  1.00  0.00     0.074 A 
ATOM     60  C   UNL A   1      43.023  31.391  28.681  1.00  0.00     0.029 A 
ATOM     61  N   UNL A   1      44.609  29.944  28.102  1.00  0.00    -0.354 N 
ATOM     62  N   UNL A   1      47.312  29.123  27.405  1.00  0.00    -0.248 NA
ATOM     63  C   UNL A   1      49.525  29.650  26.877  1.00  0.00     0.031 C 
ATOM     64  C   UNL A   1      44.195  32.105  28.418  1.00  0.00     0.029 A 
ATOM     65  C   UNL A   1      45.193  31.201  28.094  1.00  0.00     0.049 A 
ATOM     66  H   UNL A   1      45.076  29.103  27.896  1.00  0.00     0.167 HD
ATOM     67  C   UNL A   1      47.488  30.504  27.484  1.00  0.00     0.074 A 
ATOM     68  C   UNL A   1      48.877  30.768  27.176  1.00  0.00     0.031 C 
ATOM     69  C   UNL A   1      46.579  31.463  27.795  1.00  0.00     0.031 A 
BRANCH  56  70
ATOM     70  C   UNL A   1      40.906  29.239  28.833  1.00  0.00    -0.014 A 
ATOM     71  C   UNL A   1      40.469  29.452  30.154  1.00  0.00     0.010 A 
ATOM     72  C   UNL A   1      39.973  29.321  27.784  1.00  0.00     0.010 A 
ATOM     73  C   UNL A   1      39.118  29.688  30.422  1.00  0.00     0.020 A 
ATOM     74  C   UNL A   1      38.627  29.591  28.045  1.00  0.00     0.020 A 
ATOM     75  C   UNL A   1      38.205  29.753  29.366  1.00  0.00     0.054 A 
BRANCH  75  76
ATOM     76  S   UNL A   1      36.458  30.067  29.743  1.00  0.00     0.124 S 
ATOM     77  O   UNL A   1      35.790  29.472  28.588  1.00  0.00    -0.237 OA
ATOM     78  O   UNL A   1      36.273  29.364  31.009  1.00  0.00    -0.237 OA
ATOM     79  O   UNL A   1      36.378  31.524  29.824  1.00  0.00    -0.744 OA
ENDBRANCH  75  76
ENDBRANCH  56  70
BRANCH  57  80
ATOM     80  C   UNL A   1      50.293  26.849  26.507  1.00  0.00    -0.014 A 
ATOM     81  C   UNL A   1      50.626  26.576  25.168  1.00  0.00     0.010 A 
ATOM     82  C   UNL A   1      51.306  26.793  27.483  1.00  0.00     0.010 A 
ATOM     83  C   UNL A   1      51.941  26.253  24.812  1.00  0.00     0.020 A 
ATOM     84  C   UNL A   1      52.627  26.501  27.128  1.00  0.00     0.020 A 
ATOM     85  C   UNL A   1      52.935  26.228  25.794  1.00  0.00     0.054 A 
BRANCH  85  86
ATOM     86  S   UNL A   1      54.648  25.891  25.297  1.00  0.00     0.124 S 
ATOM     87  O   UNL A   1      55.402  26.787  26.168  1.00  0.00    -0.237 OA
ATOM     88  O   UNL A   1      54.783  24.465  25.585  1.00  0.00    -0.237 OA
ATOM     89  O   UNL A   1      54.667  26.235  23.876  1.00  0.00    -0.744 OA
ENDBRANCH  85  86
ENDBRANCH  57  80
BRANCH  69  90
ATOM     90  C   UNL A   1      47.053  32.894  27.879  1.00  0.00    -0.014 A 
ATOM     91  C   UNL A   1      47.065  33.739  26.755  1.00  0.00     0.010 A 
ATOM     92  C   UNL A   1      47.418  33.425  29.132  1.00  0.00     0.010 A 
ATOM     93  C   UNL A   1      47.458  35.076  26.879  1.00  0.00     0.020 A 
ATOM     94  C   UNL A   1      47.782  34.767  29.264  1.00  0.00     0.020 A 
ATOM     95  C   UNL A   1      47.811  35.583  28.134  1.00  0.00     0.054 A 
BRANCH  95  96
ATOM     96  S   UNL A   1      48.266  37.334  28.275  1.00  0.00     0.124 S 
ATOM     97  O   UNL A   1      49.724  37.267  28.335  1.00  0.00    -0.237 OA
ATOM     98  O   UNL A   1      47.715  37.908  27.049  1.00  0.00    -0.237 OA
ATOM     99  O   UNL A   1      47.612  37.765  29.508  1.00  0.00    -0.744 OA
ENDBRANCH  95  96
ENDBRANCH  69  90
ENDBRANCH  43  44
ENDBRANCH  36  38
ENDBRANCH  35  36
ENDBRANCH  34  35
ENDBRANCH  33  34
ENDBRANCH  32  33
ENDBRANCH  31  32
ENDBRANCH   1  31
TORSDOF 24
ENDMDL
