MODEL 1
REMARK VINA RESULT:      -9.7      0.000      0.000
REMARK SMILES O=C(Cc1ccccc1Nc1c(F)cccc1C(F)(F)F)OCCOCCOCCOC(=O)c1ccc(-c2c3nc(c(-c4ccc(S(=O)(=O)[O-])cc4)c4ccc([nH]4)c(-c4ccc(S(=O)(=O)[O-])cc4)c4nc(c(-c5ccc(S(=O)(=O)[O-])cc5)c5ccc2[nH]5)C=C4)C=C3)cc1
REMARK SMILES IDX 26 1 25 2 24 3 23 4 22 5 2 6 1 7 3 8 4 9 5 10 9 11 6 12 8 13
REMARK SMILES IDX 7 14 10 15 11 17 12 18 17 19 13 20 14 21 16 22 15 23 18 24
REMARK SMILES IDX 19 25 20 26 21 27 27 28 28 29 29 30 30 31 31 32 32 33 33 34
REMARK SMILES IDX 34 35 35 36 93 37 36 38 92 39 37 40 38 41 39 42 86 43 40 44
REMARK SMILES IDX 91 45 85 46 87 47 41 48 90 49 84 50 83 51 42 53 72 54 53 55
REMARK SMILES IDX 71 56 54 57 57 58 70 59 88 60 55 61 56 62 69 64 89 65 58 66
REMARK SMILES IDX 43 67 44 68 52 69 45 70 51 71 46 72 47 73 48 74 49 75 50 76
REMARK SMILES IDX 73 77 74 78 82 79 75 80 81 81 76 82 77 83 78 84 79 85 80 86
REMARK SMILES IDX 59 87 60 88 68 89 61 90 67 91 62 92 63 93 64 94 65 95 66 96
REMARK H PARENT 10 16 87 52 57 63
REMARK Flexibility Score: inf
ROOT
ATOM      1  C   UNL A   1      36.272  23.183  25.166  1.00  0.00     0.188 C 
ENDROOT
BRANCH   1   2
ATOM      2  O   UNL A   1      35.888  23.909  24.017  1.00  0.00    -0.376 OA
BRANCH   2   3
ATOM      3  C   UNL A   1      34.586  23.777  23.474  1.00  0.00     0.202 C 
BRANCH   3   4
ATOM      4  C   UNL A   1      33.477  24.675  24.020  1.00  0.00     0.261 C 
BRANCH   4   5
ATOM      5  O   UNL A   1      33.588  26.124  23.976  1.00  0.00    -0.463 OA
BRANCH   5   6
ATOM      6  C   UNL A   1      33.730  27.025  22.986  1.00  0.00     0.310 C 
ATOM      7  O   UNL A   1      33.717  26.637  21.817  1.00  0.00    -0.252 OA
BRANCH   6   8
ATOM      8  C   UNL A   1      33.921  28.484  23.297  1.00  0.00     0.160 C 
BRANCH   8   9
ATOM      9  C   UNL A   1      33.453  28.817  24.686  1.00  0.00    -0.013 A 
ATOM     10  C   UNL A   1      34.323  28.610  25.773  1.00  0.00     0.006 A 
ATOM     11  C   UNL A   1      32.155  29.300  24.919  1.00  0.00     0.042 A 
ATOM     12  C   UNL A   1      33.895  28.809  27.081  1.00  0.00     0.000 A 
ATOM     13  C   UNL A   1      31.733  29.454  26.247  1.00  0.00     0.026 A 
ATOM     14  C   UNL A   1      32.589  29.209  27.320  1.00  0.00     0.002 A 
BRANCH  11  15
ATOM     15  N   UNL A   1      31.336  29.691  23.845  1.00  0.00    -0.352 N 
ATOM     16  H   UNL A   1      31.813  30.048  23.061  1.00  0.00     0.167 HD
BRANCH  15  17
ATOM     17  C   UNL A   1      29.930  29.649  23.723  1.00  0.00     0.087 A 
ATOM     18  C   UNL A   1      29.245  30.880  23.799  1.00  0.00     0.147 A 
ATOM     19  C   UNL A   1      29.191  28.492  23.424  1.00  0.00     0.082 A 
ATOM     20  F   UNL A   1      29.926  31.981  24.161  1.00  0.00    -0.205 F 
ATOM     21  C   UNL A   1      27.900  31.004  23.480  1.00  0.00     0.041 A 
ATOM     22  C   UNL A   1      27.851  28.644  23.025  1.00  0.00     0.015 A 
ATOM     23  C   UNL A   1      27.209  29.883  23.046  1.00  0.00     0.004 A 
BRANCH  19  24
ATOM     24  C   UNL A   1      29.726  27.082  23.552  1.00  0.00     0.418 C 
ATOM     25  F   UNL A   1      30.580  26.753  22.540  1.00  0.00    -0.166 F 
ATOM     26  F   UNL A   1      30.424  26.865  24.700  1.00  0.00    -0.166 F 
ATOM     27  F   UNL A   1      28.768  26.109  23.495  1.00  0.00    -0.166 F 
ENDBRANCH  19  24
ENDBRANCH  15  17
ENDBRANCH  11  15
ENDBRANCH   8   9
ENDBRANCH   6   8
ENDBRANCH   5   6
ENDBRANCH   4   5
ENDBRANCH   3   4
ENDBRANCH   2   3
ENDBRANCH   1   2
BRANCH   1  28
ATOM     28  C   UNL A   1      37.572  22.383  24.990  1.00  0.00     0.188 C 
BRANCH  28  29
ATOM     29  O   UNL A   1      37.741  21.201  25.760  1.00  0.00    -0.376 OA
BRANCH  29  30
ATOM     30  C   UNL A   1      38.141  20.013  25.080  1.00  0.00     0.202 C 
BRANCH  30  31
ATOM     31  C   UNL A   1      39.319  19.189  25.634  1.00  0.00     0.261 C 
BRANCH  31  32
ATOM     32  O   UNL A   1      40.587  19.875  25.712  1.00  0.00    -0.460 OA
BRANCH  32  33
ATOM     33  C   UNL A   1      41.019  20.175  26.959  1.00  0.00     0.338 C 
ATOM     34  O   UNL A   1      40.878  19.490  27.971  1.00  0.00    -0.246 OA
BRANCH  33  35
ATOM     35  C   UNL A   1      41.808  21.419  26.970  1.00  0.00     0.060 A 
ATOM     36  C   UNL A   1      42.417  21.840  28.159  1.00  0.00     0.016 A 
ATOM     37  C   UNL A   1      41.809  22.251  25.849  1.00  0.00     0.016 A 
ATOM     38  C   UNL A   1      43.022  23.102  28.236  1.00  0.00     0.010 A 
ATOM     39  C   UNL A   1      42.398  23.518  25.933  1.00  0.00     0.010 A 
ATOM     40  C   UNL A   1      42.988  23.963  27.131  1.00  0.00    -0.014 A 
BRANCH  40  41
ATOM     41  C   UNL A   1      43.454  25.373  27.237  1.00  0.00     0.031 A 
ATOM     42  C   UNL A   1      44.871  25.710  26.848  1.00  0.00     0.074 A 
ATOM     43  C   UNL A   1      42.651  26.333  27.734  1.00  0.00     0.049 A 
ATOM     44  N   UNL A   1      45.529  26.830  27.011  1.00  0.00    -0.248 NA
ATOM     45  C   UNL A   1      45.650  24.645  26.194  1.00  0.00     0.031 C 
ATOM     46  C   UNL A   1      41.251  26.156  28.120  1.00  0.00     0.029 A 
ATOM     47  N   UNL A   1      42.918  27.648  28.036  1.00  0.00    -0.354 N 
ATOM     48  C   UNL A   1      46.806  26.597  26.510  1.00  0.00     0.074 A 
ATOM     49  C   UNL A   1      46.829  25.231  26.032  1.00  0.00     0.031 C 
ATOM     50  C   UNL A   1      40.795  27.307  28.646  1.00  0.00     0.029 A 
ATOM     51  C   UNL A   1      41.879  28.288  28.670  1.00  0.00     0.049 A 
ATOM     52  H   UNL A   1      43.772  28.088  27.819  1.00  0.00     0.167 HD
ATOM     53  C   UNL A   1      47.866  27.439  26.463  1.00  0.00     0.031 A 
ATOM     54  C   UNL A   1      41.823  29.506  29.248  1.00  0.00     0.031 A 
ATOM     55  C   UNL A   1      47.847  28.798  26.936  1.00  0.00     0.049 A 
ATOM     56  C   UNL A   1      43.043  30.394  29.249  1.00  0.00     0.074 A 
ATOM     57  C   UNL A   1      48.859  29.742  26.874  1.00  0.00     0.029 A 
ATOM     58  N   UNL A   1      46.778  29.402  27.575  1.00  0.00    -0.354 N 
ATOM     59  N   UNL A   1      44.220  30.182  28.713  1.00  0.00    -0.248 NA
ATOM     60  C   UNL A   1      42.923  31.687  29.943  1.00  0.00     0.031 C 
ATOM     61  C   UNL A   1      48.426  30.893  27.536  1.00  0.00     0.029 A 
ATOM     62  C   UNL A   1      47.124  30.688  27.957  1.00  0.00     0.049 A 
ATOM     63  H   UNL A   1      45.903  28.980  27.736  1.00  0.00     0.167 HD
ATOM     64  C   UNL A   1      44.972  31.320  28.992  1.00  0.00     0.074 A 
ATOM     65  C   UNL A   1      44.113  32.227  29.720  1.00  0.00     0.031 C 
ATOM     66  C   UNL A   1      46.261  31.587  28.678  1.00  0.00     0.031 A 
BRANCH  53  67
ATOM     67  C   UNL A   1      49.167  26.916  25.918  1.00  0.00    -0.014 A 
ATOM     68  C   UNL A   1      49.548  27.148  24.586  1.00  0.00     0.010 A 
ATOM     69  C   UNL A   1      50.069  26.277  26.790  1.00  0.00     0.010 A 
ATOM     70  C   UNL A   1      50.803  26.735  24.131  1.00  0.00     0.020 A 
ATOM     71  C   UNL A   1      51.333  25.883  26.345  1.00  0.00     0.020 A 
ATOM     72  C   UNL A   1      51.690  26.109  25.014  1.00  0.00     0.054 A 
BRANCH  72  73
ATOM     73  S   UNL A   1      53.337  25.644  24.413  1.00  0.00     0.124 S 
ATOM     74  O   UNL A   1      53.211  25.881  22.976  1.00  0.00    -0.237 OA
ATOM     75  O   UNL A   1      54.212  26.569  25.128  1.00  0.00    -0.237 OA
ATOM     76  O   UNL A   1      53.467  24.242  24.802  1.00  0.00    -0.744 OA
ENDBRANCH  72  73
ENDBRANCH  53  67
BRANCH  54  77
ATOM     77  C   UNL A   1      40.595  29.957  29.960  1.00  0.00    -0.014 A 
ATOM     78  C   UNL A   1      39.530  30.539  29.249  1.00  0.00     0.010 A 
ATOM     79  C   UNL A   1      40.523  29.883  31.362  1.00  0.00     0.010 A 
ATOM     80  C   UNL A   1      38.432  31.070  29.932  1.00  0.00     0.020 A 
ATOM     81  C   UNL A   1      39.410  30.382  32.045  1.00  0.00     0.020 A 
ATOM     82  C   UNL A   1      38.378  30.987  31.326  1.00  0.00     0.054 A 
BRANCH  82  83
ATOM     83  S   UNL A   1      36.878  31.550  32.179  1.00  0.00     0.124 S 
ATOM     84  O   UNL A   1      35.914  30.518  31.819  1.00  0.00    -0.237 OA
ATOM     85  O   UNL A   1      37.303  31.562  33.578  1.00  0.00    -0.237 OA
ATOM     86  O   UNL A   1      36.640  32.872  31.606  1.00  0.00    -0.744 OA
ENDBRANCH  82  83
ENDBRANCH  54  77
BRANCH  66  87
ATOM     87  C   UNL A   1      46.826  32.919  29.095  1.00  0.00    -0.014 A 
ATOM     88  C   UNL A   1      46.727  34.044  28.256  1.00  0.00     0.010 A 
ATOM     89  C   UNL A   1      47.399  33.065  30.371  1.00  0.00     0.010 A 
ATOM     90  C   UNL A   1      47.205  35.287  28.681  1.00  0.00     0.020 A 
ATOM     91  C   UNL A   1      47.854  34.311  30.810  1.00  0.00     0.020 A 
ATOM     92  C   UNL A   1      47.762  35.413  29.957  1.00  0.00     0.054 A 
BRANCH  92  93
ATOM     93  S   UNL A   1      48.315  37.050  30.511  1.00  0.00     0.124 S 
ATOM     94  O   UNL A   1      48.398  37.786  29.253  1.00  0.00    -0.237 OA
ATOM     95  O   UNL A   1      47.240  37.464  31.411  1.00  0.00    -0.237 OA
ATOM     96  O   UNL A   1      49.595  36.782  31.162  1.00  0.00    -0.744 OA
ENDBRANCH  92  93
ENDBRANCH  66  87
ENDBRANCH  40  41
ENDBRANCH  33  35
ENDBRANCH  32  33
ENDBRANCH  31  32
ENDBRANCH  30  31
ENDBRANCH  29  30
ENDBRANCH  28  29
ENDBRANCH   1  28
TORSDOF 24
ENDMDL
MODEL 2
REMARK VINA RESULT:      -8.6      2.253      8.315
REMARK SMILES O=C(Cc1ccccc1Nc1c(F)cccc1C(F)(F)F)OCCOCCOCCOC(=O)c1ccc(-c2c3nc(c(-c4ccc(S(=O)(=O)[O-])cc4)c4ccc([nH]4)c(-c4ccc(S(=O)(=O)[O-])cc4)c4nc(c(-c5ccc(S(=O)(=O)[O-])cc5)c5ccc2[nH]5)C=C4)C=C3)cc1
REMARK SMILES IDX 26 1 25 2 24 3 23 4 22 5 2 6 1 7 3 8 4 9 5 10 9 11 6 12 8 13
REMARK SMILES IDX 7 14 10 15 11 17 12 18 17 19 13 20 14 21 16 22 15 23 18 24
REMARK SMILES IDX 19 25 20 26 21 27 27 28 28 29 29 30 30 31 31 32 32 33 33 34
REMARK SMILES IDX 34 35 35 36 93 37 36 38 92 39 37 40 38 41 39 42 86 43 40 44
REMARK SMILES IDX 91 45 85 46 87 47 41 48 90 49 84 50 83 51 42 53 72 54 53 55
REMARK SMILES IDX 71 56 54 57 57 58 70 59 88 60 55 61 56 62 69 64 89 65 58 66
REMARK SMILES IDX 43 67 44 68 52 69 45 70 51 71 46 72 47 73 48 74 49 75 50 76
REMARK SMILES IDX 73 77 74 78 82 79 75 80 81 81 76 82 77 83 78 84 79 85 80 86
REMARK SMILES IDX 59 87 60 88 68 89 61 90 67 91 62 92 63 93 64 94 65 95 66 96
REMARK H PARENT 10 16 87 52 57 63
REMARK Flexibility Score: inf
ROOT
ATOM      1  C   UNL A   1      37.460  22.105  25.483  1.00  0.00     0.188 C 
ENDROOT
BRANCH   1   2
ATOM      2  O   UNL A   1      37.227  23.139  24.549  1.00  0.00    -0.376 OA
BRANCH   2   3
ATOM      3  C   UNL A   1      35.908  23.515  24.194  1.00  0.00     0.202 C 
BRANCH   3   4
ATOM      4  C   UNL A   1      35.002  24.096  25.279  1.00  0.00     0.261 C 
BRANCH   4   5
ATOM      5  O   UNL A   1      34.447  25.435  25.164  1.00  0.00    -0.463 OA
BRANCH   5   6
ATOM      6  C   UNL A   1      33.362  25.952  24.556  1.00  0.00     0.310 C 
ATOM      7  O   UNL A   1      32.353  25.257  24.439  1.00  0.00    -0.252 OA
BRANCH   6   8
ATOM      8  C   UNL A   1      33.385  27.353  24.009  1.00  0.00     0.160 C 
BRANCH   8   9
ATOM      9  C   UNL A   1      33.178  28.372  25.093  1.00  0.00    -0.013 A 
ATOM     10  C   UNL A   1      34.057  28.396  26.193  1.00  0.00     0.006 A 
ATOM     11  C   UNL A   1      32.106  29.278  25.045  1.00  0.00     0.042 A 
ATOM     12  C   UNL A   1      33.841  29.254  27.265  1.00  0.00     0.000 A 
ATOM     13  C   UNL A   1      31.883  30.105  26.154  1.00  0.00     0.026 A 
ATOM     14  C   UNL A   1      32.738  30.094  27.256  1.00  0.00     0.002 A 
BRANCH  11  15
ATOM     15  N   UNL A   1      31.328  29.401  23.878  1.00  0.00    -0.352 N 
ATOM     16  H   UNL A   1      31.836  29.406  23.035  1.00  0.00     0.167 HD
BRANCH  15  17
ATOM     17  C   UNL A   1      29.929  29.518  23.737  1.00  0.00     0.087 A 
ATOM     18  C   UNL A   1      29.390  30.821  23.781  1.00  0.00     0.147 A 
ATOM     19  C   UNL A   1      29.065  28.448  23.448  1.00  0.00     0.082 A 
ATOM     20  F   UNL A   1      30.189  31.843  24.133  1.00  0.00    -0.205 F 
ATOM     21  C   UNL A   1      28.072  31.093  23.442  1.00  0.00     0.041 A 
ATOM     22  C   UNL A   1      27.756  28.747  23.028  1.00  0.00     0.015 A 
ATOM     23  C   UNL A   1      27.262  30.052  23.018  1.00  0.00     0.004 A 
BRANCH  19  24
ATOM     24  C   UNL A   1      29.432  26.990  23.609  1.00  0.00     0.418 C 
ATOM     25  F   UNL A   1      29.972  26.718  24.832  1.00  0.00    -0.166 F 
ATOM     26  F   UNL A   1      28.374  26.143  23.484  1.00  0.00    -0.166 F 
ATOM     27  F   UNL A   1      30.383  26.548  22.732  1.00  0.00    -0.166 F 
ENDBRANCH  19  24
ENDBRANCH  15  17
ENDBRANCH  11  15
ENDBRANCH   8   9
ENDBRANCH   6   8
ENDBRANCH   5   6
ENDBRANCH   4   5
ENDBRANCH   3   4
ENDBRANCH   2   3
ENDBRANCH   1   2
BRANCH   1  28
ATOM     28  C   UNL A   1      38.949  21.804  25.716  1.00  0.00     0.188 C 
BRANCH  28  29
ATOM     29  O   UNL A   1      39.288  20.663  26.492  1.00  0.00    -0.376 OA
BRANCH  29  30
ATOM     30  C   UNL A   1      40.457  19.932  26.128  1.00  0.00     0.202 C 
BRANCH  30  31
ATOM     31  C   UNL A   1      41.840  20.587  26.304  1.00  0.00     0.261 C 
BRANCH  31  32
ATOM     32  O   UNL A   1      41.836  21.949  26.782  1.00  0.00    -0.460 OA
BRANCH  32  33
ATOM     33  C   UNL A   1      42.508  22.844  26.021  1.00  0.00     0.338 C 
ATOM     34  O   UNL A   1      42.983  22.648  24.903  1.00  0.00    -0.246 OA
BRANCH  33  35
ATOM     35  C   UNL A   1      42.528  24.176  26.648  1.00  0.00     0.060 A 
ATOM     36  C   UNL A   1      42.603  25.319  25.841  1.00  0.00     0.016 A 
ATOM     37  C   UNL A   1      42.638  24.289  28.035  1.00  0.00     0.016 A 
ATOM     38  C   UNL A   1      42.799  26.580  26.418  1.00  0.00     0.010 A 
ATOM     39  C   UNL A   1      42.853  25.549  28.608  1.00  0.00     0.010 A 
ATOM     40  C   UNL A   1      42.957  26.700  27.805  1.00  0.00    -0.014 A 
BRANCH  40  41
ATOM     41  C   UNL A   1      43.350  27.993  28.428  1.00  0.00     0.031 A 
ATOM     42  C   UNL A   1      42.275  28.933  28.913  1.00  0.00     0.074 A 
ATOM     43  C   UNL A   1      44.643  28.361  28.506  1.00  0.00     0.049 A 
ATOM     44  N   UNL A   1      42.384  30.167  29.336  1.00  0.00    -0.248 NA
ATOM     45  C   UNL A   1      40.896  28.416  28.917  1.00  0.00     0.031 C 
ATOM     46  C   UNL A   1      45.787  27.541  28.106  1.00  0.00     0.029 A 
ATOM     47  N   UNL A   1      45.209  29.546  28.916  1.00  0.00    -0.354 N 
ATOM     48  C   UNL A   1      41.090  30.585  29.627  1.00  0.00     0.074 A 
ATOM     49  C   UNL A   1      40.212  29.472  29.338  1.00  0.00     0.031 C 
ATOM     50  C   UNL A   1      46.913  28.262  28.251  1.00  0.00     0.029 A 
ATOM     51  C   UNL A   1      46.568  29.605  28.715  1.00  0.00     0.049 A 
ATOM     52  H   UNL A   1      44.689  30.281  29.314  1.00  0.00     0.167 HD
ATOM     53  C   UNL A   1      40.670  31.790  30.082  1.00  0.00     0.031 A 
ATOM     54  C   UNL A   1      47.429  30.636  28.843  1.00  0.00     0.031 A 
ATOM     55  C   UNL A   1      41.539  32.899  30.372  1.00  0.00     0.049 A 
ATOM     56  C   UNL A   1      46.920  31.989  29.278  1.00  0.00     0.074 A 
ATOM     57  C   UNL A   1      41.204  34.138  30.892  1.00  0.00     0.029 A 
ATOM     58  N   UNL A   1      42.905  32.917  30.149  1.00  0.00    -0.354 N 
ATOM     59  N   UNL A   1      45.704  32.347  29.611  1.00  0.00    -0.248 NA
ATOM     60  C   UNL A   1      47.907  33.079  29.346  1.00  0.00     0.031 C 
ATOM     61  C   UNL A   1      42.356  34.928  30.920  1.00  0.00     0.029 A 
ATOM     62  C   UNL A   1      43.419  34.162  30.474  1.00  0.00     0.049 A 
ATOM     63  H   UNL A   1      43.433  32.158  29.809  1.00  0.00     0.167 HD
ATOM     64  C   UNL A   1      45.786  33.697  29.943  1.00  0.00     0.074 A 
ATOM     65  C   UNL A   1      47.171  34.085  29.796  1.00  0.00     0.031 C 
ATOM     66  C   UNL A   1      44.800  34.540  30.329  1.00  0.00     0.031 A 
BRANCH  53  67
ATOM     67  C   UNL A   1      39.191  32.007  30.261  1.00  0.00    -0.014 A 
ATOM     68  C   UNL A   1      38.568  31.802  31.503  1.00  0.00     0.010 A 
ATOM     69  C   UNL A   1      38.439  32.528  29.192  1.00  0.00     0.010 A 
ATOM     70  C   UNL A   1      37.213  32.103  31.669  1.00  0.00     0.020 A 
ATOM     71  C   UNL A   1      37.091  32.851  29.360  1.00  0.00     0.020 A 
ATOM     72  C   UNL A   1      36.484  32.629  30.597  1.00  0.00     0.054 A 
BRANCH  72  73
ATOM     73  S   UNL A   1      34.744  33.071  30.860  1.00  0.00     0.124 S 
ATOM     74  O   UNL A   1      34.830  34.513  31.082  1.00  0.00    -0.237 OA
ATOM     75  O   UNL A   1      34.117  32.665  29.605  1.00  0.00    -0.237 OA
ATOM     76  O   UNL A   1      34.357  32.285  32.028  1.00  0.00    -0.744 OA
ENDBRANCH  72  73
ENDBRANCH  53  67
BRANCH  54  77
ATOM     77  C   UNL A   1      48.865  30.481  28.482  1.00  0.00    -0.014 A 
ATOM     78  C   UNL A   1      49.818  30.160  29.465  1.00  0.00     0.010 A 
ATOM     79  C   UNL A   1      49.296  30.737  27.169  1.00  0.00     0.010 A 
ATOM     80  C   UNL A   1      51.179  30.134  29.147  1.00  0.00     0.020 A 
ATOM     81  C   UNL A   1      50.653  30.678  26.840  1.00  0.00     0.020 A 
ATOM     82  C   UNL A   1      51.588  30.391  27.835  1.00  0.00     0.054 A 
BRANCH  82  83
ATOM     83  S   UNL A   1      53.344  30.207  27.414  1.00  0.00     0.124 S 
ATOM     84  O   UNL A   1      53.910  31.456  27.907  1.00  0.00    -0.237 OA
ATOM     85  O   UNL A   1      53.716  29.004  28.156  1.00  0.00    -0.237 OA
ATOM     86  O   UNL A   1      53.328  30.043  25.963  1.00  0.00    -0.744 OA
ENDBRANCH  82  83
ENDBRANCH  54  77
BRANCH  66  87
ATOM     87  C   UNL A   1      45.175  35.964  30.644  1.00  0.00    -0.014 A 
ATOM     88  C   UNL A   1      45.562  36.342  31.943  1.00  0.00     0.010 A 
ATOM     89  C   UNL A   1      45.210  36.920  29.613  1.00  0.00     0.010 A 
ATOM     90  C   UNL A   1      45.962  37.655  32.206  1.00  0.00     0.020 A 
ATOM     91  C   UNL A   1      45.635  38.227  29.867  1.00  0.00     0.020 A 
ATOM     92  C   UNL A   1      46.000  38.588  31.166  1.00  0.00     0.054 A 
BRANCH  92  93
ATOM     93  S   UNL A   1      46.586  40.268  31.520  1.00  0.00     0.124 S 
ATOM     94  O   UNL A   1      46.249  40.975  30.288  1.00  0.00    -0.237 OA
ATOM     95  O   UNL A   1      45.799  40.641  32.694  1.00  0.00    -0.237 OA
ATOM     96  O   UNL A   1      48.015  40.093  31.766  1.00  0.00    -0.744 OA
ENDBRANCH  92  93
ENDBRANCH  66  87
ENDBRANCH  40  41
ENDBRANCH  33  35
ENDBRANCH  32  33
ENDBRANCH  31  32
ENDBRANCH  30  31
ENDBRANCH  29  30
ENDBRANCH  28  29
ENDBRANCH   1  28
TORSDOF 24
ENDMDL
MODEL 3
REMARK VINA RESULT:      -8.4     10.519     16.796
REMARK SMILES O=C(Cc1ccccc1Nc1c(F)cccc1C(F)(F)F)OCCOCCOCCOC(=O)c1ccc(-c2c3nc(c(-c4ccc(S(=O)(=O)[O-])cc4)c4ccc([nH]4)c(-c4ccc(S(=O)(=O)[O-])cc4)c4nc(c(-c5ccc(S(=O)(=O)[O-])cc5)c5ccc2[nH]5)C=C4)C=C3)cc1
REMARK SMILES IDX 26 1 25 2 24 3 23 4 22 5 2 6 1 7 3 8 4 9 5 10 9 11 6 12 8 13
REMARK SMILES IDX 7 14 10 15 11 17 12 18 17 19 13 20 14 21 16 22 15 23 18 24
REMARK SMILES IDX 19 25 20 26 21 27 27 28 28 29 29 30 30 31 31 32 32 33 33 34
REMARK SMILES IDX 34 35 35 36 93 37 36 38 92 39 37 40 38 41 39 42 86 43 40 44
REMARK SMILES IDX 91 45 85 46 87 47 41 48 90 49 84 50 83 51 42 53 72 54 53 55
REMARK SMILES IDX 71 56 54 57 57 58 70 59 88 60 55 61 56 62 69 64 89 65 58 66
REMARK SMILES IDX 43 67 44 68 52 69 45 70 51 71 46 72 47 73 48 74 49 75 50 76
REMARK SMILES IDX 73 77 74 78 82 79 75 80 81 81 76 82 77 83 78 84 79 85 80 86
REMARK SMILES IDX 59 87 60 88 68 89 61 90 67 91 62 92 63 93 64 94 65 95 66 96
REMARK H PARENT 10 16 87 52 57 63
REMARK Flexibility Score: inf
ROOT
ATOM      1  C   UNL A   1      49.614  19.804  39.359  1.00  0.00     0.188 C 
ENDROOT
BRANCH   1   2
ATOM      2  O   UNL A   1      48.694  18.783  39.687  1.00  0.00    -0.376 OA
BRANCH   2   3
ATOM      3  C   UNL A   1      47.323  18.901  39.348  1.00  0.00     0.202 C 
BRANCH   3   4
ATOM      4  C   UNL A   1      46.282  18.595  40.424  1.00  0.00     0.261 C 
BRANCH   4   5
ATOM      5  O   UNL A   1      46.057  19.503  41.537  1.00  0.00    -0.463 OA
BRANCH   5   6
ATOM      6  C   UNL A   1      45.059  19.670  42.426  1.00  0.00     0.310 C 
ATOM      7  O   UNL A   1      44.916  20.767  42.966  1.00  0.00    -0.252 OA
BRANCH   6   8
ATOM      8  C   UNL A   1      44.141  18.530  42.771  1.00  0.00     0.160 C 
BRANCH   8   9
ATOM      9  C   UNL A   1      44.890  17.391  43.403  1.00  0.00    -0.013 A 
ATOM     10  C   UNL A   1      46.134  17.640  44.015  1.00  0.00     0.006 A 
ATOM     11  C   UNL A   1      44.387  16.080  43.367  1.00  0.00     0.042 A 
ATOM     12  C   UNL A   1      46.905  16.599  44.521  1.00  0.00     0.000 A 
ATOM     13  C   UNL A   1      45.198  15.043  43.846  1.00  0.00     0.026 A 
ATOM     14  C   UNL A   1      46.446  15.295  44.415  1.00  0.00     0.002 A 
BRANCH  11  15
ATOM     15  N   UNL A   1      43.071  15.833  42.933  1.00  0.00    -0.352 N 
ATOM     16  H   UNL A   1      42.406  16.506  43.204  1.00  0.00     0.167 HD
BRANCH  15  17
ATOM     17  C   UNL A   1      42.562  14.763  42.166  1.00  0.00     0.087 A 
ATOM     18  C   UNL A   1      42.062  13.651  42.875  1.00  0.00     0.147 A 
ATOM     19  C   UNL A   1      42.421  14.781  40.768  1.00  0.00     0.082 A 
ATOM     20  F   UNL A   1      42.260  13.584  44.203  1.00  0.00    -0.205 F 
ATOM     21  C   UNL A   1      41.342  12.637  42.258  1.00  0.00     0.041 A 
ATOM     22  C   UNL A   1      41.621  13.791  40.168  1.00  0.00     0.015 A 
ATOM     23  C   UNL A   1      41.082  12.733  40.900  1.00  0.00     0.004 A 
BRANCH  19  24
ATOM     24  C   UNL A   1      43.116  15.766  39.855  1.00  0.00     0.418 C 
ATOM     25  F   UNL A   1      42.563  17.012  39.911  1.00  0.00    -0.166 F 
ATOM     26  F   UNL A   1      44.435  15.943  40.143  1.00  0.00    -0.166 F 
ATOM     27  F   UNL A   1      43.054  15.445  38.527  1.00  0.00    -0.166 F 
ENDBRANCH  19  24
ENDBRANCH  15  17
ENDBRANCH  11  15
ENDBRANCH   8   9
ENDBRANCH   6   8
ENDBRANCH   5   6
ENDBRANCH   4   5
ENDBRANCH   3   4
ENDBRANCH   2   3
ENDBRANCH   1   2
BRANCH   1  28
ATOM     28  C   UNL A   1      49.777  20.868  40.456  1.00  0.00     0.188 C 
BRANCH  28  29
ATOM     29  O   UNL A   1      49.072  22.094  40.311  1.00  0.00    -0.376 OA
BRANCH  29  30
ATOM     30  C   UNL A   1      49.740  23.175  39.663  1.00  0.00     0.202 C 
BRANCH  30  31
ATOM     31  C   UNL A   1      49.865  23.172  38.128  1.00  0.00     0.261 C 
BRANCH  31  32
ATOM     32  O   UNL A   1      50.155  24.447  37.517  1.00  0.00    -0.460 OA
BRANCH  32  33
ATOM     33  C   UNL A   1      50.089  24.482  36.166  1.00  0.00     0.338 C 
ATOM     34  O   UNL A   1      50.787  23.843  35.379  1.00  0.00    -0.246 OA
BRANCH  33  35
ATOM     35  C   UNL A   1      48.974  25.326  35.703  1.00  0.00     0.060 A 
ATOM     36  C   UNL A   1      47.661  24.847  35.795  1.00  0.00     0.016 A 
ATOM     37  C   UNL A   1      49.239  26.520  35.030  1.00  0.00     0.016 A 
ATOM     38  C   UNL A   1      46.607  25.556  35.204  1.00  0.00     0.010 A 
ATOM     39  C   UNL A   1      48.186  27.217  34.425  1.00  0.00     0.010 A 
ATOM     40  C   UNL A   1      46.867  26.731  34.487  1.00  0.00    -0.014 A 
BRANCH  40  41
ATOM     41  C   UNL A   1      45.802  27.404  33.694  1.00  0.00     0.031 A 
ATOM     42  C   UNL A   1      45.082  28.589  34.287  1.00  0.00     0.074 A 
ATOM     43  C   UNL A   1      45.431  26.931  32.489  1.00  0.00     0.049 A 
ATOM     44  N   UNL A   1      44.024  29.219  33.845  1.00  0.00    -0.248 NA
ATOM     45  C   UNL A   1      45.622  29.130  35.545  1.00  0.00     0.031 C 
ATOM     46  C   UNL A   1      46.060  25.816  31.782  1.00  0.00     0.029 A 
ATOM     47  N   UNL A   1      44.401  27.314  31.662  1.00  0.00    -0.354 N 
ATOM     48  C   UNL A   1      43.752  30.210  34.783  1.00  0.00     0.074 A 
ATOM     49  C   UNL A   1      44.759  30.101  35.816  1.00  0.00     0.031 C 
ATOM     50  C   UNL A   1      45.377  25.577  30.648  1.00  0.00     0.029 A 
ATOM     51  C   UNL A   1      44.242  26.495  30.568  1.00  0.00     0.049 A 
ATOM     52  H   UNL A   1      43.833  28.098  31.837  1.00  0.00     0.167 HD
ATOM     53  C   UNL A   1      42.748  31.119  34.788  1.00  0.00     0.031 A 
ATOM     54  C   UNL A   1      43.266  26.458  29.637  1.00  0.00     0.031 A 
ATOM     55  C   UNL A   1      41.745  31.232  33.763  1.00  0.00     0.049 A 
ATOM     56  C   UNL A   1      42.118  27.434  29.712  1.00  0.00     0.074 A 
ATOM     57  C   UNL A   1      40.725  32.164  33.660  1.00  0.00     0.029 A 
ATOM     58  N   UNL A   1      41.618  30.381  32.679  1.00  0.00    -0.354 N 
ATOM     59  N   UNL A   1      41.913  28.405  30.568  1.00  0.00    -0.248 NA
ATOM     60  C   UNL A   1      41.064  27.301  28.693  1.00  0.00     0.031 C 
ATOM     61  C   UNL A   1      39.941  31.834  32.551  1.00  0.00     0.029 A 
ATOM     62  C   UNL A   1      40.508  30.735  31.930  1.00  0.00     0.049 A 
ATOM     63  H   UNL A   1      42.226  29.634  32.472  1.00  0.00     0.167 HD
ATOM     64  C   UNL A   1      40.719  29.005  30.180  1.00  0.00     0.074 A 
ATOM     65  C   UNL A   1      40.259  28.307  29.000  1.00  0.00     0.031 C 
ATOM     66  C   UNL A   1      40.058  30.038  30.754  1.00  0.00     0.031 A 
BRANCH  53  67
ATOM     67  C   UNL A   1      42.642  32.054  35.963  1.00  0.00    -0.014 A 
ATOM     68  C   UNL A   1      43.310  33.290  35.978  1.00  0.00     0.010 A 
ATOM     69  C   UNL A   1      41.770  31.732  37.020  1.00  0.00     0.010 A 
ATOM     70  C   UNL A   1      43.119  34.181  37.037  1.00  0.00     0.020 A 
ATOM     71  C   UNL A   1      41.559  32.630  38.069  1.00  0.00     0.020 A 
ATOM     72  C   UNL A   1      42.241  33.847  38.074  1.00  0.00     0.054 A 
BRANCH  72  73
ATOM     73  S   UNL A   1      41.962  35.052  39.402  1.00  0.00     0.124 S 
ATOM     74  O   UNL A   1      41.585  34.188  40.518  1.00  0.00    -0.237 OA
ATOM     75  O   UNL A   1      43.264  35.703  39.523  1.00  0.00    -0.237 OA
ATOM     76  O   UNL A   1      40.892  35.900  38.883  1.00  0.00    -0.744 OA
ENDBRANCH  72  73
ENDBRANCH  53  67
BRANCH  54  77
ATOM     77  C   UNL A   1      43.262  25.410  28.578  1.00  0.00    -0.014 A 
ATOM     78  C   UNL A   1      42.482  24.249  28.725  1.00  0.00     0.010 A 
ATOM     79  C   UNL A   1      44.105  25.532  27.459  1.00  0.00     0.010 A 
ATOM     80  C   UNL A   1      42.572  23.215  27.789  1.00  0.00     0.020 A 
ATOM     81  C   UNL A   1      44.171  24.514  26.504  1.00  0.00     0.020 A 
ATOM     82  C   UNL A   1      43.416  23.354  26.683  1.00  0.00     0.054 A 
BRANCH  82  83
ATOM     83  S   UNL A   1      43.406  22.063  25.407  1.00  0.00     0.124 S 
ATOM     84  O   UNL A   1      42.283  21.231  25.820  1.00  0.00    -0.237 OA
ATOM     85  O   UNL A   1      43.208  22.838  24.184  1.00  0.00    -0.237 OA
ATOM     86  O   UNL A   1      44.729  21.456  25.531  1.00  0.00    -0.744 OA
ENDBRANCH  82  83
ENDBRANCH  54  77
BRANCH  66  87
ATOM     87  C   UNL A   1      38.779  30.500  30.109  1.00  0.00    -0.014 A 
ATOM     88  C   UNL A   1      37.604  29.732  30.196  1.00  0.00     0.010 A 
ATOM     89  C   UNL A   1      38.733  31.752  29.469  1.00  0.00     0.010 A 
ATOM     90  C   UNL A   1      36.410  30.201  29.641  1.00  0.00     0.020 A 
ATOM     91  C   UNL A   1      37.535  32.236  28.936  1.00  0.00     0.020 A 
ATOM     92  C   UNL A   1      36.382  31.453  29.018  1.00  0.00     0.054 A 
BRANCH  92  93
ATOM     93  S   UNL A   1      34.806  32.069  28.364  1.00  0.00     0.124 S 
ATOM     94  O   UNL A   1      35.234  33.208  27.559  1.00  0.00    -0.237 OA
ATOM     95  O   UNL A   1      34.301  30.921  27.613  1.00  0.00    -0.237 OA
ATOM     96  O   UNL A   1      34.041  32.406  29.563  1.00  0.00    -0.744 OA
ENDBRANCH  92  93
ENDBRANCH  66  87
ENDBRANCH  40  41
ENDBRANCH  33  35
ENDBRANCH  32  33
ENDBRANCH  31  32
ENDBRANCH  30  31
ENDBRANCH  29  30
ENDBRANCH  28  29
ENDBRANCH   1  28
TORSDOF 24
ENDMDL
