MODEL 1
REMARK VINA RESULT:     -13.4      0.000      0.000
REMARK SMILES Cc1cc(C(=O)OCCOCCOCCOC(=O)c2ccc(-c3c4nc(c(-c5ccc(S(=O)(=O)[O-])cc5)c5ccc([nH]5)c(-c5ccc(S(=O)(=O)[O-])cc5)c5nc(c(-c6ccc(S(=O)(=O)[O-])cc6)c6ccc3[nH]6)C=C5)C=C4)cc2)ccc1NC(=O)N1C[C@@H](C)[C@H](C)C1
REMARK SMILES IDX 12 1 11 2 10 3 9 4 8 5 7 6 5 7 6 8 4 9 1 10 2 11 3 12 81 13
REMARK SMILES IDX 80 14 79 15 82 16 83 17 84 19 85 20 86 21 91 22 87 23 89 24
REMARK SMILES IDX 88 25 90 26 13 27 14 28 15 29 16 30 17 31 18 32 19 33 20 34
REMARK SMILES IDX 78 35 21 36 77 37 22 38 23 39 24 40 71 41 25 42 76 43 70 44
REMARK SMILES IDX 72 45 26 46 75 47 69 48 68 49 27 51 57 52 38 53 56 54 39 55
REMARK SMILES IDX 42 56 55 57 73 58 40 59 41 60 54 62 74 63 43 64 28 65 29 66
REMARK SMILES IDX 37 67 30 68 36 69 31 70 32 71 33 72 34 73 35 74 58 75 59 76
REMARK SMILES IDX 67 77 60 78 66 79 61 80 62 81 63 82 64 83 65 84 44 85 45 86
REMARK SMILES IDX 53 87 46 88 52 89 47 90 48 91 49 92 50 93 51 94
REMARK H PARENT 82 18 72 50 42 61
REMARK Flexibility Score: inf
ROOT
ATOM      1  C   UNL A   1      30.726  32.368  25.788  1.00  0.00     0.188 C 
ENDROOT
BRANCH   1   2
ATOM      2  C   UNL A   1      30.244  31.324  24.776  1.00  0.00     0.188 C 
BRANCH   2   3
ATOM      3  O   UNL A   1      29.146  31.552  23.858  1.00  0.00    -0.376 OA
BRANCH   3   4
ATOM      4  C   UNL A   1      28.869  30.757  22.697  1.00  0.00     0.202 C 
BRANCH   4   5
ATOM      5  C   UNL A   1      29.862  29.530  22.054  1.00  0.00     0.261 C 
BRANCH   5   6
ATOM      6  O   UNL A   1      31.565  29.367  22.122  1.00  0.00    -0.460 OA
BRANCH   6   7
ATOM      7  C   UNL A   1      32.655  28.851  22.880  1.00  0.00     0.338 C 
ATOM      8  O   UNL A   1      33.747  29.375  23.094  1.00  0.00    -0.246 OA
BRANCH   7   9
ATOM      9  C   UNL A   1      32.702  27.448  23.433  1.00  0.00     0.060 A 
ATOM     10  C   UNL A   1      30.374  24.341  23.802  1.00  0.00     0.046 C 
ATOM     11  C   UNL A   1      31.352  25.444  24.135  1.00  0.00    -0.027 A 
ATOM     12  C   UNL A   1      31.673  26.464  23.199  1.00  0.00     0.021 A 
ATOM     13  C   UNL A   1      31.946  25.575  25.387  1.00  0.00     0.045 A 
ATOM     14  C   UNL A   1      33.065  26.419  25.548  1.00  0.00     0.027 A 
ATOM     15  C   UNL A   1      33.452  27.341  24.583  1.00  0.00     0.018 A 
BRANCH  13  16
ATOM     16  N   UNL A   1      31.343  25.024  26.540  1.00  0.00    -0.308 N 
ATOM     17  C   UNL A   1      31.224  23.674  26.786  1.00  0.00     0.321 C 
ATOM     18  H   UNL A   1      30.984  25.647  27.212  1.00  0.00     0.171 HD
ATOM     19  O   UNL A   1      30.269  23.231  27.421  1.00  0.00    -0.248 OA
ATOM     20  N   UNL A   1      32.218  22.865  26.279  1.00  0.00    -0.324 N 
ATOM     21  C   UNL A   1      31.936  21.600  25.640  1.00  0.00     0.125 C 
ATOM     22  C   UNL A   1      33.652  23.061  26.485  1.00  0.00     0.125 C 
ATOM     23  C   UNL A   1      33.283  20.889  25.524  1.00  0.00     0.010 C 
ATOM     24  C   UNL A   1      34.317  22.032  25.570  1.00  0.00     0.010 C 
ATOM     25  C   UNL A   1      33.393  20.051  24.257  1.00  0.00     0.010 C 
ATOM     26  C   UNL A   1      35.681  21.568  26.069  1.00  0.00     0.010 C 
ENDBRANCH  13  16
ENDBRANCH   7   9
ENDBRANCH   6   7
ENDBRANCH   5   6
ENDBRANCH   4   5
ENDBRANCH   3   4
ENDBRANCH   2   3
ENDBRANCH   1   2
BRANCH   1  27
ATOM     27  O   UNL A   1      31.598  31.773  26.733  1.00  0.00    -0.376 OA
BRANCH  27  28
ATOM     28  C   UNL A   1      32.049  30.464  26.442  1.00  0.00     0.202 C 
BRANCH  28  29
ATOM     29  C   UNL A   1      33.256  30.004  27.287  1.00  0.00     0.261 C 
BRANCH  29  30
ATOM     30  O   UNL A   1      34.351  30.959  27.293  1.00  0.00    -0.460 OA
BRANCH  30  31
ATOM     31  C   UNL A   1      35.020  31.216  28.493  1.00  0.00     0.338 C 
ATOM     32  O   UNL A   1      34.620  32.010  29.286  1.00  0.00    -0.246 OA
BRANCH  31  33
ATOM     33  C   UNL A   1      36.117  30.191  28.718  1.00  0.00     0.060 A 
ATOM     34  C   UNL A   1      36.670  29.670  29.896  1.00  0.00     0.016 A 
ATOM     35  C   UNL A   1      36.759  29.806  27.606  1.00  0.00     0.016 A 
ATOM     36  C   UNL A   1      37.933  28.885  29.910  1.00  0.00     0.010 A 
ATOM     37  C   UNL A   1      38.061  29.332  27.758  1.00  0.00     0.010 A 
ATOM     38  C   UNL A   1      38.730  28.669  28.778  1.00  0.00    -0.014 A 
BRANCH  38  39
ATOM     39  C   UNL A   1      40.232  28.047  28.629  1.00  0.00     0.031 A 
ATOM     40  C   UNL A   1      40.887  26.630  28.045  1.00  0.00     0.074 A 
ATOM     41  C   UNL A   1      41.211  28.839  29.126  1.00  0.00     0.049 A 
ATOM     42  N   UNL A   1      41.794  25.888  28.673  1.00  0.00    -0.248 NA
ATOM     43  C   UNL A   1      40.676  25.967  26.734  1.00  0.00     0.031 C 
ATOM     44  C   UNL A   1      42.660  28.671  29.035  1.00  0.00     0.029 A 
ATOM     45  N   UNL A   1      41.052  29.944  29.961  1.00  0.00    -0.354 N 
ATOM     46  C   UNL A   1      42.183  24.804  27.841  1.00  0.00     0.074 A 
ATOM     47  C   UNL A   1      41.362  24.844  26.709  1.00  0.00     0.031 C 
ATOM     48  C   UNL A   1      43.239  29.439  29.973  1.00  0.00     0.029 A 
ATOM     49  C   UNL A   1      42.183  30.040  30.771  1.00  0.00     0.049 A 
ATOM     50  H   UNL A   1      40.277  30.551  29.977  1.00  0.00     0.167 HD
ATOM     51  C   UNL A   1      43.263  23.976  27.941  1.00  0.00     0.031 A 
ATOM     52  C   UNL A   1      42.047  29.967  32.124  1.00  0.00     0.031 A 
ATOM     53  C   UNL A   1      44.172  24.518  28.901  1.00  0.00     0.049 A 
ATOM     54  C   UNL A   1      42.729  28.745  32.695  1.00  0.00     0.074 A 
ATOM     55  C   UNL A   1      45.182  25.452  28.764  1.00  0.00     0.029 A 
ATOM     56  N   UNL A   1      43.802  24.493  30.227  1.00  0.00    -0.354 N 
ATOM     57  N   UNL A   1      43.186  27.753  31.977  1.00  0.00    -0.248 NA
ATOM     58  C   UNL A   1      42.962  28.545  34.122  1.00  0.00     0.031 C 
ATOM     59  C   UNL A   1      45.315  26.105  30.016  1.00  0.00     0.029 A 
ATOM     60  C   UNL A   1      44.457  25.494  30.914  1.00  0.00     0.049 A 
ATOM     61  H   UNL A   1      43.166  23.855  30.625  1.00  0.00     0.167 HD
ATOM     62  C   UNL A   1      43.720  26.797  32.797  1.00  0.00     0.074 A 
ATOM     63  C   UNL A   1      43.581  27.351  34.130  1.00  0.00     0.031 C 
ATOM     64  C   UNL A   1      44.225  25.617  32.338  1.00  0.00     0.031 A 
BRANCH  51  65
ATOM     65  C   UNL A   1      43.582  22.930  26.859  1.00  0.00    -0.014 A 
ATOM     66  C   UNL A   1      42.904  21.697  26.808  1.00  0.00     0.010 A 
ATOM     67  C   UNL A   1      44.630  23.094  25.915  1.00  0.00     0.010 A 
ATOM     68  C   UNL A   1      43.345  20.639  25.982  1.00  0.00     0.020 A 
ATOM     69  C   UNL A   1      45.118  22.026  25.131  1.00  0.00     0.020 A 
ATOM     70  C   UNL A   1      44.479  20.792  25.182  1.00  0.00     0.054 A 
BRANCH  70  71
ATOM     71  S   UNL A   1      45.149  19.357  24.281  1.00  0.00     0.124 S 
ATOM     72  O   UNL A   1      46.593  19.575  24.349  1.00  0.00    -0.237 OA
ATOM     73  O   UNL A   1      44.647  18.231  25.061  1.00  0.00    -0.237 OA
ATOM     74  O   UNL A   1      44.580  19.490  22.940  1.00  0.00    -0.744 OA
ENDBRANCH  70  71
ENDBRANCH  51  65
BRANCH  52  75
ATOM     75  C   UNL A   1      40.835  30.685  32.644  1.00  0.00    -0.014 A 
ATOM     76  C   UNL A   1      39.820  29.873  33.207  1.00  0.00     0.010 A 
ATOM     77  C   UNL A   1      40.813  32.058  32.941  1.00  0.00     0.010 A 
ATOM     78  C   UNL A   1      38.929  30.368  34.163  1.00  0.00     0.020 A 
ATOM     79  C   UNL A   1      39.895  32.571  33.889  1.00  0.00     0.020 A 
ATOM     80  C   UNL A   1      39.008  31.706  34.540  1.00  0.00     0.054 A 
BRANCH  80  81
ATOM     81  S   UNL A   1      38.069  32.213  36.019  1.00  0.00     0.124 S 
ATOM     82  O   UNL A   1      36.927  32.917  35.442  1.00  0.00    -0.237 OA
ATOM     83  O   UNL A   1      37.763  30.920  36.633  1.00  0.00    -0.237 OA
ATOM     84  O   UNL A   1      39.016  33.049  36.749  1.00  0.00    -0.744 OA
ENDBRANCH  80  81
ENDBRANCH  52  75
BRANCH  64  85
ATOM     85  C   UNL A   1      44.589  24.433  33.193  1.00  0.00    -0.014 A 
ATOM     86  C   UNL A   1      43.736  23.341  33.393  1.00  0.00     0.010 A 
ATOM     87  C   UNL A   1      45.915  24.326  33.683  1.00  0.00     0.010 A 
ATOM     88  C   UNL A   1      44.160  22.223  34.120  1.00  0.00     0.020 A 
ATOM     89  C   UNL A   1      46.365  23.191  34.355  1.00  0.00     0.020 A 
ATOM     90  C   UNL A   1      45.469  22.160  34.602  1.00  0.00     0.054 A 
BRANCH  90  91
ATOM     91  S   UNL A   1      46.028  20.705  35.516  1.00  0.00     0.124 S 
ATOM     92  O   UNL A   1      47.402  20.564  35.038  1.00  0.00    -0.237 OA
ATOM     93  O   UNL A   1      45.891  21.112  36.912  1.00  0.00    -0.237 OA
ATOM     94  O   UNL A   1      45.103  19.661  35.085  1.00  0.00    -0.744 OA
ENDBRANCH  90  91
ENDBRANCH  64  85
ENDBRANCH  38  39
ENDBRANCH  31  33
ENDBRANCH  30  31
ENDBRANCH  29  30
ENDBRANCH  28  29
ENDBRANCH  27  28
ENDBRANCH   1  27
TORSDOF 21
ENDMDL
