MODEL 1
REMARK VINA RESULT:      -9.1      0.000      0.000
REMARK SMILES CCOc1cc(N2CCOCC2)ccc1[C@H]([NH3+])C(=O)OCCOCCOCCOC(=O)c1ccc(-c2c3nc(c(-c4ccc(S(=O)(=O)[O-])cc4)c4ccc([nH]4)c(-c4ccc(S(=O)(=O)[O-])cc4)c4nc(c(-c5ccc(S(=O)(=O)[O-])cc5)c5ccc2[nH]5)C=C4)C=C3)cc1
REMARK SMILES IDX 24 1 23 2 22 3 21 4 20 5 18 6 19 7 16 8 15 9 4 10 5 11 6 12
REMARK SMILES IDX 14 13 13 14 3 15 2 16 1 17 7 18 8 19 12 20 9 21 11 22 10 23
REMARK SMILES IDX 17 24 25 28 26 29 27 30 28 31 29 32 30 33 31 34 32 35 33 36
REMARK SMILES IDX 91 37 34 38 90 39 35 40 36 41 37 42 84 43 38 44 89 45 83 46
REMARK SMILES IDX 85 47 39 48 88 49 82 50 81 51 40 53 70 54 51 55 69 56 52 57
REMARK SMILES IDX 55 58 68 59 86 60 53 61 54 62 67 64 87 65 56 66 41 67 42 68
REMARK SMILES IDX 50 69 43 70 49 71 44 72 45 73 46 74 47 75 48 76 71 77 72 78
REMARK SMILES IDX 80 79 73 80 79 81 74 82 75 83 76 84 77 85 78 86 57 87 58 88
REMARK SMILES IDX 66 89 59 90 65 91 60 92 61 93 62 94 63 95 64 96
REMARK H PARENT 17 25 17 26 17 27 85 52 55 63
REMARK Flexibility Score: inf
ROOT
ATOM      1  C   UNL A   1      32.057  26.737  26.645  1.00  0.00     0.188 C 
ENDROOT
BRANCH   1   2
ATOM      2  O   UNL A   1      31.216  25.664  27.038  1.00  0.00    -0.376 OA
BRANCH   2   3
ATOM      3  C   UNL A   1      30.618  24.885  26.008  1.00  0.00     0.202 C 
BRANCH   3   4
ATOM      4  C   UNL A   1      29.727  25.625  25.010  1.00  0.00     0.261 C 
BRANCH   4   5
ATOM      5  O   UNL A   1      30.094  25.304  23.654  1.00  0.00    -0.459 OA
BRANCH   5   6
ATOM      6  C   UNL A   1      31.032  26.119  23.094  1.00  0.00     0.369 C 
ATOM      7  O   UNL A   1      30.973  27.345  23.150  1.00  0.00    -0.245 OA
BRANCH   6   8
ATOM      8  C   UNL A   1      32.136  25.373  22.304  1.00  0.00     0.326 C 
BRANCH   8   9
ATOM      9  C   UNL A   1      33.069  24.672  23.266  1.00  0.00     0.063 A 
ATOM     10  C   UNL A   1      33.102  23.275  23.396  1.00  0.00     0.131 A 
ATOM     11  C   UNL A   1      34.051  22.664  24.213  1.00  0.00     0.072 A 
ATOM     12  C   UNL A   1      34.953  23.437  24.956  1.00  0.00     0.040 A 
ATOM     13  C   UNL A   1      33.964  25.444  24.017  1.00  0.00     0.016 A 
ATOM     14  C   UNL A   1      34.885  24.830  24.863  1.00  0.00     0.027 A 
BRANCH  10  15
ATOM     15  O   UNL A   1      32.044  22.555  22.906  1.00  0.00    -0.493 OA
BRANCH  15  16
ATOM     16  C   UNL A   1      32.166  21.138  23.002  1.00  0.00     0.226 C 
ATOM     17  C   UNL A   1      31.785  20.591  21.634  1.00  0.00     0.049 C 
ENDBRANCH  15  16
ENDBRANCH  10  15
BRANCH  12  18
ATOM     18  N   UNL A   1      35.846  22.800  25.800  1.00  0.00    -0.367 N 
ATOM     19  C   UNL A   1      36.923  23.599  26.397  1.00  0.00     0.145 C 
ATOM     20  C   UNL A   1      36.153  21.388  25.548  1.00  0.00     0.145 C 
ATOM     21  C   UNL A   1      38.273  23.316  25.721  1.00  0.00     0.181 C 
ATOM     22  C   UNL A   1      37.543  21.226  24.913  1.00  0.00     0.181 C 
ATOM     23  O   UNL A   1      38.557  21.907  25.672  1.00  0.00    -0.378 OA
ENDBRANCH  12  18
ENDBRANCH   8   9
BRANCH   8  24
ATOM     24  N   UNL A   1      32.891  26.185  21.328  1.00  0.00    -0.342 N 
ATOM     25  H   UNL A   1      32.312  26.964  21.015  1.00  0.00     0.345 HD
ATOM     26  H   UNL A   1      33.145  25.606  20.529  1.00  0.00     0.345 HD
ATOM     27  H   UNL A   1      33.737  26.547  21.769  1.00  0.00     0.345 HD
ENDBRANCH   8  24
ENDBRANCH   6   8
ENDBRANCH   5   6
ENDBRANCH   4   5
ENDBRANCH   3   4
ENDBRANCH   2   3
ENDBRANCH   1   2
BRANCH   1  28
ATOM     28  C   UNL A   1      31.484  28.163  26.657  1.00  0.00     0.188 C 
BRANCH  28  29
ATOM     29  O   UNL A   1      31.824  29.136  25.688  1.00  0.00    -0.376 OA
BRANCH  29  30
ATOM     30  C   UNL A   1      33.012  29.891  25.824  1.00  0.00     0.202 C 
BRANCH  30  31
ATOM     31  C   UNL A   1      33.208  30.841  27.012  1.00  0.00     0.261 C 
BRANCH  31  32
ATOM     32  O   UNL A   1      33.865  30.258  28.139  1.00  0.00    -0.460 OA
BRANCH  32  33
ATOM     33  C   UNL A   1      34.714  31.084  28.804  1.00  0.00     0.338 C 
ATOM     34  O   UNL A   1      34.428  32.093  29.429  1.00  0.00    -0.246 OA
BRANCH  33  35
ATOM     35  C   UNL A   1      36.039  30.434  28.855  1.00  0.00     0.060 A 
ATOM     36  C   UNL A   1      36.462  29.882  30.074  1.00  0.00     0.016 A 
ATOM     37  C   UNL A   1      36.827  30.316  27.709  1.00  0.00     0.016 A 
ATOM     38  C   UNL A   1      37.684  29.221  30.154  1.00  0.00     0.010 A 
ATOM     39  C   UNL A   1      38.066  29.682  27.797  1.00  0.00     0.010 A 
ATOM     40  C   UNL A   1      38.510  29.158  29.025  1.00  0.00    -0.014 A 
BRANCH  40  41
ATOM     41  C   UNL A   1      39.933  28.786  29.180  1.00  0.00     0.031 A 
ATOM     42  C   UNL A   1      40.872  29.849  29.681  1.00  0.00     0.074 A 
ATOM     43  C   UNL A   1      40.384  27.555  28.882  1.00  0.00     0.049 A 
ATOM     44  N   UNL A   1      42.170  29.808  29.822  1.00  0.00    -0.248 NA
ATOM     45  C   UNL A   1      40.260  31.132  30.070  1.00  0.00     0.031 C 
ATOM     46  C   UNL A   1      39.564  26.430  28.436  1.00  0.00     0.029 A 
ATOM     47  N   UNL A   1      41.662  27.055  28.899  1.00  0.00    -0.354 N 
ATOM     48  C   UNL A   1      42.529  31.057  30.313  1.00  0.00     0.074 A 
ATOM     49  C   UNL A   1      41.321  31.842  30.421  1.00  0.00     0.031 C 
ATOM     50  C   UNL A   1      40.365  25.374  28.202  1.00  0.00     0.029 A 
ATOM     51  C   UNL A   1      41.754  25.759  28.450  1.00  0.00     0.049 A 
ATOM     52  H   UNL A   1      42.440  27.575  29.205  1.00  0.00     0.167 HD
ATOM     53  C   UNL A   1      43.758  31.512  30.647  1.00  0.00     0.031 A 
ATOM     54  C   UNL A   1      42.840  24.989  28.239  1.00  0.00     0.031 A 
ATOM     55  C   UNL A   1      44.962  30.743  30.510  1.00  0.00     0.049 A 
ATOM     56  C   UNL A   1      44.210  25.549  28.535  1.00  0.00     0.074 A 
ATOM     57  C   UNL A   1      46.260  31.117  30.807  1.00  0.00     0.029 A 
ATOM     58  N   UNL A   1      45.015  29.444  30.029  1.00  0.00    -0.354 N 
ATOM     59  N   UNL A   1      44.537  26.728  29.012  1.00  0.00    -0.248 NA
ATOM     60  C   UNL A   1      45.360  24.672  28.268  1.00  0.00     0.031 C 
ATOM     61  C   UNL A   1      47.105  30.059  30.459  1.00  0.00     0.029 A 
ATOM     62  C   UNL A   1      46.327  29.006  30.003  1.00  0.00     0.049 A 
ATOM     63  H   UNL A   1      44.236  28.913  29.748  1.00  0.00     0.167 HD
ATOM     64  C   UNL A   1      45.924  26.720  29.131  1.00  0.00     0.074 A 
ATOM     65  C   UNL A   1      46.374  25.417  28.687  1.00  0.00     0.031 C 
ATOM     66  C   UNL A   1      46.752  27.701  29.568  1.00  0.00     0.031 A 
BRANCH  53  67
ATOM     67  C   UNL A   1      43.855  32.921  31.160  1.00  0.00    -0.014 A 
ATOM     68  C   UNL A   1      44.200  33.982  30.303  1.00  0.00     0.010 A 
ATOM     69  C   UNL A   1      43.574  33.192  32.511  1.00  0.00     0.010 A 
ATOM     70  C   UNL A   1      44.287  35.286  30.794  1.00  0.00     0.020 A 
ATOM     71  C   UNL A   1      43.635  34.498  33.000  1.00  0.00     0.020 A 
ATOM     72  C   UNL A   1      44.004  35.535  32.141  1.00  0.00     0.054 A 
BRANCH  72  73
ATOM     73  S   UNL A   1      44.088  37.244  32.744  1.00  0.00     0.124 S 
ATOM     74  O   UNL A   1      43.876  38.007  31.516  1.00  0.00    -0.237 OA
ATOM     75  O   UNL A   1      42.996  37.296  33.712  1.00  0.00    -0.237 OA
ATOM     76  O   UNL A   1      45.429  37.343  33.316  1.00  0.00    -0.744 OA
ENDBRANCH  72  73
ENDBRANCH  53  67
BRANCH  54  77
ATOM     77  C   UNL A   1      42.694  23.612  27.686  1.00  0.00    -0.014 A 
ATOM     78  C   UNL A   1      42.685  23.391  26.298  1.00  0.00     0.010 A 
ATOM     79  C   UNL A   1      42.523  22.517  28.552  1.00  0.00     0.010 A 
ATOM     80  C   UNL A   1      42.475  22.107  25.785  1.00  0.00     0.020 A 
ATOM     81  C   UNL A   1      42.342  21.226  28.043  1.00  0.00     0.020 A 
ATOM     82  C   UNL A   1      42.302  21.032  26.662  1.00  0.00     0.054 A 
BRANCH  82  83
ATOM     83  S   UNL A   1      42.054  19.371  25.976  1.00  0.00     0.124 S 
ATOM     84  O   UNL A   1      42.889  19.410  24.779  1.00  0.00    -0.237 OA
ATOM     85  O   UNL A   1      42.533  18.508  27.054  1.00  0.00    -0.237 OA
ATOM     86  O   UNL A   1      40.614  19.312  25.734  1.00  0.00    -0.744 OA
ENDBRANCH  82  83
ENDBRANCH  54  77
BRANCH  66  87
ATOM     87  C   UNL A   1      48.226  27.394  29.637  1.00  0.00    -0.014 A 
ATOM     88  C   UNL A   1      49.126  27.914  28.692  1.00  0.00     0.010 A 
ATOM     89  C   UNL A   1      48.721  26.633  30.713  1.00  0.00     0.010 A 
ATOM     90  C   UNL A   1      50.495  27.653  28.805  1.00  0.00     0.020 A 
ATOM     91  C   UNL A   1      50.091  26.394  30.844  1.00  0.00     0.020 A 
ATOM     92  C   UNL A   1      50.968  26.895  29.881  1.00  0.00     0.054 A 
BRANCH  92  93
ATOM     93  S   UNL A   1      52.754  26.613  30.034  1.00  0.00     0.124 S 
ATOM     94  O   UNL A   1      53.083  26.038  28.732  1.00  0.00    -0.237 OA
ATOM     95  O   UNL A   1      53.272  27.957  30.276  1.00  0.00    -0.237 OA
ATOM     96  O   UNL A   1      52.864  25.696  31.166  1.00  0.00    -0.744 OA
ENDBRANCH  92  93
ENDBRANCH  66  87
ENDBRANCH  40  41
ENDBRANCH  33  35
ENDBRANCH  32  33
ENDBRANCH  31  32
ENDBRANCH  30  31
ENDBRANCH  29  30
ENDBRANCH  28  29
ENDBRANCH   1  28
TORSDOF 25
ENDMDL
MODEL 2
REMARK VINA RESULT:      -8.8      4.595      9.315
REMARK SMILES CCOc1cc(N2CCOCC2)ccc1[C@H]([NH3+])C(=O)OCCOCCOCCOC(=O)c1ccc(-c2c3nc(c(-c4ccc(S(=O)(=O)[O-])cc4)c4ccc([nH]4)c(-c4ccc(S(=O)(=O)[O-])cc4)c4nc(c(-c5ccc(S(=O)(=O)[O-])cc5)c5ccc2[nH]5)C=C4)C=C3)cc1
REMARK SMILES IDX 24 1 23 2 22 3 21 4 20 5 18 6 19 7 16 8 15 9 4 10 5 11 6 12
REMARK SMILES IDX 14 13 13 14 3 15 2 16 1 17 7 18 8 19 12 20 9 21 11 22 10 23
REMARK SMILES IDX 17 24 25 28 26 29 27 30 28 31 29 32 30 33 31 34 32 35 33 36
REMARK SMILES IDX 91 37 34 38 90 39 35 40 36 41 37 42 84 43 38 44 89 45 83 46
REMARK SMILES IDX 85 47 39 48 88 49 82 50 81 51 40 53 70 54 51 55 69 56 52 57
REMARK SMILES IDX 55 58 68 59 86 60 53 61 54 62 67 64 87 65 56 66 41 67 42 68
REMARK SMILES IDX 50 69 43 70 49 71 44 72 45 73 46 74 47 75 48 76 71 77 72 78
REMARK SMILES IDX 80 79 73 80 79 81 74 82 75 83 76 84 77 85 78 86 57 87 58 88
REMARK SMILES IDX 66 89 59 90 65 91 60 92 61 93 62 94 63 95 64 96
REMARK H PARENT 17 25 17 26 17 27 85 52 55 63
REMARK Flexibility Score: inf
ROOT
ATOM      1  C   UNL A   1      32.168  28.308  27.370  1.00  0.00     0.188 C 
ENDROOT
BRANCH   1   2
ATOM      2  O   UNL A   1      31.018  27.477  27.340  1.00  0.00    -0.376 OA
BRANCH   2   3
ATOM      3  C   UNL A   1      30.776  26.733  26.152  1.00  0.00     0.202 C 
BRANCH   3   4
ATOM      4  C   UNL A   1      30.505  27.533  24.877  1.00  0.00     0.261 C 
BRANCH   4   5
ATOM      5  O   UNL A   1      31.348  27.084  23.798  1.00  0.00    -0.459 OA
BRANCH   5   6
ATOM      6  C   UNL A   1      32.134  28.044  23.232  1.00  0.00     0.369 C 
ATOM      7  O   UNL A   1      31.692  28.918  22.491  1.00  0.00    -0.245 OA
BRANCH   6   8
ATOM      8  C   UNL A   1      33.646  27.889  23.531  1.00  0.00     0.326 C 
BRANCH   8   9
ATOM      9  C   UNL A   1      33.939  26.469  23.963  1.00  0.00     0.063 A 
ATOM     10  C   UNL A   1      34.204  25.444  23.041  1.00  0.00     0.131 A 
ATOM     11  C   UNL A   1      34.577  24.177  23.483  1.00  0.00     0.072 A 
ATOM     12  C   UNL A   1      34.642  23.892  24.854  1.00  0.00     0.040 A 
ATOM     13  C   UNL A   1      33.995  26.181  25.332  1.00  0.00     0.016 A 
ATOM     14  C   UNL A   1      34.329  24.901  25.769  1.00  0.00     0.027 A 
BRANCH  10  15
ATOM     15  O   UNL A   1      33.854  25.646  21.732  1.00  0.00    -0.493 OA
BRANCH  15  16
ATOM     16  C   UNL A   1      32.809  24.811  21.238  1.00  0.00     0.226 C 
ATOM     17  C   UNL A   1      32.160  25.583  20.097  1.00  0.00     0.049 C 
ENDBRANCH  15  16
ENDBRANCH  10  15
BRANCH  12  18
ATOM     18  N   UNL A   1      34.961  22.608  25.258  1.00  0.00    -0.367 N 
ATOM     19  C   UNL A   1      34.677  21.502  24.335  1.00  0.00     0.145 C 
ATOM     20  C   UNL A   1      34.884  22.290  26.688  1.00  0.00     0.145 C 
ATOM     21  C   UNL A   1      33.443  20.702  24.781  1.00  0.00     0.181 C 
ATOM     22  C   UNL A   1      33.636  21.452  27.006  1.00  0.00     0.181 C 
ATOM     23  O   UNL A   1      33.543  20.296  26.156  1.00  0.00    -0.378 OA
ENDBRANCH  12  18
ENDBRANCH   8   9
BRANCH   8  24
ATOM     24  N   UNL A   1      34.218  28.862  24.482  1.00  0.00    -0.342 N 
ATOM     25  H   UNL A   1      34.494  28.380  25.338  1.00  0.00     0.345 HD
ATOM     26  H   UNL A   1      33.520  29.573  24.701  1.00  0.00     0.345 HD
ATOM     27  H   UNL A   1      35.036  29.306  24.064  1.00  0.00     0.345 HD
ENDBRANCH   8  24
ENDBRANCH   6   8
ENDBRANCH   5   6
ENDBRANCH   4   5
ENDBRANCH   3   4
ENDBRANCH   2   3
ENDBRANCH   1   2
BRANCH   1  28
ATOM     28  C   UNL A   1      31.983  29.824  27.198  1.00  0.00     0.188 C 
BRANCH  28  29
ATOM     29  O   UNL A   1      33.026  30.682  26.776  1.00  0.00    -0.376 OA
BRANCH  29  30
ATOM     30  C   UNL A   1      33.420  31.775  27.582  1.00  0.00     0.202 C 
BRANCH  30  31
ATOM     31  C   UNL A   1      32.627  33.087  27.567  1.00  0.00     0.261 C 
BRANCH  31  32
ATOM     32  O   UNL A   1      33.379  34.243  27.943  1.00  0.00    -0.460 OA
BRANCH  32  33
ATOM     33  C   UNL A   1      33.411  34.504  29.276  1.00  0.00     0.338 C 
ATOM     34  O   UNL A   1      32.529  35.005  29.954  1.00  0.00    -0.246 OA
BRANCH  33  35
ATOM     35  C   UNL A   1      34.615  33.860  29.839  1.00  0.00     0.060 A 
ATOM     36  C   UNL A   1      34.444  32.897  30.845  1.00  0.00     0.016 A 
ATOM     37  C   UNL A   1      35.887  34.155  29.345  1.00  0.00     0.016 A 
ATOM     38  C   UNL A   1      35.549  32.233  31.372  1.00  0.00     0.010 A 
ATOM     39  C   UNL A   1      36.996  33.513  29.894  1.00  0.00     0.010 A 
ATOM     40  C   UNL A   1      36.833  32.572  30.928  1.00  0.00    -0.014 A 
BRANCH  40  41
ATOM     41  C   UNL A   1      38.013  32.148  31.713  1.00  0.00     0.031 A 
ATOM     42  C   UNL A   1      38.838  31.018  31.161  1.00  0.00     0.074 A 
ATOM     43  C   UNL A   1      38.341  32.734  32.877  1.00  0.00     0.049 A 
ATOM     44  N   UNL A   1      39.862  30.404  31.691  1.00  0.00    -0.248 NA
ATOM     45  C   UNL A   1      38.449  30.511  29.833  1.00  0.00     0.031 C 
ATOM     46  C   UNL A   1      37.648  33.868  33.487  1.00  0.00     0.029 A 
ATOM     47  N   UNL A   1      39.345  32.436  33.764  1.00  0.00    -0.354 N 
ATOM     48  C   UNL A   1      40.237  29.440  30.764  1.00  0.00     0.074 A 
ATOM     49  C   UNL A   1      39.319  29.530  29.652  1.00  0.00     0.031 C 
ATOM     50  C   UNL A   1      38.238  34.157  34.662  1.00  0.00     0.029 A 
ATOM     51  C   UNL A   1      39.326  33.209  34.900  1.00  0.00     0.049 A 
ATOM     52  H   UNL A   1      40.016  31.734  33.601  1.00  0.00     0.167 HD
ATOM     53  C   UNL A   1      41.258  28.556  30.831  1.00  0.00     0.031 A 
ATOM     54  C   UNL A   1      40.085  33.136  36.012  1.00  0.00     0.031 A 
ATOM     55  C   UNL A   1      42.151  28.446  31.949  1.00  0.00     0.049 A 
ATOM     56  C   UNL A   1      41.163  32.083  36.101  1.00  0.00     0.074 A 
ATOM     57  C   UNL A   1      43.211  27.574  32.121  1.00  0.00     0.029 A 
ATOM     58  N   UNL A   1      42.084  29.231  33.090  1.00  0.00    -0.354 N 
ATOM     59  N   UNL A   1      41.517  31.184  35.212  1.00  0.00    -0.248 NA
ATOM     60  C   UNL A   1      41.947  32.037  37.345  1.00  0.00     0.031 C 
ATOM     61  C   UNL A   1      43.755  27.799  33.390  1.00  0.00     0.029 A 
ATOM     62  C   UNL A   1      43.072  28.851  33.980  1.00  0.00     0.049 A 
ATOM     63  H   UNL A   1      41.431  29.951  33.244  1.00  0.00     0.167 HD
ATOM     64  C   UNL A   1      42.584  30.490  35.777  1.00  0.00     0.074 A 
ATOM     65  C   UNL A   1      42.824  31.078  37.078  1.00  0.00     0.031 C 
ATOM     66  C   UNL A   1      43.301  29.458  35.266  1.00  0.00     0.031 A 
BRANCH  53  67
ATOM     67  C   UNL A   1      41.435  27.619  29.670  1.00  0.00    -0.014 A 
ATOM     68  C   UNL A   1      40.585  26.512  29.498  1.00  0.00     0.010 A 
ATOM     69  C   UNL A   1      42.449  27.862  28.727  1.00  0.00     0.010 A 
ATOM     70  C   UNL A   1      40.762  25.649  28.414  1.00  0.00     0.020 A 
ATOM     71  C   UNL A   1      42.614  27.015  27.628  1.00  0.00     0.020 A 
ATOM     72  C   UNL A   1      41.776  25.907  27.486  1.00  0.00     0.054 A 
BRANCH  72  73
ATOM     73  S   UNL A   1      41.960  24.790  26.068  1.00  0.00     0.124 S 
ATOM     74  O   UNL A   1      43.172  24.055  26.419  1.00  0.00    -0.237 OA
ATOM     75  O   UNL A   1      40.722  24.015  26.109  1.00  0.00    -0.237 OA
ATOM     76  O   UNL A   1      42.087  25.696  24.929  1.00  0.00    -0.744 OA
ENDBRANCH  72  73
ENDBRANCH  53  67
BRANCH  54  77
ATOM     77  C   UNL A   1      39.841  34.061  37.155  1.00  0.00    -0.014 A 
ATOM     78  C   UNL A   1      38.994  33.688  38.214  1.00  0.00     0.010 A 
ATOM     79  C   UNL A   1      40.427  35.339  37.169  1.00  0.00     0.010 A 
ATOM     80  C   UNL A   1      38.712  34.588  39.248  1.00  0.00     0.020 A 
ATOM     81  C   UNL A   1      40.170  36.232  38.215  1.00  0.00     0.020 A 
ATOM     82  C   UNL A   1      39.300  35.856  39.240  1.00  0.00     0.054 A 
BRANCH  82  83
ATOM     83  S   UNL A   1      38.939  36.999  40.602  1.00  0.00     0.124 S 
ATOM     84  O   UNL A   1      40.278  37.364  41.054  1.00  0.00    -0.237 OA
ATOM     85  O   UNL A   1      38.186  38.059  39.935  1.00  0.00    -0.237 OA
ATOM     86  O   UNL A   1      38.163  36.185  41.535  1.00  0.00    -0.744 OA
ENDBRANCH  82  83
ENDBRANCH  54  77
BRANCH  66  87
ATOM     87  C   UNL A   1      44.446  28.927  36.088  1.00  0.00    -0.014 A 
ATOM     88  C   UNL A   1      45.722  29.513  36.032  1.00  0.00     0.010 A 
ATOM     89  C   UNL A   1      44.216  27.868  36.987  1.00  0.00     0.010 A 
ATOM     90  C   UNL A   1      46.755  29.031  36.840  1.00  0.00     0.020 A 
ATOM     91  C   UNL A   1      45.239  27.402  37.815  1.00  0.00     0.020 A 
ATOM     92  C   UNL A   1      46.507  27.979  37.727  1.00  0.00     0.054 A 
BRANCH  92  93
ATOM     93  S   UNL A   1      47.851  27.404  38.801  1.00  0.00     0.124 S 
ATOM     94  O   UNL A   1      47.880  25.973  38.512  1.00  0.00    -0.237 OA
ATOM     95  O   UNL A   1      48.999  28.166  38.317  1.00  0.00    -0.237 OA
ATOM     96  O   UNL A   1      47.397  27.758  40.145  1.00  0.00    -0.744 OA
ENDBRANCH  92  93
ENDBRANCH  66  87
ENDBRANCH  40  41
ENDBRANCH  33  35
ENDBRANCH  32  33
ENDBRANCH  31  32
ENDBRANCH  30  31
ENDBRANCH  29  30
ENDBRANCH  28  29
ENDBRANCH   1  28
TORSDOF 25
ENDMDL
MODEL 3
REMARK VINA RESULT:      -8.7      4.596      5.860
REMARK SMILES CCOc1cc(N2CCOCC2)ccc1[C@H]([NH3+])C(=O)OCCOCCOCCOC(=O)c1ccc(-c2c3nc(c(-c4ccc(S(=O)(=O)[O-])cc4)c4ccc([nH]4)c(-c4ccc(S(=O)(=O)[O-])cc4)c4nc(c(-c5ccc(S(=O)(=O)[O-])cc5)c5ccc2[nH]5)C=C4)C=C3)cc1
REMARK SMILES IDX 24 1 23 2 22 3 21 4 20 5 18 6 19 7 16 8 15 9 4 10 5 11 6 12
REMARK SMILES IDX 14 13 13 14 3 15 2 16 1 17 7 18 8 19 12 20 9 21 11 22 10 23
REMARK SMILES IDX 17 24 25 28 26 29 27 30 28 31 29 32 30 33 31 34 32 35 33 36
REMARK SMILES IDX 91 37 34 38 90 39 35 40 36 41 37 42 84 43 38 44 89 45 83 46
REMARK SMILES IDX 85 47 39 48 88 49 82 50 81 51 40 53 70 54 51 55 69 56 52 57
REMARK SMILES IDX 55 58 68 59 86 60 53 61 54 62 67 64 87 65 56 66 41 67 42 68
REMARK SMILES IDX 50 69 43 70 49 71 44 72 45 73 46 74 47 75 48 76 71 77 72 78
REMARK SMILES IDX 80 79 73 80 79 81 74 82 75 83 76 84 77 85 78 86 57 87 58 88
REMARK SMILES IDX 66 89 59 90 65 91 60 92 61 93 62 94 63 95 64 96
REMARK H PARENT 17 25 17 26 17 27 85 52 55 63
REMARK Flexibility Score: inf
ROOT
ATOM      1  C   UNL A   1      32.066  28.016  27.289  1.00  0.00     0.188 C 
ENDROOT
BRANCH   1   2
ATOM      2  O   UNL A   1      30.880  27.245  27.193  1.00  0.00    -0.376 OA
BRANCH   2   3
ATOM      3  C   UNL A   1      30.657  26.528  25.984  1.00  0.00     0.202 C 
BRANCH   3   4
ATOM      4  C   UNL A   1      30.347  27.356  24.736  1.00  0.00     0.261 C 
BRANCH   4   5
ATOM      5  O   UNL A   1      31.353  27.159  23.723  1.00  0.00    -0.459 OA
BRANCH   5   6
ATOM      6  C   UNL A   1      32.170  28.226  23.495  1.00  0.00     0.369 C 
ATOM      7  O   UNL A   1      31.752  29.324  23.135  1.00  0.00    -0.245 OA
BRANCH   6   8
ATOM      8  C   UNL A   1      33.681  27.916  23.643  1.00  0.00     0.326 C 
BRANCH   8   9
ATOM      9  C   UNL A   1      33.875  26.445  23.934  1.00  0.00     0.063 A 
ATOM     10  C   UNL A   1      34.050  25.496  22.914  1.00  0.00     0.131 A 
ATOM     11  C   UNL A   1      34.336  24.168  23.228  1.00  0.00     0.072 A 
ATOM     12  C   UNL A   1      34.401  23.751  24.564  1.00  0.00     0.040 A 
ATOM     13  C   UNL A   1      33.931  26.024  25.268  1.00  0.00     0.016 A 
ATOM     14  C   UNL A   1      34.176  24.688  25.576  1.00  0.00     0.027 A 
BRANCH  10  15
ATOM     15  O   UNL A   1      33.697  25.845  21.638  1.00  0.00    -0.493 OA
BRANCH  15  16
ATOM     16  C   UNL A   1      32.509  25.234  21.138  1.00  0.00     0.226 C 
ATOM     17  C   UNL A   1      32.573  25.370  19.623  1.00  0.00     0.049 C 
ENDBRANCH  15  16
ENDBRANCH  10  15
BRANCH  12  18
ATOM     18  N   UNL A   1      34.630  22.414  24.839  1.00  0.00    -0.367 N 
ATOM     19  C   UNL A   1      33.780  21.417  24.179  1.00  0.00     0.145 C 
ATOM     20  C   UNL A   1      35.133  22.055  26.170  1.00  0.00     0.145 C 
ATOM     21  C   UNL A   1      32.745  20.830  25.152  1.00  0.00     0.181 C 
ATOM     22  C   UNL A   1      34.023  21.439  27.036  1.00  0.00     0.181 C 
ATOM     23  O   UNL A   1      33.363  20.355  26.360  1.00  0.00    -0.378 OA
ENDBRANCH  12  18
ENDBRANCH   8   9
BRANCH   8  24
ATOM     24  N   UNL A   1      34.419  28.751  24.612  1.00  0.00    -0.342 N 
ATOM     25  H   UNL A   1      34.150  29.728  24.493  1.00  0.00     0.345 HD
ATOM     26  H   UNL A   1      35.421  28.652  24.453  1.00  0.00     0.345 HD
ATOM     27  H   UNL A   1      34.194  28.450  25.560  1.00  0.00     0.345 HD
ENDBRANCH   8  24
ENDBRANCH   6   8
ENDBRANCH   5   6
ENDBRANCH   4   5
ENDBRANCH   3   4
ENDBRANCH   2   3
ENDBRANCH   1   2
BRANCH   1  28
ATOM     28  C   UNL A   1      31.965  29.542  27.135  1.00  0.00     0.188 C 
BRANCH  28  29
ATOM     29  O   UNL A   1      32.983  30.323  26.538  1.00  0.00    -0.376 OA
BRANCH  29  30
ATOM     30  C   UNL A   1      33.639  31.328  27.285  1.00  0.00     0.202 C 
BRANCH  30  31
ATOM     31  C   UNL A   1      32.905  32.613  27.687  1.00  0.00     0.261 C 
BRANCH  31  32
ATOM     32  O   UNL A   1      33.754  33.740  27.912  1.00  0.00    -0.460 OA
BRANCH  32  33
ATOM     33  C   UNL A   1      33.657  34.300  29.146  1.00  0.00     0.338 C 
ATOM     34  O   UNL A   1      32.724  34.947  29.594  1.00  0.00    -0.246 OA
BRANCH  33  35
ATOM     35  C   UNL A   1      34.779  33.800  29.966  1.00  0.00     0.060 A 
ATOM     36  C   UNL A   1      36.083  34.175  29.607  1.00  0.00     0.016 A 
ATOM     37  C   UNL A   1      34.549  33.024  31.103  1.00  0.00     0.016 A 
ATOM     38  C   UNL A   1      37.166  33.762  30.378  1.00  0.00     0.010 A 
ATOM     39  C   UNL A   1      35.636  32.584  31.858  1.00  0.00     0.010 A 
ATOM     40  C   UNL A   1      36.948  32.928  31.482  1.00  0.00    -0.014 A 
BRANCH  40  41
ATOM     41  C   UNL A   1      38.087  32.202  32.085  1.00  0.00     0.031 A 
ATOM     42  C   UNL A   1      38.503  32.603  33.473  1.00  0.00     0.074 A 
ATOM     43  C   UNL A   1      38.738  31.227  31.426  1.00  0.00     0.049 A 
ATOM     44  N   UNL A   1      39.514  32.187  34.187  1.00  0.00    -0.248 NA
ATOM     45  C   UNL A   1      37.663  33.613  34.142  1.00  0.00     0.031 C 
ATOM     46  C   UNL A   1      38.398  30.718  30.099  1.00  0.00     0.029 A 
ATOM     47  N   UNL A   1      39.842  30.500  31.793  1.00  0.00    -0.354 N 
ATOM     48  C   UNL A   1      39.434  32.885  35.386  1.00  0.00     0.074 A 
ATOM     49  C   UNL A   1      38.294  33.768  35.295  1.00  0.00     0.031 C 
ATOM     50  C   UNL A   1      39.290  29.773  29.753  1.00  0.00     0.029 A 
ATOM     51  C   UNL A   1      40.281  29.634  30.820  1.00  0.00     0.049 A 
ATOM     52  H   UNL A   1      40.279  30.589  32.670  1.00  0.00     0.167 HD
ATOM     53  C   UNL A   1      40.239  32.799  36.469  1.00  0.00     0.031 A 
ATOM     54  C   UNL A   1      41.374  28.844  30.789  1.00  0.00     0.031 A 
ATOM     55  C   UNL A   1      41.389  31.944  36.547  1.00  0.00     0.049 A 
ATOM     56  C   UNL A   1      42.306  28.829  31.975  1.00  0.00     0.074 A 
ATOM     57  C   UNL A   1      42.278  31.793  37.595  1.00  0.00     0.029 A 
ATOM     58  N   UNL A   1      41.813  31.101  35.532  1.00  0.00    -0.354 N 
ATOM     59  N   UNL A   1      42.213  29.485  33.110  1.00  0.00    -0.248 NA
ATOM     60  C   UNL A   1      43.492  27.965  31.880  1.00  0.00     0.031 C 
ATOM     61  C   UNL A   1      43.270  30.892  37.195  1.00  0.00     0.029 A 
ATOM     62  C   UNL A   1      42.963  30.439  35.921  1.00  0.00     0.049 A 
ATOM     63  H   UNL A   1      41.363  30.991  34.664  1.00  0.00     0.167 HD
ATOM     64  C   UNL A   1      43.309  29.087  33.871  1.00  0.00     0.074 A 
ATOM     65  C   UNL A   1      44.044  28.127  33.075  1.00  0.00     0.031 C 
ATOM     66  C   UNL A   1      43.674  29.478  35.117  1.00  0.00     0.031 A 
BRANCH  53  67
ATOM     67  C   UNL A   1      39.913  33.681  37.641  1.00  0.00    -0.014 A 
ATOM     68  C   UNL A   1      39.054  33.238  38.663  1.00  0.00     0.010 A 
ATOM     69  C   UNL A   1      40.492  34.959  37.734  1.00  0.00     0.010 A 
ATOM     70  C   UNL A   1      38.760  34.069  39.746  1.00  0.00     0.020 A 
ATOM     71  C   UNL A   1      40.220  35.783  38.828  1.00  0.00     0.020 A 
ATOM     72  C   UNL A   1      39.345  35.337  39.821  1.00  0.00     0.054 A 
BRANCH  72  73
ATOM     73  S   UNL A   1      38.974  36.381  41.257  1.00  0.00     0.124 S 
ATOM     74  O   UNL A   1      37.866  35.658  41.877  1.00  0.00    -0.237 OA
ATOM     75  O   UNL A   1      40.232  36.360  42.001  1.00  0.00    -0.237 OA
ATOM     76  O   UNL A   1      38.625  37.671  40.667  1.00  0.00    -0.744 OA
ENDBRANCH  72  73
ENDBRANCH  53  67
BRANCH  54  77
ATOM     77  C   UNL A   1      41.677  28.021  29.584  1.00  0.00    -0.014 A 
ATOM     78  C   UNL A   1      42.438  28.547  28.526  1.00  0.00     0.010 A 
ATOM     79  C   UNL A   1      41.169  26.714  29.474  1.00  0.00     0.010 A 
ATOM     80  C   UNL A   1      42.658  27.795  27.367  1.00  0.00     0.020 A 
ATOM     81  C   UNL A   1      41.411  25.947  28.329  1.00  0.00     0.020 A 
ATOM     82  C   UNL A   1      42.140  26.500  27.275  1.00  0.00     0.054 A 
BRANCH  82  83
ATOM     83  S   UNL A   1      42.457  25.532  25.773  1.00  0.00     0.124 S 
ATOM     84  O   UNL A   1      41.331  25.910  24.925  1.00  0.00    -0.237 OA
ATOM     85  O   UNL A   1      43.764  26.028  25.347  1.00  0.00    -0.237 OA
ATOM     86  O   UNL A   1      42.448  24.150  26.248  1.00  0.00    -0.744 OA
ENDBRANCH  82  83
ENDBRANCH  54  77
BRANCH  66  87
ATOM     87  C   UNL A   1      44.896  28.838  35.723  1.00  0.00    -0.014 A 
ATOM     88  C   UNL A   1      46.167  29.423  35.598  1.00  0.00     0.010 A 
ATOM     89  C   UNL A   1      44.750  27.668  36.492  1.00  0.00     0.010 A 
ATOM     90  C   UNL A   1      47.277  28.833  36.209  1.00  0.00     0.020 A 
ATOM     91  C   UNL A   1      45.853  27.092  37.127  1.00  0.00     0.020 A 
ATOM     92  C   UNL A   1      47.113  27.672  36.970  1.00  0.00     0.054 A 
BRANCH  92  93
ATOM     93  S   UNL A   1      48.560  26.954  37.794  1.00  0.00     0.124 S 
ATOM     94  O   UNL A   1      49.569  27.010  36.740  1.00  0.00    -0.237 OA
ATOM     95  O   UNL A   1      48.775  27.864  38.917  1.00  0.00    -0.237 OA
ATOM     96  O   UNL A   1      48.119  25.611  38.163  1.00  0.00    -0.744 OA
ENDBRANCH  92  93
ENDBRANCH  66  87
ENDBRANCH  40  41
ENDBRANCH  33  35
ENDBRANCH  32  33
ENDBRANCH  31  32
ENDBRANCH  30  31
ENDBRANCH  29  30
ENDBRANCH  28  29
ENDBRANCH   1  28
TORSDOF 25
ENDMDL
