MODEL 1
REMARK VINA RESULT:     -11.9      0.000      0.000
REMARK SMILES CC(=O)O[C@@H]1CC[C@]23C(=O)O[C@]4(CC[C@]2(O)C1)[C@H]3CC[C@]1(C)[C@H](C(=O)OCCOCCOCCOC(=O)c2ccc(-c3c5nc(c(-c6ccc(S(=O)(=O)[O-])cc6)c6ccc([nH]6)c(-c6ccc(S(=O)(=O)[O-])cc6)c6nc(c(-c7ccc(S(=O)(=O)[O-])cc7)c7ccc3[nH]7)C=C6)C=C5)cc2)CC[C@@H]14
REMARK SMILES IDX 31 1 30 2 29 3 28 4 27 5 26 6 24 7 25 8 23 9 5 10 6 11 17 12
REMARK SMILES IDX 7 13 15 14 8 15 14 16 9 17 18 18 13 19 10 20 11 21 12 22
REMARK SMILES IDX 19 23 100 24 20 25 21 26 99 27 22 28 98 29 4 30 2 31 1 32
REMARK SMILES IDX 3 33 16 34 32 36 33 37 34 38 35 39 36 40 37 41 38 42 39 43
REMARK SMILES IDX 97 44 40 45 96 46 41 47 42 48 43 49 90 50 44 51 95 52 89 53
REMARK SMILES IDX 91 54 45 55 94 56 88 57 87 58 46 60 76 61 57 62 75 63 58 64
REMARK SMILES IDX 61 65 74 66 92 67 59 68 60 69 73 71 93 72 62 73 47 74 48 75
REMARK SMILES IDX 56 76 49 77 55 78 50 79 51 80 52 81 53 82 54 83 77 84 78 85
REMARK SMILES IDX 86 86 79 87 85 88 80 89 81 90 82 91 83 92 84 93 63 94 64 95
REMARK SMILES IDX 72 96 65 97 71 98 66 99 67 100 68 101 69 102 70 103
REMARK H PARENT 16 35 91 59 61 70
REMARK Flexibility Score: inf
ROOT
ATOM      1  C   UNL A   1      38.510  21.158  25.357  1.00  0.00     0.188 C 
ENDROOT
BRANCH   1   2
ATOM      2  C   UNL A   1      37.082  21.392  24.853  1.00  0.00     0.188 C 
BRANCH   2   3
ATOM      3  O   UNL A   1      35.982  20.802  25.540  1.00  0.00    -0.376 OA
BRANCH   3   4
ATOM      4  C   UNL A   1      35.110  19.909  24.861  1.00  0.00     0.202 C 
BRANCH   4   5
ATOM      5  C   UNL A   1      33.633  20.310  24.716  1.00  0.00     0.261 C 
BRANCH   5   6
ATOM      6  O   UNL A   1      32.973  20.726  25.934  1.00  0.00    -0.463 OA
BRANCH   6   7
ATOM      7  C   UNL A   1      32.700  22.047  26.020  1.00  0.00     0.309 C 
ATOM      8  O   UNL A   1      31.960  22.515  26.885  1.00  0.00    -0.252 OA
BRANCH   7   9
ATOM      9  C   UNL A   1      33.462  22.990  25.062  1.00  0.00     0.105 C 
ATOM     10  C   UNL A   1      32.244  30.382  26.874  1.00  0.00     0.179 C 
ATOM     11  C   UNL A   1      31.726  29.125  27.510  1.00  0.00     0.047 C 
ATOM     12  C   UNL A   1      31.550  30.430  25.500  1.00  0.00     0.081 C 
ATOM     13  C   UNL A   1      32.123  27.994  26.605  1.00  0.00     0.026 C 
ATOM     14  C   UNL A   1      31.644  29.149  24.580  1.00  0.00     0.085 C 
ATOM     15  C   UNL A   1      31.109  27.785  25.143  1.00  0.00     0.103 C 
ATOM     16  C   UNL A   1      33.074  29.075  23.978  1.00  0.00     0.041 C 
ATOM     17  C   UNL A   1      31.133  26.430  25.723  1.00  0.00     0.316 C 
ATOM     18  C   UNL A   1      31.582  26.783  23.727  1.00  0.00     0.054 C 
ATOM     19  C   UNL A   1      33.751  27.688  23.929  1.00  0.00     0.052 C 
ATOM     20  O   UNL A   1      30.242  25.869  26.324  1.00  0.00    -0.251 OA
ATOM     21  O   UNL A   1      32.421  25.990  25.538  1.00  0.00    -0.458 OA
ATOM     22  C   UNL A   1      32.914  26.421  24.262  1.00  0.00     0.120 C 
ATOM     23  C   UNL A   1      30.864  25.481  23.237  1.00  0.00     0.009 C 
ATOM     24  C   UNL A   1      33.761  25.212  23.941  1.00  0.00     0.040 C 
ATOM     25  C   UNL A   1      31.390  24.113  23.771  1.00  0.00     0.008 C 
ATOM     26  C   UNL A   1      32.939  23.890  23.840  1.00  0.00    -0.013 C 
ATOM     27  C   UNL A   1      34.784  24.993  25.095  1.00  0.00     0.009 C 
ATOM     28  C   UNL A   1      33.432  23.335  22.476  1.00  0.00     0.013 C 
ATOM     29  C   UNL A   1      34.161  23.969  26.011  1.00  0.00     0.016 C 
BRANCH  10  30
ATOM     30  O   UNL A   1      33.693  30.520  26.716  1.00  0.00    -0.462 OA
BRANCH  30  31
ATOM     31  C   UNL A   1      34.580  30.622  27.749  1.00  0.00     0.302 C 
ATOM     32  C   UNL A   1      35.495  29.433  27.805  1.00  0.00     0.139 C 
ATOM     33  O   UNL A   1      34.680  31.553  28.535  1.00  0.00    -0.253 OA
ENDBRANCH  30  31
ENDBRANCH  10  30
BRANCH  14  34
ATOM     34  O   UNL A   1      30.703  29.518  23.531  1.00  0.00    -0.389 OA
ATOM     35  H   UNL A   1      31.189  29.883  22.775  1.00  0.00     0.211 HD
ENDBRANCH  14  34
ENDBRANCH   7   9
ENDBRANCH   6   7
ENDBRANCH   5   6
ENDBRANCH   4   5
ENDBRANCH   3   4
ENDBRANCH   2   3
ENDBRANCH   1   2
BRANCH   1  36
ATOM     36  O   UNL A   1      38.954  22.126  26.276  1.00  0.00    -0.376 OA
BRANCH  36  37
ATOM     37  C   UNL A   1      40.338  22.215  26.515  1.00  0.00     0.202 C 
BRANCH  37  38
ATOM     38  C   UNL A   1      40.908  23.620  26.757  1.00  0.00     0.261 C 
BRANCH  38  39
ATOM     39  O   UNL A   1      40.017  24.739  26.581  1.00  0.00    -0.460 OA
BRANCH  39  40
ATOM     40  C   UNL A   1      40.584  25.951  26.372  1.00  0.00     0.338 C 
ATOM     41  O   UNL A   1      41.157  26.314  25.359  1.00  0.00    -0.246 OA
BRANCH  40  42
ATOM     42  C   UNL A   1      40.205  26.859  27.484  1.00  0.00     0.060 A 
ATOM     43  C   UNL A   1      40.684  28.176  27.471  1.00  0.00     0.016 A 
ATOM     44  C   UNL A   1      39.440  26.410  28.559  1.00  0.00     0.016 A 
ATOM     45  C   UNL A   1      40.461  29.026  28.555  1.00  0.00     0.010 A 
ATOM     46  C   UNL A   1      39.232  27.255  29.658  1.00  0.00     0.010 A 
ATOM     47  C   UNL A   1      39.786  28.549  29.685  1.00  0.00    -0.014 A 
BRANCH  47  48
ATOM     48  C   UNL A   1      39.870  29.315  30.958  1.00  0.00     0.031 A 
ATOM     49  C   UNL A   1      41.040  29.051  31.876  1.00  0.00     0.074 A 
ATOM     50  C   UNL A   1      38.978  30.272  31.272  1.00  0.00     0.049 A 
ATOM     51  N   UNL A   1      41.317  29.571  33.045  1.00  0.00    -0.248 NA
ATOM     52  C   UNL A   1      42.032  28.069  31.408  1.00  0.00     0.031 C 
ATOM     53  C   UNL A   1      37.845  30.681  30.444  1.00  0.00     0.029 A 
ATOM     54  N   UNL A   1      38.895  31.084  32.379  1.00  0.00    -0.354 N 
ATOM     55  C   UNL A   1      42.497  28.963  33.459  1.00  0.00     0.074 A 
ATOM     56  C   UNL A   1      42.867  28.014  32.434  1.00  0.00     0.031 C 
ATOM     57  C   UNL A   1      37.180  31.668  31.070  1.00  0.00     0.029 A 
ATOM     58  C   UNL A   1      37.814  31.933  32.360  1.00  0.00     0.049 A 
ATOM     59  H   UNL A   1      39.546  31.057  33.116  1.00  0.00     0.167 HD
ATOM     60  C   UNL A   1      43.218  29.179  34.587  1.00  0.00     0.031 A 
ATOM     61  C   UNL A   1      37.376  32.812  33.286  1.00  0.00     0.031 A 
ATOM     62  C   UNL A   1      42.848  30.121  35.611  1.00  0.00     0.049 A 
ATOM     63  C   UNL A   1      38.149  32.977  34.571  1.00  0.00     0.074 A 
ATOM     64  C   UNL A   1      43.507  30.411  36.792  1.00  0.00     0.029 A 
ATOM     65  N   UNL A   1      41.719  30.924  35.576  1.00  0.00    -0.354 N 
ATOM     66  N   UNL A   1      39.257  32.387  34.953  1.00  0.00    -0.248 NA
ATOM     67  C   UNL A   1      37.616  33.942  35.543  1.00  0.00     0.031 C 
ATOM     68  C   UNL A   1      42.744  31.346  37.500  1.00  0.00     0.029 A 
ATOM     69  C   UNL A   1      41.652  31.697  36.724  1.00  0.00     0.049 A 
ATOM     70  H   UNL A   1      41.061  30.944  34.844  1.00  0.00     0.167 HD
ATOM     71  C   UNL A   1      39.576  32.942  36.191  1.00  0.00     0.074 A 
ATOM     72  C   UNL A   1      38.550  33.921  36.484  1.00  0.00     0.031 C 
ATOM     73  C   UNL A   1      40.627  32.671  37.006  1.00  0.00     0.031 A 
BRANCH  60  74
ATOM     74  C   UNL A   1      44.459  28.345  34.789  1.00  0.00    -0.014 A 
ATOM     75  C   UNL A   1      44.425  27.138  35.512  1.00  0.00     0.010 A 
ATOM     76  C   UNL A   1      45.677  28.768  34.224  1.00  0.00     0.010 A 
ATOM     77  C   UNL A   1      45.594  26.396  35.706  1.00  0.00     0.020 A 
ATOM     78  C   UNL A   1      46.840  28.011  34.388  1.00  0.00     0.020 A 
ATOM     79  C   UNL A   1      46.795  26.839  35.144  1.00  0.00     0.054 A 
BRANCH  79  80
ATOM     80  S   UNL A   1      48.292  25.849  35.401  1.00  0.00     0.124 S 
ATOM     81  O   UNL A   1      48.025  25.227  36.695  1.00  0.00    -0.237 OA
ATOM     82  O   UNL A   1      48.275  24.942  34.255  1.00  0.00    -0.237 OA
ATOM     83  O   UNL A   1      49.369  26.837  35.394  1.00  0.00    -0.744 OA
ENDBRANCH  79  80
ENDBRANCH  60  74
BRANCH  61  84
ATOM     84  C   UNL A   1      36.136  33.604  33.042  1.00  0.00    -0.014 A 
ATOM     85  C   UNL A   1      34.866  33.037  33.247  1.00  0.00     0.010 A 
ATOM     86  C   UNL A   1      36.221  34.932  32.583  1.00  0.00     0.010 A 
ATOM     87  C   UNL A   1      33.707  33.773  32.979  1.00  0.00     0.020 A 
ATOM     88  C   UNL A   1      35.066  35.683  32.347  1.00  0.00     0.020 A 
ATOM     89  C   UNL A   1      33.814  35.093  32.534  1.00  0.00     0.054 A 
BRANCH  89  90
ATOM     90  S   UNL A   1      32.297  36.042  32.236  1.00  0.00     0.124 S 
ATOM     91  O   UNL A   1      32.495  37.207  33.091  1.00  0.00    -0.237 OA
ATOM     92  O   UNL A   1      32.363  36.293  30.798  1.00  0.00    -0.237 OA
ATOM     93  O   UNL A   1      31.234  35.131  32.654  1.00  0.00    -0.744 OA
ENDBRANCH  89  90
ENDBRANCH  61  84
BRANCH  73  94
ATOM     94  C   UNL A   1      40.761  33.494  38.264  1.00  0.00    -0.014 A 
ATOM     95  C   UNL A   1      41.486  34.700  38.291  1.00  0.00     0.010 A 
ATOM     96  C   UNL A   1      40.127  33.055  39.442  1.00  0.00     0.010 A 
ATOM     97  C   UNL A   1      41.624  35.416  39.484  1.00  0.00     0.020 A 
ATOM     98  C   UNL A   1      40.230  33.787  40.627  1.00  0.00     0.020 A 
ATOM     99  C   UNL A   1      41.000  34.950  40.646  1.00  0.00     0.054 A 
BRANCH  99 100
ATOM    100  S   UNL A   1      41.194  35.895  42.182  1.00  0.00     0.124 S 
ATOM    101  O   UNL A   1      40.223  35.248  43.061  1.00  0.00    -0.237 OA
ATOM    102  O   UNL A   1      42.597  35.672  42.521  1.00  0.00    -0.237 OA
ATOM    103  O   UNL A   1      40.864  37.265  41.791  1.00  0.00    -0.744 OA
ENDBRANCH  99 100
ENDBRANCH  73  94
ENDBRANCH  47  48
ENDBRANCH  40  42
ENDBRANCH  39  40
ENDBRANCH  38  39
ENDBRANCH  37  38
ENDBRANCH  36  37
ENDBRANCH   1  36
TORSDOF 23
ENDMDL
MODEL 2
REMARK VINA RESULT:     -11.3      0.769      7.629
REMARK SMILES CC(=O)O[C@@H]1CC[C@]23C(=O)O[C@]4(CC[C@]2(O)C1)[C@H]3CC[C@]1(C)[C@H](C(=O)OCCOCCOCCOC(=O)c2ccc(-c3c5nc(c(-c6ccc(S(=O)(=O)[O-])cc6)c6ccc([nH]6)c(-c6ccc(S(=O)(=O)[O-])cc6)c6nc(c(-c7ccc(S(=O)(=O)[O-])cc7)c7ccc3[nH]7)C=C6)C=C5)cc2)CC[C@@H]14
REMARK SMILES IDX 31 1 30 2 29 3 28 4 27 5 26 6 24 7 25 8 23 9 5 10 6 11 17 12
REMARK SMILES IDX 7 13 15 14 8 15 14 16 9 17 18 18 13 19 10 20 11 21 12 22
REMARK SMILES IDX 19 23 100 24 20 25 21 26 99 27 22 28 98 29 4 30 2 31 1 32
REMARK SMILES IDX 3 33 16 34 32 36 33 37 34 38 35 39 36 40 37 41 38 42 39 43
REMARK SMILES IDX 97 44 40 45 96 46 41 47 42 48 43 49 90 50 44 51 95 52 89 53
REMARK SMILES IDX 91 54 45 55 94 56 88 57 87 58 46 60 76 61 57 62 75 63 58 64
REMARK SMILES IDX 61 65 74 66 92 67 59 68 60 69 73 71 93 72 62 73 47 74 48 75
REMARK SMILES IDX 56 76 49 77 55 78 50 79 51 80 52 81 53 82 54 83 77 84 78 85
REMARK SMILES IDX 86 86 79 87 85 88 80 89 81 90 82 91 83 92 84 93 63 94 64 95
REMARK SMILES IDX 72 96 65 97 71 98 66 99 67 100 68 101 69 102 70 103
REMARK H PARENT 16 35 91 59 61 70
REMARK Flexibility Score: inf
ROOT
ATOM      1  C   UNL A   1      36.753  21.627  24.673  1.00  0.00     0.188 C 
ENDROOT
BRANCH   1   2
ATOM      2  C   UNL A   1      36.139  20.254  24.970  1.00  0.00     0.188 C 
BRANCH   2   3
ATOM      3  O   UNL A   1      34.834  20.168  25.533  1.00  0.00    -0.376 OA
BRANCH   3   4
ATOM      4  C   UNL A   1      33.833  19.381  24.904  1.00  0.00     0.202 C 
BRANCH   4   5
ATOM      5  C   UNL A   1      32.730  20.107  24.116  1.00  0.00     0.261 C 
BRANCH   5   6
ATOM      6  O   UNL A   1      31.765  20.833  24.911  1.00  0.00    -0.463 OA
BRANCH   6   7
ATOM      7  C   UNL A   1      32.233  21.955  25.503  1.00  0.00     0.309 C 
ATOM      8  O   UNL A   1      32.105  22.171  26.708  1.00  0.00    -0.252 OA
BRANCH   7   9
ATOM      9  C   UNL A   1      33.068  22.919  24.629  1.00  0.00     0.105 C 
ATOM     10  C   UNL A   1      32.396  30.193  27.087  1.00  0.00     0.179 C 
ATOM     11  C   UNL A   1      31.783  28.927  27.611  1.00  0.00     0.047 C 
ATOM     12  C   UNL A   1      31.713  30.414  25.724  1.00  0.00     0.081 C 
ATOM     13  C   UNL A   1      32.098  27.854  26.609  1.00  0.00     0.026 C 
ATOM     14  C   UNL A   1      31.715  29.215  24.695  1.00  0.00     0.085 C 
ATOM     15  C   UNL A   1      31.078  27.851  25.137  1.00  0.00     0.103 C 
ATOM     16  C   UNL A   1      33.139  29.088  24.085  1.00  0.00     0.041 C 
ATOM     17  C   UNL A   1      30.998  26.452  25.596  1.00  0.00     0.316 C 
ATOM     18  C   UNL A   1      31.481  26.945  23.638  1.00  0.00     0.054 C 
ATOM     19  C   UNL A   1      33.710  27.664  23.913  1.00  0.00     0.052 C 
ATOM     20  O   UNL A   1      30.066  25.908  26.147  1.00  0.00    -0.251 OA
ATOM     21  O   UNL A   1      32.251  25.935  25.370  1.00  0.00    -0.458 OA
ATOM     22  C   UNL A   1      32.780  26.438  24.135  1.00  0.00     0.120 C 
ATOM     23  C   UNL A   1      30.670  25.748  23.036  1.00  0.00     0.009 C 
ATOM     24  C   UNL A   1      33.536  25.202  23.708  1.00  0.00     0.040 C 
ATOM     25  C   UNL A   1      31.091  24.302  23.447  1.00  0.00     0.008 C 
ATOM     26  C   UNL A   1      32.619  23.960  23.492  1.00  0.00    -0.013 C 
ATOM     27  C   UNL A   1      34.535  24.808  24.836  1.00  0.00     0.009 C 
ATOM     28  C   UNL A   1      33.075  23.492  22.084  1.00  0.00     0.013 C 
ATOM     29  C   UNL A   1      33.833  23.757  25.659  1.00  0.00     0.016 C 
BRANCH  10  30
ATOM     30  O   UNL A   1      33.852  30.237  26.938  1.00  0.00    -0.462 OA
BRANCH  30  31
ATOM     31  C   UNL A   1      34.696  30.911  27.772  1.00  0.00     0.302 C 
ATOM     32  C   UNL A   1      36.027  30.223  27.879  1.00  0.00     0.139 C 
ATOM     33  O   UNL A   1      34.462  31.960  28.356  1.00  0.00    -0.253 OA
ENDBRANCH  30  31
ENDBRANCH  10  30
BRANCH  14  34
ATOM     34  O   UNL A   1      30.809  29.744  23.684  1.00  0.00    -0.389 OA
ATOM     35  H   UNL A   1      30.683  30.695  23.829  1.00  0.00     0.211 HD
ENDBRANCH  14  34
ENDBRANCH   7   9
ENDBRANCH   6   7
ENDBRANCH   5   6
ENDBRANCH   4   5
ENDBRANCH   3   4
ENDBRANCH   2   3
ENDBRANCH   1   2
BRANCH   1  36
ATOM     36  O   UNL A   1      37.859  21.941  25.482  1.00  0.00    -0.376 OA
BRANCH  36  37
ATOM     37  C   UNL A   1      37.861  23.191  26.130  1.00  0.00     0.202 C 
BRANCH  37  38
ATOM     38  C   UNL A   1      39.151  24.018  26.033  1.00  0.00     0.261 C 
BRANCH  38  39
ATOM     39  O   UNL A   1      39.522  24.810  27.178  1.00  0.00    -0.460 OA
BRANCH  39  40
ATOM     40  C   UNL A   1      40.234  25.938  26.942  1.00  0.00     0.338 C 
ATOM     41  O   UNL A   1      40.811  26.223  25.907  1.00  0.00    -0.246 OA
BRANCH  40  42
ATOM     42  C   UNL A   1      40.019  26.888  28.063  1.00  0.00     0.060 A 
ATOM     43  C   UNL A   1      40.730  28.095  28.069  1.00  0.00     0.016 A 
ATOM     44  C   UNL A   1      39.177  26.574  29.129  1.00  0.00     0.016 A 
ATOM     45  C   UNL A   1      40.658  28.960  29.161  1.00  0.00     0.010 A 
ATOM     46  C   UNL A   1      39.119  27.431  30.236  1.00  0.00     0.010 A 
ATOM     47  C   UNL A   1      39.900  28.602  30.282  1.00  0.00    -0.014 A 
BRANCH  47  48
ATOM     48  C   UNL A   1      40.112  29.326  31.565  1.00  0.00     0.031 A 
ATOM     49  C   UNL A   1      39.103  30.373  31.972  1.00  0.00     0.074 A 
ATOM     50  C   UNL A   1      41.131  29.024  32.391  1.00  0.00     0.049 A 
ATOM     51  N   UNL A   1      39.086  31.150  33.025  1.00  0.00    -0.248 NA
ATOM     52  C   UNL A   1      37.957  30.565  31.067  1.00  0.00     0.031 C 
ATOM     53  C   UNL A   1      42.134  27.986  32.157  1.00  0.00     0.029 A 
ATOM     54  N   UNL A   1      41.483  29.564  33.605  1.00  0.00    -0.354 N 
ATOM     55  C   UNL A   1      37.945  31.936  32.896  1.00  0.00     0.074 A 
ATOM     56  C   UNL A   1      37.314  31.565  31.649  1.00  0.00     0.031 C 
ATOM     57  C   UNL A   1      42.987  27.963  33.196  1.00  0.00     0.029 A 
ATOM     58  C   UNL A   1      42.618  29.009  34.148  1.00  0.00     0.049 A 
ATOM     59  H   UNL A   1      40.972  30.281  34.043  1.00  0.00     0.167 HD
ATOM     60  C   UNL A   1      37.458  32.876  33.742  1.00  0.00     0.031 A 
ATOM     61  C   UNL A   1      43.292  29.322  35.274  1.00  0.00     0.031 A 
ATOM     62  C   UNL A   1      38.088  33.249  34.981  1.00  0.00     0.049 A 
ATOM     63  C   UNL A   1      42.776  30.428  36.160  1.00  0.00     0.074 A 
ATOM     64  C   UNL A   1      37.677  34.192  35.906  1.00  0.00     0.029 A 
ATOM     65  N   UNL A   1      39.263  32.698  35.468  1.00  0.00    -0.354 N 
ATOM     66  N   UNL A   1      41.702  31.170  36.020  1.00  0.00    -0.248 NA
ATOM     67  C   UNL A   1      43.559  30.728  37.367  1.00  0.00     0.031 C 
ATOM     68  C   UNL A   1      38.636  34.254  36.923  1.00  0.00     0.029 A 
ATOM     69  C   UNL A   1      39.602  33.294  36.672  1.00  0.00     0.049 A 
ATOM     70  H   UNL A   1      39.781  31.987  35.025  1.00  0.00     0.167 HD
ATOM     71  C   UNL A   1      41.659  31.993  37.143  1.00  0.00     0.074 A 
ATOM     72  C   UNL A   1      42.807  31.648  37.955  1.00  0.00     0.031 C 
ATOM     73  C   UNL A   1      40.747  32.942  37.475  1.00  0.00     0.031 A 
BRANCH  60  74
ATOM     74  C   UNL A   1      36.199  33.597  33.327  1.00  0.00    -0.014 A 
ATOM     75  C   UNL A   1      34.929  33.016  33.493  1.00  0.00     0.010 A 
ATOM     76  C   UNL A   1      36.291  34.891  32.781  1.00  0.00     0.010 A 
ATOM     77  C   UNL A   1      33.779  33.694  33.076  1.00  0.00     0.020 A 
ATOM     78  C   UNL A   1      35.141  35.586  32.395  1.00  0.00     0.020 A 
ATOM     79  C   UNL A   1      33.893  34.975  32.528  1.00  0.00     0.054 A 
BRANCH  79  80
ATOM     80  S   UNL A   1      32.384  35.837  32.010  1.00  0.00     0.124 S 
ATOM     81  O   UNL A   1      32.329  35.519  30.586  1.00  0.00    -0.237 OA
ATOM     82  O   UNL A   1      31.357  35.204  32.834  1.00  0.00    -0.237 OA
ATOM     83  O   UNL A   1      32.657  37.237  32.326  1.00  0.00    -0.744 OA
ENDBRANCH  79  80
ENDBRANCH  60  74
BRANCH  61  84
ATOM     84  C   UNL A   1      44.538  28.584  35.632  1.00  0.00    -0.014 A 
ATOM     85  C   UNL A   1      44.478  27.353  36.307  1.00  0.00     0.010 A 
ATOM     86  C   UNL A   1      45.798  29.123  35.312  1.00  0.00     0.010 A 
ATOM     87  C   UNL A   1      45.651  26.685  36.675  1.00  0.00     0.020 A 
ATOM     88  C   UNL A   1      46.973  28.442  35.646  1.00  0.00     0.020 A 
ATOM     89  C   UNL A   1      46.892  27.233  36.338  1.00  0.00     0.054 A 
BRANCH  89  90
ATOM     90  S   UNL A   1      48.398  26.327  36.785  1.00  0.00     0.124 S 
ATOM     91  O   UNL A   1      47.861  25.191  37.527  1.00  0.00    -0.237 OA
ATOM     92  O   UNL A   1      48.974  26.014  35.479  1.00  0.00    -0.237 OA
ATOM     93  O   UNL A   1      49.157  27.291  37.578  1.00  0.00    -0.744 OA
ENDBRANCH  89  90
ENDBRANCH  61  84
BRANCH  73  94
ATOM     94  C   UNL A   1      40.913  33.630  38.808  1.00  0.00    -0.014 A 
ATOM     95  C   UNL A   1      40.339  33.118  39.986  1.00  0.00     0.010 A 
ATOM     96  C   UNL A   1      41.682  34.807  38.882  1.00  0.00     0.010 A 
ATOM     97  C   UNL A   1      40.479  33.803  41.197  1.00  0.00     0.020 A 
ATOM     98  C   UNL A   1      41.856  35.474  40.096  1.00  0.00     0.020 A 
ATOM     99  C   UNL A   1      41.231  34.981  41.242  1.00  0.00     0.054 A 
BRANCH  99 100
ATOM    100  S   UNL A   1      41.399  35.852  42.824  1.00  0.00     0.124 S 
ATOM    101  O   UNL A   1      41.680  37.219  42.389  1.00  0.00    -0.237 OA
ATOM    102  O   UNL A   1      40.093  35.646  43.444  1.00  0.00    -0.237 OA
ATOM    103  O   UNL A   1      42.510  35.168  43.482  1.00  0.00    -0.744 OA
ENDBRANCH  99 100
ENDBRANCH  73  94
ENDBRANCH  47  48
ENDBRANCH  40  42
ENDBRANCH  39  40
ENDBRANCH  38  39
ENDBRANCH  37  38
ENDBRANCH  36  37
ENDBRANCH   1  36
TORSDOF 23
ENDMDL
MODEL 3
REMARK VINA RESULT:     -10.8      1.380      7.965
REMARK SMILES CC(=O)O[C@@H]1CC[C@]23C(=O)O[C@]4(CC[C@]2(O)C1)[C@H]3CC[C@]1(C)[C@H](C(=O)OCCOCCOCCOC(=O)c2ccc(-c3c5nc(c(-c6ccc(S(=O)(=O)[O-])cc6)c6ccc([nH]6)c(-c6ccc(S(=O)(=O)[O-])cc6)c6nc(c(-c7ccc(S(=O)(=O)[O-])cc7)c7ccc3[nH]7)C=C6)C=C5)cc2)CC[C@@H]14
REMARK SMILES IDX 31 1 30 2 29 3 28 4 27 5 26 6 24 7 25 8 23 9 5 10 6 11 17 12
REMARK SMILES IDX 7 13 15 14 8 15 14 16 9 17 18 18 13 19 10 20 11 21 12 22
REMARK SMILES IDX 19 23 100 24 20 25 21 26 99 27 22 28 98 29 4 30 2 31 1 32
REMARK SMILES IDX 3 33 16 34 32 36 33 37 34 38 35 39 36 40 37 41 38 42 39 43
REMARK SMILES IDX 97 44 40 45 96 46 41 47 42 48 43 49 90 50 44 51 95 52 89 53
REMARK SMILES IDX 91 54 45 55 94 56 88 57 87 58 46 60 76 61 57 62 75 63 58 64
REMARK SMILES IDX 61 65 74 66 92 67 59 68 60 69 73 71 93 72 62 73 47 74 48 75
REMARK SMILES IDX 56 76 49 77 55 78 50 79 51 80 52 81 53 82 54 83 77 84 78 85
REMARK SMILES IDX 86 86 79 87 85 88 80 89 81 90 82 91 83 92 84 93 63 94 64 95
REMARK SMILES IDX 72 96 65 97 71 98 66 99 67 100 68 101 69 102 70 103
REMARK H PARENT 16 35 91 59 61 70
REMARK Flexibility Score: inf
ROOT
ATOM      1  C   UNL A   1      37.272  21.244  24.708  1.00  0.00     0.188 C 
ENDROOT
BRANCH   1   2
ATOM      2  C   UNL A   1      37.069  19.726  24.736  1.00  0.00     0.188 C 
BRANCH   2   3
ATOM      3  O   UNL A   1      35.822  19.185  25.162  1.00  0.00    -0.376 OA
BRANCH   3   4
ATOM      4  C   UNL A   1      35.037  18.406  24.269  1.00  0.00     0.202 C 
BRANCH   4   5
ATOM      5  C   UNL A   1      33.508  18.447  24.425  1.00  0.00     0.261 C 
BRANCH   5   6
ATOM      6  O   UNL A   1      33.002  19.388  25.399  1.00  0.00    -0.463 OA
BRANCH   6   7
ATOM      7  C   UNL A   1      32.672  20.604  24.908  1.00  0.00     0.309 C 
ATOM      8  O   UNL A   1      32.497  20.808  23.707  1.00  0.00    -0.252 OA
BRANCH   7   9
ATOM      9  C   UNL A   1      32.386  21.725  25.932  1.00  0.00     0.105 C 
ATOM     10  C   UNL A   1      31.033  28.443  22.405  1.00  0.00     0.179 C 
ATOM     11  C   UNL A   1      31.351  27.091  21.836  1.00  0.00     0.047 C 
ATOM     12  C   UNL A   1      32.334  28.881  23.103  1.00  0.00     0.081 C 
ATOM     13  C   UNL A   1      31.723  26.216  22.998  1.00  0.00     0.026 C 
ATOM     14  C   UNL A   1      32.991  27.879  24.134  1.00  0.00     0.085 C 
ATOM     15  C   UNL A   1      33.382  26.444  23.634  1.00  0.00     0.103 C 
ATOM     16  C   UNL A   1      32.153  27.894  25.442  1.00  0.00     0.041 C 
ATOM     17  C   UNL A   1      33.302  24.985  23.436  1.00  0.00     0.316 C 
ATOM     18  C   UNL A   1      33.942  25.822  25.225  1.00  0.00     0.054 C 
ATOM     19  C   UNL A   1      31.882  26.536  26.125  1.00  0.00     0.052 C 
ATOM     20  O   UNL A   1      33.816  24.331  22.554  1.00  0.00    -0.251 OA
ATOM     21  O   UNL A   1      32.425  24.546  24.398  1.00  0.00    -0.458 OA
ATOM     22  C   UNL A   1      32.626  25.268  25.621  1.00  0.00     0.120 C 
ATOM     23  C   UNL A   1      35.039  24.729  25.455  1.00  0.00     0.009 C 
ATOM     24  C   UNL A   1      32.328  24.145  26.584  1.00  0.00     0.040 C 
ATOM     25  C   UNL A   1      34.573  23.244  25.582  1.00  0.00     0.008 C 
ATOM     26  C   UNL A   1      33.305  22.936  26.447  1.00  0.00    -0.013 C 
ATOM     27  C   UNL A   1      30.908  23.585  26.281  1.00  0.00     0.009 C 
ATOM     28  C   UNL A   1      33.737  22.731  27.924  1.00  0.00     0.013 C 
ATOM     29  C   UNL A   1      31.118  22.389  25.385  1.00  0.00     0.016 C 
BRANCH  10  30
ATOM     30  O   UNL A   1      29.902  28.548  23.328  1.00  0.00    -0.462 OA
BRANCH  30  31
ATOM     31  C   UNL A   1      28.968  29.543  23.300  1.00  0.00     0.302 C 
ATOM     32  C   UNL A   1      27.614  29.016  22.923  1.00  0.00     0.139 C 
ATOM     33  O   UNL A   1      29.150  30.722  23.571  1.00  0.00    -0.253 OA
ENDBRANCH  30  31
ENDBRANCH  10  30
BRANCH  14  34
ATOM     34  O   UNL A   1      34.260  28.553  24.372  1.00  0.00    -0.389 OA
ATOM     35  H   UNL A   1      34.909  28.264  23.711  1.00  0.00     0.211 HD
ENDBRANCH  14  34
ENDBRANCH   7   9
ENDBRANCH   6   7
ENDBRANCH   5   6
ENDBRANCH   4   5
ENDBRANCH   3   4
ENDBRANCH   2   3
ENDBRANCH   1   2
BRANCH   1  36
ATOM     36  O   UNL A   1      38.410  21.678  25.409  1.00  0.00    -0.376 OA
BRANCH  36  37
ATOM     37  C   UNL A   1      38.247  22.721  26.341  1.00  0.00     0.202 C 
BRANCH  37  38
ATOM     38  C   UNL A   1      39.433  23.680  26.519  1.00  0.00     0.261 C 
BRANCH  38  39
ATOM     39  O   UNL A   1      39.134  25.067  26.775  1.00  0.00    -0.460 OA
BRANCH  39  40
ATOM     40  C   UNL A   1      40.186  25.917  26.865  1.00  0.00     0.338 C 
ATOM     41  O   UNL A   1      41.082  26.044  26.049  1.00  0.00    -0.246 OA
BRANCH  40  42
ATOM     42  C   UNL A   1      39.963  26.840  28.007  1.00  0.00     0.060 A 
ATOM     43  C   UNL A   1      40.574  28.100  27.982  1.00  0.00     0.016 A 
ATOM     44  C   UNL A   1      39.218  26.452  29.119  1.00  0.00     0.016 A 
ATOM     45  C   UNL A   1      40.499  28.950  29.087  1.00  0.00     0.010 A 
ATOM     46  C   UNL A   1      39.159  27.295  30.237  1.00  0.00     0.010 A 
ATOM     47  C   UNL A   1      39.843  28.525  30.247  1.00  0.00    -0.014 A 
BRANCH  47  48
ATOM     48  C   UNL A   1      40.076  29.257  31.522  1.00  0.00     0.031 A 
ATOM     49  C   UNL A   1      39.073  30.307  31.938  1.00  0.00     0.074 A 
ATOM     50  C   UNL A   1      41.106  28.959  32.336  1.00  0.00     0.049 A 
ATOM     51  N   UNL A   1      39.073  31.090  32.986  1.00  0.00    -0.248 NA
ATOM     52  C   UNL A   1      37.915  30.495  31.049  1.00  0.00     0.031 C 
ATOM     53  C   UNL A   1      42.104  27.917  32.094  1.00  0.00     0.029 A 
ATOM     54  N   UNL A   1      41.476  29.505  33.541  1.00  0.00    -0.354 N 
ATOM     55  C   UNL A   1      37.931  31.877  32.869  1.00  0.00     0.074 A 
ATOM     56  C   UNL A   1      37.282  31.500  31.635  1.00  0.00     0.031 C 
ATOM     57  C   UNL A   1      42.972  27.899  33.120  1.00  0.00     0.029 A 
ATOM     58  C   UNL A   1      42.618  28.952  34.071  1.00  0.00     0.049 A 
ATOM     59  H   UNL A   1      40.972  30.225  33.983  1.00  0.00     0.167 HD
ATOM     60  C   UNL A   1      37.457  32.823  33.717  1.00  0.00     0.031 A 
ATOM     61  C   UNL A   1      43.309  29.270  35.185  1.00  0.00     0.031 A 
ATOM     62  C   UNL A   1      38.106  33.203  34.945  1.00  0.00     0.049 A 
ATOM     63  C   UNL A   1      42.807  30.383  36.072  1.00  0.00     0.074 A 
ATOM     64  C   UNL A   1      37.709  34.152  35.870  1.00  0.00     0.029 A 
ATOM     65  N   UNL A   1      39.288  32.653  35.418  1.00  0.00    -0.354 N 
ATOM     66  N   UNL A   1      41.732  31.125  35.943  1.00  0.00    -0.248 NA
ATOM     67  C   UNL A   1      43.608  30.689  37.266  1.00  0.00     0.031 C 
ATOM     68  C   UNL A   1      38.683  34.219  36.872  1.00  0.00     0.029 A 
ATOM     69  C   UNL A   1      39.645  33.256  36.613  1.00  0.00     0.049 A 
ATOM     70  H   UNL A   1      39.798  31.939  34.971  1.00  0.00     0.167 HD
ATOM     71  C   UNL A   1      41.707  31.955  37.061  1.00  0.00     0.074 A 
ATOM     72  C   UNL A   1      42.866  31.614  37.859  1.00  0.00     0.031 C 
ATOM     73  C   UNL A   1      40.801  32.908  37.401  1.00  0.00     0.031 A 
BRANCH  60  74
ATOM     74  C   UNL A   1      36.194  33.544  33.316  1.00  0.00    -0.014 A 
ATOM     75  C   UNL A   1      34.922  32.999  33.575  1.00  0.00     0.010 A 
ATOM     76  C   UNL A   1      36.283  34.800  32.688  1.00  0.00     0.010 A 
ATOM     77  C   UNL A   1      33.767  33.674  33.170  1.00  0.00     0.020 A 
ATOM     78  C   UNL A   1      35.128  35.494  32.313  1.00  0.00     0.020 A 
ATOM     79  C   UNL A   1      33.878  34.917  32.540  1.00  0.00     0.054 A 
BRANCH  79  80
ATOM     80  S   UNL A   1      32.362  35.777  32.039  1.00  0.00     0.124 S 
ATOM     81  O   UNL A   1      32.596  37.124  32.550  1.00  0.00    -0.237 OA
ATOM     82  O   UNL A   1      32.386  35.645  30.584  1.00  0.00    -0.237 OA
ATOM     83  O   UNL A   1      31.300  35.031  32.712  1.00  0.00    -0.744 OA
ENDBRANCH  79  80
ENDBRANCH  60  74
BRANCH  61  84
ATOM     84  C   UNL A   1      44.559  28.534  35.530  1.00  0.00    -0.014 A 
ATOM     85  C   UNL A   1      44.519  27.380  36.332  1.00  0.00     0.010 A 
ATOM     86  C   UNL A   1      45.805  28.996  35.066  1.00  0.00     0.010 A 
ATOM     87  C   UNL A   1      45.698  26.716  36.683  1.00  0.00     0.020 A 
ATOM     88  C   UNL A   1      46.984  28.315  35.386  1.00  0.00     0.020 A 
ATOM     89  C   UNL A   1      46.924  27.186  36.205  1.00  0.00     0.054 A 
BRANCH  89  90
ATOM     90  S   UNL A   1      48.436  26.282  36.636  1.00  0.00     0.124 S 
ATOM     91  O   UNL A   1      49.315  27.357  37.085  1.00  0.00    -0.237 OA
ATOM     92  O   UNL A   1      47.969  25.371  37.679  1.00  0.00    -0.237 OA
ATOM     93  O   UNL A   1      48.822  25.639  35.383  1.00  0.00    -0.744 OA
ENDBRANCH  89  90
ENDBRANCH  61  84
BRANCH  73  94
ATOM     94  C   UNL A   1      40.987  33.603  38.727  1.00  0.00    -0.014 A 
ATOM     95  C   UNL A   1      40.433  33.097  39.917  1.00  0.00     0.010 A 
ATOM     96  C   UNL A   1      41.755  34.782  38.782  1.00  0.00     0.010 A 
ATOM     97  C   UNL A   1      40.591  33.789  41.122  1.00  0.00     0.020 A 
ATOM     98  C   UNL A   1      41.947  35.456  39.990  1.00  0.00     0.020 A 
ATOM     99  C   UNL A   1      41.342  34.968  41.148  1.00  0.00     0.054 A 
BRANCH  99 100
ATOM    100  S   UNL A   1      41.534  35.849  42.722  1.00  0.00     0.124 S 
ATOM    101  O   UNL A   1      40.425  36.799  42.675  1.00  0.00    -0.237 OA
ATOM    102  O   UNL A   1      41.404  34.778  43.707  1.00  0.00    -0.237 OA
ATOM    103  O   UNL A   1      42.866  36.443  42.629  1.00  0.00    -0.744 OA
ENDBRANCH  99 100
ENDBRANCH  73  94
ENDBRANCH  47  48
ENDBRANCH  40  42
ENDBRANCH  39  40
ENDBRANCH  38  39
ENDBRANCH  37  38
ENDBRANCH  36  37
ENDBRANCH   1  36
TORSDOF 23
ENDMDL
