MODEL 1
REMARK VINA RESULT:      -8.7      0.000      0.000
REMARK SMILES CC(C)(C)[C@H](CCC(=O)OCCOCCOCCOC(=O)c1ccc(-c2c3nc(c(-c4ccc(S(=O)(=O)[O-])cc4)c4ccc([nH]4)c(-c4ccc(S(=O)(=O)[O-])cc4)c4nc(c(-c5ccc(S(=O)(=O)[O-])cc5)c5ccc2[nH]5)C=C4)C=C3)cc1)CC[NH+]1CCOCC1
REMARK SMILES IDX 14 1 13 2 12 3 11 4 10 5 8 6 9 7 7 8 6 9 5 10 2 11 1 12 3 13
REMARK SMILES IDX 4 14 82 15 83 16 84 17 85 18 89 19 86 21 88 22 87 23 15 24
REMARK SMILES IDX 16 25 17 26 18 27 19 28 20 29 21 30 22 31 23 32 81 33 24 34
REMARK SMILES IDX 80 35 25 36 26 37 27 38 74 39 28 40 79 41 73 42 75 43 29 44
REMARK SMILES IDX 78 45 72 46 71 47 30 49 60 50 41 51 59 52 42 53 45 54 58 55
REMARK SMILES IDX 76 56 43 57 44 58 57 60 77 61 46 62 31 63 32 64 40 65 33 66
REMARK SMILES IDX 39 67 34 68 35 69 36 70 37 71 38 72 61 73 62 74 70 75 63 76
REMARK SMILES IDX 69 77 64 78 65 79 66 80 67 81 68 82 47 83 48 84 56 85 49 86
REMARK SMILES IDX 55 87 50 88 51 89 52 90 53 91 54 92
REMARK H PARENT 84 20 75 48 45 59
REMARK Flexibility Score: inf
ROOT
ATOM      1  C   UNL A   1      35.833  22.465  25.816  1.00  0.00     0.188 C 
ENDROOT
BRANCH   1   2
ATOM      2  O   UNL A   1      35.215  21.494  26.649  1.00  0.00    -0.376 OA
BRANCH   2   3
ATOM      3  C   UNL A   1      33.795  21.611  26.713  1.00  0.00     0.202 C 
BRANCH   3   4
ATOM      4  C   UNL A   1      33.292  23.068  26.811  1.00  0.00     0.261 C 
BRANCH   4   5
ATOM      5  O   UNL A   1      32.007  23.209  27.470  1.00  0.00    -0.463 OA
BRANCH   5   6
ATOM      6  C   UNL A   1      30.847  23.301  26.779  1.00  0.00     0.305 C 
ATOM      7  O   UNL A   1      29.830  23.831  27.204  1.00  0.00    -0.252 OA
BRANCH   6   8
ATOM      8  C   UNL A   1      30.987  22.705  25.368  1.00  0.00     0.123 C 
BRANCH   8   9
ATOM      9  C   UNL A   1      30.782  23.655  24.168  1.00  0.00     0.016 C 
BRANCH   9  10
ATOM     10  C   UNL A   1      31.743  24.853  23.796  1.00  0.00     0.000 C 
BRANCH  10  11
ATOM     11  C   UNL A   1      32.949  24.661  22.782  1.00  0.00    -0.035 C 
ATOM     12  C   UNL A   1      33.002  23.272  22.190  1.00  0.00     0.011 C 
ATOM     13  C   UNL A   1      34.290  24.840  23.544  1.00  0.00     0.011 C 
ATOM     14  C   UNL A   1      32.927  25.634  21.583  1.00  0.00     0.011 C 
ENDBRANCH  10  11
BRANCH  10  15
ATOM     15  C   UNL A   1      31.006  26.199  23.541  1.00  0.00     0.065 C 
BRANCH  15  16
ATOM     16  C   UNL A   1      31.160  27.342  24.569  1.00  0.00     0.262 C 
BRANCH  16  17
ATOM     17  N   UNL A   1      32.404  27.255  25.352  1.00  0.00    -0.331 N 
ATOM     18  C   UNL A   1      32.136  27.123  26.806  1.00  0.00     0.291 C 
ATOM     19  C   UNL A   1      33.288  28.431  25.182  1.00  0.00     0.291 C 
ATOM     20  H   UNL A   1      32.869  26.423  24.990  1.00  0.00     0.348 HD
ATOM     21  C   UNL A   1      31.613  28.414  27.457  1.00  0.00     0.221 C 
ATOM     22  C   UNL A   1      32.792  29.709  25.880  1.00  0.00     0.221 C 
ATOM     23  O   UNL A   1      32.536  29.492  27.272  1.00  0.00    -0.370 OA
ENDBRANCH  16  17
ENDBRANCH  15  16
ENDBRANCH  10  15
ENDBRANCH   9  10
ENDBRANCH   8   9
ENDBRANCH   6   8
ENDBRANCH   5   6
ENDBRANCH   4   5
ENDBRANCH   3   4
ENDBRANCH   2   3
ENDBRANCH   1   2
BRANCH   1  24
ATOM     24  C   UNL A   1      36.669  21.852  24.712  1.00  0.00     0.188 C 
BRANCH  24  25
ATOM     25  O   UNL A   1      36.702  20.424  24.729  1.00  0.00    -0.376 OA
BRANCH  25  26
ATOM     26  C   UNL A   1      37.997  19.886  25.000  1.00  0.00     0.202 C 
BRANCH  26  27
ATOM     27  C   UNL A   1      38.969  20.827  25.737  1.00  0.00     0.261 C 
BRANCH  27  28
ATOM     28  O   UNL A   1      40.304  20.291  25.786  1.00  0.00    -0.460 OA
BRANCH  28  29
ATOM     29  C   UNL A   1      40.908  20.353  27.001  1.00  0.00     0.338 C 
ATOM     30  O   UNL A   1      40.930  19.469  27.845  1.00  0.00    -0.246 OA
BRANCH  29  31
ATOM     31  C   UNL A   1      41.762  21.569  27.084  1.00  0.00     0.060 A 
ATOM     32  C   UNL A   1      42.302  21.895  28.340  1.00  0.00     0.016 A 
ATOM     33  C   UNL A   1      42.087  22.345  25.968  1.00  0.00     0.016 A 
ATOM     34  C   UNL A   1      43.087  23.036  28.499  1.00  0.00     0.010 A 
ATOM     35  C   UNL A   1      42.870  23.494  26.127  1.00  0.00     0.010 A 
ATOM     36  C   UNL A   1      43.317  23.878  27.405  1.00  0.00    -0.014 A 
BRANCH  36  37
ATOM     37  C   UNL A   1      43.737  25.278  27.660  1.00  0.00     0.031 A 
ATOM     38  C   UNL A   1      45.156  25.650  27.303  1.00  0.00     0.074 A 
ATOM     39  C   UNL A   1      42.888  26.213  28.126  1.00  0.00     0.049 A 
ATOM     40  N   UNL A   1      45.766  26.801  27.404  1.00  0.00    -0.248 NA
ATOM     41  C   UNL A   1      46.000  24.570  26.761  1.00  0.00     0.031 C 
ATOM     42  C   UNL A   1      41.480  25.997  28.455  1.00  0.00     0.029 A 
ATOM     43  N   UNL A   1      43.096  27.544  28.394  1.00  0.00    -0.354 N 
ATOM     44  C   UNL A   1      47.065  26.576  26.957  1.00  0.00     0.074 A 
ATOM     45  C   UNL A   1      47.166  25.176  26.619  1.00  0.00     0.031 C 
ATOM     46  C   UNL A   1      40.949  27.159  28.877  1.00  0.00     0.029 A 
ATOM     47  C   UNL A   1      41.984  28.193  28.874  1.00  0.00     0.049 A 
ATOM     48  H   UNL A   1      43.961  27.992  28.255  1.00  0.00     0.167 HD
ATOM     49  C   UNL A   1      48.084  27.458  26.826  1.00  0.00     0.031 A 
ATOM     50  C   UNL A   1      41.824  29.472  29.271  1.00  0.00     0.031 A 
ATOM     51  C   UNL A   1      47.984  28.851  27.164  1.00  0.00     0.049 A 
ATOM     52  C   UNL A   1      42.994  30.423  29.178  1.00  0.00     0.074 A 
ATOM     53  C   UNL A   1      48.950  29.834  27.051  1.00  0.00     0.029 A 
ATOM     54  N   UNL A   1      46.853  29.457  27.690  1.00  0.00    -0.354 N 
ATOM     55  N   UNL A   1      44.207  30.202  28.728  1.00  0.00    -0.248 NA
ATOM     56  C   UNL A   1      42.764  31.802  29.633  1.00  0.00     0.031 C 
ATOM     57  C   UNL A   1      48.424  31.020  27.573  1.00  0.00     0.029 A 
ATOM     58  C   UNL A   1      47.106  30.795  27.936  1.00  0.00     0.049 A 
ATOM     59  H   UNL A   1      45.997  29.001  27.864  1.00  0.00     0.167 HD
ATOM     60  C   UNL A   1      44.870  31.426  28.807  1.00  0.00     0.074 A 
ATOM     61  C   UNL A   1      43.920  32.381  29.338  1.00  0.00     0.031 C 
ATOM     62  C   UNL A   1      46.147  31.734  28.463  1.00  0.00     0.031 A 
BRANCH  49  63
ATOM     63  C   UNL A   1      49.407  26.924  26.340  1.00  0.00    -0.014 A 
ATOM     64  C   UNL A   1      49.807  27.052  24.997  1.00  0.00     0.010 A 
ATOM     65  C   UNL A   1      50.273  26.295  27.254  1.00  0.00     0.010 A 
ATOM     66  C   UNL A   1      51.028  26.524  24.570  1.00  0.00     0.020 A 
ATOM     67  C   UNL A   1      51.510  25.797  26.837  1.00  0.00     0.020 A 
ATOM     68  C   UNL A   1      51.873  25.900  25.493  1.00  0.00     0.054 A 
BRANCH  68  69
ATOM     69  S   UNL A   1      53.462  25.244  24.917  1.00  0.00     0.124 S 
ATOM     70  O   UNL A   1      53.387  23.850  25.346  1.00  0.00    -0.237 OA
ATOM     71  O   UNL A   1      53.392  25.461  23.474  1.00  0.00    -0.237 OA
ATOM     72  O   UNL A   1      54.449  26.059  25.619  1.00  0.00    -0.744 OA
ENDBRANCH  68  69
ENDBRANCH  49  63
BRANCH  50  73
ATOM     73  C   UNL A   1      40.507  29.941  29.790  1.00  0.00    -0.014 A 
ATOM     74  C   UNL A   1      39.444  30.219  28.912  1.00  0.00     0.010 A 
ATOM     75  C   UNL A   1      40.313  30.129  31.172  1.00  0.00     0.010 A 
ATOM     76  C   UNL A   1      38.222  30.693  29.401  1.00  0.00     0.020 A 
ATOM     77  C   UNL A   1      39.083  30.574  31.667  1.00  0.00     0.020 A 
ATOM     78  C   UNL A   1      38.049  30.864  30.777  1.00  0.00     0.054 A 
BRANCH  78  79
ATOM     79  S   UNL A   1      36.440  31.437  31.390  1.00  0.00     0.124 S 
ATOM     80  O   UNL A   1      36.052  30.356  32.290  1.00  0.00    -0.237 OA
ATOM     81  O   UNL A   1      36.782  32.704  32.035  1.00  0.00    -0.237 OA
ATOM     82  O   UNL A   1      35.634  31.562  30.177  1.00  0.00    -0.744 OA
ENDBRANCH  78  79
ENDBRANCH  50  73
BRANCH  62  83
ATOM     83  C   UNL A   1      46.577  33.173  28.591  1.00  0.00    -0.014 A 
ATOM     84  C   UNL A   1      46.384  34.099  27.551  1.00  0.00     0.010 A 
ATOM     85  C   UNL A   1      47.150  33.613  29.800  1.00  0.00     0.010 A 
ATOM     86  C   UNL A   1      46.804  35.425  27.699  1.00  0.00     0.020 A 
ATOM     87  C   UNL A   1      47.537  34.945  29.964  1.00  0.00     0.020 A 
ATOM     88  C   UNL A   1      47.381  35.838  28.905  1.00  0.00     0.054 A 
BRANCH  88  89
ATOM     89  S   UNL A   1      47.903  37.567  29.076  1.00  0.00     0.124 S 
ATOM     90  O   UNL A   1      48.896  37.691  28.013  1.00  0.00    -0.237 OA
ATOM     91  O   UNL A   1      46.657  38.300  28.865  1.00  0.00    -0.237 OA
ATOM     92  O   UNL A   1      48.436  37.634  30.436  1.00  0.00    -0.744 OA
ENDBRANCH  88  89
ENDBRANCH  62  83
ENDBRANCH  36  37
ENDBRANCH  29  31
ENDBRANCH  28  29
ENDBRANCH  27  28
ENDBRANCH  26  27
ENDBRANCH  25  26
ENDBRANCH  24  25
ENDBRANCH   1  24
TORSDOF 26
ENDMDL
MODEL 2
REMARK VINA RESULT:      -8.0      1.610      2.471
REMARK SMILES CC(C)(C)[C@H](CCC(=O)OCCOCCOCCOC(=O)c1ccc(-c2c3nc(c(-c4ccc(S(=O)(=O)[O-])cc4)c4ccc([nH]4)c(-c4ccc(S(=O)(=O)[O-])cc4)c4nc(c(-c5ccc(S(=O)(=O)[O-])cc5)c5ccc2[nH]5)C=C4)C=C3)cc1)CC[NH+]1CCOCC1
REMARK SMILES IDX 14 1 13 2 12 3 11 4 10 5 8 6 9 7 7 8 6 9 5 10 2 11 1 12 3 13
REMARK SMILES IDX 4 14 82 15 83 16 84 17 85 18 89 19 86 21 88 22 87 23 15 24
REMARK SMILES IDX 16 25 17 26 18 27 19 28 20 29 21 30 22 31 23 32 81 33 24 34
REMARK SMILES IDX 80 35 25 36 26 37 27 38 74 39 28 40 79 41 73 42 75 43 29 44
REMARK SMILES IDX 78 45 72 46 71 47 30 49 60 50 41 51 59 52 42 53 45 54 58 55
REMARK SMILES IDX 76 56 43 57 44 58 57 60 77 61 46 62 31 63 32 64 40 65 33 66
REMARK SMILES IDX 39 67 34 68 35 69 36 70 37 71 38 72 61 73 62 74 70 75 63 76
REMARK SMILES IDX 69 77 64 78 65 79 66 80 67 81 68 82 47 83 48 84 56 85 49 86
REMARK SMILES IDX 55 87 50 88 51 89 52 90 53 91 54 92
REMARK H PARENT 84 20 75 48 45 59
REMARK Flexibility Score: inf
ROOT
ATOM      1  C   UNL A   1      35.757  22.362  25.651  1.00  0.00     0.188 C 
ENDROOT
BRANCH   1   2
ATOM      2  O   UNL A   1      34.649  21.503  25.417  1.00  0.00    -0.376 OA
BRANCH   2   3
ATOM      3  C   UNL A   1      33.772  21.961  24.390  1.00  0.00     0.202 C 
BRANCH   3   4
ATOM      4  C   UNL A   1      33.359  23.443  24.535  1.00  0.00     0.261 C 
BRANCH   4   5
ATOM      5  O   UNL A   1      31.927  23.666  24.478  1.00  0.00    -0.463 OA
BRANCH   5   6
ATOM      6  C   UNL A   1      31.363  24.524  23.595  1.00  0.00     0.305 C 
ATOM      7  O   UNL A   1      30.214  24.936  23.670  1.00  0.00    -0.252 OA
BRANCH   6   8
ATOM      8  C   UNL A   1      32.369  24.958  22.517  1.00  0.00     0.123 C 
BRANCH   8   9
ATOM      9  C   UNL A   1      32.847  26.426  22.536  1.00  0.00     0.016 C 
BRANCH   9  10
ATOM     10  C   UNL A   1      32.198  27.572  23.411  1.00  0.00     0.000 C 
BRANCH  10  11
ATOM     11  C   UNL A   1      32.584  27.762  24.940  1.00  0.00    -0.035 C 
ATOM     12  C   UNL A   1      31.412  27.560  25.870  1.00  0.00     0.011 C 
ATOM     13  C   UNL A   1      33.051  29.224  25.169  1.00  0.00     0.011 C 
ATOM     14  C   UNL A   1      33.691  26.805  25.434  1.00  0.00     0.011 C 
ENDBRANCH  10  11
BRANCH  10  15
ATOM     15  C   UNL A   1      32.096  28.943  22.684  1.00  0.00     0.065 C 
BRANCH  15  16
ATOM     16  C   UNL A   1      30.715  29.426  22.190  1.00  0.00     0.262 C 
BRANCH  16  17
ATOM     17  N   UNL A   1      29.721  29.545  23.270  1.00  0.00    -0.331 N 
ATOM     18  C   UNL A   1      28.395  29.015  22.865  1.00  0.00     0.291 C 
ATOM     19  C   UNL A   1      29.508  30.939  23.722  1.00  0.00     0.291 C 
ATOM     20  H   UNL A   1      30.116  28.996  24.034  1.00  0.00     0.348 HD
ATOM     21  C   UNL A   1      27.657  29.907  21.854  1.00  0.00     0.221 C 
ATOM     22  C   UNL A   1      28.721  31.817  22.733  1.00  0.00     0.221 C 
ATOM     23  O   UNL A   1      27.466  31.225  22.376  1.00  0.00    -0.370 OA
ENDBRANCH  16  17
ENDBRANCH  15  16
ENDBRANCH  10  15
ENDBRANCH   9  10
ENDBRANCH   8   9
ENDBRANCH   6   8
ENDBRANCH   5   6
ENDBRANCH   4   5
ENDBRANCH   3   4
ENDBRANCH   2   3
ENDBRANCH   1   2
BRANCH   1  24
ATOM     24  C   UNL A   1      37.038  21.860  25.019  1.00  0.00     0.188 C 
BRANCH  24  25
ATOM     25  O   UNL A   1      37.032  20.464  24.717  1.00  0.00    -0.376 OA
BRANCH  25  26
ATOM     26  C   UNL A   1      38.255  19.804  25.046  1.00  0.00     0.202 C 
BRANCH  26  27
ATOM     27  C   UNL A   1      39.254  20.628  25.880  1.00  0.00     0.261 C 
BRANCH  27  28
ATOM     28  O   UNL A   1      40.614  20.208  25.661  1.00  0.00    -0.460 OA
BRANCH  28  29
ATOM     29  C   UNL A   1      41.389  20.150  26.775  1.00  0.00     0.338 C 
ATOM     30  O   UNL A   1      41.556  19.173  27.490  1.00  0.00    -0.246 OA
BRANCH  29  31
ATOM     31  C   UNL A   1      42.213  21.384  26.887  1.00  0.00     0.060 A 
ATOM     32  C   UNL A   1      42.696  21.726  28.162  1.00  0.00     0.016 A 
ATOM     33  C   UNL A   1      42.567  22.162  25.781  1.00  0.00     0.016 A 
ATOM     34  C   UNL A   1      43.450  22.882  28.347  1.00  0.00     0.010 A 
ATOM     35  C   UNL A   1      43.320  23.327  25.966  1.00  0.00     0.010 A 
ATOM     36  C   UNL A   1      43.707  23.725  27.260  1.00  0.00    -0.014 A 
BRANCH  36  37
ATOM     37  C   UNL A   1      44.089  25.134  27.525  1.00  0.00     0.031 A 
ATOM     38  C   UNL A   1      45.508  25.538  27.206  1.00  0.00     0.074 A 
ATOM     39  C   UNL A   1      43.207  26.049  27.967  1.00  0.00     0.049 A 
ATOM     40  N   UNL A   1      46.090  26.702  27.323  1.00  0.00    -0.248 NA
ATOM     41  C   UNL A   1      46.391  24.477  26.688  1.00  0.00     0.031 C 
ATOM     42  C   UNL A   1      41.796  25.802  28.258  1.00  0.00     0.029 A 
ATOM     43  N   UNL A   1      43.377  27.385  28.240  1.00  0.00    -0.354 N 
ATOM     44  C   UNL A   1      47.405  26.507  26.911  1.00  0.00     0.074 A 
ATOM     45  C   UNL A   1      47.546  25.110  26.577  1.00  0.00     0.031 C 
ATOM     46  C   UNL A   1      41.227  26.952  28.665  1.00  0.00     0.029 A 
ATOM     47  C   UNL A   1      42.238  28.009  28.689  1.00  0.00     0.049 A 
ATOM     48  H   UNL A   1      44.236  27.853  28.124  1.00  0.00     0.167 HD
ATOM     49  C   UNL A   1      48.406  27.412  26.807  1.00  0.00     0.031 A 
ATOM     50  C   UNL A   1      42.039  29.284  29.081  1.00  0.00     0.031 A 
ATOM     51  C   UNL A   1      48.266  28.802  27.142  1.00  0.00     0.049 A 
ATOM     52  C   UNL A   1      43.189  30.261  29.019  1.00  0.00     0.074 A 
ATOM     53  C   UNL A   1      49.212  29.806  27.054  1.00  0.00     0.029 A 
ATOM     54  N   UNL A   1      47.108  29.382  27.636  1.00  0.00    -0.354 N 
ATOM     55  N   UNL A   1      44.419  30.068  28.602  1.00  0.00    -0.248 NA
ATOM     56  C   UNL A   1      42.915  31.635  29.466  1.00  0.00     0.031 C 
ATOM     57  C   UNL A   1      48.646  30.980  27.561  1.00  0.00     0.029 A 
ATOM     58  C   UNL A   1      47.324  30.725  27.888  1.00  0.00     0.049 A 
ATOM     59  H   UNL A   1      46.258  28.907  27.787  1.00  0.00     0.167 HD
ATOM     60  C   UNL A   1      45.052  31.306  28.698  1.00  0.00     0.074 A 
ATOM     61  C   UNL A   1      44.066  32.239  29.202  1.00  0.00     0.031 C 
ATOM     62  C   UNL A   1      46.330  31.643  28.388  1.00  0.00     0.031 A 
BRANCH  49  63
ATOM     63  C   UNL A   1      49.754  26.907  26.357  1.00  0.00    -0.014 A 
ATOM     64  C   UNL A   1      50.613  26.213  27.230  1.00  0.00     0.010 A 
ATOM     65  C   UNL A   1      50.159  27.120  25.026  1.00  0.00     0.010 A 
ATOM     66  C   UNL A   1      51.867  25.780  26.792  1.00  0.00     0.020 A 
ATOM     67  C   UNL A   1      51.397  26.657  24.575  1.00  0.00     0.020 A 
ATOM     68  C   UNL A   1      52.251  26.005  25.466  1.00  0.00     0.054 A 
BRANCH  68  69
ATOM     69  S   UNL A   1      53.874  25.411  24.918  1.00  0.00     0.124 S 
ATOM     70  O   UNL A   1      54.074  26.171  23.686  1.00  0.00    -0.237 OA
ATOM     71  O   UNL A   1      54.743  25.782  26.032  1.00  0.00    -0.237 OA
ATOM     72  O   UNL A   1      53.676  23.976  24.737  1.00  0.00    -0.744 OA
ENDBRANCH  68  69
ENDBRANCH  49  63
BRANCH  50  73
ATOM     73  C   UNL A   1      40.698  29.723  29.564  1.00  0.00    -0.014 A 
ATOM     74  C   UNL A   1      40.503  30.095  30.906  1.00  0.00     0.010 A 
ATOM     75  C   UNL A   1      39.600  29.754  28.684  1.00  0.00     0.010 A 
ATOM     76  C   UNL A   1      39.235  30.471  31.364  1.00  0.00     0.020 A 
ATOM     77  C   UNL A   1      38.338  30.158  29.130  1.00  0.00     0.020 A 
ATOM     78  C   UNL A   1      38.161  30.504  30.470  1.00  0.00     0.054 A 
BRANCH  78  79
ATOM     79  S   UNL A   1      36.536  31.038  31.077  1.00  0.00     0.124 S 
ATOM     80  O   UNL A   1      36.052  31.860  29.972  1.00  0.00    -0.237 OA
ATOM     81  O   UNL A   1      35.840  29.768  31.273  1.00  0.00    -0.237 OA
ATOM     82  O   UNL A   1      36.850  31.764  32.306  1.00  0.00    -0.744 OA
ENDBRANCH  78  79
ENDBRANCH  50  73
BRANCH  62  83
ATOM     83  C   UNL A   1      46.724  33.092  28.527  1.00  0.00    -0.014 A 
ATOM     84  C   UNL A   1      47.035  33.659  29.775  1.00  0.00     0.010 A 
ATOM     85  C   UNL A   1      46.822  33.889  27.370  1.00  0.00     0.010 A 
ATOM     86  C   UNL A   1      47.387  35.009  29.869  1.00  0.00     0.020 A 
ATOM     87  C   UNL A   1      47.209  35.228  27.456  1.00  0.00     0.020 A 
ATOM     88  C   UNL A   1      47.468  35.786  28.708  1.00  0.00     0.054 A 
BRANCH  88  89
ATOM     89  S   UNL A   1      47.941  37.531  28.856  1.00  0.00     0.124 S 
ATOM     90  O   UNL A   1      48.383  37.609  30.245  1.00  0.00    -0.237 OA
ATOM     91  O   UNL A   1      48.993  37.664  27.851  1.00  0.00    -0.237 OA
ATOM     92  O   UNL A   1      46.705  38.251  28.555  1.00  0.00    -0.744 OA
ENDBRANCH  88  89
ENDBRANCH  62  83
ENDBRANCH  36  37
ENDBRANCH  29  31
ENDBRANCH  28  29
ENDBRANCH  27  28
ENDBRANCH  26  27
ENDBRANCH  25  26
ENDBRANCH  24  25
ENDBRANCH   1  24
TORSDOF 26
ENDMDL
MODEL 3
REMARK VINA RESULT:      -7.3      2.889      4.220
REMARK SMILES CC(C)(C)[C@H](CCC(=O)OCCOCCOCCOC(=O)c1ccc(-c2c3nc(c(-c4ccc(S(=O)(=O)[O-])cc4)c4ccc([nH]4)c(-c4ccc(S(=O)(=O)[O-])cc4)c4nc(c(-c5ccc(S(=O)(=O)[O-])cc5)c5ccc2[nH]5)C=C4)C=C3)cc1)CC[NH+]1CCOCC1
REMARK SMILES IDX 14 1 13 2 12 3 11 4 10 5 8 6 9 7 7 8 6 9 5 10 2 11 1 12 3 13
REMARK SMILES IDX 4 14 82 15 83 16 84 17 85 18 89 19 86 21 88 22 87 23 15 24
REMARK SMILES IDX 16 25 17 26 18 27 19 28 20 29 21 30 22 31 23 32 81 33 24 34
REMARK SMILES IDX 80 35 25 36 26 37 27 38 74 39 28 40 79 41 73 42 75 43 29 44
REMARK SMILES IDX 78 45 72 46 71 47 30 49 60 50 41 51 59 52 42 53 45 54 58 55
REMARK SMILES IDX 76 56 43 57 44 58 57 60 77 61 46 62 31 63 32 64 40 65 33 66
REMARK SMILES IDX 39 67 34 68 35 69 36 70 37 71 38 72 61 73 62 74 70 75 63 76
REMARK SMILES IDX 69 77 64 78 65 79 66 80 67 81 68 82 47 83 48 84 56 85 49 86
REMARK SMILES IDX 55 87 50 88 51 89 52 90 53 91 54 92
REMARK H PARENT 84 20 75 48 45 59
REMARK Flexibility Score: inf
ROOT
ATOM      1  C   UNL A   1      36.039  22.834  25.738  1.00  0.00     0.188 C 
ENDROOT
BRANCH   1   2
ATOM      2  O   UNL A   1      35.416  21.906  24.860  1.00  0.00    -0.376 OA
BRANCH   2   3
ATOM      3  C   UNL A   1      34.794  22.513  23.729  1.00  0.00     0.202 C 
BRANCH   3   4
ATOM      4  C   UNL A   1      34.107  23.861  24.041  1.00  0.00     0.261 C 
BRANCH   4   5
ATOM      5  O   UNL A   1      32.720  23.931  23.621  1.00  0.00    -0.463 OA
BRANCH   5   6
ATOM      6  C   UNL A   1      32.212  25.011  22.982  1.00  0.00     0.305 C 
ATOM      7  O   UNL A   1      31.017  25.221  22.825  1.00  0.00    -0.252 OA
BRANCH   6   8
ATOM      8  C   UNL A   1      33.326  25.968  22.527  1.00  0.00     0.123 C 
BRANCH   8   9
ATOM      9  C   UNL A   1      33.426  27.335  23.238  1.00  0.00     0.016 C 
BRANCH   9  10
ATOM     10  C   UNL A   1      32.448  27.831  24.377  1.00  0.00     0.000 C 
BRANCH  10  11
ATOM     11  C   UNL A   1      32.703  27.464  25.901  1.00  0.00    -0.035 C 
ATOM     12  C   UNL A   1      33.988  26.700  26.114  1.00  0.00     0.011 C 
ATOM     13  C   UNL A   1      31.572  26.522  26.394  1.00  0.00     0.011 C 
ATOM     14  C   UNL A   1      32.773  28.688  26.840  1.00  0.00     0.011 C 
ENDBRANCH  10  11
BRANCH  10  15
ATOM     15  C   UNL A   1      31.998  29.312  24.224  1.00  0.00     0.065 C 
BRANCH  15  16
ATOM     16  C   UNL A   1      30.489  29.640  24.238  1.00  0.00     0.262 C 
BRANCH  16  17
ATOM     17  N   UNL A   1      29.980  30.085  22.930  1.00  0.00    -0.331 N 
ATOM     18  C   UNL A   1      29.217  31.355  23.034  1.00  0.00     0.291 C 
ATOM     19  C   UNL A   1      29.088  29.099  22.280  1.00  0.00     0.291 C 
ATOM     20  H   UNL A   1      30.820  30.210  22.365  1.00  0.00     0.348 HD
ATOM     21  C   UNL A   1      27.845  31.196  23.708  1.00  0.00     0.221 C 
ATOM     22  C   UNL A   1      27.694  28.980  22.920  1.00  0.00     0.221 C 
ATOM     23  O   UNL A   1      27.035  30.249  23.005  1.00  0.00    -0.370 OA
ENDBRANCH  16  17
ENDBRANCH  15  16
ENDBRANCH  10  15
ENDBRANCH   9  10
ENDBRANCH   8   9
ENDBRANCH   6   8
ENDBRANCH   5   6
ENDBRANCH   4   5
ENDBRANCH   3   4
ENDBRANCH   2   3
ENDBRANCH   1   2
BRANCH   1  24
ATOM     24  C   UNL A   1      37.546  22.863  25.596  1.00  0.00     0.188 C 
BRANCH  24  25
ATOM     25  O   UNL A   1      38.150  21.571  25.521  1.00  0.00    -0.376 OA
BRANCH  25  26
ATOM     26  C   UNL A   1      39.463  21.521  26.082  1.00  0.00     0.202 C 
BRANCH  26  27
ATOM     27  C   UNL A   1      39.896  22.769  26.875  1.00  0.00     0.261 C 
BRANCH  27  28
ATOM     28  O   UNL A   1      41.281  23.094  26.651  1.00  0.00    -0.460 OA
BRANCH  28  29
ATOM     29  C   UNL A   1      42.063  23.090  27.762  1.00  0.00     0.338 C 
ATOM     30  O   UNL A   1      42.410  22.106  28.400  1.00  0.00    -0.246 OA
BRANCH  29  31
ATOM     31  C   UNL A   1      42.653  24.439  27.975  1.00  0.00     0.060 A 
ATOM     32  C   UNL A   1      43.174  24.723  29.249  1.00  0.00     0.016 A 
ATOM     33  C   UNL A   1      42.761  25.389  26.955  1.00  0.00     0.016 A 
ATOM     34  C   UNL A   1      43.717  25.975  29.529  1.00  0.00     0.010 A 
ATOM     35  C   UNL A   1      43.300  26.649  27.237  1.00  0.00     0.010 A 
ATOM     36  C   UNL A   1      43.719  26.968  28.542  1.00  0.00    -0.014 A 
BRANCH  36  37
ATOM     37  C   UNL A   1      43.856  28.386  28.958  1.00  0.00     0.031 A 
ATOM     38  C   UNL A   1      45.243  28.982  28.932  1.00  0.00     0.074 A 
ATOM     39  C   UNL A   1      42.796  29.148  29.283  1.00  0.00     0.049 A 
ATOM     40  N   UNL A   1      45.634  30.194  29.225  1.00  0.00    -0.248 NA
ATOM     41  C   UNL A   1      46.336  28.081  28.524  1.00  0.00     0.031 C 
ATOM     42  C   UNL A   1      41.401  28.710  29.292  1.00  0.00     0.029 A 
ATOM     43  N   UNL A   1      42.736  30.467  29.662  1.00  0.00    -0.354 N 
ATOM     44  C   UNL A   1      47.016  30.193  29.053  1.00  0.00     0.074 A 
ATOM     45  C   UNL A   1      47.398  28.855  28.668  1.00  0.00     0.031 C 
ATOM     46  C   UNL A   1      40.622  29.745  29.655  1.00  0.00     0.029 A 
ATOM     47  C   UNL A   1      41.463  30.910  29.929  1.00  0.00     0.049 A 
ATOM     48  H   UNL A   1      43.532  31.043  29.735  1.00  0.00     0.167 HD
ATOM     49  C   UNL A   1      47.890  31.217  29.191  1.00  0.00     0.031 A 
ATOM     50  C   UNL A   1      41.030  32.115  30.353  1.00  0.00     0.031 A 
ATOM     51  C   UNL A   1      47.509  32.547  29.577  1.00  0.00     0.049 A 
ATOM     52  C   UNL A   1      42.032  33.225  30.564  1.00  0.00     0.074 A 
ATOM     53  C   UNL A   1      48.313  33.662  29.726  1.00  0.00     0.029 A 
ATOM     54  N   UNL A   1      46.215  32.941  29.882  1.00  0.00    -0.354 N 
ATOM     55  N   UNL A   1      43.331  33.216  30.372  1.00  0.00    -0.248 NA
ATOM     56  C   UNL A   1      41.504  34.514  31.035  1.00  0.00     0.031 C 
ATOM     57  C   UNL A   1      47.516  34.713  30.189  1.00  0.00     0.029 A 
ATOM     58  C   UNL A   1      46.202  34.275  30.249  1.00  0.00     0.049 A 
ATOM     59  H   UNL A   1      45.423  32.357  29.843  1.00  0.00     0.167 HD
ATOM     60  C   UNL A   1      43.766  34.509  30.657  1.00  0.00     0.074 A 
ATOM     61  C   UNL A   1      42.592  35.272  31.025  1.00  0.00     0.031 C 
ATOM     62  C   UNL A   1      45.023  35.021  30.611  1.00  0.00     0.031 A 
BRANCH  49  63
ATOM     63  C   UNL A   1      49.351  30.917  28.969  1.00  0.00    -0.014 A 
ATOM     64  C   UNL A   1      50.199  30.548  30.029  1.00  0.00     0.010 A 
ATOM     65  C   UNL A   1      49.878  30.992  27.666  1.00  0.00     0.010 A 
ATOM     66  C   UNL A   1      51.554  30.301  29.797  1.00  0.00     0.020 A 
ATOM     67  C   UNL A   1      51.225  30.711  27.426  1.00  0.00     0.020 A 
ATOM     68  C   UNL A   1      52.060  30.384  28.496  1.00  0.00     0.054 A 
BRANCH  68  69
ATOM     69  S   UNL A   1      53.817  30.035  28.220  1.00  0.00     0.124 S 
ATOM     70  O   UNL A   1      54.413  31.363  28.350  1.00  0.00    -0.237 OA
ATOM     71  O   UNL A   1      54.130  29.099  29.296  1.00  0.00    -0.237 OA
ATOM     72  O   UNL A   1      53.852  29.468  26.874  1.00  0.00    -0.744 OA
ENDBRANCH  68  69
ENDBRANCH  49  63
BRANCH  50  73
ATOM     73  C   UNL A   1      39.578  32.348  30.605  1.00  0.00    -0.014 A 
ATOM     74  C   UNL A   1      38.992  31.982  31.830  1.00  0.00     0.010 A 
ATOM     75  C   UNL A   1      38.767  32.924  29.609  1.00  0.00     0.010 A 
ATOM     76  C   UNL A   1      37.623  32.169  32.048  1.00  0.00     0.020 A 
ATOM     77  C   UNL A   1      37.404  33.140  29.835  1.00  0.00     0.020 A 
ATOM     78  C   UNL A   1      36.838  32.751  31.049  1.00  0.00     0.054 A 
BRANCH  78  79
ATOM     79  S   UNL A   1      35.073  33.024  31.372  1.00  0.00     0.124 S 
ATOM     80  O   UNL A   1      34.968  34.477  31.284  1.00  0.00    -0.237 OA
ATOM     81  O   UNL A   1      34.436  32.277  30.290  1.00  0.00    -0.237 OA
ATOM     82  O   UNL A   1      34.878  32.462  32.708  1.00  0.00    -0.744 OA
ENDBRANCH  78  79
ENDBRANCH  50  73
BRANCH  62  83
ATOM     83  C   UNL A   1      45.190  36.491  30.906  1.00  0.00    -0.014 A 
ATOM     84  C   UNL A   1      45.194  37.456  29.885  1.00  0.00     0.010 A 
ATOM     85  C   UNL A   1      45.303  36.912  32.246  1.00  0.00     0.010 A 
ATOM     86  C   UNL A   1      45.360  38.810  30.193  1.00  0.00     0.020 A 
ATOM     87  C   UNL A   1      45.433  38.267  32.560  1.00  0.00     0.020 A 
ATOM     88  C   UNL A   1      45.482  39.206  31.530  1.00  0.00     0.054 A 
BRANCH  88  89
ATOM     89  S   UNL A   1      45.682  40.969  31.904  1.00  0.00     0.124 S 
ATOM     90  O   UNL A   1      46.651  40.940  32.996  1.00  0.00    -0.237 OA
ATOM     91  O   UNL A   1      46.174  41.511  30.639  1.00  0.00    -0.237 OA
ATOM     92  O   UNL A   1      44.336  41.399  32.278  1.00  0.00    -0.744 OA
ENDBRANCH  88  89
ENDBRANCH  62  83
ENDBRANCH  36  37
ENDBRANCH  29  31
ENDBRANCH  28  29
ENDBRANCH  27  28
ENDBRANCH  26  27
ENDBRANCH  25  26
ENDBRANCH  24  25
ENDBRANCH   1  24
TORSDOF 26
ENDMDL
