MODEL 1
REMARK VINA RESULT:      -9.5      0.000      0.000
REMARK SMILES C[C@@H](CC(=O)OCCOCCOCCOC(=O)c1ccc(-c2c3nc(c(-c4ccc(S(=O)(=O)[O-])cc4)c4ccc([nH]4)c(-c4ccc(S(=O)(=O)[O-])cc4)c4nc(c(-c5ccc(S(=O)(=O)[O-])cc5)c5ccc2[nH]5)C=C4)C=C3)cc1)NC(=O)/C=C/c1cc(Cl)cc(Cl)c1
REMARK SMILES IDX 10 1 9 2 8 3 7 4 6 5 4 6 5 7 3 8 2 9 1 10 78 11 79 12 80 14
REMARK SMILES IDX 81 15 82 16 83 17 84 18 90 19 85 20 88 21 86 22 87 23 89 24
REMARK SMILES IDX 11 25 12 26 13 27 14 28 15 29 16 30 17 31 18 32 19 33 77 34
REMARK SMILES IDX 20 35 76 36 21 37 22 38 23 39 70 40 24 41 75 42 69 43 71 44
REMARK SMILES IDX 25 45 74 46 68 47 67 48 26 50 56 51 37 52 55 53 38 54 41 55
REMARK SMILES IDX 54 56 72 57 39 58 40 59 53 61 73 62 42 63 27 64 28 65 36 66
REMARK SMILES IDX 29 67 35 68 30 69 31 70 32 71 33 72 34 73 57 74 58 75 66 76
REMARK SMILES IDX 59 77 65 78 60 79 61 80 62 81 63 82 64 83 43 84 44 85 52 86
REMARK SMILES IDX 45 87 51 88 46 89 47 90 48 91 49 92 50 93
REMARK H PARENT 78 13 71 49 41 60
REMARK Flexibility Score: inf
ROOT
ATOM      1  C   UNL A   1      33.735  29.935  26.660  1.00  0.00     0.188 C 
ENDROOT
BRANCH   1   2
ATOM      2  O   UNL A   1      33.627  28.618  27.194  1.00  0.00    -0.376 OA
BRANCH   2   3
ATOM      3  C   UNL A   1      32.300  28.109  27.382  1.00  0.00     0.202 C 
BRANCH   3   4
ATOM      4  C   UNL A   1      31.920  26.877  26.542  1.00  0.00     0.261 C 
BRANCH   4   5
ATOM      5  O   UNL A   1      30.602  27.016  25.953  1.00  0.00    -0.463 OA
BRANCH   5   6
ATOM      6  C   UNL A   1      30.341  26.243  24.874  1.00  0.00     0.307 C 
ATOM      7  O   UNL A   1      29.759  25.165  24.931  1.00  0.00    -0.252 OA
BRANCH   6   8
ATOM      8  C   UNL A   1      30.701  26.878  23.543  1.00  0.00     0.147 C 
BRANCH   8   9
ATOM      9  C   UNL A   1      32.161  27.050  23.097  1.00  0.00     0.090 C 
ATOM     10  C   UNL A   1      32.769  28.436  23.283  1.00  0.00     0.031 C 
BRANCH   9  11
ATOM     11  N   UNL A   1      32.363  26.612  21.716  1.00  0.00    -0.350 N 
ATOM     12  C   UNL A   1      32.722  25.425  21.171  1.00  0.00     0.244 C 
ATOM     13  H   UNL A   1      32.207  27.321  21.050  1.00  0.00     0.164 HD
ATOM     14  O   UNL A   1      33.070  25.399  19.992  1.00  0.00    -0.270 OA
BRANCH  12  15
ATOM     15  C   UNL A   1      32.834  24.165  21.935  1.00  0.00     0.072 C 
ATOM     16  C   UNL A   1      32.059  23.689  22.919  1.00  0.00     0.014 C 
BRANCH  16  17
ATOM     17  C   UNL A   1      32.388  22.491  23.722  1.00  0.00    -0.023 A 
ATOM     18  C   UNL A   1      32.969  22.672  24.986  1.00  0.00     0.028 A 
ATOM     19  C   UNL A   1      32.268  21.179  23.232  1.00  0.00     0.028 A 
ATOM     20  C   UNL A   1      33.456  21.576  25.707  1.00  0.00     0.043 A 
ATOM     21  C   UNL A   1      32.755  20.094  23.963  1.00  0.00     0.043 A 
ATOM     22  Cl  UNL A   1      34.234  21.832  27.221  1.00  0.00    -0.084 Cl
ATOM     23  C   UNL A   1      33.362  20.286  25.197  1.00  0.00     0.041 A 
ATOM     24  Cl  UNL A   1      32.652  18.509  23.299  1.00  0.00    -0.084 Cl
ENDBRANCH  16  17
ENDBRANCH  12  15
ENDBRANCH   9  11
ENDBRANCH   8   9
ENDBRANCH   6   8
ENDBRANCH   5   6
ENDBRANCH   4   5
ENDBRANCH   3   4
ENDBRANCH   2   3
ENDBRANCH   1   2
BRANCH   1  25
ATOM     25  C   UNL A   1      32.883  31.002  27.358  1.00  0.00     0.188 C 
BRANCH  25  26
ATOM     26  O   UNL A   1      33.603  32.192  27.645  1.00  0.00    -0.376 OA
BRANCH  26  27
ATOM     27  C   UNL A   1      34.961  32.108  28.078  1.00  0.00     0.202 C 
BRANCH  27  28
ATOM     28  C   UNL A   1      35.262  32.438  29.552  1.00  0.00     0.261 C 
BRANCH  28  29
ATOM     29  O   UNL A   1      35.929  31.390  30.281  1.00  0.00    -0.460 OA
BRANCH  29  30
ATOM     30  C   UNL A   1      36.995  31.762  31.029  1.00  0.00     0.338 C 
ATOM     31  O   UNL A   1      36.958  32.364  32.088  1.00  0.00    -0.246 OA
BRANCH  30  32
ATOM     32  C   UNL A   1      38.188  31.090  30.464  1.00  0.00     0.060 A 
ATOM     33  C   UNL A   1      39.150  30.579  31.342  1.00  0.00     0.016 A 
ATOM     34  C   UNL A   1      38.334  30.901  29.091  1.00  0.00     0.016 A 
ATOM     35  C   UNL A   1      40.285  29.931  30.861  1.00  0.00     0.010 A 
ATOM     36  C   UNL A   1      39.474  30.251  28.602  1.00  0.00     0.010 A 
ATOM     37  C   UNL A   1      40.473  29.793  29.482  1.00  0.00    -0.014 A 
BRANCH  37  38
ATOM     38  C   UNL A   1      41.783  29.326  28.967  1.00  0.00     0.031 A 
ATOM     39  C   UNL A   1      42.919  30.311  28.893  1.00  0.00     0.074 A 
ATOM     40  C   UNL A   1      41.982  28.043  28.613  1.00  0.00     0.049 A 
ATOM     41  N   UNL A   1      44.139  30.139  28.453  1.00  0.00    -0.248 NA
ATOM     42  C   UNL A   1      42.640  31.672  29.379  1.00  0.00     0.031 C 
ATOM     43  C   UNL A   1      40.983  26.977  28.688  1.00  0.00     0.029 A 
ATOM     44  N   UNL A   1      43.102  27.420  28.118  1.00  0.00    -0.354 N 
ATOM     45  C   UNL A   1      44.766  31.372  28.590  1.00  0.00     0.074 A 
ATOM     46  C   UNL A   1      43.784  32.289  29.128  1.00  0.00     0.031 C 
ATOM     47  C   UNL A   1      41.535  25.831  28.253  1.00  0.00     0.029 A 
ATOM     48  C   UNL A   1      42.912  26.088  27.833  1.00  0.00     0.049 A 
ATOM     49  H   UNL A   1      43.959  27.884  27.980  1.00  0.00     0.167 HD
ATOM     50  C   UNL A   1      46.043  31.714  28.297  1.00  0.00     0.031 A 
ATOM     51  C   UNL A   1      43.746  25.185  27.279  1.00  0.00     0.031 A 
ATOM     52  C   UNL A   1      47.019  30.803  27.758  1.00  0.00     0.049 A 
ATOM     53  C   UNL A   1      45.145  25.601  26.906  1.00  0.00     0.074 A 
ATOM     54  C   UNL A   1      48.343  31.052  27.442  1.00  0.00     0.029 A 
ATOM     55  N   UNL A   1      46.776  29.474  27.448  1.00  0.00    -0.354 N 
ATOM     56  N   UNL A   1      45.725  26.769  27.048  1.00  0.00    -0.248 NA
ATOM     57  C   UNL A   1      46.005  24.570  26.306  1.00  0.00     0.031 C 
ATOM     58  C   UNL A   1      48.884  29.888  26.885  1.00  0.00     0.029 A 
ATOM     59  C   UNL A   1      47.918  28.895  26.918  1.00  0.00     0.049 A 
ATOM     60  H   UNL A   1      45.919  29.010  27.585  1.00  0.00     0.167 HD
ATOM     61  C   UNL A   1      47.027  26.608  26.578  1.00  0.00     0.074 A 
ATOM     62  C   UNL A   1      47.151  25.224  26.166  1.00  0.00     0.031 C 
ATOM     63  C   UNL A   1      48.028  27.521  26.498  1.00  0.00     0.031 A 
BRANCH  50  64
ATOM     64  C   UNL A   1      46.439  33.151  28.511  1.00  0.00    -0.014 A 
ATOM     65  C   UNL A   1      47.094  33.568  29.683  1.00  0.00     0.010 A 
ATOM     66  C   UNL A   1      46.160  34.099  27.509  1.00  0.00     0.010 A 
ATOM     67  C   UNL A   1      47.422  34.915  29.869  1.00  0.00     0.020 A 
ATOM     68  C   UNL A   1      46.513  35.440  27.677  1.00  0.00     0.020 A 
ATOM     69  C   UNL A   1      47.125  35.842  28.866  1.00  0.00     0.054 A 
BRANCH  69  70
ATOM     70  S   UNL A   1      47.572  37.581  29.126  1.00  0.00     0.124 S 
ATOM     71  O   UNL A   1      46.593  37.997  30.127  1.00  0.00    -0.237 OA
ATOM     72  O   UNL A   1      48.951  37.490  29.596  1.00  0.00    -0.237 OA
ATOM     73  O   UNL A   1      47.405  38.184  27.805  1.00  0.00    -0.744 OA
ENDBRANCH  69  70
ENDBRANCH  50  64
BRANCH  51  74
ATOM     74  C   UNL A   1      43.272  23.795  27.025  1.00  0.00    -0.014 A 
ATOM     75  C   UNL A   1      42.700  23.442  25.791  1.00  0.00     0.010 A 
ATOM     76  C   UNL A   1      43.397  22.813  28.025  1.00  0.00     0.010 A 
ATOM     77  C   UNL A   1      42.256  22.135  25.564  1.00  0.00     0.020 A 
ATOM     78  C   UNL A   1      42.982  21.499  27.792  1.00  0.00     0.020 A 
ATOM     79  C   UNL A   1      42.406  21.170  26.565  1.00  0.00     0.054 A 
BRANCH  79  80
ATOM     80  S   UNL A   1      41.890  19.464  26.222  1.00  0.00     0.124 S 
ATOM     81  O   UNL A   1      42.053  18.829  27.525  1.00  0.00    -0.237 OA
ATOM     82  O   UNL A   1      40.511  19.638  25.770  1.00  0.00    -0.237 OA
ATOM     83  O   UNL A   1      42.825  19.026  25.188  1.00  0.00    -0.744 OA
ENDBRANCH  79  80
ENDBRANCH  51  74
BRANCH  63  84
ATOM     84  C   UNL A   1      49.358  27.044  25.974  1.00  0.00    -0.014 A 
ATOM     85  C   UNL A   1      50.234  26.287  26.772  1.00  0.00     0.010 A 
ATOM     86  C   UNL A   1      49.727  27.341  24.648  1.00  0.00     0.010 A 
ATOM     87  C   UNL A   1      51.475  25.881  26.272  1.00  0.00     0.020 A 
ATOM     88  C   UNL A   1      50.953  26.910  24.134  1.00  0.00     0.020 A 
ATOM     89  C   UNL A   1      51.829  26.202  24.958  1.00  0.00     0.054 A 
BRANCH  89  90
ATOM     90  S   UNL A   1      53.443  25.662  24.329  1.00  0.00     0.124 S 
ATOM     91  O   UNL A   1      54.353  26.593  24.991  1.00  0.00    -0.237 OA
ATOM     92  O   UNL A   1      53.520  24.276  24.787  1.00  0.00    -0.237 OA
ATOM     93  O   UNL A   1      53.325  25.828  22.882  1.00  0.00    -0.744 OA
ENDBRANCH  89  90
ENDBRANCH  63  84
ENDBRANCH  37  38
ENDBRANCH  30  32
ENDBRANCH  29  30
ENDBRANCH  28  29
ENDBRANCH  27  28
ENDBRANCH  26  27
ENDBRANCH  25  26
ENDBRANCH   1  25
TORSDOF 24
ENDMDL
MODEL 2
REMARK VINA RESULT:      -9.2      5.676      8.020
REMARK SMILES C[C@@H](CC(=O)OCCOCCOCCOC(=O)c1ccc(-c2c3nc(c(-c4ccc(S(=O)(=O)[O-])cc4)c4ccc([nH]4)c(-c4ccc(S(=O)(=O)[O-])cc4)c4nc(c(-c5ccc(S(=O)(=O)[O-])cc5)c5ccc2[nH]5)C=C4)C=C3)cc1)NC(=O)/C=C/c1cc(Cl)cc(Cl)c1
REMARK SMILES IDX 10 1 9 2 8 3 7 4 6 5 4 6 5 7 3 8 2 9 1 10 78 11 79 12 80 14
REMARK SMILES IDX 81 15 82 16 83 17 84 18 90 19 85 20 88 21 86 22 87 23 89 24
REMARK SMILES IDX 11 25 12 26 13 27 14 28 15 29 16 30 17 31 18 32 19 33 77 34
REMARK SMILES IDX 20 35 76 36 21 37 22 38 23 39 70 40 24 41 75 42 69 43 71 44
REMARK SMILES IDX 25 45 74 46 68 47 67 48 26 50 56 51 37 52 55 53 38 54 41 55
REMARK SMILES IDX 54 56 72 57 39 58 40 59 53 61 73 62 42 63 27 64 28 65 36 66
REMARK SMILES IDX 29 67 35 68 30 69 31 70 32 71 33 72 34 73 57 74 58 75 66 76
REMARK SMILES IDX 59 77 65 78 60 79 61 80 62 81 63 82 64 83 43 84 44 85 52 86
REMARK SMILES IDX 45 87 51 88 46 89 47 90 48 91 49 92 50 93
REMARK H PARENT 78 13 71 49 41 60
REMARK Flexibility Score: inf
ROOT
ATOM      1  C   UNL A   1      33.426  29.575  26.515  1.00  0.00     0.188 C 
ENDROOT
BRANCH   1   2
ATOM      2  O   UNL A   1      33.406  28.292  27.136  1.00  0.00    -0.376 OA
BRANCH   2   3
ATOM      3  C   UNL A   1      32.154  27.594  27.122  1.00  0.00     0.202 C 
BRANCH   3   4
ATOM      4  C   UNL A   1      32.079  26.352  26.217  1.00  0.00     0.261 C 
BRANCH   4   5
ATOM      5  O   UNL A   1      30.708  25.997  25.906  1.00  0.00    -0.463 OA
BRANCH   5   6
ATOM      6  C   UNL A   1      30.531  25.093  24.915  1.00  0.00     0.307 C 
ATOM      7  O   UNL A   1      30.614  23.880  25.073  1.00  0.00    -0.252 OA
BRANCH   6   8
ATOM      8  C   UNL A   1      30.074  25.689  23.595  1.00  0.00     0.147 C 
BRANCH   8   9
ATOM      9  C   UNL A   1      30.809  26.871  22.943  1.00  0.00     0.090 C 
ATOM     10  C   UNL A   1      29.985  28.130  22.698  1.00  0.00     0.031 C 
BRANCH   9  11
ATOM     11  N   UNL A   1      31.478  26.478  21.704  1.00  0.00    -0.350 N 
ATOM     12  C   UNL A   1      32.505  25.634  21.441  1.00  0.00     0.244 C 
ATOM     13  H   UNL A   1      31.108  26.912  20.901  1.00  0.00     0.164 HD
ATOM     14  O   UNL A   1      33.040  25.684  20.334  1.00  0.00    -0.270 OA
BRANCH  12  15
ATOM     15  C   UNL A   1      33.108  24.729  22.441  1.00  0.00     0.072 C 
ATOM     16  C   UNL A   1      33.925  23.681  22.264  1.00  0.00     0.014 C 
BRANCH  16  17
ATOM     17  C   UNL A   1      34.315  22.748  23.344  1.00  0.00    -0.023 A 
ATOM     18  C   UNL A   1      35.666  22.685  23.717  1.00  0.00     0.028 A 
ATOM     19  C   UNL A   1      33.425  21.829  23.927  1.00  0.00     0.028 A 
ATOM     20  C   UNL A   1      36.111  21.700  24.606  1.00  0.00     0.043 A 
ATOM     21  C   UNL A   1      33.882  20.854  24.815  1.00  0.00     0.043 A 
ATOM     22  Cl  UNL A   1      37.786  21.595  24.988  1.00  0.00    -0.084 Cl
ATOM     23  C   UNL A   1      35.227  20.775  25.150  1.00  0.00     0.041 A 
ATOM     24  Cl  UNL A   1      32.774  19.703  25.456  1.00  0.00    -0.084 Cl
ENDBRANCH  16  17
ENDBRANCH  12  15
ENDBRANCH   9  11
ENDBRANCH   8   9
ENDBRANCH   6   8
ENDBRANCH   5   6
ENDBRANCH   4   5
ENDBRANCH   3   4
ENDBRANCH   2   3
ENDBRANCH   1   2
BRANCH   1  25
ATOM     25  C   UNL A   1      32.392  30.579  27.039  1.00  0.00     0.188 C 
BRANCH  25  26
ATOM     26  O   UNL A   1      32.762  31.931  26.812  1.00  0.00    -0.376 OA
BRANCH  26  27
ATOM     27  C   UNL A   1      33.540  32.624  27.788  1.00  0.00     0.202 C 
BRANCH  27  28
ATOM     28  C   UNL A   1      33.183  34.095  28.072  1.00  0.00     0.261 C 
BRANCH  28  29
ATOM     29  O   UNL A   1      32.618  34.337  29.374  1.00  0.00    -0.460 OA
BRANCH  29  30
ATOM     30  C   UNL A   1      33.343  35.119  30.210  1.00  0.00     0.338 C 
ATOM     31  O   UNL A   1      32.984  36.174  30.704  1.00  0.00    -0.246 OA
BRANCH  30  32
ATOM     32  C   UNL A   1      34.540  34.345  30.612  1.00  0.00     0.060 A 
ATOM     33  C   UNL A   1      34.379  33.264  31.485  1.00  0.00     0.016 A 
ATOM     34  C   UNL A   1      35.800  34.631  30.088  1.00  0.00     0.016 A 
ATOM     35  C   UNL A   1      35.472  32.499  31.886  1.00  0.00     0.010 A 
ATOM     36  C   UNL A   1      36.902  33.866  30.489  1.00  0.00     0.010 A 
ATOM     37  C   UNL A   1      36.750  32.818  31.417  1.00  0.00    -0.014 A 
BRANCH  37  38
ATOM     38  C   UNL A   1      37.935  32.165  32.027  1.00  0.00     0.031 A 
ATOM     39  C   UNL A   1      38.355  32.586  33.410  1.00  0.00     0.074 A 
ATOM     40  C   UNL A   1      38.602  31.184  31.392  1.00  0.00     0.049 A 
ATOM     41  N   UNL A   1      39.369  32.179  34.128  1.00  0.00    -0.248 NA
ATOM     42  C   UNL A   1      37.521  33.605  34.067  1.00  0.00     0.031 C 
ATOM     43  C   UNL A   1      38.265  30.644  30.075  1.00  0.00     0.029 A 
ATOM     44  N   UNL A   1      39.706  30.465  31.777  1.00  0.00    -0.354 N 
ATOM     45  C   UNL A   1      39.307  32.905  35.313  1.00  0.00     0.074 A 
ATOM     46  C   UNL A   1      38.172  33.796  35.204  1.00  0.00     0.031 C 
ATOM     47  C   UNL A   1      39.148  29.679  29.760  1.00  0.00     0.029 A 
ATOM     48  C   UNL A   1      40.132  29.558  30.835  1.00  0.00     0.049 A 
ATOM     49  H   UNL A   1      40.152  30.588  32.646  1.00  0.00     0.167 HD
ATOM     50  C   UNL A   1      40.117  32.836  36.396  1.00  0.00     0.031 A 
ATOM     51  C   UNL A   1      41.204  28.740  30.830  1.00  0.00     0.031 A 
ATOM     52  C   UNL A   1      41.248  31.953  36.503  1.00  0.00     0.049 A 
ATOM     53  C   UNL A   1      42.127  28.722  32.020  1.00  0.00     0.074 A 
ATOM     54  C   UNL A   1      42.121  31.801  37.566  1.00  0.00     0.029 A 
ATOM     55  N   UNL A   1      41.668  31.079  35.512  1.00  0.00    -0.354 N 
ATOM     56  N   UNL A   1      42.050  29.410  33.135  1.00  0.00    -0.248 NA
ATOM     57  C   UNL A   1      43.276  27.808  31.954  1.00  0.00     0.031 C 
ATOM     58  C   UNL A   1      43.104  30.877  37.193  1.00  0.00     0.029 A 
ATOM     59  C   UNL A   1      42.805  30.403  35.926  1.00  0.00     0.049 A 
ATOM     60  H   UNL A   1      41.223  30.956  34.642  1.00  0.00     0.167 HD
ATOM     61  C   UNL A   1      43.128  28.993  33.914  1.00  0.00     0.074 A 
ATOM     62  C   UNL A   1      43.828  27.982  33.148  1.00  0.00     0.031 C 
ATOM     63  C   UNL A   1      43.502  29.408  35.151  1.00  0.00     0.031 A 
BRANCH  50  64
ATOM     64  C   UNL A   1      39.832  33.784  37.531  1.00  0.00    -0.014 A 
ATOM     65  C   UNL A   1      40.247  35.128  37.490  1.00  0.00     0.010 A 
ATOM     66  C   UNL A   1      39.123  33.320  38.655  1.00  0.00     0.010 A 
ATOM     67  C   UNL A   1      39.996  35.978  38.572  1.00  0.00     0.020 A 
ATOM     68  C   UNL A   1      38.844  34.175  39.724  1.00  0.00     0.020 A 
ATOM     69  C   UNL A   1      39.301  35.494  39.683  1.00  0.00     0.054 A 
BRANCH  69  70
ATOM     70  S   UNL A   1      38.978  36.620  41.068  1.00  0.00     0.124 S 
ATOM     71  O   UNL A   1      38.371  37.763  40.392  1.00  0.00    -0.237 OA
ATOM     72  O   UNL A   1      38.079  35.840  41.913  1.00  0.00    -0.237 OA
ATOM     73  O   UNL A   1      40.304  36.864  41.633  1.00  0.00    -0.744 OA
ENDBRANCH  69  70
ENDBRANCH  50  64
BRANCH  51  74
ATOM     74  C   UNL A   1      41.474  27.879  29.644  1.00  0.00    -0.014 A 
ATOM     75  C   UNL A   1      42.511  28.188  28.748  1.00  0.00     0.010 A 
ATOM     76  C   UNL A   1      40.689  26.734  29.411  1.00  0.00     0.010 A 
ATOM     77  C   UNL A   1      42.754  27.374  27.637  1.00  0.00     0.020 A 
ATOM     78  C   UNL A   1      40.947  25.902  28.318  1.00  0.00     0.020 A 
ATOM     79  C   UNL A   1      41.974  26.232  27.433  1.00  0.00     0.054 A 
BRANCH  79  80
ATOM     80  S   UNL A   1      42.354  25.151  26.025  1.00  0.00     0.124 S 
ATOM     81  O   UNL A   1      43.814  25.152  26.026  1.00  0.00    -0.237 OA
ATOM     82  O   UNL A   1      41.722  23.892  26.416  1.00  0.00    -0.237 OA
ATOM     83  O   UNL A   1      41.726  25.829  24.894  1.00  0.00    -0.744 OA
ENDBRANCH  79  80
ENDBRANCH  51  74
BRANCH  63  84
ATOM     84  C   UNL A   1      44.705  28.744  35.768  1.00  0.00    -0.014 A 
ATOM     85  C   UNL A   1      44.583  27.586  36.556  1.00  0.00     0.010 A 
ATOM     86  C   UNL A   1      45.987  29.278  35.535  1.00  0.00     0.010 A 
ATOM     87  C   UNL A   1      45.712  27.005  37.142  1.00  0.00     0.020 A 
ATOM     88  C   UNL A   1      47.121  28.683  36.093  1.00  0.00     0.020 A 
ATOM     89  C   UNL A   1      46.973  27.562  36.912  1.00  0.00     0.054 A 
BRANCH  89  90
ATOM     90  S   UNL A   1      48.425  26.790  37.680  1.00  0.00     0.124 S 
ATOM     91  O   UNL A   1      47.812  25.797  38.558  1.00  0.00    -0.237 OA
ATOM     92  O   UNL A   1      49.148  26.250  36.530  1.00  0.00    -0.237 OA
ATOM     93  O   UNL A   1      49.089  27.899  38.360  1.00  0.00    -0.744 OA
ENDBRANCH  89  90
ENDBRANCH  63  84
ENDBRANCH  37  38
ENDBRANCH  30  32
ENDBRANCH  29  30
ENDBRANCH  28  29
ENDBRANCH  27  28
ENDBRANCH  26  27
ENDBRANCH  25  26
ENDBRANCH   1  25
TORSDOF 24
ENDMDL
MODEL 3
REMARK VINA RESULT:      -8.5      5.965     10.648
REMARK SMILES C[C@@H](CC(=O)OCCOCCOCCOC(=O)c1ccc(-c2c3nc(c(-c4ccc(S(=O)(=O)[O-])cc4)c4ccc([nH]4)c(-c4ccc(S(=O)(=O)[O-])cc4)c4nc(c(-c5ccc(S(=O)(=O)[O-])cc5)c5ccc2[nH]5)C=C4)C=C3)cc1)NC(=O)/C=C/c1cc(Cl)cc(Cl)c1
REMARK SMILES IDX 10 1 9 2 8 3 7 4 6 5 4 6 5 7 3 8 2 9 1 10 78 11 79 12 80 14
REMARK SMILES IDX 81 15 82 16 83 17 84 18 90 19 85 20 88 21 86 22 87 23 89 24
REMARK SMILES IDX 11 25 12 26 13 27 14 28 15 29 16 30 17 31 18 32 19 33 77 34
REMARK SMILES IDX 20 35 76 36 21 37 22 38 23 39 70 40 24 41 75 42 69 43 71 44
REMARK SMILES IDX 25 45 74 46 68 47 67 48 26 50 56 51 37 52 55 53 38 54 41 55
REMARK SMILES IDX 54 56 72 57 39 58 40 59 53 61 73 62 42 63 27 64 28 65 36 66
REMARK SMILES IDX 29 67 35 68 30 69 31 70 32 71 33 72 34 73 57 74 58 75 66 76
REMARK SMILES IDX 59 77 65 78 60 79 61 80 62 81 63 82 64 83 43 84 44 85 52 86
REMARK SMILES IDX 45 87 51 88 46 89 47 90 48 91 49 92 50 93
REMARK H PARENT 78 13 71 49 41 60
REMARK Flexibility Score: inf
ROOT
ATOM      1  C   UNL A   1      32.908  29.390  25.464  1.00  0.00     0.188 C 
ENDROOT
BRANCH   1   2
ATOM      2  O   UNL A   1      34.050  28.543  25.383  1.00  0.00    -0.376 OA
BRANCH   2   3
ATOM      3  C   UNL A   1      33.815  27.136  25.527  1.00  0.00     0.202 C 
BRANCH   3   4
ATOM      4  C   UNL A   1      34.113  26.268  24.292  1.00  0.00     0.261 C 
BRANCH   4   5
ATOM      5  O   UNL A   1      34.759  25.021  24.656  1.00  0.00    -0.463 OA
BRANCH   5   6
ATOM      6  C   UNL A   1      35.078  24.190  23.638  1.00  0.00     0.307 C 
ATOM      7  O   UNL A   1      34.447  24.121  22.588  1.00  0.00    -0.252 OA
BRANCH   6   8
ATOM      8  C   UNL A   1      36.379  23.432  23.829  1.00  0.00     0.147 C 
BRANCH   8   9
ATOM      9  C   UNL A   1      36.591  22.472  25.010  1.00  0.00     0.090 C 
ATOM     10  C   UNL A   1      38.007  22.380  25.566  1.00  0.00     0.031 C 
BRANCH   9  11
ATOM     11  N   UNL A   1      36.097  21.128  24.712  1.00  0.00    -0.350 N 
ATOM     12  C   UNL A   1      34.898  20.525  24.903  1.00  0.00     0.244 C 
ATOM     13  H   UNL A   1      36.769  20.545  24.289  1.00  0.00     0.164 HD
ATOM     14  O   UNL A   1      34.830  19.302  24.795  1.00  0.00    -0.270 OA
BRANCH  12  15
ATOM     15  C   UNL A   1      33.679  21.232  25.348  1.00  0.00     0.072 C 
ATOM     16  C   UNL A   1      32.612  21.626  24.638  1.00  0.00     0.014 C 
BRANCH  16  17
ATOM     17  C   UNL A   1      31.535  22.485  25.178  1.00  0.00    -0.023 A 
ATOM     18  C   UNL A   1      31.547  23.852  24.863  1.00  0.00     0.028 A 
ATOM     19  C   UNL A   1      30.573  22.028  26.095  1.00  0.00     0.028 A 
ATOM     20  C   UNL A   1      30.657  24.733  25.486  1.00  0.00     0.043 A 
ATOM     21  C   UNL A   1      29.688  22.917  26.708  1.00  0.00     0.043 A 
ATOM     22  Cl  UNL A   1      30.743  26.416  25.139  1.00  0.00    -0.084 Cl
ATOM     23  C   UNL A   1      29.732  24.274  26.417  1.00  0.00     0.041 A 
ATOM     24  Cl  UNL A   1      28.569  22.330  27.878  1.00  0.00    -0.084 Cl
ENDBRANCH  16  17
ENDBRANCH  12  15
ENDBRANCH   9  11
ENDBRANCH   8   9
ENDBRANCH   6   8
ENDBRANCH   5   6
ENDBRANCH   4   5
ENDBRANCH   3   4
ENDBRANCH   2   3
ENDBRANCH   1   2
BRANCH   1  25
ATOM     25  C   UNL A   1      32.533  29.861  26.874  1.00  0.00     0.188 C 
BRANCH  25  26
ATOM     26  O   UNL A   1      32.393  31.271  26.974  1.00  0.00    -0.376 OA
BRANCH  26  27
ATOM     27  C   UNL A   1      33.416  32.038  27.608  1.00  0.00     0.202 C 
BRANCH  27  28
ATOM     28  C   UNL A   1      33.201  33.559  27.722  1.00  0.00     0.261 C 
BRANCH  28  29
ATOM     29  O   UNL A   1      32.777  34.013  29.021  1.00  0.00    -0.460 OA
BRANCH  29  30
ATOM     30  C   UNL A   1      33.543  34.966  29.606  1.00  0.00     0.338 C 
ATOM     31  O   UNL A   1      33.221  36.123  29.812  1.00  0.00    -0.246 OA
BRANCH  30  32
ATOM     32  C   UNL A   1      34.733  34.291  30.171  1.00  0.00     0.060 A 
ATOM     33  C   UNL A   1      34.546  33.307  31.148  1.00  0.00     0.016 A 
ATOM     34  C   UNL A   1      36.017  34.568  29.704  1.00  0.00     0.016 A 
ATOM     35  C   UNL A   1      35.633  32.636  31.705  1.00  0.00     0.010 A 
ATOM     36  C   UNL A   1      37.113  33.898  30.262  1.00  0.00     0.010 A 
ATOM     37  C   UNL A   1      36.930  32.953  31.290  1.00  0.00    -0.014 A 
BRANCH  37  38
ATOM     38  C   UNL A   1      38.089  32.421  32.047  1.00  0.00     0.031 A 
ATOM     39  C   UNL A   1      38.917  31.330  31.423  1.00  0.00     0.074 A 
ATOM     40  C   UNL A   1      38.434  32.922  33.248  1.00  0.00     0.049 A 
ATOM     41  N   UNL A   1      39.953  30.695  31.906  1.00  0.00    -0.248 NA
ATOM     42  C   UNL A   1      38.521  30.898  30.072  1.00  0.00     0.031 C 
ATOM     43  C   UNL A   1      37.751  34.016  33.939  1.00  0.00     0.029 A 
ATOM     44  N   UNL A   1      39.455  32.573  34.098  1.00  0.00    -0.354 N 
ATOM     45  C   UNL A   1      40.320  29.775  30.930  1.00  0.00     0.074 A 
ATOM     46  C   UNL A   1      39.379  29.918  29.839  1.00  0.00     0.031 C 
ATOM     47  C   UNL A   1      38.372  34.246  35.110  1.00  0.00     0.029 A 
ATOM     48  C   UNL A   1      39.470  33.295  35.268  1.00  0.00     0.049 A 
ATOM     49  H   UNL A   1      40.113  31.871  33.889  1.00  0.00     0.167 HD
ATOM     50  C   UNL A   1      41.347  28.893  30.936  1.00  0.00     0.031 A 
ATOM     51  C   UNL A   1      40.266  33.187  36.352  1.00  0.00     0.031 A 
ATOM     52  C   UNL A   1      42.280  28.748  32.022  1.00  0.00     0.049 A 
ATOM     53  C   UNL A   1      41.366  32.158  36.363  1.00  0.00     0.074 A 
ATOM     54  C   UNL A   1      43.363  27.891  32.116  1.00  0.00     0.029 A 
ATOM     55  N   UNL A   1      42.238  29.470  33.205  1.00  0.00    -0.354 N 
ATOM     56  N   UNL A   1      41.704  31.300  35.429  1.00  0.00    -0.248 NA
ATOM     57  C   UNL A   1      42.199  32.090  37.573  1.00  0.00     0.031 C 
ATOM     58  C   UNL A   1      43.940  28.054  33.380  1.00  0.00     0.029 A 
ATOM     59  C   UNL A   1      43.259  29.060  34.047  1.00  0.00     0.049 A 
ATOM     60  H   UNL A   1      41.580  30.172  33.415  1.00  0.00     0.167 HD
ATOM     61  C   UNL A   1      42.805  30.608  35.929  1.00  0.00     0.074 A 
ATOM     62  C   UNL A   1      43.084  31.161  37.238  1.00  0.00     0.031 C 
ATOM     63  C   UNL A   1      43.520  29.608  35.354  1.00  0.00     0.031 A 
BRANCH  50  64
ATOM     64  C   UNL A   1      41.480  27.980  29.745  1.00  0.00    -0.014 A 
ATOM     65  C   UNL A   1      42.458  28.196  28.758  1.00  0.00     0.010 A 
ATOM     66  C   UNL A   1      40.614  26.877  29.622  1.00  0.00     0.010 A 
ATOM     67  C   UNL A   1      42.538  27.351  27.646  1.00  0.00     0.020 A 
ATOM     68  C   UNL A   1      40.711  26.013  28.529  1.00  0.00     0.020 A 
ATOM     69  C   UNL A   1      41.661  26.268  27.538  1.00  0.00     0.054 A 
BRANCH  69  70
ATOM     70  S   UNL A   1      41.794  25.180  26.092  1.00  0.00     0.124 S 
ATOM     71  O   UNL A   1      43.238  24.990  25.989  1.00  0.00    -0.237 OA
ATOM     72  O   UNL A   1      41.034  24.004  26.506  1.00  0.00    -0.237 OA
ATOM     73  O   UNL A   1      41.191  25.960  25.014  1.00  0.00    -0.744 OA
ENDBRANCH  69  70
ENDBRANCH  50  64
BRANCH  51  74
ATOM     74  C   UNL A   1      40.038  34.070  37.530  1.00  0.00    -0.014 A 
ATOM     75  C   UNL A   1      40.843  35.199  37.753  1.00  0.00     0.010 A 
ATOM     76  C   UNL A   1      39.000  33.782  38.436  1.00  0.00     0.010 A 
ATOM     77  C   UNL A   1      40.621  36.020  38.864  1.00  0.00     0.020 A 
ATOM     78  C   UNL A   1      38.755  34.616  39.531  1.00  0.00     0.020 A 
ATOM     79  C   UNL A   1      39.573  35.726  39.742  1.00  0.00     0.054 A 
BRANCH  79  80
ATOM     80  S   UNL A   1      39.258  36.846  41.136  1.00  0.00     0.124 S 
ATOM     81  O   UNL A   1      38.573  35.970  42.081  1.00  0.00    -0.237 OA
ATOM     82  O   UNL A   1      40.606  37.260  41.518  1.00  0.00    -0.237 OA
ATOM     83  O   UNL A   1      38.435  37.900  40.547  1.00  0.00    -0.744 OA
ENDBRANCH  79  80
ENDBRANCH  51  74
BRANCH  63  84
ATOM     84  C   UNL A   1      44.697  29.068  36.126  1.00  0.00    -0.014 A 
ATOM     85  C   UNL A   1      46.007  29.515  35.877  1.00  0.00     0.010 A 
ATOM     86  C   UNL A   1      44.484  28.112  37.137  1.00  0.00     0.010 A 
ATOM     87  C   UNL A   1      47.086  28.978  36.586  1.00  0.00     0.020 A 
ATOM     88  C   UNL A   1      45.555  27.596  37.870  1.00  0.00     0.020 A 
ATOM     89  C   UNL A   1      46.853  28.016  37.574  1.00  0.00     0.054 A 
BRANCH  89  90
ATOM     90  S   UNL A   1      48.267  27.335  38.484  1.00  0.00     0.124 S 
ATOM     91  O   UNL A   1      47.761  26.029  38.898  1.00  0.00    -0.237 OA
ATOM     92  O   UNL A   1      49.320  27.309  37.471  1.00  0.00    -0.237 OA
ATOM     93  O   UNL A   1      48.477  28.294  39.567  1.00  0.00    -0.744 OA
ENDBRANCH  89  90
ENDBRANCH  63  84
ENDBRANCH  37  38
ENDBRANCH  30  32
ENDBRANCH  29  30
ENDBRANCH  28  29
ENDBRANCH  27  28
ENDBRANCH  26  27
ENDBRANCH  25  26
ENDBRANCH   1  25
TORSDOF 24
ENDMDL
