MODEL 1
REMARK VINA RESULT:      -9.1      0.000      0.000
REMARK SMILES O=C(CC1(NC(=O)[C@]2(C(F)(F)F)CC[NH2+]C2)CCC1)OCCOCCOCCOC(=O)c1ccc(-c2c3nc(c(-c4ccc(S(=O)(=O)[O-])cc4)c4ccc([nH]4)c(-c4ccc(S(=O)(=O)[O-])cc4)c4nc(c(-c5ccc(S(=O)(=O)[O-])cc5)c5ccc2[nH]5)C=C4)C=C3)cc1
REMARK SMILES IDX 24 1 23 2 22 3 21 4 20 5 2 6 1 7 3 8 4 9 17 10 19 11 18 12
REMARK SMILES IDX 5 13 6 14 7 16 8 17 13 18 16 19 14 20 15 21 9 24 10 25 11 26
REMARK SMILES IDX 12 27 25 28 26 29 27 30 28 31 29 32 30 33 31 34 32 35 33 36
REMARK SMILES IDX 91 37 34 38 90 39 35 40 36 41 37 42 84 43 38 44 89 45 83 46
REMARK SMILES IDX 85 47 39 48 88 49 82 50 81 51 40 53 70 54 51 55 69 56 52 57
REMARK SMILES IDX 55 58 68 59 86 60 53 61 54 62 67 64 87 65 56 66 41 67 42 68
REMARK SMILES IDX 50 69 43 70 49 71 44 72 45 73 46 74 47 75 48 76 71 77 72 78
REMARK SMILES IDX 80 79 73 80 79 81 74 82 75 83 76 84 77 85 78 86 57 87 58 88
REMARK SMILES IDX 66 89 59 90 65 91 60 92 61 93 62 94 63 95 64 96
REMARK H PARENT 5 15 15 22 15 23 85 52 55 63
REMARK Flexibility Score: inf
ROOT
ATOM      1  C   UNL A   1      34.440  33.664  28.413  1.00  0.00     0.188 C 
ENDROOT
BRANCH   1   2
ATOM      2  O   UNL A   1      34.309  32.623  27.474  1.00  0.00    -0.376 OA
BRANCH   2   3
ATOM      3  C   UNL A   1      34.946  31.410  27.765  1.00  0.00     0.202 C 
BRANCH   3   4
ATOM      4  C   UNL A   1      34.209  30.253  27.139  1.00  0.00     0.261 C 
BRANCH   4   5
ATOM      5  O   UNL A   1      32.881  30.501  26.634  1.00  0.00    -0.463 OA
BRANCH   5   6
ATOM      6  C   UNL A   1      31.947  29.682  26.118  1.00  0.00     0.308 C 
ATOM      7  O   UNL A   1      31.703  28.641  26.736  1.00  0.00    -0.252 OA
BRANCH   6   8
ATOM      8  C   UNL A   1      31.181  29.969  24.842  1.00  0.00     0.151 C 
BRANCH   8   9
ATOM      9  C   UNL A   1      31.099  28.979  23.681  1.00  0.00     0.051 C 
ATOM     10  C   UNL A   1      30.042  27.817  23.915  1.00  0.00     0.029 C 
ATOM     11  C   UNL A   1      30.160  29.417  22.485  1.00  0.00     0.029 C 
ATOM     12  C   UNL A   1      29.081  28.432  22.903  1.00  0.00     0.005 C 
BRANCH   9  13
ATOM     13  N   UNL A   1      32.445  28.427  23.150  1.00  0.00    -0.349 N 
ATOM     14  C   UNL A   1      33.113  27.242  22.866  1.00  0.00     0.241 C 
ATOM     15  H   UNL A   1      33.037  29.184  22.938  1.00  0.00     0.164 HD
ATOM     16  O   UNL A   1      34.129  27.448  22.177  1.00  0.00    -0.274 OA
BRANCH  14  17
ATOM     17  C   UNL A   1      32.776  25.757  23.271  1.00  0.00     0.197 C 
ATOM     18  C   UNL A   1      32.101  25.678  25.178  1.00  0.00     0.094 C 
ATOM     19  C   UNL A   1      34.460  24.655  23.298  1.00  0.00     0.287 C 
ATOM     20  C   UNL A   1      33.440  24.487  26.285  1.00  0.00     0.262 C 
ATOM     21  N   UNL A   1      34.800  23.846  25.034  1.00  0.00    -0.345 N 
ATOM     22  H   UNL A   1      34.748  22.830  24.958  1.00  0.00     0.346 HD
ATOM     23  H   UNL A   1      35.731  24.101  25.365  1.00  0.00     0.346 HD
BRANCH  17  24
ATOM     24  C   UNL A   1      31.871  25.315  22.140  1.00  0.00     0.408 C 
ATOM     25  F   UNL A   1      30.833  24.591  22.603  1.00  0.00    -0.170 F 
ATOM     26  F   UNL A   1      31.330  26.296  21.398  1.00  0.00    -0.170 F 
ATOM     27  F   UNL A   1      32.557  24.593  21.235  1.00  0.00    -0.170 F 
ENDBRANCH  17  24
ENDBRANCH  14  17
ENDBRANCH   9  13
ENDBRANCH   8   9
ENDBRANCH   6   8
ENDBRANCH   5   6
ENDBRANCH   4   5
ENDBRANCH   3   4
ENDBRANCH   2   3
ENDBRANCH   1   2
BRANCH   1  28
ATOM     28  C   UNL A   1      35.845  33.945  29.033  1.00  0.00     0.188 C 
BRANCH  28  29
ATOM     29  O   UNL A   1      36.669  33.126  29.876  1.00  0.00    -0.376 OA
BRANCH  29  30
ATOM     30  C   UNL A   1      38.091  33.012  29.986  1.00  0.00     0.202 C 
BRANCH  30  31
ATOM     31  C   UNL A   1      39.182  34.210  30.187  1.00  0.00     0.261 C 
BRANCH  31  32
ATOM     32  O   UNL A   1      39.806  35.184  28.906  1.00  0.00    -0.460 OA
BRANCH  32  33
ATOM     33  C   UNL A   1      41.341  35.927  28.057  1.00  0.00     0.338 C 
ATOM     34  O   UNL A   1      41.520  37.183  27.939  1.00  0.00    -0.246 OA
BRANCH  33  35
ATOM     35  C   UNL A   1      42.631  35.452  27.451  1.00  0.00     0.060 A 
ATOM     36  C   UNL A   1      43.650  35.240  28.431  1.00  0.00     0.016 A 
ATOM     37  C   UNL A   1      42.963  35.309  26.111  1.00  0.00     0.016 A 
ATOM     38  C   UNL A   1      44.805  34.575  28.138  1.00  0.00     0.010 A 
ATOM     39  C   UNL A   1      44.087  34.564  25.811  1.00  0.00     0.010 A 
ATOM     40  C   UNL A   1      44.938  34.127  26.842  1.00  0.00    -0.014 A 
BRANCH  40  41
ATOM     41  C   UNL A   1      46.021  33.211  26.535  1.00  0.00     0.031 A 
ATOM     42  C   UNL A   1      45.705  31.775  26.649  1.00  0.00     0.074 A 
ATOM     43  C   UNL A   1      47.235  33.720  26.258  1.00  0.00     0.049 A 
ATOM     44  N   UNL A   1      46.523  30.771  26.643  1.00  0.00    -0.248 NA
ATOM     45  C   UNL A   1      44.282  31.421  26.838  1.00  0.00     0.031 C 
ATOM     46  C   UNL A   1      47.552  35.143  26.090  1.00  0.00     0.029 A 
ATOM     47  N   UNL A   1      48.440  33.101  26.107  1.00  0.00    -0.354 N 
ATOM     48  C   UNL A   1      45.724  29.667  26.862  1.00  0.00     0.074 A 
ATOM     49  C   UNL A   1      44.364  30.117  27.034  1.00  0.00     0.031 C 
ATOM     50  C   UNL A   1      48.875  35.290  25.919  1.00  0.00     0.029 A 
ATOM     51  C   UNL A   1      49.494  33.976  25.984  1.00  0.00     0.049 A 
ATOM     52  H   UNL A   1      48.546  32.121  26.088  1.00  0.00     0.167 HD
ATOM     53  C   UNL A   1      46.124  28.384  26.910  1.00  0.00     0.031 A 
ATOM     54  C   UNL A   1      50.813  33.721  25.959  1.00  0.00     0.031 A 
ATOM     55  C   UNL A   1      47.492  28.002  26.728  1.00  0.00     0.049 A 
ATOM     56  C   UNL A   1      51.221  32.275  26.050  1.00  0.00     0.074 A 
ATOM     57  C   UNL A   1      48.028  26.733  26.693  1.00  0.00     0.029 A 
ATOM     58  N   UNL A   1      48.541  28.899  26.560  1.00  0.00    -0.354 N 
ATOM     59  N   UNL A   1      50.456  31.213  26.171  1.00  0.00    -0.248 NA
ATOM     60  C   UNL A   1      52.656  31.985  25.992  1.00  0.00     0.031 C 
ATOM     61  C   UNL A   1      49.413  26.864  26.580  1.00  0.00     0.029 A 
ATOM     62  C   UNL A   1      49.733  28.211  26.467  1.00  0.00     0.049 A 
ATOM     63  H   UNL A   1      48.448  29.878  26.515  1.00  0.00     0.167 HD
ATOM     64  C   UNL A   1      51.315  30.126  26.174  1.00  0.00     0.074 A 
ATOM     65  C   UNL A   1      52.655  30.659  26.016  1.00  0.00     0.031 C 
ATOM     66  C   UNL A   1      51.035  28.804  26.301  1.00  0.00     0.031 A 
BRANCH  53  67
ATOM     67  C   UNL A   1      45.087  27.348  27.195  1.00  0.00    -0.014 A 
ATOM     68  C   UNL A   1      44.710  27.036  28.513  1.00  0.00     0.010 A 
ATOM     69  C   UNL A   1      44.457  26.701  26.120  1.00  0.00     0.010 A 
ATOM     70  C   UNL A   1      43.709  26.096  28.750  1.00  0.00     0.020 A 
ATOM     71  C   UNL A   1      43.434  25.782  26.352  1.00  0.00     0.020 A 
ATOM     72  C   UNL A   1      43.066  25.489  27.666  1.00  0.00     0.054 A 
BRANCH  72  73
ATOM     73  S   UNL A   1      41.687  24.365  28.004  1.00  0.00     0.124 S 
ATOM     74  O   UNL A   1      40.686  25.272  28.560  1.00  0.00    -0.237 OA
ATOM     75  O   UNL A   1      41.385  23.832  26.678  1.00  0.00    -0.237 OA
ATOM     76  O   UNL A   1      42.247  23.402  28.948  1.00  0.00    -0.744 OA
ENDBRANCH  72  73
ENDBRANCH  53  67
BRANCH  54  77
ATOM     77  C   UNL A   1      51.815  34.819  25.872  1.00  0.00    -0.014 A 
ATOM     78  C   UNL A   1      52.389  35.359  27.035  1.00  0.00     0.010 A 
ATOM     79  C   UNL A   1      52.177  35.360  24.623  1.00  0.00     0.010 A 
ATOM     80  C   UNL A   1      53.259  36.452  26.959  1.00  0.00     0.020 A 
ATOM     81  C   UNL A   1      53.073  36.432  24.539  1.00  0.00     0.020 A 
ATOM     82  C   UNL A   1      53.588  36.987  25.711  1.00  0.00     0.054 A 
BRANCH  82  83
ATOM     83  S   UNL A   1      54.703  38.418  25.641  1.00  0.00     0.124 S 
ATOM     84  O   UNL A   1      53.799  39.488  25.233  1.00  0.00    -0.237 OA
ATOM     85  O   UNL A   1      55.201  38.495  27.011  1.00  0.00    -0.237 OA
ATOM     86  O   UNL A   1      55.699  38.028  24.645  1.00  0.00    -0.744 OA
ENDBRANCH  82  83
ENDBRANCH  54  77
BRANCH  66  87
ATOM     87  C   UNL A   1      52.200  27.860  26.254  1.00  0.00    -0.014 A 
ATOM     88  C   UNL A   1      52.643  27.325  25.033  1.00  0.00     0.010 A 
ATOM     89  C   UNL A   1      52.914  27.592  27.434  1.00  0.00     0.010 A 
ATOM     90  C   UNL A   1      53.778  26.518  24.997  1.00  0.00     0.020 A 
ATOM     91  C   UNL A   1      54.073  26.818  27.396  1.00  0.00     0.020 A 
ATOM     92  C   UNL A   1      54.491  26.279  26.177  1.00  0.00     0.054 A 
BRANCH  92  93
ATOM     93  S   UNL A   1      56.007  25.295  26.084  1.00  0.00     0.124 S 
ATOM     94  O   UNL A   1      55.638  24.098  26.833  1.00  0.00    -0.237 OA
ATOM     95  O   UNL A   1      56.179  25.111  24.645  1.00  0.00    -0.237 OA
ATOM     96  O   UNL A   1      57.012  26.143  26.722  1.00  0.00    -0.744 OA
ENDBRANCH  92  93
ENDBRANCH  66  87
ENDBRANCH  40  41
ENDBRANCH  33  35
ENDBRANCH  32  33
ENDBRANCH  31  32
ENDBRANCH  30  31
ENDBRANCH  29  30
ENDBRANCH  28  29
ENDBRANCH   1  28
TORSDOF 24
ENDMDL
MODEL 2
REMARK VINA RESULT:      -9.1      2.956      8.919
REMARK SMILES O=C(CC1(NC(=O)[C@]2(C(F)(F)F)CC[NH2+]C2)CCC1)OCCOCCOCCOC(=O)c1ccc(-c2c3nc(c(-c4ccc(S(=O)(=O)[O-])cc4)c4ccc([nH]4)c(-c4ccc(S(=O)(=O)[O-])cc4)c4nc(c(-c5ccc(S(=O)(=O)[O-])cc5)c5ccc2[nH]5)C=C4)C=C3)cc1
REMARK SMILES IDX 24 1 23 2 22 3 21 4 20 5 2 6 1 7 3 8 4 9 17 10 19 11 18 12
REMARK SMILES IDX 5 13 6 14 7 16 8 17 13 18 16 19 14 20 15 21 9 24 10 25 11 26
REMARK SMILES IDX 12 27 25 28 26 29 27 30 28 31 29 32 30 33 31 34 32 35 33 36
REMARK SMILES IDX 91 37 34 38 90 39 35 40 36 41 37 42 84 43 38 44 89 45 83 46
REMARK SMILES IDX 85 47 39 48 88 49 82 50 81 51 40 53 70 54 51 55 69 56 52 57
REMARK SMILES IDX 55 58 68 59 86 60 53 61 54 62 67 64 87 65 56 66 41 67 42 68
REMARK SMILES IDX 50 69 43 70 49 71 44 72 45 73 46 74 47 75 48 76 71 77 72 78
REMARK SMILES IDX 80 79 73 80 79 81 74 82 75 83 76 84 77 85 78 86 57 87 58 88
REMARK SMILES IDX 66 89 59 90 65 91 60 92 61 93 62 94 63 95 64 96
REMARK H PARENT 5 15 15 22 15 23 85 52 55 63
REMARK Flexibility Score: inf
ROOT
ATOM      1  C   UNL A   1      42.041  25.545  26.560  1.00  0.00     0.188 C 
ENDROOT
BRANCH   1   2
ATOM      2  O   UNL A   1      40.666  25.774  26.763  1.00  0.00    -0.376 OA
BRANCH   2   3
ATOM      3  C   UNL A   1      39.946  24.794  27.458  1.00  0.00     0.202 C 
BRANCH   3   4
ATOM      4  C   UNL A   1      38.587  24.585  26.839  1.00  0.00     0.261 C 
BRANCH   4   5
ATOM      5  O   UNL A   1      38.371  23.367  26.096  1.00  0.00    -0.463 OA
BRANCH   5   6
ATOM      6  C   UNL A   1      37.349  22.952  25.327  1.00  0.00     0.308 C 
ATOM      7  O   UNL A   1      37.438  21.827  24.825  1.00  0.00    -0.252 OA
BRANCH   6   8
ATOM      8  C   UNL A   1      36.105  23.775  25.056  1.00  0.00     0.151 C 
BRANCH   8   9
ATOM      9  C   UNL A   1      34.793  23.574  25.812  1.00  0.00     0.051 C 
ATOM     10  C   UNL A   1      33.964  22.314  25.314  1.00  0.00     0.029 C 
ATOM     11  C   UNL A   1      34.917  22.791  27.181  1.00  0.00     0.029 C 
ATOM     12  C   UNL A   1      34.319  21.532  26.575  1.00  0.00     0.005 C 
BRANCH   9  13
ATOM     13  N   UNL A   1      33.891  24.822  25.972  1.00  0.00    -0.349 N 
ATOM     14  C   UNL A   1      32.791  25.463  25.416  1.00  0.00     0.241 C 
ATOM     15  H   UNL A   1      34.210  25.349  26.740  1.00  0.00     0.164 HD
ATOM     16  O   UNL A   1      32.342  26.339  26.178  1.00  0.00    -0.274 OA
BRANCH  14  17
ATOM     17  C   UNL A   1      32.071  25.242  24.032  1.00  0.00     0.197 C 
ATOM     18  C   UNL A   1      30.928  23.572  24.084  1.00  0.00     0.094 C 
ATOM     19  C   UNL A   1      33.436  24.860  22.602  1.00  0.00     0.287 C 
ATOM     20  C   UNL A   1      31.672  22.237  22.635  1.00  0.00     0.262 C 
ATOM     21  N   UNL A   1      33.150  23.144  21.731  1.00  0.00    -0.345 N 
ATOM     22  H   UNL A   1      32.917  23.290  20.749  1.00  0.00     0.346 HD
ATOM     23  H   UNL A   1      33.997  22.577  21.784  1.00  0.00     0.346 HD
BRANCH  17  24
ATOM     24  C   UNL A   1      31.416  26.588  23.794  1.00  0.00     0.408 C 
ATOM     25  F   UNL A   1      32.311  27.590  23.901  1.00  0.00    -0.170 F 
ATOM     26  F   UNL A   1      30.822  26.753  22.600  1.00  0.00    -0.170 F 
ATOM     27  F   UNL A   1      30.409  26.787  24.665  1.00  0.00    -0.170 F 
ENDBRANCH  17  24
ENDBRANCH  14  17
ENDBRANCH   9  13
ENDBRANCH   8   9
ENDBRANCH   6   8
ENDBRANCH   5   6
ENDBRANCH   4   5
ENDBRANCH   3   4
ENDBRANCH   2   3
ENDBRANCH   1   2
BRANCH   1  28
ATOM     28  C   UNL A   1      42.480  24.548  25.442  1.00  0.00     0.188 C 
BRANCH  28  29
ATOM     29  O   UNL A   1      42.696  23.130  25.492  1.00  0.00    -0.376 OA
BRANCH  29  30
ATOM     30  C   UNL A   1      41.903  22.071  26.036  1.00  0.00     0.202 C 
BRANCH  30  31
ATOM     31  C   UNL A   1      41.773  21.614  27.598  1.00  0.00     0.261 C 
BRANCH  31  32
ATOM     32  O   UNL A   1      42.244  22.591  28.941  1.00  0.00    -0.460 OA
BRANCH  32  33
ATOM     33  C   UNL A   1      43.646  23.515  29.840  1.00  0.00     0.338 C 
ATOM     34  O   UNL A   1      43.805  23.460  31.103  1.00  0.00    -0.246 OA
BRANCH  33  35
ATOM     35  C   UNL A   1      44.843  24.355  29.494  1.00  0.00     0.060 A 
ATOM     36  C   UNL A   1      45.229  24.218  28.123  1.00  0.00     0.016 A 
ATOM     37  C   UNL A   1      45.640  25.123  30.331  1.00  0.00     0.016 A 
ATOM     38  C   UNL A   1      46.118  25.071  27.536  1.00  0.00     0.010 A 
ATOM     39  C   UNL A   1      46.479  26.046  29.738  1.00  0.00     0.010 A 
ATOM     40  C   UNL A   1      46.629  26.066  28.340  1.00  0.00    -0.014 A 
BRANCH  40  41
ATOM     41  C   UNL A   1      47.382  27.139  27.717  1.00  0.00     0.031 A 
ATOM     42  C   UNL A   1      48.788  26.835  27.390  1.00  0.00     0.074 A 
ATOM     43  C   UNL A   1      46.789  28.336  27.564  1.00  0.00     0.049 A 
ATOM     44  N   UNL A   1      49.724  27.657  27.036  1.00  0.00    -0.248 NA
ATOM     45  C   UNL A   1      49.210  25.424  27.516  1.00  0.00     0.031 C 
ATOM     46  C   UNL A   1      45.380  28.639  27.837  1.00  0.00     0.029 A 
ATOM     47  N   UNL A   1      47.308  29.536  27.177  1.00  0.00    -0.354 N 
ATOM     48  C   UNL A   1      50.857  26.874  26.931  1.00  0.00     0.074 A 
ATOM     49  C   UNL A   1      50.508  25.521  27.291  1.00  0.00     0.031 C 
ATOM     50  C   UNL A   1      45.162  29.952  27.666  1.00  0.00     0.029 A 
ATOM     51  C   UNL A   1      46.418  30.580  27.292  1.00  0.00     0.049 A 
ATOM     52  H   UNL A   1      48.231  29.646  26.849  1.00  0.00     0.167 HD
ATOM     53  C   UNL A   1      52.083  27.282  26.559  1.00  0.00     0.031 A 
ATOM     54  C   UNL A   1      46.629  31.897  27.134  1.00  0.00     0.031 A 
ATOM     55  C   UNL A   1      52.362  28.643  26.211  1.00  0.00     0.049 A 
ATOM     56  C   UNL A   1      48.023  32.317  26.752  1.00  0.00     0.074 A 
ATOM     57  C   UNL A   1      53.547  29.183  25.759  1.00  0.00     0.029 A 
ATOM     58  N   UNL A   1      51.439  29.678  26.289  1.00  0.00    -0.354 N 
ATOM     59  N   UNL A   1      49.083  31.563  26.566  1.00  0.00    -0.248 NA
ATOM     60  C   UNL A   1      48.253  33.749  26.547  1.00  0.00     0.031 C 
ATOM     61  C   UNL A   1      53.362  30.561  25.636  1.00  0.00     0.029 A 
ATOM     62  C   UNL A   1      52.041  30.869  25.937  1.00  0.00     0.049 A 
ATOM     63  H   UNL A   1      50.497  29.579  26.556  1.00  0.00     0.167 HD
ATOM     64  C   UNL A   1      50.101  32.426  26.193  1.00  0.00     0.074 A 
ATOM     65  C   UNL A   1      49.520  33.756  26.155  1.00  0.00     0.031 C 
ATOM     66  C   UNL A   1      51.401  32.160  25.912  1.00  0.00     0.031 A 
BRANCH  53  67
ATOM     67  C   UNL A   1      53.175  26.265  26.548  1.00  0.00    -0.014 A 
ATOM     68  C   UNL A   1      53.237  25.271  25.554  1.00  0.00     0.010 A 
ATOM     69  C   UNL A   1      54.174  26.327  27.532  1.00  0.00     0.010 A 
ATOM     70  C   UNL A   1      54.291  24.360  25.542  1.00  0.00     0.020 A 
ATOM     71  C   UNL A   1      55.246  25.436  27.505  1.00  0.00     0.020 A 
ATOM     72  C   UNL A   1      55.298  24.461  26.508  1.00  0.00     0.054 A 
BRANCH  72  73
ATOM     73  S   UNL A   1      56.716  23.340  26.393  1.00  0.00     0.124 S 
ATOM     74  O   UNL A   1      56.105  22.047  26.693  1.00  0.00    -0.237 OA
ATOM     75  O   UNL A   1      57.150  23.523  25.010  1.00  0.00    -0.237 OA
ATOM     76  O   UNL A   1      57.639  23.842  27.406  1.00  0.00    -0.744 OA
ENDBRANCH  72  73
ENDBRANCH  53  67
BRANCH  54  77
ATOM     77  C   UNL A   1      45.540  32.889  27.354  1.00  0.00    -0.014 A 
ATOM     78  C   UNL A   1      44.692  33.268  26.300  1.00  0.00     0.010 A 
ATOM     79  C   UNL A   1      45.364  33.491  28.616  1.00  0.00     0.010 A 
ATOM     80  C   UNL A   1      43.731  34.268  26.483  1.00  0.00     0.020 A 
ATOM     81  C   UNL A   1      44.382  34.468  28.812  1.00  0.00     0.020 A 
ATOM     82  C   UNL A   1      43.588  34.868  27.737  1.00  0.00     0.054 A 
BRANCH  82  83
ATOM     83  S   UNL A   1      42.346  36.175  27.943  1.00  0.00     0.124 S 
ATOM     84  O   UNL A   1      41.127  35.404  28.160  1.00  0.00    -0.237 OA
ATOM     85  O   UNL A   1      42.850  36.906  29.102  1.00  0.00    -0.237 OA
ATOM     86  O   UNL A   1      42.406  36.907  26.679  1.00  0.00    -0.744 OA
ENDBRANCH  82  83
ENDBRANCH  54  77
BRANCH  66  87
ATOM     87  C   UNL A   1      52.262  33.325  25.524  1.00  0.00    -0.014 A 
ATOM     88  C   UNL A   1      53.050  33.986  26.480  1.00  0.00     0.010 A 
ATOM     89  C   UNL A   1      52.356  33.689  24.169  1.00  0.00     0.010 A 
ATOM     90  C   UNL A   1      53.909  35.011  26.088  1.00  0.00     0.020 A 
ATOM     91  C   UNL A   1      53.244  34.685  23.768  1.00  0.00     0.020 A 
ATOM     92  C   UNL A   1      54.008  35.345  24.733  1.00  0.00     0.054 A 
BRANCH  92  93
ATOM     93  S   UNL A   1      55.193  36.623  24.245  1.00  0.00     0.124 S 
ATOM     94  O   UNL A   1      55.136  36.548  22.788  1.00  0.00    -0.237 OA
ATOM     95  O   UNL A   1      54.621  37.830  24.837  1.00  0.00    -0.237 OA
ATOM     96  O   UNL A   1      56.450  36.179  24.842  1.00  0.00    -0.744 OA
ENDBRANCH  92  93
ENDBRANCH  66  87
ENDBRANCH  40  41
ENDBRANCH  33  35
ENDBRANCH  32  33
ENDBRANCH  31  32
ENDBRANCH  30  31
ENDBRANCH  29  30
ENDBRANCH  28  29
ENDBRANCH   1  28
TORSDOF 24
ENDMDL
MODEL 3
REMARK VINA RESULT:      -8.7      7.470     15.405
REMARK SMILES O=C(CC1(NC(=O)[C@]2(C(F)(F)F)CC[NH2+]C2)CCC1)OCCOCCOCCOC(=O)c1ccc(-c2c3nc(c(-c4ccc(S(=O)(=O)[O-])cc4)c4ccc([nH]4)c(-c4ccc(S(=O)(=O)[O-])cc4)c4nc(c(-c5ccc(S(=O)(=O)[O-])cc5)c5ccc2[nH]5)C=C4)C=C3)cc1
REMARK SMILES IDX 24 1 23 2 22 3 21 4 20 5 2 6 1 7 3 8 4 9 17 10 19 11 18 12
REMARK SMILES IDX 5 13 6 14 7 16 8 17 13 18 16 19 14 20 15 21 9 24 10 25 11 26
REMARK SMILES IDX 12 27 25 28 26 29 27 30 28 31 29 32 30 33 31 34 32 35 33 36
REMARK SMILES IDX 91 37 34 38 90 39 35 40 36 41 37 42 84 43 38 44 89 45 83 46
REMARK SMILES IDX 85 47 39 48 88 49 82 50 81 51 40 53 70 54 51 55 69 56 52 57
REMARK SMILES IDX 55 58 68 59 86 60 53 61 54 62 67 64 87 65 56 66 41 67 42 68
REMARK SMILES IDX 50 69 43 70 49 71 44 72 45 73 46 74 47 75 48 76 71 77 72 78
REMARK SMILES IDX 80 79 73 80 79 81 74 82 75 83 76 84 77 85 78 86 57 87 58 88
REMARK SMILES IDX 66 89 59 90 65 91 60 92 61 93 62 94 63 95 64 96
REMARK H PARENT 5 15 15 22 15 23 85 52 55 63
REMARK Flexibility Score: inf
ROOT
ATOM      1  C   UNL A   1      44.730  21.283  24.631  1.00  0.00     0.188 C 
ENDROOT
BRANCH   1   2
ATOM      2  O   UNL A   1      44.375  22.542  24.109  1.00  0.00    -0.376 OA
BRANCH   2   3
ATOM      3  C   UNL A   1      44.263  23.606  25.013  1.00  0.00     0.202 C 
BRANCH   3   4
ATOM      4  C   UNL A   1      45.527  24.428  25.035  1.00  0.00     0.261 C 
BRANCH   4   5
ATOM      5  O   UNL A   1      45.779  25.234  26.204  1.00  0.00    -0.463 OA
BRANCH   5   6
ATOM      6  C   UNL A   1      46.723  26.153  26.477  1.00  0.00     0.308 C 
ATOM      7  O   UNL A   1      47.872  25.916  26.090  1.00  0.00    -0.252 OA
BRANCH   6   8
ATOM      8  C   UNL A   1      46.455  27.449  27.216  1.00  0.00     0.151 C 
BRANCH   8   9
ATOM      9  C   UNL A   1      46.674  27.611  28.719  1.00  0.00     0.051 C 
ATOM     10  C   UNL A   1      45.368  27.335  29.581  1.00  0.00     0.029 C 
ATOM     11  C   UNL A   1      47.272  26.344  29.454  1.00  0.00     0.029 C 
ATOM     12  C   UNL A   1      45.926  26.003  30.072  1.00  0.00     0.005 C 
BRANCH   9  13
ATOM     13  N   UNL A   1      47.395  28.903  29.175  1.00  0.00    -0.349 N 
ATOM     14  C   UNL A   1      47.157  30.188  29.648  1.00  0.00     0.241 C 
ATOM     15  H   UNL A   1      48.367  28.766  29.107  1.00  0.00     0.164 HD
ATOM     16  O   UNL A   1      48.191  30.699  30.114  1.00  0.00    -0.274 OA
BRANCH  14  17
ATOM     17  C   UNL A   1      45.830  31.036  29.676  1.00  0.00     0.197 C 
ATOM     18  C   UNL A   1      44.501  30.321  28.326  1.00  0.00     0.094 C 
ATOM     19  C   UNL A   1      46.202  32.914  29.054  1.00  0.00     0.287 C 
ATOM     20  C   UNL A   1      44.118  31.850  26.929  1.00  0.00     0.262 C 
ATOM     21  N   UNL A   1      45.140  33.415  27.504  1.00  0.00    -0.345 N 
ATOM     22  H   UNL A   1      44.503  34.172  27.751  1.00  0.00     0.346 HD
ATOM     23  H   UNL A   1      45.748  33.735  26.749  1.00  0.00     0.346 HD
BRANCH  17  24
ATOM     24  C   UNL A   1      45.476  31.025  31.150  1.00  0.00     0.408 C 
ATOM     25  F   UNL A   1      46.323  31.796  31.859  1.00  0.00    -0.170 F 
ATOM     26  F   UNL A   1      44.242  31.453  31.464  1.00  0.00    -0.170 F 
ATOM     27  F   UNL A   1      45.495  29.770  31.634  1.00  0.00    -0.170 F 
ENDBRANCH  17  24
ENDBRANCH  14  17
ENDBRANCH   9  13
ENDBRANCH   8   9
ENDBRANCH   6   8
ENDBRANCH   5   6
ENDBRANCH   4   5
ENDBRANCH   3   4
ENDBRANCH   2   3
ENDBRANCH   1   2
BRANCH   1  28
ATOM     28  C   UNL A   1      43.791  20.613  25.683  1.00  0.00     0.188 C 
BRANCH  28  29
ATOM     29  O   UNL A   1      42.480  20.987  26.130  1.00  0.00    -0.376 OA
BRANCH  29  30
ATOM     30  C   UNL A   1      41.990  21.356  27.423  1.00  0.00     0.202 C 
BRANCH  30  31
ATOM     31  C   UNL A   1      41.257  22.746  27.860  1.00  0.00     0.261 C 
BRANCH  31  32
ATOM     32  O   UNL A   1      41.311  24.207  26.941  1.00  0.00    -0.460 OA
BRANCH  32  33
ATOM     33  C   UNL A   1      40.835  26.047  26.824  1.00  0.00     0.338 C 
ATOM     34  O   UNL A   1      40.614  26.629  25.712  1.00  0.00    -0.246 OA
BRANCH  33  35
ATOM     35  C   UNL A   1      40.524  27.190  27.748  1.00  0.00     0.060 A 
ATOM     36  C   UNL A   1      39.939  26.754  28.978  1.00  0.00     0.016 A 
ATOM     37  C   UNL A   1      40.632  28.554  27.515  1.00  0.00     0.016 A 
ATOM     38  C   UNL A   1      39.813  27.587  30.052  1.00  0.00     0.010 A 
ATOM     39  C   UNL A   1      40.589  29.391  28.613  1.00  0.00     0.010 A 
ATOM     40  C   UNL A   1      40.274  28.874  29.882  1.00  0.00    -0.014 A 
BRANCH  40  41
ATOM     41  C   UNL A   1      40.391  29.726  31.050  1.00  0.00     0.031 A 
ATOM     42  C   UNL A   1      41.491  29.403  31.978  1.00  0.00     0.074 A 
ATOM     43  C   UNL A   1      39.459  30.675  31.249  1.00  0.00     0.049 A 
ATOM     44  N   UNL A   1      41.687  29.855  33.176  1.00  0.00    -0.248 NA
ATOM     45  C   UNL A   1      42.481  28.409  31.514  1.00  0.00     0.031 C 
ATOM     46  C   UNL A   1      38.391  31.042  30.312  1.00  0.00     0.029 A 
ATOM     47  N   UNL A   1      39.235  31.482  32.326  1.00  0.00    -0.354 N 
ATOM     48  C   UNL A   1      42.802  29.175  33.628  1.00  0.00     0.074 A 
ATOM     49  C   UNL A   1      43.222  28.255  32.598  1.00  0.00     0.031 C 
ATOM     50  C   UNL A   1      37.591  31.958  30.880  1.00  0.00     0.029 A 
ATOM     51  C   UNL A   1      38.081  32.225  32.222  1.00  0.00     0.049 A 
ATOM     52  H   UNL A   1      39.840  31.528  33.102  1.00  0.00     0.167 HD
ATOM     53  C   UNL A   1      43.407  29.329  34.818  1.00  0.00     0.031 A 
ATOM     54  C   UNL A   1      37.489  33.007  33.140  1.00  0.00     0.031 A 
ATOM     55  C   UNL A   1      42.941  30.264  35.798  1.00  0.00     0.049 A 
ATOM     56  C   UNL A   1      38.179  33.125  34.472  1.00  0.00     0.074 A 
ATOM     57  C   UNL A   1      43.495  30.564  37.023  1.00  0.00     0.029 A 
ATOM     58  N   UNL A   1      41.797  31.040  35.659  1.00  0.00    -0.354 N 
ATOM     59  N   UNL A   1      39.289  32.547  34.874  1.00  0.00    -0.248 NA
ATOM     60  C   UNL A   1      37.557  34.001  35.468  1.00  0.00     0.031 C 
ATOM     61  C   UNL A   1      42.643  31.468  37.660  1.00  0.00     0.029 A 
ATOM     62  C   UNL A   1      41.600  31.790  36.801  1.00  0.00     0.049 A 
ATOM     63  H   UNL A   1      41.214  31.053  34.867  1.00  0.00     0.167 HD
ATOM     64  C   UNL A   1      39.514  33.011  36.160  1.00  0.00     0.074 A 
ATOM     65  C   UNL A   1      38.438  33.939  36.457  1.00  0.00     0.031 C 
ATOM     66  C   UNL A   1      40.510  32.704  37.029  1.00  0.00     0.031 A 
BRANCH  53  67
ATOM     67  C   UNL A   1      44.585  28.460  35.110  1.00  0.00    -0.014 A 
ATOM     68  C   UNL A   1      45.897  28.895  34.847  1.00  0.00     0.010 A 
ATOM     69  C   UNL A   1      44.374  27.199  35.690  1.00  0.00     0.010 A 
ATOM     70  C   UNL A   1      46.981  28.080  35.169  1.00  0.00     0.020 A 
ATOM     71  C   UNL A   1      45.458  26.395  36.042  1.00  0.00     0.020 A 
ATOM     72  C   UNL A   1      46.754  26.843  35.782  1.00  0.00     0.054 A 
BRANCH  72  73
ATOM     73  S   UNL A   1      48.185  25.863  36.299  1.00  0.00     0.124 S 
ATOM     74  O   UNL A   1      48.447  25.058  35.108  1.00  0.00    -0.237 OA
ATOM     75  O   UNL A   1      49.181  26.891  36.592  1.00  0.00    -0.237 OA
ATOM     76  O   UNL A   1      47.698  25.120  37.457  1.00  0.00    -0.744 OA
ENDBRANCH  72  73
ENDBRANCH  53  67
BRANCH  54  77
ATOM     77  C   UNL A   1      36.200  33.697  32.857  1.00  0.00    -0.014 A 
ATOM     78  C   UNL A   1      36.162  34.832  32.028  1.00  0.00     0.010 A 
ATOM     79  C   UNL A   1      35.002  33.245  33.442  1.00  0.00     0.010 A 
ATOM     80  C   UNL A   1      34.968  35.535  31.838  1.00  0.00     0.020 A 
ATOM     81  C   UNL A   1      33.798  33.926  33.228  1.00  0.00     0.020 A 
ATOM     82  C   UNL A   1      33.794  35.081  32.446  1.00  0.00     0.054 A 
BRANCH  82  83
ATOM     83  S   UNL A   1      32.262  36.022  32.198  1.00  0.00     0.124 S 
ATOM     84  O   UNL A   1      31.247  35.072  32.641  1.00  0.00    -0.237 OA
ATOM     85  O   UNL A   1      32.464  37.183  33.061  1.00  0.00    -0.237 OA
ATOM     86  O   UNL A   1      32.265  36.311  30.766  1.00  0.00    -0.744 OA
ENDBRANCH  82  83
ENDBRANCH  54  77
BRANCH  66  87
ATOM     87  C   UNL A   1      40.481  33.391  38.361  1.00  0.00    -0.014 A 
ATOM     88  C   UNL A   1      41.166  34.601  38.561  1.00  0.00     0.010 A 
ATOM     89  C   UNL A   1      39.674  32.868  39.387  1.00  0.00     0.010 A 
ATOM     90  C   UNL A   1      41.059  35.270  39.779  1.00  0.00     0.020 A 
ATOM     91  C   UNL A   1      39.533  33.555  40.590  1.00  0.00     0.020 A 
ATOM     92  C   UNL A   1      40.234  34.748  40.780  1.00  0.00     0.054 A 
BRANCH  92  93
ATOM     93  S   UNL A   1      40.050  35.683  42.320  1.00  0.00     0.124 S 
ATOM     94  O   UNL A   1      41.373  36.283  42.470  1.00  0.00    -0.237 OA
ATOM     95  O   UNL A   1      38.970  36.612  42.000  1.00  0.00    -0.237 OA
ATOM     96  O   UNL A   1      39.714  34.661  43.309  1.00  0.00    -0.744 OA
ENDBRANCH  92  93
ENDBRANCH  66  87
ENDBRANCH  40  41
ENDBRANCH  33  35
ENDBRANCH  32  33
ENDBRANCH  31  32
ENDBRANCH  30  31
ENDBRANCH  29  30
ENDBRANCH  28  29
ENDBRANCH   1  28
TORSDOF 24
ENDMDL
