MODEL 1
REMARK VINA RESULT:     -11.4      0.000      0.000
REMARK SMILES O=C(OCCOCCOCCOC(=O)c1cc([C@@H]2C=NN=C2c2ccc(F)cc2)c2c(ccc3ccccc32)n1)c1ccc(-c2c3nc(c(-c4ccc(S(=O)(=O)[O-])cc4)c4ccc([nH]4)c(-c4ccc(S(=O)(=O)[O-])cc4)c4nc(c(-c5ccc(S(=O)(=O)[O-])cc5)c5ccc2[nH]5)C=C4)C=C3)cc1
REMARK SMILES IDX 7 1 6 2 5 3 4 4 3 5 2 6 1 7 41 8 42 9 100 10 43 11 99 12
REMARK SMILES IDX 44 13 45 14 46 15 93 16 47 17 98 18 92 19 94 20 48 21 97 22
REMARK SMILES IDX 91 23 90 24 49 26 79 27 60 28 78 29 61 30 64 31 77 32 95 33
REMARK SMILES IDX 62 34 63 35 76 37 96 38 65 39 50 40 51 41 59 42 52 43 58 44
REMARK SMILES IDX 53 45 54 46 55 47 56 48 57 49 80 50 81 51 89 52 82 53 88 54
REMARK SMILES IDX 83 55 84 56 85 57 86 58 87 59 66 60 67 61 75 62 68 63 74 64
REMARK SMILES IDX 69 65 70 66 71 67 72 68 73 69 8 70 9 71 10 72 11 73 12 74
REMARK SMILES IDX 13 75 14 76 15 77 16 78 40 79 17 80 31 81 30 82 32 83 39 84
REMARK SMILES IDX 33 85 34 86 38 87 35 88 37 89 36 90 18 91 19 92 22 93 20 94
REMARK SMILES IDX 21 95 23 96 24 97 29 98 25 99 28 100 26 101 27 102
REMARK H PARENT 94 25 64 36
REMARK Flexibility Score: inf
ROOT
ATOM      1  C   UNL A   1      38.956  22.491  25.986  1.00  0.00     0.188 C 
ENDROOT
BRANCH   1   2
ATOM      2  O   UNL A   1      39.622  21.930  27.111  1.00  0.00    -0.376 OA
BRANCH   2   3
ATOM      3  C   UNL A   1      40.541  20.894  26.808  1.00  0.00     0.202 C 
BRANCH   3   4
ATOM      4  C   UNL A   1      41.962  21.428  26.631  1.00  0.00     0.261 C 
BRANCH   4   5
ATOM      5  O   UNL A   1      42.203  22.154  25.407  1.00  0.00    -0.460 OA
BRANCH   5   6
ATOM      6  C   UNL A   1      43.026  23.167  25.079  1.00  0.00     0.338 C 
ATOM      7  O   UNL A   1      43.859  22.981  24.193  1.00  0.00    -0.246 OA
BRANCH   6   8
ATOM      8  C   UNL A   1      43.070  24.466  25.804  1.00  0.00     0.060 A 
ATOM      9  C   UNL A   1      43.686  24.682  27.037  1.00  0.00     0.016 A 
ATOM     10  C   UNL A   1      42.373  25.535  25.204  1.00  0.00     0.016 A 
ATOM     11  C   UNL A   1      43.598  25.919  27.666  1.00  0.00     0.010 A 
ATOM     12  C   UNL A   1      42.254  26.766  25.843  1.00  0.00     0.010 A 
ATOM     13  C   UNL A   1      42.837  26.940  27.096  1.00  0.00    -0.014 A 
BRANCH  13  14
ATOM     14  C   UNL A   1      42.571  28.109  27.929  1.00  0.00     0.031 A 
ATOM     15  C   UNL A   1      43.622  29.152  28.059  1.00  0.00     0.074 A 
ATOM     16  C   UNL A   1      41.378  28.276  28.534  1.00  0.00     0.049 A 
ATOM     17  N   UNL A   1      44.196  29.582  29.138  1.00  0.00    -0.248 NA
ATOM     18  C   UNL A   1      44.100  29.793  26.826  1.00  0.00     0.031 C 
ATOM     19  C   UNL A   1      40.146  27.519  28.287  1.00  0.00     0.029 A 
ATOM     20  N   UNL A   1      40.989  29.241  29.416  1.00  0.00    -0.354 N 
ATOM     21  C   UNL A   1      44.980  30.667  28.753  1.00  0.00     0.074 A 
ATOM     22  C   UNL A   1      44.954  30.696  27.310  1.00  0.00     0.031 C 
ATOM     23  C   UNL A   1      39.106  28.194  28.817  1.00  0.00     0.029 A 
ATOM     24  C   UNL A   1      39.613  29.345  29.547  1.00  0.00     0.049 A 
ATOM     25  H   UNL A   1      41.623  29.808  29.912  1.00  0.00     0.167 HD
ATOM     26  C   UNL A   1      45.467  31.585  29.633  1.00  0.00     0.031 A 
ATOM     27  C   UNL A   1      38.923  30.348  30.135  1.00  0.00     0.031 A 
ATOM     28  C   UNL A   1      45.425  31.140  30.996  1.00  0.00     0.049 A 
ATOM     29  C   UNL A   1      39.831  31.064  31.058  1.00  0.00     0.074 A 
ATOM     30  C   UNL A   1      46.001  30.110  31.710  1.00  0.00     0.029 A 
ATOM     31  N   UNL A   1      44.453  31.668  31.810  1.00  0.00    -0.354 N 
ATOM     32  N   UNL A   1      40.310  30.551  32.156  1.00  0.00    -0.248 NA
ATOM     33  C   UNL A   1      40.489  32.279  30.604  1.00  0.00     0.031 C 
ATOM     34  C   UNL A   1      45.067  29.792  32.739  1.00  0.00     0.029 A 
ATOM     35  C   UNL A   1      43.973  30.647  32.591  1.00  0.00     0.049 A 
ATOM     36  H   UNL A   1      44.155  32.606  31.830  1.00  0.00     0.167 HD
ATOM     37  C   UNL A   1      41.557  31.134  32.312  1.00  0.00     0.074 A 
ATOM     38  C   UNL A   1      41.548  32.284  31.418  1.00  0.00     0.031 C 
ATOM     39  C   UNL A   1      42.575  30.473  32.937  1.00  0.00     0.031 A 
BRANCH  26  40
ATOM     40  C   UNL A   1      45.710  33.030  29.276  1.00  0.00    -0.014 A 
ATOM     41  C   UNL A   1      44.621  33.868  28.958  1.00  0.00     0.010 A 
ATOM     42  C   UNL A   1      47.003  33.519  28.991  1.00  0.00     0.010 A 
ATOM     43  C   UNL A   1      44.818  35.119  28.353  1.00  0.00     0.020 A 
ATOM     44  C   UNL A   1      47.211  34.780  28.428  1.00  0.00     0.020 A 
ATOM     45  C   UNL A   1      46.114  35.559  28.080  1.00  0.00     0.054 A 
BRANCH  45  46
ATOM     46  S   UNL A   1      46.359  37.127  27.206  1.00  0.00     0.124 S 
ATOM     47  O   UNL A   1      45.034  37.732  27.304  1.00  0.00    -0.237 OA
ATOM     48  O   UNL A   1      47.407  37.768  27.995  1.00  0.00    -0.237 OA
ATOM     49  O   UNL A   1      46.762  36.711  25.866  1.00  0.00    -0.744 OA
ENDBRANCH  45  46
ENDBRANCH  26  40
BRANCH  27  50
ATOM     50  C   UNL A   1      37.605  30.876  29.714  1.00  0.00    -0.014 A 
ATOM     51  C   UNL A   1      36.645  31.276  30.659  1.00  0.00     0.010 A 
ATOM     52  C   UNL A   1      37.383  31.221  28.363  1.00  0.00     0.010 A 
ATOM     53  C   UNL A   1      35.528  32.034  30.270  1.00  0.00     0.020 A 
ATOM     54  C   UNL A   1      36.266  31.960  27.967  1.00  0.00     0.020 A 
ATOM     55  C   UNL A   1      35.356  32.384  28.928  1.00  0.00     0.054 A 
BRANCH  55  56
ATOM     56  S   UNL A   1      34.006  33.505  28.459  1.00  0.00     0.124 S 
ATOM     57  O   UNL A   1      33.057  32.596  27.824  1.00  0.00    -0.237 OA
ATOM     58  O   UNL A   1      33.593  34.056  29.746  1.00  0.00    -0.237 OA
ATOM     59  O   UNL A   1      34.650  34.459  27.559  1.00  0.00    -0.744 OA
ENDBRANCH  55  56
ENDBRANCH  27  50
BRANCH  39  60
ATOM     60  C   UNL A   1      42.236  29.269  33.788  1.00  0.00    -0.014 A 
ATOM     61  C   UNL A   1      42.031  27.985  33.249  1.00  0.00     0.010 A 
ATOM     62  C   UNL A   1      42.271  29.408  35.188  1.00  0.00     0.010 A 
ATOM     63  C   UNL A   1      41.842  26.875  34.083  1.00  0.00     0.020 A 
ATOM     64  C   UNL A   1      42.103  28.301  36.028  1.00  0.00     0.020 A 
ATOM     65  C   UNL A   1      41.883  27.040  35.471  1.00  0.00     0.054 A 
BRANCH  65  66
ATOM     66  S   UNL A   1      41.721  25.582  36.539  1.00  0.00     0.124 S 
ATOM     67  O   UNL A   1      40.389  25.754  37.110  1.00  0.00    -0.237 OA
ATOM     68  O   UNL A   1      41.864  24.472  35.598  1.00  0.00    -0.237 OA
ATOM     69  O   UNL A   1      42.825  25.722  37.487  1.00  0.00    -0.744 OA
ENDBRANCH  65  66
ENDBRANCH  39  60
ENDBRANCH  13  14
ENDBRANCH   6   8
ENDBRANCH   5   6
ENDBRANCH   4   5
ENDBRANCH   3   4
ENDBRANCH   2   3
ENDBRANCH   1   2
BRANCH   1  70
ATOM     70  C   UNL A   1      37.873  21.578  25.375  1.00  0.00     0.188 C 
BRANCH  70  71
ATOM     71  O   UNL A   1      37.205  21.868  24.148  1.00  0.00    -0.376 OA
BRANCH  71  72
ATOM     72  C   UNL A   1      36.463  23.062  23.998  1.00  0.00     0.202 C 
BRANCH  72  73
ATOM     73  C   UNL A   1      35.803  23.194  22.623  1.00  0.00     0.261 C 
BRANCH  73  74
ATOM     74  O   UNL A   1      34.445  22.730  22.584  1.00  0.00    -0.459 OA
BRANCH  74  75
ATOM     75  C   UNL A   1      33.640  23.396  21.714  1.00  0.00     0.357 C 
ATOM     76  O   UNL A   1      33.478  23.167  20.529  1.00  0.00    -0.244 OA
BRANCH  75  77
ATOM     77  C   UNL A   1      33.016  24.550  22.405  1.00  0.00     0.149 A 
ATOM     78  C   UNL A   1      31.865  24.326  23.111  1.00  0.00     0.041 A 
ATOM     79  N   UNL A   1      33.737  25.672  22.527  1.00  0.00    -0.241 NA
ATOM     80  C   UNL A   1      31.493  25.225  24.141  1.00  0.00    -0.021 A 
ATOM     81  C   UNL A   1      33.368  26.573  23.445  1.00  0.00     0.072 A 
ATOM     82  C   UNL A   1      32.290  26.426  24.374  1.00  0.00     0.012 A 
ATOM     83  C   UNL A   1      34.208  27.664  23.483  1.00  0.00     0.029 A 
ATOM     84  C   UNL A   1      32.226  27.450  25.448  1.00  0.00    -0.009 A 
ATOM     85  C   UNL A   1      34.102  28.645  24.453  1.00  0.00     0.011 A 
ATOM     86  C   UNL A   1      33.146  28.539  25.449  1.00  0.00    -0.018 A 
ATOM     87  C   UNL A   1      31.354  27.456  26.563  1.00  0.00     0.009 A 
ATOM     88  C   UNL A   1      33.153  29.522  26.456  1.00  0.00     0.009 A 
ATOM     89  C   UNL A   1      31.359  28.431  27.570  1.00  0.00     0.001 A 
ATOM     90  C   UNL A   1      32.262  29.472  27.517  1.00  0.00     0.001 A 
BRANCH  80  91
ATOM     91  C   UNL A   1      30.418  24.602  25.005  1.00  0.00     0.115 C 
ATOM     92  C   UNL A   1      29.399  25.396  25.721  1.00  0.00     0.123 C 
ATOM     93  C   UNL A   1      30.854  23.719  26.134  1.00  0.00     0.083 C 
ATOM     94  N   UNL A   1      29.155  24.927  26.906  1.00  0.00    -0.162 NA
ATOM     95  N   UNL A   1      30.083  23.851  27.173  1.00  0.00    -0.154 NA
BRANCH  93  96
ATOM     96  C   UNL A   1      31.922  22.711  25.997  1.00  0.00    -0.001 A 
ATOM     97  C   UNL A   1      31.702  21.611  25.166  1.00  0.00     0.013 A 
ATOM     98  C   UNL A   1      33.162  22.866  26.632  1.00  0.00     0.013 A 
ATOM     99  C   UNL A   1      32.739  20.702  24.932  1.00  0.00     0.040 A 
ATOM    100  C   UNL A   1      34.202  21.973  26.377  1.00  0.00     0.040 A 
ATOM    101  C   UNL A   1      33.983  20.900  25.526  1.00  0.00     0.123 A 
ATOM    102  F   UNL A   1      34.976  20.035  25.283  1.00  0.00    -0.207 F 
ENDBRANCH  93  96
ENDBRANCH  80  91
ENDBRANCH  75  77
ENDBRANCH  74  75
ENDBRANCH  73  74
ENDBRANCH  72  73
ENDBRANCH  71  72
ENDBRANCH  70  71
ENDBRANCH   1  70
TORSDOF 22
ENDMDL
MODEL 2
REMARK VINA RESULT:     -10.7      2.075      3.480
REMARK SMILES O=C(OCCOCCOCCOC(=O)c1cc([C@@H]2C=NN=C2c2ccc(F)cc2)c2c(ccc3ccccc32)n1)c1ccc(-c2c3nc(c(-c4ccc(S(=O)(=O)[O-])cc4)c4ccc([nH]4)c(-c4ccc(S(=O)(=O)[O-])cc4)c4nc(c(-c5ccc(S(=O)(=O)[O-])cc5)c5ccc2[nH]5)C=C4)C=C3)cc1
REMARK SMILES IDX 7 1 6 2 5 3 4 4 3 5 2 6 1 7 41 8 42 9 100 10 43 11 99 12
REMARK SMILES IDX 44 13 45 14 46 15 93 16 47 17 98 18 92 19 94 20 48 21 97 22
REMARK SMILES IDX 91 23 90 24 49 26 79 27 60 28 78 29 61 30 64 31 77 32 95 33
REMARK SMILES IDX 62 34 63 35 76 37 96 38 65 39 50 40 51 41 59 42 52 43 58 44
REMARK SMILES IDX 53 45 54 46 55 47 56 48 57 49 80 50 81 51 89 52 82 53 88 54
REMARK SMILES IDX 83 55 84 56 85 57 86 58 87 59 66 60 67 61 75 62 68 63 74 64
REMARK SMILES IDX 69 65 70 66 71 67 72 68 73 69 8 70 9 71 10 72 11 73 12 74
REMARK SMILES IDX 13 75 14 76 15 77 16 78 40 79 17 80 31 81 30 82 32 83 39 84
REMARK SMILES IDX 33 85 34 86 38 87 35 88 37 89 36 90 18 91 19 92 22 93 20 94
REMARK SMILES IDX 21 95 23 96 24 97 29 98 25 99 28 100 26 101 27 102
REMARK H PARENT 94 25 64 36
REMARK Flexibility Score: inf
ROOT
ATOM      1  C   UNL A   1      40.914  19.905  26.415  1.00  0.00     0.188 C 
ENDROOT
BRANCH   1   2
ATOM      2  O   UNL A   1      42.332  20.019  26.435  1.00  0.00    -0.376 OA
BRANCH   2   3
ATOM      3  C   UNL A   1      43.016  19.136  25.561  1.00  0.00     0.202 C 
BRANCH   3   4
ATOM      4  C   UNL A   1      44.533  19.285  25.677  1.00  0.00     0.261 C 
BRANCH   4   5
ATOM      5  O   UNL A   1      45.104  20.395  24.952  1.00  0.00    -0.460 OA
BRANCH   5   6
ATOM      6  C   UNL A   1      44.588  21.527  24.438  1.00  0.00     0.338 C 
ATOM      7  O   UNL A   1      44.596  21.671  23.216  1.00  0.00    -0.246 OA
BRANCH   6   8
ATOM      8  C   UNL A   1      44.113  22.670  25.264  1.00  0.00     0.060 A 
ATOM      9  C   UNL A   1      43.260  23.683  24.826  1.00  0.00     0.016 A 
ATOM     10  C   UNL A   1      44.629  22.746  26.574  1.00  0.00     0.016 A 
ATOM     11  C   UNL A   1      42.941  24.751  25.657  1.00  0.00     0.010 A 
ATOM     12  C   UNL A   1      44.340  23.828  27.400  1.00  0.00     0.010 A 
ATOM     13  C   UNL A   1      43.525  24.851  26.920  1.00  0.00    -0.014 A 
BRANCH  13  14
ATOM     14  C   UNL A   1      43.358  26.117  27.627  1.00  0.00     0.031 A 
ATOM     15  C   UNL A   1      44.436  27.136  27.541  1.00  0.00     0.074 A 
ATOM     16  C   UNL A   1      42.228  26.389  28.310  1.00  0.00     0.049 A 
ATOM     17  N   UNL A   1      45.113  27.672  28.507  1.00  0.00    -0.248 NA
ATOM     18  C   UNL A   1      44.814  27.614  26.204  1.00  0.00     0.031 C 
ATOM     19  C   UNL A   1      40.964  25.646  28.262  1.00  0.00     0.029 A 
ATOM     20  N   UNL A   1      41.937  27.462  29.100  1.00  0.00    -0.354 N 
ATOM     21  C   UNL A   1      45.880  28.681  27.929  1.00  0.00     0.074 A 
ATOM     22  C   UNL A   1      45.726  28.541  26.501  1.00  0.00     0.031 C 
ATOM     23  C   UNL A   1      39.989  26.409  28.796  1.00  0.00     0.029 A 
ATOM     24  C   UNL A   1      40.582  27.621  29.337  1.00  0.00     0.049 A 
ATOM     25  H   UNL A   1      42.624  28.063  29.469  1.00  0.00     0.167 HD
ATOM     26  C   UNL A   1      46.462  29.681  28.647  1.00  0.00     0.031 A 
ATOM     27  C   UNL A   1      39.966  28.706  29.859  1.00  0.00     0.031 A 
ATOM     28  C   UNL A   1      46.534  29.400  30.053  1.00  0.00     0.049 A 
ATOM     29  C   UNL A   1      40.967  29.498  30.608  1.00  0.00     0.074 A 
ATOM     30  C   UNL A   1      47.151  28.444  30.832  1.00  0.00     0.029 A 
ATOM     31  N   UNL A   1      45.649  30.048  30.880  1.00  0.00    -0.354 N 
ATOM     32  N   UNL A   1      41.533  29.103  31.713  1.00  0.00    -0.248 NA
ATOM     33  C   UNL A   1      41.605  30.632  29.957  1.00  0.00     0.031 C 
ATOM     34  C   UNL A   1      46.307  28.276  31.968  1.00  0.00     0.029 A 
ATOM     35  C   UNL A   1      45.221  29.140  31.815  1.00  0.00     0.049 A 
ATOM     36  H   UNL A   1      45.371  30.990  30.813  1.00  0.00     0.167 HD
ATOM     37  C   UNL A   1      42.800  29.663  31.691  1.00  0.00     0.074 A 
ATOM     38  C   UNL A   1      42.732  30.700  30.670  1.00  0.00     0.031 C 
ATOM     39  C   UNL A   1      43.857  29.049  32.299  1.00  0.00     0.031 A 
BRANCH  26  40
ATOM     40  C   UNL A   1      46.699  31.067  28.102  1.00  0.00    -0.014 A 
ATOM     41  C   UNL A   1      45.617  31.958  27.952  1.00  0.00     0.010 A 
ATOM     42  C   UNL A   1      47.918  31.425  27.487  1.00  0.00     0.010 A 
ATOM     43  C   UNL A   1      45.742  33.133  27.195  1.00  0.00     0.020 A 
ATOM     44  C   UNL A   1      48.064  32.613  26.767  1.00  0.00     0.020 A 
ATOM     45  C   UNL A   1      46.964  33.444  26.596  1.00  0.00     0.054 A 
BRANCH  45  46
ATOM     46  S   UNL A   1      47.092  34.907  25.537  1.00  0.00     0.124 S 
ATOM     47  O   UNL A   1      45.918  34.758  24.681  1.00  0.00    -0.237 OA
ATOM     48  O   UNL A   1      47.037  36.002  26.501  1.00  0.00    -0.237 OA
ATOM     49  O   UNL A   1      48.380  34.735  24.872  1.00  0.00    -0.744 OA
ENDBRANCH  45  46
ENDBRANCH  26  40
BRANCH  27  50
ATOM     50  C   UNL A   1      38.626  29.220  29.494  1.00  0.00    -0.014 A 
ATOM     51  C   UNL A   1      37.686  29.565  30.479  1.00  0.00     0.010 A 
ATOM     52  C   UNL A   1      38.359  29.610  28.163  1.00  0.00     0.010 A 
ATOM     53  C   UNL A   1      36.543  30.313  30.149  1.00  0.00     0.020 A 
ATOM     54  C   UNL A   1      37.217  30.338  27.825  1.00  0.00     0.020 A 
ATOM     55  C   UNL A   1      36.325  30.707  28.826  1.00  0.00     0.054 A 
BRANCH  55  56
ATOM     56  S   UNL A   1      34.940  31.815  28.436  1.00  0.00     0.124 S 
ATOM     57  O   UNL A   1      34.516  32.256  29.761  1.00  0.00    -0.237 OA
ATOM     58  O   UNL A   1      35.574  32.831  27.601  1.00  0.00    -0.237 OA
ATOM     59  O   UNL A   1      33.994  30.948  27.737  1.00  0.00    -0.744 OA
ENDBRANCH  55  56
ENDBRANCH  27  50
BRANCH  39  60
ATOM     60  C   UNL A   1      43.571  27.964  33.314  1.00  0.00    -0.014 A 
ATOM     61  C   UNL A   1      43.623  26.592  33.001  1.00  0.00     0.010 A 
ATOM     62  C   UNL A   1      43.392  28.336  34.659  1.00  0.00     0.010 A 
ATOM     63  C   UNL A   1      43.475  25.620  33.999  1.00  0.00     0.020 A 
ATOM     64  C   UNL A   1      43.264  27.370  35.664  1.00  0.00     0.020 A 
ATOM     65  C   UNL A   1      43.300  26.016  35.327  1.00  0.00     0.054 A 
BRANCH  65  66
ATOM     66  S   UNL A   1      43.193  24.748  36.621  1.00  0.00     0.124 S 
ATOM     67  O   UNL A   1      41.757  24.501  36.707  1.00  0.00    -0.237 OA
ATOM     68  O   UNL A   1      43.988  23.652  36.068  1.00  0.00    -0.237 OA
ATOM     69  O   UNL A   1      43.782  25.396  37.792  1.00  0.00    -0.744 OA
ENDBRANCH  65  66
ENDBRANCH  39  60
ENDBRANCH  13  14
ENDBRANCH   6   8
ENDBRANCH   5   6
ENDBRANCH   4   5
ENDBRANCH   3   4
ENDBRANCH   2   3
ENDBRANCH   1   2
BRANCH   1  70
ATOM     70  C   UNL A   1      40.178  21.239  26.175  1.00  0.00     0.188 C 
BRANCH  70  71
ATOM     71  O   UNL A   1      38.756  21.363  26.195  1.00  0.00    -0.376 OA
BRANCH  71  72
ATOM     72  C   UNL A   1      38.131  22.553  25.755  1.00  0.00     0.202 C 
BRANCH  72  73
ATOM     73  C   UNL A   1      36.613  22.420  25.611  1.00  0.00     0.261 C 
BRANCH  73  74
ATOM     74  O   UNL A   1      35.878  23.507  26.192  1.00  0.00    -0.459 OA
BRANCH  74  75
ATOM     75  C   UNL A   1      34.687  23.158  26.746  1.00  0.00     0.357 C 
ATOM     76  O   UNL A   1      34.398  22.101  27.280  1.00  0.00    -0.244 OA
BRANCH  75  77
ATOM     77  C   UNL A   1      33.705  24.248  26.533  1.00  0.00     0.149 A 
ATOM     78  C   UNL A   1      34.134  25.381  25.897  1.00  0.00     0.041 A 
ATOM     79  N   UNL A   1      32.408  23.969  26.724  1.00  0.00    -0.241 NA
ATOM     80  C   UNL A   1      33.190  26.223  25.258  1.00  0.00    -0.021 A 
ATOM     81  C   UNL A   1      31.492  24.786  26.191  1.00  0.00     0.072 A 
ATOM     82  C   UNL A   1      31.765  25.921  25.364  1.00  0.00     0.012 A 
ATOM     83  C   UNL A   1      30.203  24.369  26.441  1.00  0.00     0.029 A 
ATOM     84  C   UNL A   1      30.584  26.527  24.699  1.00  0.00    -0.009 A 
ATOM     85  C   UNL A   1      29.104  24.980  25.862  1.00  0.00     0.011 A 
ATOM     86  C   UNL A   1      29.277  26.030  24.976  1.00  0.00    -0.018 A 
ATOM     87  C   UNL A   1      30.594  27.559  23.730  1.00  0.00     0.009 A 
ATOM     88  C   UNL A   1      28.125  26.543  24.353  1.00  0.00     0.009 A 
ATOM     89  C   UNL A   1      29.449  28.072  23.104  1.00  0.00     0.001 A 
ATOM     90  C   UNL A   1      28.206  27.563  23.418  1.00  0.00     0.001 A 
BRANCH  80  91
ATOM     91  C   UNL A   1      33.902  27.188  24.336  1.00  0.00     0.115 C 
ATOM     92  C   UNL A   1      33.909  28.649  24.550  1.00  0.00     0.123 C 
ATOM     93  C   UNL A   1      33.529  27.172  22.885  1.00  0.00     0.083 C 
ATOM     94  N   UNL A   1      33.791  29.308  23.438  1.00  0.00    -0.162 NA
ATOM     95  N   UNL A   1      33.551  28.365  22.370  1.00  0.00    -0.154 NA
BRANCH  93  96
ATOM     96  C   UNL A   1      33.334  25.924  22.121  1.00  0.00    -0.001 A 
ATOM     97  C   UNL A   1      32.694  25.990  20.882  1.00  0.00     0.013 A 
ATOM     98  C   UNL A   1      33.827  24.697  22.585  1.00  0.00     0.013 A 
ATOM     99  C   UNL A   1      32.598  24.841  20.091  1.00  0.00     0.040 A 
ATOM    100  C   UNL A   1      33.754  23.559  21.784  1.00  0.00     0.040 A 
ATOM    101  C   UNL A   1      33.142  23.641  20.541  1.00  0.00     0.123 A 
ATOM    102  F   UNL A   1      33.063  22.549  19.770  1.00  0.00    -0.207 F 
ENDBRANCH  93  96
ENDBRANCH  80  91
ENDBRANCH  75  77
ENDBRANCH  74  75
ENDBRANCH  73  74
ENDBRANCH  72  73
ENDBRANCH  71  72
ENDBRANCH  70  71
ENDBRANCH   1  70
TORSDOF 22
ENDMDL
MODEL 3
REMARK VINA RESULT:     -10.5      1.627      6.624
REMARK SMILES O=C(OCCOCCOCCOC(=O)c1cc([C@@H]2C=NN=C2c2ccc(F)cc2)c2c(ccc3ccccc32)n1)c1ccc(-c2c3nc(c(-c4ccc(S(=O)(=O)[O-])cc4)c4ccc([nH]4)c(-c4ccc(S(=O)(=O)[O-])cc4)c4nc(c(-c5ccc(S(=O)(=O)[O-])cc5)c5ccc2[nH]5)C=C4)C=C3)cc1
REMARK SMILES IDX 7 1 6 2 5 3 4 4 3 5 2 6 1 7 41 8 42 9 100 10 43 11 99 12
REMARK SMILES IDX 44 13 45 14 46 15 93 16 47 17 98 18 92 19 94 20 48 21 97 22
REMARK SMILES IDX 91 23 90 24 49 26 79 27 60 28 78 29 61 30 64 31 77 32 95 33
REMARK SMILES IDX 62 34 63 35 76 37 96 38 65 39 50 40 51 41 59 42 52 43 58 44
REMARK SMILES IDX 53 45 54 46 55 47 56 48 57 49 80 50 81 51 89 52 82 53 88 54
REMARK SMILES IDX 83 55 84 56 85 57 86 58 87 59 66 60 67 61 75 62 68 63 74 64
REMARK SMILES IDX 69 65 70 66 71 67 72 68 73 69 8 70 9 71 10 72 11 73 12 74
REMARK SMILES IDX 13 75 14 76 15 77 16 78 40 79 17 80 31 81 30 82 32 83 39 84
REMARK SMILES IDX 33 85 34 86 38 87 35 88 37 89 36 90 18 91 19 92 22 93 20 94
REMARK SMILES IDX 21 95 23 96 24 97 29 98 25 99 28 100 26 101 27 102
REMARK H PARENT 94 25 64 36
REMARK Flexibility Score: inf
ROOT
ATOM      1  C   UNL A   1      39.351  22.217  26.145  1.00  0.00     0.188 C 
ENDROOT
BRANCH   1   2
ATOM      2  O   UNL A   1      39.855  21.174  26.972  1.00  0.00    -0.376 OA
BRANCH   2   3
ATOM      3  C   UNL A   1      40.907  20.413  26.401  1.00  0.00     0.202 C 
BRANCH   3   4
ATOM      4  C   UNL A   1      42.221  21.193  26.373  1.00  0.00     0.261 C 
BRANCH   4   5
ATOM      5  O   UNL A   1      42.346  22.160  25.309  1.00  0.00    -0.460 OA
BRANCH   5   6
ATOM      6  C   UNL A   1      43.217  23.155  25.061  1.00  0.00     0.338 C 
ATOM      7  O   UNL A   1      44.110  22.960  24.238  1.00  0.00    -0.246 OA
BRANCH   6   8
ATOM      8  C   UNL A   1      43.238  24.443  25.808  1.00  0.00     0.060 A 
ATOM      9  C   UNL A   1      44.373  25.215  26.053  1.00  0.00     0.016 A 
ATOM     10  C   UNL A   1      42.008  24.863  26.353  1.00  0.00     0.016 A 
ATOM     11  C   UNL A   1      44.294  26.364  26.833  1.00  0.00     0.010 A 
ATOM     12  C   UNL A   1      41.927  25.994  27.161  1.00  0.00     0.010 A 
ATOM     13  C   UNL A   1      43.085  26.720  27.431  1.00  0.00    -0.014 A 
BRANCH  13  14
ATOM     14  C   UNL A   1      43.132  27.773  28.440  1.00  0.00     0.031 A 
ATOM     15  C   UNL A   1      43.190  27.392  29.875  1.00  0.00     0.074 A 
ATOM     16  C   UNL A   1      43.172  29.074  28.088  1.00  0.00     0.049 A 
ATOM     17  N   UNL A   1      42.365  27.705  30.823  1.00  0.00    -0.248 NA
ATOM     18  C   UNL A   1      44.310  26.545  30.308  1.00  0.00     0.031 C 
ATOM     19  C   UNL A   1      43.417  29.621  26.749  1.00  0.00     0.029 A 
ATOM     20  N   UNL A   1      43.121  30.182  28.881  1.00  0.00    -0.354 N 
ATOM     21  C   UNL A   1      42.943  27.249  32.006  1.00  0.00     0.074 A 
ATOM     22  C   UNL A   1      44.091  26.465  31.621  1.00  0.00     0.031 C 
ATOM     23  C   UNL A   1      43.723  30.930  26.861  1.00  0.00     0.029 A 
ATOM     24  C   UNL A   1      43.564  31.333  28.249  1.00  0.00     0.049 A 
ATOM     25  H   UNL A   1      42.798  30.167  29.811  1.00  0.00     0.167 HD
ATOM     26  C   UNL A   1      42.554  27.677  33.239  1.00  0.00     0.031 A 
ATOM     27  C   UNL A   1      43.868  32.517  28.828  1.00  0.00     0.031 A 
ATOM     28  C   UNL A   1      41.277  28.331  33.235  1.00  0.00     0.049 A 
ATOM     29  C   UNL A   1      43.191  32.583  30.142  1.00  0.00     0.074 A 
ATOM     30  C   UNL A   1      39.985  27.960  32.928  1.00  0.00     0.029 A 
ATOM     31  N   UNL A   1      41.262  29.700  33.346  1.00  0.00    -0.354 N 
ATOM     32  N   UNL A   1      41.900  32.670  30.296  1.00  0.00    -0.248 NA
ATOM     33  C   UNL A   1      43.935  32.226  31.341  1.00  0.00     0.031 C 
ATOM     34  C   UNL A   1      39.354  29.144  32.446  1.00  0.00     0.029 A 
ATOM     35  C   UNL A   1      40.300  30.170  32.487  1.00  0.00     0.049 A 
ATOM     36  H   UNL A   1      41.836  30.245  33.932  1.00  0.00     0.167 HD
ATOM     37  C   UNL A   1      41.632  32.004  31.481  1.00  0.00     0.074 A 
ATOM     38  C   UNL A   1      42.924  31.884  32.144  1.00  0.00     0.031 C 
ATOM     39  C   UNL A   1      40.440  31.368  31.682  1.00  0.00     0.031 A 
BRANCH  26  40
ATOM     40  C   UNL A   1      43.488  27.765  34.420  1.00  0.00    -0.014 A 
ATOM     41  C   UNL A   1      43.261  26.961  35.557  1.00  0.00     0.010 A 
ATOM     42  C   UNL A   1      44.431  28.808  34.547  1.00  0.00     0.010 A 
ATOM     43  C   UNL A   1      43.923  27.213  36.769  1.00  0.00     0.020 A 
ATOM     44  C   UNL A   1      45.124  29.040  35.737  1.00  0.00     0.020 A 
ATOM     45  C   UNL A   1      44.840  28.261  36.853  1.00  0.00     0.054 A 
BRANCH  45  46
ATOM     46  S   UNL A   1      45.613  28.646  38.444  1.00  0.00     0.124 S 
ATOM     47  O   UNL A   1      44.848  27.803  39.358  1.00  0.00    -0.237 OA
ATOM     48  O   UNL A   1      47.000  28.247  38.227  1.00  0.00    -0.237 OA
ATOM     49  O   UNL A   1      45.400  30.083  38.588  1.00  0.00    -0.744 OA
ENDBRANCH  45  46
ENDBRANCH  26  40
BRANCH  27  50
ATOM     50  C   UNL A   1      44.938  33.452  28.413  1.00  0.00    -0.014 A 
ATOM     51  C   UNL A   1      46.276  33.033  28.322  1.00  0.00     0.010 A 
ATOM     52  C   UNL A   1      44.602  34.708  27.862  1.00  0.00     0.010 A 
ATOM     53  C   UNL A   1      47.232  33.824  27.662  1.00  0.00     0.020 A 
ATOM     54  C   UNL A   1      45.550  35.506  27.219  1.00  0.00     0.020 A 
ATOM     55  C   UNL A   1      46.857  35.048  27.102  1.00  0.00     0.054 A 
BRANCH  55  56
ATOM     56  S   UNL A   1      48.053  35.982  26.105  1.00  0.00     0.124 S 
ATOM     57  O   UNL A   1      47.267  37.136  25.680  1.00  0.00    -0.237 OA
ATOM     58  O   UNL A   1      49.117  36.259  27.066  1.00  0.00    -0.237 OA
ATOM     59  O   UNL A   1      48.414  35.050  25.039  1.00  0.00    -0.744 OA
ENDBRANCH  55  56
ENDBRANCH  27  50
BRANCH  39  60
ATOM     60  C   UNL A   1      39.280  31.711  30.774  1.00  0.00    -0.014 A 
ATOM     61  C   UNL A   1      39.018  31.023  29.575  1.00  0.00     0.010 A 
ATOM     62  C   UNL A   1      38.340  32.659  31.220  1.00  0.00     0.010 A 
ATOM     63  C   UNL A   1      37.862  31.290  28.829  1.00  0.00     0.020 A 
ATOM     64  C   UNL A   1      37.173  32.916  30.491  1.00  0.00     0.020 A 
ATOM     65  C   UNL A   1      36.943  32.234  29.294  1.00  0.00     0.054 A 
BRANCH  65  66
ATOM     66  S   UNL A   1      35.411  32.510  28.363  1.00  0.00     0.124 S 
ATOM     67  O   UNL A   1      34.423  32.689  29.422  1.00  0.00    -0.237 OA
ATOM     68  O   UNL A   1      35.718  33.707  27.581  1.00  0.00    -0.237 OA
ATOM     69  O   UNL A   1      35.260  31.290  27.573  1.00  0.00    -0.744 OA
ENDBRANCH  65  66
ENDBRANCH  39  60
ENDBRANCH  13  14
ENDBRANCH   6   8
ENDBRANCH   5   6
ENDBRANCH   4   5
ENDBRANCH   3   4
ENDBRANCH   2   3
ENDBRANCH   1   2
BRANCH   1  70
ATOM     70  C   UNL A   1      37.873  22.042  25.740  1.00  0.00     0.188 C 
BRANCH  70  71
ATOM     71  O   UNL A   1      37.390  22.277  24.418  1.00  0.00    -0.376 OA
BRANCH  71  72
ATOM     72  C   UNL A   1      36.289  23.135  24.196  1.00  0.00     0.202 C 
BRANCH  72  73
ATOM     73  C   UNL A   1      35.784  23.109  22.751  1.00  0.00     0.261 C 
BRANCH  73  74
ATOM     74  O   UNL A   1      34.424  22.668  22.620  1.00  0.00    -0.459 OA
BRANCH  74  75
ATOM     75  C   UNL A   1      33.682  23.371  21.725  1.00  0.00     0.357 C 
ATOM     76  O   UNL A   1      33.615  23.202  20.520  1.00  0.00    -0.244 OA
BRANCH  75  77
ATOM     77  C   UNL A   1      32.992  24.484  22.421  1.00  0.00     0.149 A 
ATOM     78  C   UNL A   1      31.894  24.181  23.179  1.00  0.00     0.041 A 
ATOM     79  N   UNL A   1      33.621  25.664  22.493  1.00  0.00    -0.241 NA
ATOM     80  C   UNL A   1      31.491  25.067  24.209  1.00  0.00    -0.021 A 
ATOM     81  C   UNL A   1      33.216  26.551  23.410  1.00  0.00     0.072 A 
ATOM     82  C   UNL A   1      32.194  26.334  24.387  1.00  0.00     0.012 A 
ATOM     83  C   UNL A   1      33.964  27.707  23.392  1.00  0.00     0.029 A 
ATOM     84  C   UNL A   1      32.089  27.371  25.444  1.00  0.00    -0.009 A 
ATOM     85  C   UNL A   1      33.816  28.697  24.349  1.00  0.00     0.011 A 
ATOM     86  C   UNL A   1      32.914  28.533  25.386  1.00  0.00    -0.018 A 
ATOM     87  C   UNL A   1      31.266  27.328  26.595  1.00  0.00     0.009 A 
ATOM     88  C   UNL A   1      32.880  29.534  26.375  1.00  0.00     0.009 A 
ATOM     89  C   UNL A   1      31.231  28.322  27.584  1.00  0.00     0.001 A 
ATOM     90  C   UNL A   1      32.041  29.432  27.474  1.00  0.00     0.001 A 
BRANCH  80  91
ATOM     91  C   UNL A   1      30.508  24.376  25.128  1.00  0.00     0.115 C 
ATOM     92  C   UNL A   1      29.592  25.108  26.026  1.00  0.00     0.123 C 
ATOM     93  C   UNL A   1      31.051  23.386  26.114  1.00  0.00     0.083 C 
ATOM     94  N   UNL A   1      29.475  24.532  27.183  1.00  0.00    -0.162 NA
ATOM     95  N   UNL A   1      30.405  23.427  27.242  1.00  0.00    -0.154 NA
BRANCH  93  96
ATOM     96  C   UNL A   1      32.077  22.386  25.763  1.00  0.00    -0.001 A 
ATOM     97  C   UNL A   1      33.304  22.422  26.429  1.00  0.00     0.013 A 
ATOM     98  C   UNL A   1      31.824  21.375  24.825  1.00  0.00     0.013 A 
ATOM     99  C   UNL A   1      34.248  21.417  26.195  1.00  0.00     0.040 A 
ATOM    100  C   UNL A   1      32.756  20.361  24.612  1.00  0.00     0.040 A 
ATOM    101  C   UNL A   1      33.960  20.389  25.301  1.00  0.00     0.123 A 
ATOM    102  F   UNL A   1      34.863  19.420  25.095  1.00  0.00    -0.207 F 
ENDBRANCH  93  96
ENDBRANCH  80  91
ENDBRANCH  75  77
ENDBRANCH  74  75
ENDBRANCH  73  74
ENDBRANCH  72  73
ENDBRANCH  71  72
ENDBRANCH  70  71
ENDBRANCH   1  70
TORSDOF 22
ENDMDL
