MODEL 1
REMARK VINA RESULT:     -10.3      0.000      0.000
REMARK SMILES Cc1cccc2c(C(=O)OCCOCCOCCOC(=O)c3ccc(-c4c5nc(c(-c6ccc(S(=O)(=O)[O-])cc6)c6ccc([nH]6)c(-c6ccc(S(=O)(=O)[O-])cc6)c6nc(c(-c7ccc(S(=O)(=O)[O-])cc7)c7ccc4[nH]7)C=C6)C=C5)cc3)cc(=O)[nH]c12
REMARK SMILES IDX 16 1 15 2 14 3 13 4 12 5 11 6 10 7 8 8 9 9 7 10 1 11 2 12
REMARK SMILES IDX 3 13 86 14 4 15 6 16 85 17 5 18 83 19 82 21 84 22 17 23
REMARK SMILES IDX 18 24 19 25 20 26 21 27 22 28 23 29 81 30 24 31 80 32 25 33
REMARK SMILES IDX 26 34 27 35 74 36 28 37 79 38 73 39 75 40 29 41 78 42 72 43
REMARK SMILES IDX 71 44 30 46 60 47 41 48 59 49 42 50 45 51 58 52 76 53 43 54
REMARK SMILES IDX 44 55 57 57 77 58 46 59 31 60 32 61 40 62 33 63 39 64 34 65
REMARK SMILES IDX 35 66 36 67 37 68 38 69 61 70 62 71 70 72 63 73 69 74 64 75
REMARK SMILES IDX 65 76 66 77 67 78 68 79 47 80 48 81 56 82 49 83 55 84 50 85
REMARK SMILES IDX 51 86 52 87 53 88 54 89
REMARK H PARENT 85 20 75 45 45 56
REMARK Flexibility Score: inf
ROOT
ATOM      1  O   UNL A   1      31.786  28.796  24.057  1.00  0.00    -0.376 OA
ENDROOT
BRANCH   1   2
ATOM      2  C   UNL A   1      30.499  28.190  24.028  1.00  0.00     0.188 C 
BRANCH   2   3
ATOM      3  C   UNL A   1      30.297  26.846  23.297  1.00  0.00     0.188 C 
BRANCH   3   4
ATOM      4  O   UNL A   1      29.878  25.801  24.157  1.00  0.00    -0.376 OA
BRANCH   4   5
ATOM      5  C   UNL A   1      30.552  25.686  25.397  1.00  0.00     0.202 C 
BRANCH   5   6
ATOM      6  C   UNL A   1      31.282  24.362  25.671  1.00  0.00     0.261 C 
BRANCH   6   7
ATOM      7  O   UNL A   1      30.958  23.281  24.783  1.00  0.00    -0.460 OA
BRANCH   7   8
ATOM      8  C   UNL A   1      31.859  22.965  23.820  1.00  0.00     0.339 C 
ATOM      9  O   UNL A   1      31.983  23.537  22.751  1.00  0.00    -0.246 OA
BRANCH   8  10
ATOM     10  C   UNL A   1      32.763  21.892  24.323  1.00  0.00     0.074 A 
ATOM     11  C   UNL A   1      37.273  19.718  24.955  1.00  0.00     0.046 C 
ATOM     12  C   UNL A   1      36.413  20.927  24.702  1.00  0.00    -0.027 A 
ATOM     13  C   UNL A   1      37.044  22.123  24.336  1.00  0.00     0.005 A 
ATOM     14  C   UNL A   1      35.005  20.888  24.723  1.00  0.00     0.052 A 
ATOM     15  C   UNL A   1      36.297  23.246  23.989  1.00  0.00     0.001 A 
ATOM     16  C   UNL A   1      34.238  22.002  24.321  1.00  0.00     0.013 A 
ATOM     17  N   UNL A   1      34.333  19.742  25.177  1.00  0.00    -0.322 N 
ATOM     18  C   UNL A   1      34.904  23.182  23.966  1.00  0.00     0.011 A 
ATOM     19  C   UNL A   1      32.978  19.638  25.282  1.00  0.00     0.249 A 
ATOM     20  H   UNL A   1      34.876  18.963  25.436  1.00  0.00     0.170 HD
ATOM     21  C   UNL A   1      32.179  20.779  24.797  1.00  0.00     0.088 A 
ATOM     22  O   UNL A   1      32.431  18.641  25.740  1.00  0.00    -0.270 OA
ENDBRANCH   8  10
ENDBRANCH   7   8
ENDBRANCH   6   7
ENDBRANCH   5   6
ENDBRANCH   4   5
ENDBRANCH   3   4
ENDBRANCH   2   3
ENDBRANCH   1   2
BRANCH   1  23
ATOM     23  C   UNL A   1      32.309  29.257  25.296  1.00  0.00     0.202 C 
BRANCH  23  24
ATOM     24  C   UNL A   1      33.695  28.771  25.740  1.00  0.00     0.261 C 
BRANCH  24  25
ATOM     25  O   UNL A   1      33.929  28.823  27.157  1.00  0.00    -0.460 OA
BRANCH  25  26
ATOM     26  C   UNL A   1      34.394  30.006  27.634  1.00  0.00     0.338 C 
ATOM     27  O   UNL A   1      33.753  31.025  27.832  1.00  0.00    -0.246 OA
BRANCH  26  28
ATOM     28  C   UNL A   1      35.794  29.834  28.076  1.00  0.00     0.060 A 
ATOM     29  C   UNL A   1      36.094  29.450  29.383  1.00  0.00     0.016 A 
ATOM     30  C   UNL A   1      36.824  30.051  27.147  1.00  0.00     0.016 A 
ATOM     31  C   UNL A   1      37.429  29.259  29.754  1.00  0.00     0.010 A 
ATOM     32  C   UNL A   1      38.157  29.880  27.525  1.00  0.00     0.010 A 
ATOM     33  C   UNL A   1      38.468  29.461  28.826  1.00  0.00    -0.014 A 
BRANCH  33  34
ATOM     34  C   UNL A   1      39.856  29.070  29.175  1.00  0.00     0.031 A 
ATOM     35  C   UNL A   1      40.765  29.975  29.946  1.00  0.00     0.074 A 
ATOM     36  C   UNL A   1      40.287  27.857  28.779  1.00  0.00     0.049 A 
ATOM     37  N   UNL A   1      41.963  29.726  30.409  1.00  0.00    -0.248 NA
ATOM     38  C   UNL A   1      40.281  31.332  30.231  1.00  0.00     0.031 C 
ATOM     39  C   UNL A   1      39.491  26.904  28.003  1.00  0.00     0.029 A 
ATOM     40  N   UNL A   1      41.479  27.211  28.985  1.00  0.00    -0.354 N 
ATOM     41  C   UNL A   1      42.371  30.881  31.062  1.00  0.00     0.074 A 
ATOM     42  C   UNL A   1      41.311  31.854  30.887  1.00  0.00     0.031 C 
ATOM     43  C   UNL A   1      40.204  25.781  27.829  1.00  0.00     0.029 A 
ATOM     44  C   UNL A   1      41.513  25.941  28.459  1.00  0.00     0.049 A 
ATOM     45  H   UNL A   1      42.238  27.616  29.462  1.00  0.00     0.167 HD
ATOM     46  C   UNL A   1      43.512  31.095  31.759  1.00  0.00     0.031 A 
ATOM     47  C   UNL A   1      42.475  24.997  28.492  1.00  0.00     0.031 A 
ATOM     48  C   UNL A   1      44.560  30.114  31.918  1.00  0.00     0.049 A 
ATOM     49  C   UNL A   1      43.744  25.267  29.249  1.00  0.00     0.074 A 
ATOM     50  C   UNL A   1      45.728  30.225  32.654  1.00  0.00     0.029 A 
ATOM     51  N   UNL A   1      44.577  28.855  31.336  1.00  0.00    -0.354 N 
ATOM     52  N   UNL A   1      44.079  26.337  29.930  1.00  0.00    -0.248 NA
ATOM     53  C   UNL A   1      44.755  24.201  29.264  1.00  0.00     0.031 C 
ATOM     54  C   UNL A   1      46.483  29.066  32.458  1.00  0.00     0.029 A 
ATOM     55  C   UNL A   1      45.751  28.196  31.667  1.00  0.00     0.049 A 
ATOM     56  H   UNL A   1      43.860  28.483  30.772  1.00  0.00     0.167 HD
ATOM     57  C   UNL A   1      45.331  26.067  30.469  1.00  0.00     0.074 A 
ATOM     58  C   UNL A   1      45.686  24.726  30.053  1.00  0.00     0.031 C 
ATOM     59  C   UNL A   1      46.110  26.863  31.242  1.00  0.00     0.031 A 
BRANCH  46  60
ATOM     60  C   UNL A   1      43.706  32.427  32.441  1.00  0.00    -0.014 A 
ATOM     61  C   UNL A   1      44.412  33.456  31.790  1.00  0.00     0.010 A 
ATOM     62  C   UNL A   1      43.329  32.604  33.784  1.00  0.00     0.010 A 
ATOM     63  C   UNL A   1      44.773  34.618  32.479  1.00  0.00     0.020 A 
ATOM     64  C   UNL A   1      43.662  33.778  34.469  1.00  0.00     0.020 A 
ATOM     65  C   UNL A   1      44.405  34.766  33.818  1.00  0.00     0.054 A 
BRANCH  65  66
ATOM     66  S   UNL A   1      44.921  36.261  34.709  1.00  0.00     0.124 S 
ATOM     67  O   UNL A   1      44.004  37.266  34.179  1.00  0.00    -0.237 OA
ATOM     68  O   UNL A   1      44.713  35.888  36.105  1.00  0.00    -0.237 OA
ATOM     69  O   UNL A   1      46.320  36.424  34.319  1.00  0.00    -0.744 OA
ENDBRANCH  65  66
ENDBRANCH  46  60
BRANCH  47  70
ATOM     70  C   UNL A   1      42.216  23.687  27.834  1.00  0.00    -0.014 A 
ATOM     71  C   UNL A   1      41.644  22.627  28.562  1.00  0.00     0.010 A 
ATOM     72  C   UNL A   1      42.644  23.458  26.515  1.00  0.00     0.010 A 
ATOM     73  C   UNL A   1      41.565  21.348  28.009  1.00  0.00     0.020 A 
ATOM     74  C   UNL A   1      42.537  22.186  25.946  1.00  0.00     0.020 A 
ATOM     75  C   UNL A   1      42.029  21.132  26.709  1.00  0.00     0.054 A 
BRANCH  75  76
ATOM     76  S   UNL A   1      41.987  19.447  26.039  1.00  0.00     0.124 S 
ATOM     77  O   UNL A   1      42.882  19.561  24.890  1.00  0.00    -0.237 OA
ATOM     78  O   UNL A   1      42.492  18.648  27.152  1.00  0.00    -0.237 OA
ATOM     79  O   UNL A   1      40.578  19.242  25.716  1.00  0.00    -0.744 OA
ENDBRANCH  75  76
ENDBRANCH  47  70
BRANCH  59  80
ATOM     80  C   UNL A   1      47.447  26.332  31.696  1.00  0.00    -0.014 A 
ATOM     81  C   UNL A   1      48.568  26.441  30.852  1.00  0.00     0.010 A 
ATOM     82  C   UNL A   1      47.564  25.601  32.893  1.00  0.00     0.010 A 
ATOM     83  C   UNL A   1      49.767  25.796  31.171  1.00  0.00     0.020 A 
ATOM     84  C   UNL A   1      48.770  24.981  33.232  1.00  0.00     0.020 A 
ATOM     85  C   UNL A   1      49.856  25.058  32.355  1.00  0.00     0.054 A 
BRANCH  85  86
ATOM     86  S   UNL A   1      51.402  24.188  32.728  1.00  0.00     0.124 S 
ATOM     87  O   UNL A   1      52.348  24.840  31.827  1.00  0.00    -0.237 OA
ATOM     88  O   UNL A   1      51.593  24.467  34.150  1.00  0.00    -0.237 OA
ATOM     89  O   UNL A   1      51.097  22.794  32.411  1.00  0.00    -0.744 OA
ENDBRANCH  85  86
ENDBRANCH  59  80
ENDBRANCH  33  34
ENDBRANCH  26  28
ENDBRANCH  25  26
ENDBRANCH  24  25
ENDBRANCH  23  24
ENDBRANCH   1  23
TORSDOF 20
ENDMDL
MODEL 2
REMARK VINA RESULT:      -9.9      1.005      8.264
REMARK SMILES Cc1cccc2c(C(=O)OCCOCCOCCOC(=O)c3ccc(-c4c5nc(c(-c6ccc(S(=O)(=O)[O-])cc6)c6ccc([nH]6)c(-c6ccc(S(=O)(=O)[O-])cc6)c6nc(c(-c7ccc(S(=O)(=O)[O-])cc7)c7ccc4[nH]7)C=C6)C=C5)cc3)cc(=O)[nH]c12
REMARK SMILES IDX 16 1 15 2 14 3 13 4 12 5 11 6 10 7 8 8 9 9 7 10 1 11 2 12
REMARK SMILES IDX 3 13 86 14 4 15 6 16 85 17 5 18 83 19 82 21 84 22 17 23
REMARK SMILES IDX 18 24 19 25 20 26 21 27 22 28 23 29 81 30 24 31 80 32 25 33
REMARK SMILES IDX 26 34 27 35 74 36 28 37 79 38 73 39 75 40 29 41 78 42 72 43
REMARK SMILES IDX 71 44 30 46 60 47 41 48 59 49 42 50 45 51 58 52 76 53 43 54
REMARK SMILES IDX 44 55 57 57 77 58 46 59 31 60 32 61 40 62 33 63 39 64 34 65
REMARK SMILES IDX 35 66 36 67 37 68 38 69 61 70 62 71 70 72 63 73 69 74 64 75
REMARK SMILES IDX 65 76 66 77 67 78 68 79 47 80 48 81 56 82 49 83 55 84 50 85
REMARK SMILES IDX 51 86 52 87 53 88 54 89
REMARK H PARENT 85 20 75 45 45 56
REMARK Flexibility Score: inf
ROOT
ATOM      1  O   UNL A   1      31.728  29.776  24.954  1.00  0.00    -0.376 OA
ENDROOT
BRANCH   1   2
ATOM      2  C   UNL A   1      30.840  29.290  23.954  1.00  0.00     0.188 C 
BRANCH   2   3
ATOM      3  C   UNL A   1      30.771  27.778  23.655  1.00  0.00     0.188 C 
BRANCH   3   4
ATOM      4  O   UNL A   1      29.681  27.133  24.290  1.00  0.00    -0.376 OA
BRANCH   4   5
ATOM      5  C   UNL A   1      29.785  25.732  24.474  1.00  0.00     0.202 C 
BRANCH   5   6
ATOM      6  C   UNL A   1      31.031  25.219  25.211  1.00  0.00     0.261 C 
BRANCH   6   7
ATOM      7  O   UNL A   1      31.414  23.867  24.914  1.00  0.00    -0.460 OA
BRANCH   7   8
ATOM      8  C   UNL A   1      32.476  23.681  24.091  1.00  0.00     0.339 C 
ATOM      9  O   UNL A   1      32.856  24.463  23.238  1.00  0.00    -0.246 OA
BRANCH   8  10
ATOM     10  C   UNL A   1      33.184  22.427  24.476  1.00  0.00     0.074 A 
ATOM     11  C   UNL A   1      37.286  19.529  24.962  1.00  0.00     0.046 C 
ATOM     12  C   UNL A   1      36.627  20.876  24.844  1.00  0.00    -0.027 A 
ATOM     13  C   UNL A   1      37.446  21.999  24.662  1.00  0.00     0.005 A 
ATOM     14  C   UNL A   1      35.230  21.051  24.813  1.00  0.00     0.052 A 
ATOM     15  C   UNL A   1      36.891  23.257  24.443  1.00  0.00     0.001 A 
ATOM     16  C   UNL A   1      34.657  22.310  24.538  1.00  0.00     0.013 A 
ATOM     17  N   UNL A   1      34.374  19.972  25.088  1.00  0.00    -0.322 N 
ATOM     18  C   UNL A   1      35.507  23.410  24.365  1.00  0.00     0.011 A 
ATOM     19  C   UNL A   1      33.014  20.063  25.133  1.00  0.00     0.249 A 
ATOM     20  H   UNL A   1      34.782  19.093  25.259  1.00  0.00     0.170 HD
ATOM     21  C   UNL A   1      32.418  21.365  24.779  1.00  0.00     0.088 A 
ATOM     22  O   UNL A   1      32.304  19.112  25.437  1.00  0.00    -0.270 OA
ENDBRANCH   8  10
ENDBRANCH   7   8
ENDBRANCH   6   7
ENDBRANCH   5   6
ENDBRANCH   4   5
ENDBRANCH   3   4
ENDBRANCH   2   3
ENDBRANCH   1   2
BRANCH   1  23
ATOM     23  C   UNL A   1      32.640  28.875  25.569  1.00  0.00     0.202 C 
BRANCH  23  24
ATOM     24  C   UNL A   1      32.722  28.838  27.100  1.00  0.00     0.261 C 
BRANCH  24  25
ATOM     25  O   UNL A   1      34.056  28.784  27.634  1.00  0.00    -0.460 OA
BRANCH  25  26
ATOM     26  C   UNL A   1      34.645  29.984  27.871  1.00  0.00     0.338 C 
ATOM     27  O   UNL A   1      34.101  31.075  27.925  1.00  0.00    -0.246 OA
BRANCH  26  28
ATOM     28  C   UNL A   1      36.055  29.764  28.254  1.00  0.00     0.060 A 
ATOM     29  C   UNL A   1      36.397  29.377  29.550  1.00  0.00     0.016 A 
ATOM     30  C   UNL A   1      37.051  29.940  27.281  1.00  0.00     0.016 A 
ATOM     31  C   UNL A   1      37.739  29.141  29.866  1.00  0.00     0.010 A 
ATOM     32  C   UNL A   1      38.392  29.724  27.604  1.00  0.00     0.010 A 
ATOM     33  C   UNL A   1      38.744  29.301  28.893  1.00  0.00    -0.014 A 
BRANCH  33  34
ATOM     34  C   UNL A   1      40.131  28.863  29.186  1.00  0.00     0.031 A 
ATOM     35  C   UNL A   1      40.631  27.505  28.802  1.00  0.00     0.074 A 
ATOM     36  C   UNL A   1      40.947  29.732  29.811  1.00  0.00     0.049 A 
ATOM     37  N   UNL A   1      41.844  27.025  28.902  1.00  0.00    -0.248 NA
ATOM     38  C   UNL A   1      39.653  26.560  28.245  1.00  0.00     0.031 C 
ATOM     39  C   UNL A   1      40.556  31.073  30.249  1.00  0.00     0.029 A 
ATOM     40  N   UNL A   1      42.268  29.633  30.169  1.00  0.00    -0.354 N 
ATOM     41  C   UNL A   1      41.787  25.732  28.398  1.00  0.00     0.074 A 
ATOM     42  C   UNL A   1      40.404  25.483  28.044  1.00  0.00     0.031 C 
ATOM     43  C   UNL A   1      41.623  31.685  30.784  1.00  0.00     0.029 A 
ATOM     44  C   UNL A   1      42.766  30.775  30.750  1.00  0.00     0.049 A 
ATOM     45  H   UNL A   1      42.807  28.822  30.025  1.00  0.00     0.167 HD
ATOM     46  C   UNL A   1      42.802  24.850  28.230  1.00  0.00     0.031 A 
ATOM     47  C   UNL A   1      44.005  31.074  31.190  1.00  0.00     0.031 A 
ATOM     48  C   UNL A   1      44.174  25.115  28.593  1.00  0.00     0.049 A 
ATOM     49  C   UNL A   1      45.108  30.070  31.015  1.00  0.00     0.074 A 
ATOM     50  C   UNL A   1      45.278  24.301  28.407  1.00  0.00     0.029 A 
ATOM     51  N   UNL A   1      44.632  26.266  29.218  1.00  0.00    -0.354 N 
ATOM     52  N   UNL A   1      45.054  28.881  30.462  1.00  0.00    -0.248 NA
ATOM     53  C   UNL A   1      46.442  30.449  31.500  1.00  0.00     0.031 C 
ATOM     54  C   UNL A   1      46.387  24.925  28.983  1.00  0.00     0.029 A 
ATOM     55  C   UNL A   1      45.994  26.166  29.456  1.00  0.00     0.049 A 
ATOM     56  H   UNL A   1      44.073  27.042  29.455  1.00  0.00     0.167 HD
ATOM     57  C   UNL A   1      46.348  28.378  30.516  1.00  0.00     0.074 A 
ATOM     58  C   UNL A   1      47.169  29.398  31.138  1.00  0.00     0.031 C 
ATOM     59  C   UNL A   1      46.809  27.178  30.086  1.00  0.00     0.031 A 
BRANCH  46  60
ATOM     60  C   UNL A   1      42.502  23.514  27.597  1.00  0.00    -0.014 A 
ATOM     61  C   UNL A   1      41.874  22.503  28.350  1.00  0.00     0.010 A 
ATOM     62  C   UNL A   1      42.985  23.205  26.313  1.00  0.00     0.010 A 
ATOM     63  C   UNL A   1      41.770  21.202  27.849  1.00  0.00     0.020 A 
ATOM     64  C   UNL A   1      42.857  21.912  25.795  1.00  0.00     0.020 A 
ATOM     65  C   UNL A   1      42.274  20.913  26.579  1.00  0.00     0.054 A 
BRANCH  65  66
ATOM     66  S   UNL A   1      42.170  19.208  25.963  1.00  0.00     0.124 S 
ATOM     67  O   UNL A   1      40.738  19.051  25.729  1.00  0.00    -0.237 OA
ATOM     68  O   UNL A   1      43.005  19.251  24.766  1.00  0.00    -0.237 OA
ATOM     69  O   UNL A   1      42.716  18.415  27.063  1.00  0.00    -0.744 OA
ENDBRANCH  65  66
ENDBRANCH  46  60
BRANCH  47  70
ATOM     70  C   UNL A   1      44.253  32.421  31.770  1.00  0.00    -0.014 A 
ATOM     71  C   UNL A   1      44.708  33.474  30.954  1.00  0.00     0.010 A 
ATOM     72  C   UNL A   1      44.146  32.628  33.157  1.00  0.00     0.010 A 
ATOM     73  C   UNL A   1      45.114  34.684  31.520  1.00  0.00     0.020 A 
ATOM     74  C   UNL A   1      44.523  33.849  33.722  1.00  0.00     0.020 A 
ATOM     75  C   UNL A   1      45.036  34.857  32.904  1.00  0.00     0.054 A 
BRANCH  75  76
ATOM     76  S   UNL A   1      45.641  36.409  33.622  1.00  0.00     0.124 S 
ATOM     77  O   UNL A   1      44.627  37.360  33.175  1.00  0.00    -0.237 OA
ATOM     78  O   UNL A   1      45.644  36.118  35.053  1.00  0.00    -0.237 OA
ATOM     79  O   UNL A   1      46.961  36.573  33.019  1.00  0.00    -0.744 OA
ENDBRANCH  75  76
ENDBRANCH  47  70
BRANCH  59  80
ATOM     80  C   UNL A   1      48.274  26.866  30.271  1.00  0.00    -0.014 A 
ATOM     81  C   UNL A   1      48.717  26.270  31.467  1.00  0.00     0.010 A 
ATOM     82  C   UNL A   1      49.227  27.288  29.326  1.00  0.00     0.010 A 
ATOM     83  C   UNL A   1      50.083  26.142  31.736  1.00  0.00     0.020 A 
ATOM     84  C   UNL A   1      50.593  27.133  29.577  1.00  0.00     0.020 A 
ATOM     85  C   UNL A   1      51.014  26.587  30.793  1.00  0.00     0.054 A 
BRANCH  85  86
ATOM     86  S   UNL A   1      52.781  26.458  31.179  1.00  0.00     0.124 S 
ATOM     87  O   UNL A   1      53.383  26.401  29.851  1.00  0.00    -0.237 OA
ATOM     88  O   UNL A   1      53.035  27.684  31.933  1.00  0.00    -0.237 OA
ATOM     89  O   UNL A   1      52.872  25.226  31.960  1.00  0.00    -0.744 OA
ENDBRANCH  85  86
ENDBRANCH  59  80
ENDBRANCH  33  34
ENDBRANCH  26  28
ENDBRANCH  25  26
ENDBRANCH  24  25
ENDBRANCH  23  24
ENDBRANCH   1  23
TORSDOF 20
ENDMDL
MODEL 3
REMARK VINA RESULT:      -9.9      1.678      8.487
REMARK SMILES Cc1cccc2c(C(=O)OCCOCCOCCOC(=O)c3ccc(-c4c5nc(c(-c6ccc(S(=O)(=O)[O-])cc6)c6ccc([nH]6)c(-c6ccc(S(=O)(=O)[O-])cc6)c6nc(c(-c7ccc(S(=O)(=O)[O-])cc7)c7ccc4[nH]7)C=C6)C=C5)cc3)cc(=O)[nH]c12
REMARK SMILES IDX 16 1 15 2 14 3 13 4 12 5 11 6 10 7 8 8 9 9 7 10 1 11 2 12
REMARK SMILES IDX 3 13 86 14 4 15 6 16 85 17 5 18 83 19 82 21 84 22 17 23
REMARK SMILES IDX 18 24 19 25 20 26 21 27 22 28 23 29 81 30 24 31 80 32 25 33
REMARK SMILES IDX 26 34 27 35 74 36 28 37 79 38 73 39 75 40 29 41 78 42 72 43
REMARK SMILES IDX 71 44 30 46 60 47 41 48 59 49 42 50 45 51 58 52 76 53 43 54
REMARK SMILES IDX 44 55 57 57 77 58 46 59 31 60 32 61 40 62 33 63 39 64 34 65
REMARK SMILES IDX 35 66 36 67 37 68 38 69 61 70 62 71 70 72 63 73 69 74 64 75
REMARK SMILES IDX 65 76 66 77 67 78 68 79 47 80 48 81 56 82 49 83 55 84 50 85
REMARK SMILES IDX 51 86 52 87 53 88 54 89
REMARK H PARENT 85 20 75 45 45 56
REMARK Flexibility Score: inf
ROOT
ATOM      1  O   UNL A   1      31.865  29.377  24.503  1.00  0.00    -0.376 OA
ENDROOT
BRANCH   1   2
ATOM      2  C   UNL A   1      30.545  29.583  24.013  1.00  0.00     0.188 C 
BRANCH   2   3
ATOM      3  C   UNL A   1      30.170  29.116  22.590  1.00  0.00     0.188 C 
BRANCH   3   4
ATOM      4  O   UNL A   1      29.282  28.011  22.582  1.00  0.00    -0.376 OA
BRANCH   4   5
ATOM      5  C   UNL A   1      29.077  27.349  23.817  1.00  0.00     0.202 C 
BRANCH   5   6
ATOM      6  C   UNL A   1      29.595  25.907  23.927  1.00  0.00     0.261 C 
BRANCH   6   7
ATOM      7  O   UNL A   1      30.044  25.507  25.231  1.00  0.00    -0.460 OA
BRANCH   7   8
ATOM      8  C   UNL A   1      31.197  26.050  25.693  1.00  0.00     0.339 C 
ATOM      9  O   UNL A   1      31.297  26.781  26.663  1.00  0.00    -0.246 OA
BRANCH   8  10
ATOM     10  C   UNL A   1      32.345  25.511  24.909  1.00  0.00     0.074 A 
ATOM     11  C   UNL A   1      36.568  22.804  24.370  1.00  0.00     0.046 C 
ATOM     12  C   UNL A   1      35.275  23.107  25.077  1.00  0.00    -0.027 A 
ATOM     13  C   UNL A   1      35.013  22.451  26.287  1.00  0.00     0.005 A 
ATOM     14  C   UNL A   1      34.364  24.084  24.630  1.00  0.00     0.052 A 
ATOM     15  C   UNL A   1      33.883  22.767  27.038  1.00  0.00     0.001 A 
ATOM     16  C   UNL A   1      33.246  24.450  25.408  1.00  0.00     0.013 A 
ATOM     17  N   UNL A   1      34.536  24.695  23.377  1.00  0.00    -0.322 N 
ATOM     18  C   UNL A   1      33.014  23.770  26.610  1.00  0.00     0.011 A 
ATOM     19  C   UNL A   1      33.676  25.607  22.843  1.00  0.00     0.249 A 
ATOM     20  H   UNL A   1      35.330  24.448  22.850  1.00  0.00     0.170 HD
ATOM     21  C   UNL A   1      32.546  26.037  23.689  1.00  0.00     0.088 A 
ATOM     22  O   UNL A   1      33.829  26.073  21.720  1.00  0.00    -0.270 OA
ENDBRANCH   8  10
ENDBRANCH   7   8
ENDBRANCH   6   7
ENDBRANCH   5   6
ENDBRANCH   4   5
ENDBRANCH   3   4
ENDBRANCH   2   3
ENDBRANCH   1   2
BRANCH   1  23
ATOM     23  C   UNL A   1      32.251  29.981  25.730  1.00  0.00     0.202 C 
BRANCH  23  24
ATOM     24  C   UNL A   1      33.592  29.583  26.360  1.00  0.00     0.261 C 
BRANCH  24  25
ATOM     25  O   UNL A   1      33.734  29.925  27.748  1.00  0.00    -0.460 OA
BRANCH  25  26
ATOM     26  C   UNL A   1      34.633  30.905  28.025  1.00  0.00     0.338 C 
ATOM     27  O   UNL A   1      34.399  32.088  28.212  1.00  0.00    -0.246 OA
BRANCH  26  28
ATOM     28  C   UNL A   1      35.958  30.295  28.264  1.00  0.00     0.060 A 
ATOM     29  C   UNL A   1      36.938  30.294  27.273  1.00  0.00     0.016 A 
ATOM     30  C   UNL A   1      36.218  29.725  29.520  1.00  0.00     0.016 A 
ATOM     31  C   UNL A   1      38.194  29.742  27.548  1.00  0.00     0.010 A 
ATOM     32  C   UNL A   1      37.465  29.156  29.786  1.00  0.00     0.010 A 
ATOM     33  C   UNL A   1      38.470  29.180  28.809  1.00  0.00    -0.014 A 
BRANCH  33  34
ATOM     34  C   UNL A   1      39.856  28.776  29.150  1.00  0.00     0.031 A 
ATOM     35  C   UNL A   1      40.402  27.430  28.788  1.00  0.00     0.074 A 
ATOM     36  C   UNL A   1      40.630  29.667  29.799  1.00  0.00     0.049 A 
ATOM     37  N   UNL A   1      41.621  26.979  28.930  1.00  0.00    -0.248 NA
ATOM     38  C   UNL A   1      39.466  26.460  28.202  1.00  0.00     0.031 C 
ATOM     39  C   UNL A   1      40.192  30.999  30.219  1.00  0.00     0.029 A 
ATOM     40  N   UNL A   1      41.939  29.600  30.202  1.00  0.00    -0.354 N 
ATOM     41  C   UNL A   1      41.613  25.684  28.430  1.00  0.00     0.074 A 
ATOM     42  C   UNL A   1      40.250  25.401  28.030  1.00  0.00     0.031 C 
ATOM     43  C   UNL A   1      41.225  31.638  30.788  1.00  0.00     0.029 A 
ATOM     44  C   UNL A   1      42.390  30.756  30.795  1.00  0.00     0.049 A 
ATOM     45  H   UNL A   1      42.503  28.803  30.079  1.00  0.00     0.167 HD
ATOM     46  C   UNL A   1      42.654  24.827  28.299  1.00  0.00     0.031 A 
ATOM     47  C   UNL A   1      43.606  31.086  31.276  1.00  0.00     0.031 A 
ATOM     48  C   UNL A   1      44.006  25.126  28.708  1.00  0.00     0.049 A 
ATOM     49  C   UNL A   1      44.738  30.108  31.142  1.00  0.00     0.074 A 
ATOM     50  C   UNL A   1      45.136  24.338  28.562  1.00  0.00     0.029 A 
ATOM     51  N   UNL A   1      44.415  26.290  29.343  1.00  0.00    -0.354 N 
ATOM     52  N   UNL A   1      44.731  28.918  30.592  1.00  0.00    -0.248 NA
ATOM     53  C   UNL A   1      46.045  30.521  31.671  1.00  0.00     0.031 C 
ATOM     54  C   UNL A   1      46.209  24.990  29.173  1.00  0.00     0.029 A 
ATOM     55  C   UNL A   1      45.770  26.223  29.628  1.00  0.00     0.049 A 
ATOM     56  H   UNL A   1      43.829  27.052  29.559  1.00  0.00     0.167 HD
ATOM     57  C   UNL A   1      46.035  28.446  30.692  1.00  0.00     0.074 A 
ATOM     58  C   UNL A   1      46.809  29.486  31.337  1.00  0.00     0.031 C 
ATOM     59  C   UNL A   1      46.539  27.256  30.281  1.00  0.00     0.031 A 
BRANCH  46  60
ATOM     60  C   UNL A   1      42.408  23.482  27.662  1.00  0.00    -0.014 A 
ATOM     61  C   UNL A   1      42.009  22.389  28.455  1.00  0.00     0.010 A 
ATOM     62  C   UNL A   1      42.726  23.261  26.310  1.00  0.00     0.010 A 
ATOM     63  C   UNL A   1      41.971  21.098  27.920  1.00  0.00     0.020 A 
ATOM     64  C   UNL A   1      42.661  21.975  25.763  1.00  0.00     0.020 A 
ATOM     65  C   UNL A   1      42.310  20.898  26.580  1.00  0.00     0.054 A 
BRANCH  65  66
ATOM     66  S   UNL A   1      42.298  19.209  25.915  1.00  0.00     0.124 S 
ATOM     67  O   UNL A   1      40.882  19.000  25.629  1.00  0.00    -0.237 OA
ATOM     68  O   UNL A   1      43.170  19.320  24.749  1.00  0.00    -0.237 OA
ATOM     69  O   UNL A   1      42.839  18.408  27.012  1.00  0.00    -0.744 OA
ENDBRANCH  65  66
ENDBRANCH  46  60
BRANCH  47  70
ATOM     70  C   UNL A   1      43.801  32.440  31.859  1.00  0.00    -0.014 A 
ATOM     71  C   UNL A   1      43.443  32.697  33.196  1.00  0.00     0.010 A 
ATOM     72  C   UNL A   1      44.236  33.506  31.052  1.00  0.00     0.010 A 
ATOM     73  C   UNL A   1      43.452  34.001  33.695  1.00  0.00     0.020 A 
ATOM     74  C   UNL A   1      44.277  34.808  31.557  1.00  0.00     0.020 A 
ATOM     75  C   UNL A   1      43.853  35.052  32.865  1.00  0.00     0.054 A 
BRANCH  75  76
ATOM     76  S   UNL A   1      43.783  36.745  33.511  1.00  0.00     0.124 S 
ATOM     77  O   UNL A   1      42.597  36.691  34.361  1.00  0.00    -0.237 OA
ATOM     78  O   UNL A   1      45.056  36.871  34.215  1.00  0.00    -0.237 OA
ATOM     79  O   UNL A   1      43.654  37.564  32.309  1.00  0.00    -0.744 OA
ENDBRANCH  75  76
ENDBRANCH  47  70
BRANCH  59  80
ATOM     80  C   UNL A   1      48.003  26.980  30.517  1.00  0.00    -0.014 A 
ATOM     81  C   UNL A   1      48.415  26.356  31.710  1.00  0.00     0.010 A 
ATOM     82  C   UNL A   1      48.981  27.462  29.628  1.00  0.00     0.010 A 
ATOM     83  C   UNL A   1      49.772  26.257  32.031  1.00  0.00     0.020 A 
ATOM     84  C   UNL A   1      50.340  27.338  29.930  1.00  0.00     0.020 A 
ATOM     85  C   UNL A   1      50.727  26.762  31.144  1.00  0.00     0.054 A 
BRANCH  85  86
ATOM     86  S   UNL A   1      52.480  26.670  31.599  1.00  0.00     0.124 S 
ATOM     87  O   UNL A   1      52.435  25.901  32.840  1.00  0.00    -0.237 OA
ATOM     88  O   UNL A   1      53.074  25.984  30.455  1.00  0.00    -0.237 OA
ATOM     89  O   UNL A   1      52.870  28.071  31.747  1.00  0.00    -0.744 OA
ENDBRANCH  85  86
ENDBRANCH  59  80
ENDBRANCH  33  34
ENDBRANCH  26  28
ENDBRANCH  25  26
ENDBRANCH  24  25
ENDBRANCH  23  24
ENDBRANCH   1  23
TORSDOF 20
ENDMDL
