MODEL 1
REMARK VINA RESULT:      -9.1      0.000      0.000
REMARK SMILES O=C(CCCN1C(=O)/C(=C\c2ccc(O)c(O)c2)SC1=S)OCCOCCOCCOC(=O)c1ccc(-c2c3nc(c(-c4ccc(S(=O)(=O)[O-])cc4)c4ccc([nH]4)c(-c4ccc(S(=O)(=O)[O-])cc4)c4nc(c(-c5ccc(S(=O)(=O)[O-])cc5)c5ccc2[nH]5)C=C4)C=C3)cc1
REMARK SMILES IDX 26 1 25 2 24 3 23 4 22 5 2 6 1 7 3 8 4 9 5 10 6 11 7 12
REMARK SMILES IDX 20 13 8 14 9 15 19 16 21 17 10 18 11 19 12 20 18 21 13 22
REMARK SMILES IDX 16 23 14 24 17 25 15 27 27 29 28 30 29 31 30 32 31 33 32 34
REMARK SMILES IDX 33 35 34 36 35 37 93 38 36 39 92 40 37 41 38 42 39 43 86 44
REMARK SMILES IDX 40 45 91 46 85 47 87 48 41 49 90 50 84 51 83 52 42 54 72 55
REMARK SMILES IDX 53 56 71 57 54 58 57 59 70 60 88 61 55 62 56 63 69 65 89 66
REMARK SMILES IDX 58 67 43 68 44 69 52 70 45 71 51 72 46 73 47 74 48 75 49 76
REMARK SMILES IDX 50 77 73 78 74 79 82 80 75 81 81 82 76 83 77 84 78 85 79 86
REMARK SMILES IDX 80 87 59 88 60 89 68 90 61 91 67 92 62 93 63 94 64 95 65 96
REMARK SMILES IDX 66 97
REMARK H PARENT 17 26 15 28 87 53 57 64
REMARK Flexibility Score: inf
ROOT
ATOM      1  C   UNL A   1      34.467  31.601  28.557  1.00  0.00     0.188 C 
ENDROOT
BRANCH   1   2
ATOM      2  O   UNL A   1      34.209  31.074  27.247  1.00  0.00    -0.376 OA
BRANCH   2   3
ATOM      3  C   UNL A   1      33.241  30.039  27.222  1.00  0.00     0.202 C 
BRANCH   3   4
ATOM      4  C   UNL A   1      32.554  29.845  25.872  1.00  0.00     0.261 C 
BRANCH   4   5
ATOM      5  O   UNL A   1      33.317  29.705  24.664  1.00  0.00    -0.463 OA
BRANCH   5   6
ATOM      6  C   UNL A   1      33.418  28.535  24.012  1.00  0.00     0.305 C 
ATOM      7  O   UNL A   1      34.039  27.601  24.515  1.00  0.00    -0.252 OA
BRANCH   6   8
ATOM      8  C   UNL A   1      32.666  28.375  22.700  1.00  0.00     0.124 C 
BRANCH   8   9
ATOM      9  C   UNL A   1      32.843  27.151  21.807  1.00  0.00     0.034 C 
BRANCH   9  10
ATOM     10  C   UNL A   1      32.126  25.800  22.042  1.00  0.00     0.128 C 
BRANCH  10  11
ATOM     11  N   UNL A   1      32.072  25.144  23.368  1.00  0.00    -0.293 N 
ATOM     12  C   UNL A   1      33.042  24.183  23.688  1.00  0.00     0.266 C 
ATOM     13  C   UNL A   1      30.957  25.122  24.184  1.00  0.00     0.148 C 
ATOM     14  O   UNL A   1      33.936  23.790  22.950  1.00  0.00    -0.268 OA
ATOM     15  C   UNL A   1      32.779  23.550  25.015  1.00  0.00     0.081 C 
ATOM     16  S   UNL A   1      31.176  23.968  25.503  1.00  0.00    -0.054 SA
ATOM     17  S   UNL A   1      29.522  25.955  24.024  1.00  0.00    -0.052 S 
ATOM     18  C   UNL A   1      33.592  22.834  25.816  1.00  0.00     0.029 C 
BRANCH  18  19
ATOM     19  C   UNL A   1      35.044  22.605  25.696  1.00  0.00    -0.020 A 
ATOM     20  C   UNL A   1      35.914  23.675  25.974  1.00  0.00     0.012 A 
ATOM     21  C   UNL A   1      35.607  21.360  25.422  1.00  0.00     0.058 A 
ATOM     22  C   UNL A   1      37.300  23.570  25.858  1.00  0.00     0.051 A 
ATOM     23  C   UNL A   1      36.999  21.239  25.368  1.00  0.00     0.157 A 
ATOM     24  C   UNL A   1      37.836  22.342  25.534  1.00  0.00     0.157 A 
BRANCH  23  25
ATOM     25  O   UNL A   1      37.561  20.010  25.164  1.00  0.00    -0.504 OA
ATOM     26  H   UNL A   1      37.015  19.255  25.063  1.00  0.00     0.293 HD
ENDBRANCH  23  25
BRANCH  24  27
ATOM     27  O   UNL A   1      39.183  22.171  25.382  1.00  0.00    -0.504 OA
ATOM     28  H   UNL A   1      39.596  21.394  25.706  1.00  0.00     0.293 HD
ENDBRANCH  24  27
ENDBRANCH  18  19
ENDBRANCH  10  11
ENDBRANCH   9  10
ENDBRANCH   8   9
ENDBRANCH   6   8
ENDBRANCH   5   6
ENDBRANCH   4   5
ENDBRANCH   3   4
ENDBRANCH   2   3
ENDBRANCH   1   2
BRANCH   1  29
ATOM     29  C   UNL A   1      35.528  32.702  28.567  1.00  0.00     0.188 C 
BRANCH  29  30
ATOM     30  O   UNL A   1      35.804  33.270  29.845  1.00  0.00    -0.376 OA
BRANCH  30  31
ATOM     31  C   UNL A   1      35.511  32.455  30.980  1.00  0.00     0.202 C 
BRANCH  31  32
ATOM     32  C   UNL A   1      36.817  32.010  31.644  1.00  0.00     0.261 C 
BRANCH  32  33
ATOM     33  O   UNL A   1      36.662  30.647  32.046  1.00  0.00    -0.460 OA
BRANCH  33  34
ATOM     34  C   UNL A   1      36.963  29.779  31.052  1.00  0.00     0.338 C 
ATOM     35  O   UNL A   1      36.172  29.117  30.398  1.00  0.00    -0.246 OA
BRANCH  34  36
ATOM     36  C   UNL A   1      38.381  29.973  30.686  1.00  0.00     0.060 A 
ATOM     37  C   UNL A   1      38.667  30.358  29.369  1.00  0.00     0.016 A 
ATOM     38  C   UNL A   1      39.410  29.777  31.615  1.00  0.00     0.016 A 
ATOM     39  C   UNL A   1      39.982  30.422  28.940  1.00  0.00     0.010 A 
ATOM     40  C   UNL A   1      40.730  29.818  31.182  1.00  0.00     0.010 A 
ATOM     41  C   UNL A   1      40.997  30.047  29.825  1.00  0.00    -0.014 A 
BRANCH  41  42
ATOM     42  C   UNL A   1      42.242  29.524  29.240  1.00  0.00     0.031 A 
ATOM     43  C   UNL A   1      43.413  30.471  29.172  1.00  0.00     0.074 A 
ATOM     44  C   UNL A   1      42.334  28.243  28.863  1.00  0.00     0.049 A 
ATOM     45  N   UNL A   1      44.625  30.259  28.740  1.00  0.00    -0.248 NA
ATOM     46  C   UNL A   1      43.186  31.844  29.665  1.00  0.00     0.031 C 
ATOM     47  C   UNL A   1      41.263  27.252  28.961  1.00  0.00     0.029 A 
ATOM     48  N   UNL A   1      43.390  27.557  28.332  1.00  0.00    -0.354 N 
ATOM     49  C   UNL A   1      45.293  31.470  28.893  1.00  0.00     0.074 A 
ATOM     50  C   UNL A   1      44.352  32.421  29.429  1.00  0.00     0.031 C 
ATOM     51  C   UNL A   1      41.722  26.075  28.503  1.00  0.00     0.029 A 
ATOM     52  C   UNL A   1      43.101  26.245  28.055  1.00  0.00     0.049 A 
ATOM     53  H   UNL A   1      44.270  27.965  28.164  1.00  0.00     0.167 HD
ATOM     54  C   UNL A   1      46.584  31.758  28.613  1.00  0.00     0.031 A 
ATOM     55  C   UNL A   1      43.877  25.300  27.493  1.00  0.00     0.031 A 
ATOM     56  C   UNL A   1      47.495  30.794  28.063  1.00  0.00     0.049 A 
ATOM     57  C   UNL A   1      45.292  25.662  27.131  1.00  0.00     0.074 A 
ATOM     58  C   UNL A   1      48.828  30.955  27.735  1.00  0.00     0.029 A 
ATOM     59  N   UNL A   1      47.157  29.483  27.753  1.00  0.00    -0.354 N 
ATOM     60  N   UNL A   1      45.920  26.806  27.287  1.00  0.00    -0.248 NA
ATOM     61  C   UNL A   1      46.110  24.600  26.535  1.00  0.00     0.031 C 
ATOM     62  C   UNL A   1      49.277  29.759  27.165  1.00  0.00     0.029 A 
ATOM     63  C   UNL A   1      48.248  28.830  27.213  1.00  0.00     0.049 A 
ATOM     64  H   UNL A   1      46.270  29.080  27.895  1.00  0.00     0.167 HD
ATOM     65  C   UNL A   1      47.222  26.589  26.850  1.00  0.00     0.074 A 
ATOM     66  C   UNL A   1      47.288  25.201  26.431  1.00  0.00     0.031 C 
ATOM     67  C   UNL A   1      48.273  27.447  26.805  1.00  0.00     0.031 A 
BRANCH  54  68
ATOM     68  C   UNL A   1      47.051  33.173  28.839  1.00  0.00    -0.014 A 
ATOM     69  C   UNL A   1      47.534  33.604  30.088  1.00  0.00     0.010 A 
ATOM     70  C   UNL A   1      47.014  34.088  27.770  1.00  0.00     0.010 A 
ATOM     71  C   UNL A   1      47.935  34.931  30.274  1.00  0.00     0.020 A 
ATOM     72  C   UNL A   1      47.443  35.407  27.944  1.00  0.00     0.020 A 
ATOM     73  C   UNL A   1      47.887  35.824  29.200  1.00  0.00     0.054 A 
BRANCH  73  74
ATOM     74  S   UNL A   1      48.438  37.532  29.461  1.00  0.00     0.124 S 
ATOM     75  O   UNL A   1      49.723  37.545  28.765  1.00  0.00    -0.237 OA
ATOM     76  O   UNL A   1      47.375  38.311  28.829  1.00  0.00    -0.237 OA
ATOM     77  O   UNL A   1      48.517  37.655  30.915  1.00  0.00    -0.744 OA
ENDBRANCH  73  74
ENDBRANCH  54  68
BRANCH  55  78
ATOM     78  C   UNL A   1      43.331  23.938  27.254  1.00  0.00    -0.014 A 
ATOM     79  C   UNL A   1      43.367  23.364  25.973  1.00  0.00     0.010 A 
ATOM     80  C   UNL A   1      42.783  23.198  28.319  1.00  0.00     0.010 A 
ATOM     81  C   UNL A   1      42.847  22.084  25.754  1.00  0.00     0.020 A 
ATOM     82  C   UNL A   1      42.291  21.906  28.112  1.00  0.00     0.020 A 
ATOM     83  C   UNL A   1      42.314  21.363  26.827  1.00  0.00     0.054 A 
BRANCH  83  84
ATOM     84  S   UNL A   1      41.682  19.690  26.527  1.00  0.00     0.124 S 
ATOM     85  O   UNL A   1      40.244  19.874  26.696  1.00  0.00    -0.237 OA
ATOM     86  O   UNL A   1      42.132  19.424  25.163  1.00  0.00    -0.237 OA
ATOM     87  O   UNL A   1      42.336  18.886  27.558  1.00  0.00    -0.744 OA
ENDBRANCH  83  84
ENDBRANCH  55  78
BRANCH  67  88
ATOM     88  C   UNL A   1      49.593  26.889  26.345  1.00  0.00    -0.014 A 
ATOM     89  C   UNL A   1      50.027  27.019  25.015  1.00  0.00     0.010 A 
ATOM     90  C   UNL A   1      50.425  26.249  27.282  1.00  0.00     0.010 A 
ATOM     91  C   UNL A   1      51.247  26.466  24.617  1.00  0.00     0.020 A 
ATOM     92  C   UNL A   1      51.661  25.729  26.897  1.00  0.00     0.020 A 
ATOM     93  C   UNL A   1      52.053  25.821  25.561  1.00  0.00     0.054 A 
BRANCH  93  94
ATOM     94  S   UNL A   1      53.635  25.121  25.022  1.00  0.00     0.124 S 
ATOM     95  O   UNL A   1      53.430  23.694  25.256  1.00  0.00    -0.237 OA
ATOM     96  O   UNL A   1      53.703  25.525  23.620  1.00  0.00    -0.237 OA
ATOM     97  O   UNL A   1      54.614  25.761  25.897  1.00  0.00    -0.744 OA
ENDBRANCH  93  94
ENDBRANCH  67  88
ENDBRANCH  41  42
ENDBRANCH  34  36
ENDBRANCH  33  34
ENDBRANCH  32  33
ENDBRANCH  31  32
ENDBRANCH  30  31
ENDBRANCH  29  30
ENDBRANCH   1  29
TORSDOF 26
ENDMDL
MODEL 2
REMARK VINA RESULT:      -9.0      2.210      9.083
REMARK SMILES O=C(CCCN1C(=O)/C(=C\c2ccc(O)c(O)c2)SC1=S)OCCOCCOCCOC(=O)c1ccc(-c2c3nc(c(-c4ccc(S(=O)(=O)[O-])cc4)c4ccc([nH]4)c(-c4ccc(S(=O)(=O)[O-])cc4)c4nc(c(-c5ccc(S(=O)(=O)[O-])cc5)c5ccc2[nH]5)C=C4)C=C3)cc1
REMARK SMILES IDX 26 1 25 2 24 3 23 4 22 5 2 6 1 7 3 8 4 9 5 10 6 11 7 12
REMARK SMILES IDX 20 13 8 14 9 15 19 16 21 17 10 18 11 19 12 20 18 21 13 22
REMARK SMILES IDX 16 23 14 24 17 25 15 27 27 29 28 30 29 31 30 32 31 33 32 34
REMARK SMILES IDX 33 35 34 36 35 37 93 38 36 39 92 40 37 41 38 42 39 43 86 44
REMARK SMILES IDX 40 45 91 46 85 47 87 48 41 49 90 50 84 51 83 52 42 54 72 55
REMARK SMILES IDX 53 56 71 57 54 58 57 59 70 60 88 61 55 62 56 63 69 65 89 66
REMARK SMILES IDX 58 67 43 68 44 69 52 70 45 71 51 72 46 73 47 74 48 75 49 76
REMARK SMILES IDX 50 77 73 78 74 79 82 80 75 81 81 82 76 83 77 84 78 85 79 86
REMARK SMILES IDX 80 87 59 88 60 89 68 90 61 91 67 92 62 93 63 94 64 95 65 96
REMARK SMILES IDX 66 97
REMARK H PARENT 17 26 15 28 87 53 57 64
REMARK Flexibility Score: inf
ROOT
ATOM      1  C   UNL A   1      33.075  34.172  28.405  1.00  0.00     0.188 C 
ENDROOT
BRANCH   1   2
ATOM      2  O   UNL A   1      33.133  33.165  27.384  1.00  0.00    -0.376 OA
BRANCH   2   3
ATOM      3  C   UNL A   1      31.865  32.769  26.891  1.00  0.00     0.202 C 
BRANCH   3   4
ATOM      4  C   UNL A   1      31.695  31.263  26.709  1.00  0.00     0.261 C 
BRANCH   4   5
ATOM      5  O   UNL A   1      32.640  30.336  27.269  1.00  0.00    -0.463 OA
BRANCH   5   6
ATOM      6  C   UNL A   1      32.453  29.007  27.221  1.00  0.00     0.305 C 
ATOM      7  O   UNL A   1      31.386  28.521  27.590  1.00  0.00    -0.252 OA
BRANCH   6   8
ATOM      8  C   UNL A   1      33.550  28.148  26.612  1.00  0.00     0.124 C 
BRANCH   8   9
ATOM      9  C   UNL A   1      34.096  28.402  25.211  1.00  0.00     0.034 C 
BRANCH   9  10
ATOM     10  C   UNL A   1      33.581  27.682  23.940  1.00  0.00     0.128 C 
BRANCH  10  11
ATOM     11  N   UNL A   1      32.162  27.300  23.758  1.00  0.00    -0.293 N 
ATOM     12  C   UNL A   1      31.186  28.306  23.748  1.00  0.00     0.266 C 
ATOM     13  C   UNL A   1      31.666  26.025  23.954  1.00  0.00     0.148 C 
ATOM     14  O   UNL A   1      31.384  29.503  23.915  1.00  0.00    -0.268 OA
ATOM     15  C   UNL A   1      29.806  27.740  23.660  1.00  0.00     0.081 C 
ATOM     16  S   UNL A   1      29.900  26.044  23.974  1.00  0.00    -0.054 SA
ATOM     17  S   UNL A   1      32.495  24.604  24.216  1.00  0.00    -0.052 S 
ATOM     18  C   UNL A   1      28.642  28.329  23.324  1.00  0.00     0.029 C 
BRANCH  18  19
ATOM     19  C   UNL A   1      28.410  29.678  22.776  1.00  0.00    -0.020 A 
ATOM     20  C   UNL A   1      27.901  30.669  23.633  1.00  0.00     0.012 A 
ATOM     21  C   UNL A   1      28.763  30.053  21.480  1.00  0.00     0.058 A 
ATOM     22  C   UNL A   1      27.616  31.965  23.204  1.00  0.00     0.051 A 
ATOM     23  C   UNL A   1      28.537  31.370  21.068  1.00  0.00     0.157 A 
ATOM     24  C   UNL A   1      27.924  32.303  21.904  1.00  0.00     0.157 A 
BRANCH  23  25
ATOM     25  O   UNL A   1      28.940  31.764  19.823  1.00  0.00    -0.504 OA
ATOM     26  H   UNL A   1      28.754  31.227  19.078  1.00  0.00     0.293 HD
ENDBRANCH  23  25
BRANCH  24  27
ATOM     27  O   UNL A   1      27.654  33.548  21.408  1.00  0.00    -0.504 OA
ATOM     28  H   UNL A   1      28.042  33.825  20.602  1.00  0.00     0.293 HD
ENDBRANCH  24  27
ENDBRANCH  18  19
ENDBRANCH  10  11
ENDBRANCH   9  10
ENDBRANCH   8   9
ENDBRANCH   6   8
ENDBRANCH   5   6
ENDBRANCH   4   5
ENDBRANCH   3   4
ENDBRANCH   2   3
ENDBRANCH   1   2
BRANCH   1  29
ATOM     29  C   UNL A   1      34.413  34.880  28.631  1.00  0.00     0.188 C 
BRANCH  29  30
ATOM     30  O   UNL A   1      35.441  34.070  29.194  1.00  0.00    -0.376 OA
BRANCH  30  31
ATOM     31  C   UNL A   1      35.039  32.805  29.720  1.00  0.00     0.202 C 
BRANCH  31  32
ATOM     32  C   UNL A   1      35.734  31.682  28.946  1.00  0.00     0.261 C 
BRANCH  32  33
ATOM     33  O   UNL A   1      35.969  30.603  29.854  1.00  0.00    -0.460 OA
BRANCH  33  34
ATOM     34  C   UNL A   1      37.082  30.791  30.601  1.00  0.00     0.338 C 
ATOM     35  O   UNL A   1      37.144  31.341  31.691  1.00  0.00    -0.246 OA
BRANCH  34  36
ATOM     36  C   UNL A   1      38.167  29.972  30.025  1.00  0.00     0.060 A 
ATOM     37  C   UNL A   1      38.978  29.249  30.909  1.00  0.00     0.016 A 
ATOM     38  C   UNL A   1      38.389  29.918  28.643  1.00  0.00     0.016 A 
ATOM     39  C   UNL A   1      40.089  28.574  30.432  1.00  0.00     0.010 A 
ATOM     40  C   UNL A   1      39.515  29.261  28.162  1.00  0.00     0.010 A 
ATOM     41  C   UNL A   1      40.406  28.677  29.075  1.00  0.00    -0.014 A 
BRANCH  41  42
ATOM     42  C   UNL A   1      41.820  28.523  28.698  1.00  0.00     0.031 A 
ATOM     43  C   UNL A   1      42.251  27.165  28.208  1.00  0.00     0.074 A 
ATOM     44  C   UNL A   1      42.651  29.572  28.723  1.00  0.00     0.049 A 
ATOM     45  N   UNL A   1      43.420  26.769  27.785  1.00  0.00    -0.248 NA
ATOM     46  C   UNL A   1      41.220  26.108  28.189  1.00  0.00     0.031 C 
ATOM     47  C   UNL A   1      42.288  30.932  29.122  1.00  0.00     0.029 A 
ATOM     48  N   UNL A   1      43.974  29.654  28.391  1.00  0.00    -0.354 N 
ATOM     49  C   UNL A   1      43.266  25.423  27.467  1.00  0.00     0.074 A 
ATOM     50  C   UNL A   1      41.905  25.057  27.772  1.00  0.00     0.031 C 
ATOM     51  C   UNL A   1      43.371  31.718  29.009  1.00  0.00     0.029 A 
ATOM     52  C   UNL A   1      44.501  30.908  28.561  1.00  0.00     0.049 A 
ATOM     53  H   UNL A   1      44.497  28.887  28.063  1.00  0.00     0.167 HD
ATOM     54  C   UNL A   1      44.185  24.570  26.962  1.00  0.00     0.031 A 
ATOM     55  C   UNL A   1      45.763  31.337  28.378  1.00  0.00     0.031 A 
ATOM     56  C   UNL A   1      45.539  24.958  26.684  1.00  0.00     0.049 A 
ATOM     57  C   UNL A   1      46.784  30.352  27.874  1.00  0.00     0.074 A 
ATOM     58  C   UNL A   1      46.568  24.194  26.169  1.00  0.00     0.029 A 
ATOM     59  N   UNL A   1      46.052  26.229  26.910  1.00  0.00    -0.354 N 
ATOM     60  N   UNL A   1      46.630  29.083  27.567  1.00  0.00    -0.248 NA
ATOM     61  C   UNL A   1      48.145  30.862  27.672  1.00  0.00     0.031 C 
ATOM     62  C   UNL A   1      47.721  24.986  26.146  1.00  0.00     0.029 A 
ATOM     63  C   UNL A   1      47.390  26.265  26.569  1.00  0.00     0.049 A 
ATOM     64  H   UNL A   1      45.538  26.992  27.262  1.00  0.00     0.167 HD
ATOM     65  C   UNL A   1      47.864  28.654  27.093  1.00  0.00     0.074 A 
ATOM     66  C   UNL A   1      48.748  29.804  27.148  1.00  0.00     0.031 C 
ATOM     67  C   UNL A   1      48.238  27.429  26.642  1.00  0.00     0.031 A 
BRANCH  54  68
ATOM     68  C   UNL A   1      43.766  23.139  26.742  1.00  0.00    -0.014 A 
ATOM     69  C   UNL A   1      44.149  22.422  25.593  1.00  0.00     0.010 A 
ATOM     70  C   UNL A   1      42.979  22.496  27.716  1.00  0.00     0.010 A 
ATOM     71  C   UNL A   1      43.721  21.104  25.405  1.00  0.00     0.020 A 
ATOM     72  C   UNL A   1      42.576  21.168  27.546  1.00  0.00     0.020 A 
ATOM     73  C   UNL A   1      42.937  20.486  26.384  1.00  0.00     0.054 A 
BRANCH  73  74
ATOM     74  S   UNL A   1      42.419  18.766  26.128  1.00  0.00     0.124 S 
ATOM     75  O   UNL A   1      41.018  18.926  25.744  1.00  0.00    -0.237 OA
ATOM     76  O   UNL A   1      43.315  18.318  25.064  1.00  0.00    -0.237 OA
ATOM     77  O   UNL A   1      42.638  18.139  27.429  1.00  0.00    -0.744 OA
ENDBRANCH  73  74
ENDBRANCH  54  68
BRANCH  55  78
ATOM     78  C   UNL A   1      46.114  32.753  28.664  1.00  0.00    -0.014 A 
ATOM     79  C   UNL A   1      46.862  33.092  29.804  1.00  0.00     0.010 A 
ATOM     80  C   UNL A   1      45.715  33.774  27.781  1.00  0.00     0.010 A 
ATOM     81  C   UNL A   1      47.184  34.427  30.069  1.00  0.00     0.020 A 
ATOM     82  C   UNL A   1      46.062  35.105  28.025  1.00  0.00     0.020 A 
ATOM     83  C   UNL A   1      46.783  35.425  29.175  1.00  0.00     0.054 A 
BRANCH  83  84
ATOM     84  S   UNL A   1      47.248  37.144  29.520  1.00  0.00     0.124 S 
ATOM     85  O   UNL A   1      48.415  37.320  28.661  1.00  0.00    -0.237 OA
ATOM     86  O   UNL A   1      46.050  37.878  29.120  1.00  0.00    -0.237 OA
ATOM     87  O   UNL A   1      47.520  37.144  30.955  1.00  0.00    -0.744 OA
ENDBRANCH  83  84
ENDBRANCH  55  78
BRANCH  67  88
ATOM     88  C   UNL A   1      49.642  27.292  26.117  1.00  0.00    -0.014 A 
ATOM     89  C   UNL A   1      50.738  27.112  26.977  1.00  0.00     0.010 A 
ATOM     90  C   UNL A   1      49.854  27.313  24.726  1.00  0.00     0.010 A 
ATOM     91  C   UNL A   1      52.031  27.014  26.457  1.00  0.00     0.020 A 
ATOM     92  C   UNL A   1      51.139  27.177  24.201  1.00  0.00     0.020 A 
ATOM     93  C   UNL A   1      52.222  27.052  25.072  1.00  0.00     0.054 A 
BRANCH  93  94
ATOM     94  S   UNL A   1      53.908  26.913  24.421  1.00  0.00     0.124 S 
ATOM     95  O   UNL A   1      54.022  25.477  24.182  1.00  0.00    -0.237 OA
ATOM     96  O   UNL A   1      53.857  27.748  23.223  1.00  0.00    -0.237 OA
ATOM     97  O   UNL A   1      54.741  27.433  25.501  1.00  0.00    -0.744 OA
ENDBRANCH  93  94
ENDBRANCH  67  88
ENDBRANCH  41  42
ENDBRANCH  34  36
ENDBRANCH  33  34
ENDBRANCH  32  33
ENDBRANCH  31  32
ENDBRANCH  30  31
ENDBRANCH  29  30
ENDBRANCH   1  29
TORSDOF 26
ENDMDL
MODEL 3
REMARK VINA RESULT:      -8.8      1.834      8.196
REMARK SMILES O=C(CCCN1C(=O)/C(=C\c2ccc(O)c(O)c2)SC1=S)OCCOCCOCCOC(=O)c1ccc(-c2c3nc(c(-c4ccc(S(=O)(=O)[O-])cc4)c4ccc([nH]4)c(-c4ccc(S(=O)(=O)[O-])cc4)c4nc(c(-c5ccc(S(=O)(=O)[O-])cc5)c5ccc2[nH]5)C=C4)C=C3)cc1
REMARK SMILES IDX 26 1 25 2 24 3 23 4 22 5 2 6 1 7 3 8 4 9 5 10 6 11 7 12
REMARK SMILES IDX 20 13 8 14 9 15 19 16 21 17 10 18 11 19 12 20 18 21 13 22
REMARK SMILES IDX 16 23 14 24 17 25 15 27 27 29 28 30 29 31 30 32 31 33 32 34
REMARK SMILES IDX 33 35 34 36 35 37 93 38 36 39 92 40 37 41 38 42 39 43 86 44
REMARK SMILES IDX 40 45 91 46 85 47 87 48 41 49 90 50 84 51 83 52 42 54 72 55
REMARK SMILES IDX 53 56 71 57 54 58 57 59 70 60 88 61 55 62 56 63 69 65 89 66
REMARK SMILES IDX 58 67 43 68 44 69 52 70 45 71 51 72 46 73 47 74 48 75 49 76
REMARK SMILES IDX 50 77 73 78 74 79 82 80 75 81 81 82 76 83 77 84 78 85 79 86
REMARK SMILES IDX 80 87 59 88 60 89 68 90 61 91 67 92 62 93 63 94 64 95 65 96
REMARK SMILES IDX 66 97
REMARK H PARENT 17 26 15 28 87 53 57 64
REMARK Flexibility Score: inf
ROOT
ATOM      1  C   UNL A   1      34.168  28.972  27.282  1.00  0.00     0.188 C 
ENDROOT
BRANCH   1   2
ATOM      2  O   UNL A   1      33.572  29.568  26.120  1.00  0.00    -0.376 OA
BRANCH   2   3
ATOM      3  C   UNL A   1      33.898  28.914  24.905  1.00  0.00     0.202 C 
BRANCH   3   4
ATOM      4  C   UNL A   1      32.757  28.852  23.892  1.00  0.00     0.261 C 
BRANCH   4   5
ATOM      5  O   UNL A   1      31.862  27.730  23.849  1.00  0.00    -0.463 OA
BRANCH   5   6
ATOM      6  C   UNL A   1      31.474  27.167  22.693  1.00  0.00     0.305 C 
ATOM      7  O   UNL A   1      30.658  27.738  21.973  1.00  0.00    -0.252 OA
BRANCH   6   8
ATOM      8  C   UNL A   1      32.144  25.871  22.264  1.00  0.00     0.124 C 
BRANCH   8   9
ATOM      9  C   UNL A   1      33.605  25.569  22.579  1.00  0.00     0.034 C 
BRANCH   9  10
ATOM     10  C   UNL A   1      34.087  24.915  23.897  1.00  0.00     0.128 C 
BRANCH  10  11
ATOM     11  N   UNL A   1      33.238  23.998  24.691  1.00  0.00    -0.293 N 
ATOM     12  C   UNL A   1      33.006  22.702  24.210  1.00  0.00     0.266 C 
ATOM     13  C   UNL A   1      32.359  24.406  25.678  1.00  0.00     0.148 C 
ATOM     14  O   UNL A   1      33.416  22.244  23.151  1.00  0.00    -0.268 OA
ATOM     15  C   UNL A   1      32.048  21.951  25.076  1.00  0.00     0.081 C 
ATOM     16  S   UNL A   1      31.294  23.077  26.146  1.00  0.00    -0.054 SA
ATOM     17  S   UNL A   1      32.177  25.913  26.364  1.00  0.00    -0.052 S 
ATOM     18  C   UNL A   1      31.797  20.629  25.156  1.00  0.00     0.029 C 
BRANCH  18  19
ATOM     19  C   UNL A   1      32.519  19.509  24.526  1.00  0.00    -0.020 A 
ATOM     20  C   UNL A   1      32.076  19.049  23.273  1.00  0.00     0.012 A 
ATOM     21  C   UNL A   1      33.679  18.946  25.055  1.00  0.00     0.058 A 
ATOM     22  C   UNL A   1      32.670  17.975  22.610  1.00  0.00     0.051 A 
ATOM     23  C   UNL A   1      34.313  17.912  24.360  1.00  0.00     0.157 A 
ATOM     24  C   UNL A   1      33.786  17.396  23.175  1.00  0.00     0.157 A 
BRANCH  23  25
ATOM     25  O   UNL A   1      35.486  17.399  24.837  1.00  0.00    -0.504 OA
ATOM     26  H   UNL A   1      35.938  17.832  25.535  1.00  0.00     0.293 HD
ENDBRANCH  23  25
BRANCH  24  27
ATOM     27  O   UNL A   1      34.407  16.328  22.593  1.00  0.00    -0.504 OA
ATOM     28  H   UNL A   1      34.274  15.466  22.935  1.00  0.00     0.293 HD
ENDBRANCH  24  27
ENDBRANCH  18  19
ENDBRANCH  10  11
ENDBRANCH   9  10
ENDBRANCH   8   9
ENDBRANCH   6   8
ENDBRANCH   5   6
ENDBRANCH   4   5
ENDBRANCH   3   4
ENDBRANCH   2   3
ENDBRANCH   1   2
BRANCH   1  29
ATOM     29  C   UNL A   1      35.411  29.718  27.772  1.00  0.00     0.188 C 
BRANCH  29  30
ATOM     30  O   UNL A   1      35.387  31.130  27.582  1.00  0.00    -0.376 OA
BRANCH  30  31
ATOM     31  C   UNL A   1      35.556  31.933  28.750  1.00  0.00     0.202 C 
BRANCH  31  32
ATOM     32  C   UNL A   1      35.631  31.034  29.986  1.00  0.00     0.261 C 
BRANCH  32  33
ATOM     33  O   UNL A   1      36.930  31.191  30.565  1.00  0.00    -0.460 OA
BRANCH  33  34
ATOM     34  C   UNL A   1      37.466  30.011  30.956  1.00  0.00     0.338 C 
ATOM     35  O   UNL A   1      36.871  28.954  31.106  1.00  0.00    -0.246 OA
BRANCH  34  36
ATOM     36  C   UNL A   1      38.936  30.132  30.895  1.00  0.00     0.060 A 
ATOM     37  C   UNL A   1      39.489  30.823  29.809  1.00  0.00     0.016 A 
ATOM     38  C   UNL A   1      39.758  29.573  31.881  1.00  0.00     0.016 A 
ATOM     39  C   UNL A   1      40.861  30.848  29.634  1.00  0.00     0.010 A 
ATOM     40  C   UNL A   1      41.136  29.577  31.698  1.00  0.00     0.010 A 
ATOM     41  C   UNL A   1      41.666  30.132  30.524  1.00  0.00    -0.014 A 
BRANCH  41  42
ATOM     42  C   UNL A   1      42.962  29.647  30.023  1.00  0.00     0.031 A 
ATOM     43  C   UNL A   1      42.980  28.278  29.394  1.00  0.00     0.074 A 
ATOM     44  C   UNL A   1      44.046  30.432  30.062  1.00  0.00     0.049 A 
ATOM     45  N   UNL A   1      43.971  27.631  28.847  1.00  0.00    -0.248 NA
ATOM     46  C   UNL A   1      41.702  27.539  29.377  1.00  0.00     0.031 C 
ATOM     47  C   UNL A   1      44.088  31.793  30.595  1.00  0.00     0.029 A 
ATOM     48  N   UNL A   1      45.320  30.192  29.630  1.00  0.00    -0.354 N 
ATOM     49  C   UNL A   1      43.441  26.411  28.439  1.00  0.00     0.074 A 
ATOM     50  C   UNL A   1      42.052  26.390  28.824  1.00  0.00     0.031 C 
ATOM     51  C   UNL A   1      45.336  32.272  30.455  1.00  0.00     0.029 A 
ATOM     52  C   UNL A   1      46.176  31.240  29.855  1.00  0.00     0.049 A 
ATOM     53  H   UNL A   1      45.596  29.350  29.202  1.00  0.00     0.167 HD
ATOM     54  C   UNL A   1      44.064  25.398  27.795  1.00  0.00     0.031 A 
ATOM     55  C   UNL A   1      47.494  31.335  29.603  1.00  0.00     0.031 A 
ATOM     56  C   UNL A   1      45.454  25.440  27.438  1.00  0.00     0.049 A 
ATOM     57  C   UNL A   1      48.180  30.169  28.942  1.00  0.00     0.074 A 
ATOM     58  C   UNL A   1      46.206  24.484  26.783  1.00  0.00     0.029 A 
ATOM     59  N   UNL A   1      46.304  26.501  27.721  1.00  0.00    -0.354 N 
ATOM     60  N   UNL A   1      47.670  29.023  28.550  1.00  0.00    -0.248 NA
ATOM     61  C   UNL A   1      49.614  30.318  28.670  1.00  0.00     0.031 C 
ATOM     62  C   UNL A   1      47.527  24.941  26.727  1.00  0.00     0.029 A 
ATOM     63  C   UNL A   1      47.580  26.214  27.275  1.00  0.00     0.049 A 
ATOM     64  H   UNL A   1      46.037  27.334  28.173  1.00  0.00     0.167 HD
ATOM     65  C   UNL A   1      48.713  28.330  27.944  1.00  0.00     0.074 A 
ATOM     66  C   UNL A   1      49.877  29.194  28.017  1.00  0.00     0.031 C 
ATOM     67  C   UNL A   1      48.714  27.100  27.369  1.00  0.00     0.031 A 
BRANCH  54  68
ATOM     68  C   UNL A   1      43.261  24.157  27.498  1.00  0.00    -0.014 A 
ATOM     69  C   UNL A   1      43.085  23.142  28.457  1.00  0.00     0.010 A 
ATOM     70  C   UNL A   1      42.660  24.013  26.234  1.00  0.00     0.010 A 
ATOM     71  C   UNL A   1      42.357  21.990  28.143  1.00  0.00     0.020 A 
ATOM     72  C   UNL A   1      41.906  22.877  25.927  1.00  0.00     0.020 A 
ATOM     73  C   UNL A   1      41.772  21.865  26.879  1.00  0.00     0.054 A 
BRANCH  73  74
ATOM     74  S   UNL A   1      40.810  20.373  26.507  1.00  0.00     0.124 S 
ATOM     75  O   UNL A   1      40.728  19.731  27.817  1.00  0.00    -0.237 OA
ATOM     76  O   UNL A   1      39.555  20.921  25.997  1.00  0.00    -0.237 OA
ATOM     77  O   UNL A   1      41.626  19.669  25.520  1.00  0.00    -0.744 OA
ENDBRANCH  73  74
ENDBRANCH  54  68
BRANCH  55  78
ATOM     78  C   UNL A   1      48.232  32.573  29.970  1.00  0.00    -0.014 A 
ATOM     79  C   UNL A   1      48.560  33.530  28.995  1.00  0.00     0.010 A 
ATOM     80  C   UNL A   1      48.598  32.808  31.308  1.00  0.00     0.010 A 
ATOM     81  C   UNL A   1      49.259  34.689  29.347  1.00  0.00     0.020 A 
ATOM     82  C   UNL A   1      49.269  33.980  31.670  1.00  0.00     0.020 A 
ATOM     83  C   UNL A   1      49.606  34.907  30.684  1.00  0.00     0.054 A 
BRANCH  83  84
ATOM     84  S   UNL A   1      50.477  36.437  31.122  1.00  0.00     0.124 S 
ATOM     85  O   UNL A   1      51.473  36.533  30.059  1.00  0.00    -0.237 OA
ATOM     86  O   UNL A   1      49.406  37.430  31.080  1.00  0.00    -0.237 OA
ATOM     87  O   UNL A   1      51.007  36.159  32.454  1.00  0.00    -0.744 OA
ENDBRANCH  83  84
ENDBRANCH  55  78
BRANCH  67  88
ATOM     88  C   UNL A   1      49.995  26.648  26.723  1.00  0.00    -0.014 A 
ATOM     89  C   UNL A   1      50.966  25.923  27.434  1.00  0.00     0.010 A 
ATOM     90  C   UNL A   1      50.210  26.935  25.362  1.00  0.00     0.010 A 
ATOM     91  C   UNL A   1      52.156  25.541  26.809  1.00  0.00     0.020 A 
ATOM     92  C   UNL A   1      51.379  26.522  24.724  1.00  0.00     0.020 A 
ATOM     93  C   UNL A   1      52.356  25.848  25.459  1.00  0.00     0.054 A 
BRANCH  93  94
ATOM     94  S   UNL A   1      53.903  25.334  24.667  1.00  0.00     0.124 S 
ATOM     95  O   UNL A   1      54.894  26.109  25.409  1.00  0.00    -0.237 OA
ATOM     96  O   UNL A   1      53.922  23.894  24.908  1.00  0.00    -0.237 OA
ATOM     97  O   UNL A   1      53.725  25.725  23.271  1.00  0.00    -0.744 OA
ENDBRANCH  93  94
ENDBRANCH  67  88
ENDBRANCH  41  42
ENDBRANCH  34  36
ENDBRANCH  33  34
ENDBRANCH  32  33
ENDBRANCH  31  32
ENDBRANCH  30  31
ENDBRANCH  29  30
ENDBRANCH   1  29
TORSDOF 26
ENDMDL
