MODEL 1
REMARK VINA RESULT:     -10.7      0.000      0.000
REMARK SMILES Cc1nsc(NC(=O)c2ccc(N)cc2)c1C(=O)OCCOCCOCCOC(=O)c1ccc(-c2c3nc(c(-c4ccc(S(=O)(=O)[O-])cc4)c4ccc([nH]4)c(-c4ccc(S(=O)(=O)[O-])cc4)c4nc(c(-c5ccc(S(=O)(=O)[O-])cc5)c5ccc2[nH]5)C=C4)C=C3)cc1
REMARK SMILES IDX 23 1 22 2 21 3 20 4 19 5 17 6 18 7 16 8 1 9 2 10 3 11 4 12
REMARK SMILES IDX 5 13 6 14 7 15 8 17 9 18 10 19 15 20 11 21 14 22 12 23 13 24
REMARK SMILES IDX 24 27 25 28 26 29 27 30 28 31 29 32 30 33 31 34 32 35 90 36
REMARK SMILES IDX 33 37 89 38 34 39 35 40 36 41 83 42 37 43 88 44 82 45 84 46
REMARK SMILES IDX 38 47 87 48 81 49 80 50 39 52 69 53 50 54 68 55 51 56 54 57
REMARK SMILES IDX 67 58 85 59 52 60 53 61 66 63 86 64 55 65 40 66 41 67 49 68
REMARK SMILES IDX 42 69 48 70 43 71 44 72 45 73 46 74 47 75 70 76 71 77 79 78
REMARK SMILES IDX 72 79 78 80 73 81 74 82 75 83 76 84 77 85 56 86 57 87 65 88
REMARK SMILES IDX 58 89 64 90 59 91 60 92 61 93 62 94 63 95
REMARK H PARENT 6 16 13 25 13 26 84 51 54 62
REMARK Flexibility Score: inf
ROOT
ATOM      1  C   UNL A   1      34.240  31.347  27.596  1.00  0.00     0.188 C 
ENDROOT
BRANCH   1   2
ATOM      2  O   UNL A   1      33.656  30.507  26.607  1.00  0.00    -0.376 OA
BRANCH   2   3
ATOM      3  C   UNL A   1      33.177  29.213  26.945  1.00  0.00     0.202 C 
BRANCH   3   4
ATOM      4  C   UNL A   1      33.979  27.958  26.541  1.00  0.00     0.261 C 
BRANCH   4   5
ATOM      5  O   UNL A   1      33.211  26.749  26.428  1.00  0.00    -0.460 OA
BRANCH   5   6
ATOM      6  C   UNL A   1      33.622  25.854  25.481  1.00  0.00     0.343 C 
ATOM      7  O   UNL A   1      34.644  25.199  25.546  1.00  0.00    -0.246 OA
BRANCH   6   8
ATOM      8  C   UNL A   1      32.595  25.608  24.473  1.00  0.00     0.117 A 
ATOM      9  C   UNL A   1      33.600  26.853  22.385  1.00  0.00     0.069 C 
ATOM     10  C   UNL A   1      32.566  26.054  23.098  1.00  0.00     0.068 A 
ATOM     11  N   UNL A   1      31.453  25.772  22.419  1.00  0.00    -0.195 NA
ATOM     12  S   UNL A   1      30.357  25.098  23.445  1.00  0.00    -0.017 S 
ATOM     13  C   UNL A   1      31.380  25.012  24.803  1.00  0.00     0.131 A 
BRANCH  13  14
ATOM     14  N   UNL A   1      30.960  24.592  26.058  1.00  0.00    -0.312 N 
ATOM     15  C   UNL A   1      31.020  23.362  26.675  1.00  0.00     0.256 C 
ATOM     16  H   UNL A   1      30.547  25.299  26.605  1.00  0.00     0.171 HD
ATOM     17  O   UNL A   1      30.254  23.100  27.600  1.00  0.00    -0.269 OA
BRANCH  15  18
ATOM     18  C   UNL A   1      32.051  22.375  26.314  1.00  0.00     0.040 A 
ATOM     19  C   UNL A   1      33.247  22.327  27.034  1.00  0.00     0.016 A 
ATOM     20  C   UNL A   1      31.826  21.490  25.259  1.00  0.00     0.016 A 
ATOM     21  C   UNL A   1      34.278  21.494  26.600  1.00  0.00     0.026 A 
ATOM     22  C   UNL A   1      32.859  20.643  24.848  1.00  0.00     0.026 A 
ATOM     23  C   UNL A   1      34.113  20.693  25.468  1.00  0.00     0.031 A 
BRANCH  23  24
ATOM     24  N   UNL A   1      35.141  19.863  25.048  1.00  0.00    -0.399 N 
ATOM     25  H   UNL A   1      35.211  19.608  24.099  1.00  0.00     0.156 HD
ATOM     26  H   UNL A   1      35.801  19.529  25.697  1.00  0.00     0.156 HD
ENDBRANCH  23  24
ENDBRANCH  15  18
ENDBRANCH  13  14
ENDBRANCH   6   8
ENDBRANCH   5   6
ENDBRANCH   4   5
ENDBRANCH   3   4
ENDBRANCH   2   3
ENDBRANCH   1   2
BRANCH   1  27
ATOM     27  C   UNL A   1      33.566  32.671  28.009  1.00  0.00     0.188 C 
BRANCH  27  28
ATOM     28  O   UNL A   1      34.267  33.828  27.603  1.00  0.00    -0.376 OA
BRANCH  28  29
ATOM     29  C   UNL A   1      34.116  35.013  28.369  1.00  0.00     0.202 C 
BRANCH  29  30
ATOM     30  C   UNL A   1      33.525  34.957  29.780  1.00  0.00     0.261 C 
BRANCH  30  31
ATOM     31  O   UNL A   1      34.451  35.031  30.849  1.00  0.00    -0.460 OA
BRANCH  31  32
ATOM     32  C   UNL A   1      34.602  33.895  31.560  1.00  0.00     0.338 C 
ATOM     33  O   UNL A   1      34.045  33.607  32.605  1.00  0.00    -0.246 OA
BRANCH  32  34
ATOM     34  C   UNL A   1      35.609  33.071  30.888  1.00  0.00     0.060 A 
ATOM     35  C   UNL A   1      35.471  31.683  30.954  1.00  0.00     0.016 A 
ATOM     36  C   UNL A   1      36.796  33.688  30.464  1.00  0.00     0.016 A 
ATOM     37  C   UNL A   1      36.604  30.913  30.801  1.00  0.00     0.010 A 
ATOM     38  C   UNL A   1      37.925  32.922  30.333  1.00  0.00     0.010 A 
ATOM     39  C   UNL A   1      37.828  31.559  30.597  1.00  0.00    -0.014 A 
BRANCH  39  40
ATOM     40  C   UNL A   1      39.041  30.775  30.670  1.00  0.00     0.031 A 
ATOM     41  C   UNL A   1      39.635  30.729  32.015  1.00  0.00     0.074 A 
ATOM     42  C   UNL A   1      39.490  30.072  29.614  1.00  0.00     0.049 A 
ATOM     43  N   UNL A   1      40.730  31.286  32.409  1.00  0.00    -0.248 NA
ATOM     44  C   UNL A   1      38.830  30.134  33.094  1.00  0.00     0.031 C 
ATOM     45  C   UNL A   1      38.807  29.854  28.333  1.00  0.00     0.029 A 
ATOM     46  N   UNL A   1      40.605  29.300  29.507  1.00  0.00    -0.354 N 
ATOM     47  C   UNL A   1      40.871  30.905  33.736  1.00  0.00     0.074 A 
ATOM     48  C   UNL A   1      39.591  30.397  34.156  1.00  0.00     0.031 C 
ATOM     49  C   UNL A   1      39.407  28.835  27.677  1.00  0.00     0.029 A 
ATOM     50  C   UNL A   1      40.589  28.434  28.421  1.00  0.00     0.049 A 
ATOM     51  H   UNL A   1      41.356  29.352  30.141  1.00  0.00     0.167 HD
ATOM     52  C   UNL A   1      42.101  30.739  34.290  1.00  0.00     0.031 A 
ATOM     53  C   UNL A   1      41.457  27.423  28.181  1.00  0.00     0.031 A 
ATOM     54  C   UNL A   1      43.139  31.318  33.477  1.00  0.00     0.049 A 
ATOM     55  C   UNL A   1      42.695  27.713  28.939  1.00  0.00     0.074 A 
ATOM     56  C   UNL A   1      43.509  32.593  33.110  1.00  0.00     0.029 A 
ATOM     57  N   UNL A   1      43.739  30.450  32.597  1.00  0.00    -0.354 N 
ATOM     58  N   UNL A   1      43.465  28.732  28.678  1.00  0.00    -0.248 NA
ATOM     59  C   UNL A   1      42.902  27.103  30.246  1.00  0.00     0.031 C 
ATOM     60  C   UNL A   1      44.091  32.467  31.815  1.00  0.00     0.029 A 
ATOM     61  C   UNL A   1      44.086  31.119  31.451  1.00  0.00     0.049 A 
ATOM     62  H   UNL A   1      43.895  29.492  32.764  1.00  0.00     0.167 HD
ATOM     63  C   UNL A   1      43.924  29.154  29.914  1.00  0.00     0.074 A 
ATOM     64  C   UNL A   1      43.690  28.026  30.808  1.00  0.00     0.031 C 
ATOM     65  C   UNL A   1      44.173  30.475  30.153  1.00  0.00     0.031 A 
BRANCH  52  66
ATOM     66  C   UNL A   1      42.400  29.643  35.285  1.00  0.00    -0.014 A 
ATOM     67  C   UNL A   1      43.480  29.808  36.173  1.00  0.00     0.010 A 
ATOM     68  C   UNL A   1      41.846  28.349  35.182  1.00  0.00     0.010 A 
ATOM     69  C   UNL A   1      44.009  28.718  36.879  1.00  0.00     0.020 A 
ATOM     70  C   UNL A   1      42.336  27.267  35.911  1.00  0.00     0.020 A 
ATOM     71  C   UNL A   1      43.439  27.452  36.731  1.00  0.00     0.054 A 
BRANCH  71  72
ATOM     72  S   UNL A   1      44.192  26.031  37.557  1.00  0.00     0.124 S 
ATOM     73  O   UNL A   1      45.603  26.206  37.228  1.00  0.00    -0.237 OA
ATOM     74  O   UNL A   1      43.830  26.258  38.953  1.00  0.00    -0.237 OA
ATOM     75  O   UNL A   1      43.540  24.884  36.928  1.00  0.00    -0.744 OA
ENDBRANCH  71  72
ENDBRANCH  52  66
BRANCH  53  76
ATOM     76  C   UNL A   1      41.170  26.112  27.553  1.00  0.00    -0.014 A 
ATOM     77  C   UNL A   1      42.156  25.402  26.844  1.00  0.00     0.010 A 
ATOM     78  C   UNL A   1      39.980  25.431  27.881  1.00  0.00     0.010 A 
ATOM     79  C   UNL A   1      41.976  24.047  26.519  1.00  0.00     0.020 A 
ATOM     80  C   UNL A   1      39.791  24.083  27.557  1.00  0.00     0.020 A 
ATOM     81  C   UNL A   1      40.801  23.390  26.894  1.00  0.00     0.054 A 
BRANCH  81  82
ATOM     82  S   UNL A   1      40.641  21.603  26.607  1.00  0.00     0.124 S 
ATOM     83  O   UNL A   1      41.763  21.330  25.714  1.00  0.00    -0.237 OA
ATOM     84  O   UNL A   1      40.756  21.053  27.954  1.00  0.00    -0.237 OA
ATOM     85  O   UNL A   1      39.318  21.468  25.998  1.00  0.00    -0.744 OA
ENDBRANCH  81  82
ENDBRANCH  53  76
BRANCH  65  86
ATOM     86  C   UNL A   1      44.349  31.377  28.954  1.00  0.00    -0.014 A 
ATOM     87  C   UNL A   1      45.355  31.200  27.983  1.00  0.00     0.010 A 
ATOM     88  C   UNL A   1      43.385  32.378  28.749  1.00  0.00     0.010 A 
ATOM     89  C   UNL A   1      45.402  32.020  26.846  1.00  0.00     0.020 A 
ATOM     90  C   UNL A   1      43.417  33.185  27.609  1.00  0.00     0.020 A 
ATOM     91  C   UNL A   1      44.429  33.008  26.666  1.00  0.00     0.054 A 
BRANCH  91  92
ATOM     92  S   UNL A   1      44.461  34.030  25.167  1.00  0.00     0.124 S 
ATOM     93  O   UNL A   1      43.399  35.000  25.419  1.00  0.00    -0.237 OA
ATOM     94  O   UNL A   1      45.820  34.570  25.170  1.00  0.00    -0.237 OA
ATOM     95  O   UNL A   1      44.187  33.078  24.090  1.00  0.00    -0.744 OA
ENDBRANCH  91  92
ENDBRANCH  65  86
ENDBRANCH  39  40
ENDBRANCH  32  34
ENDBRANCH  31  32
ENDBRANCH  30  31
ENDBRANCH  29  30
ENDBRANCH  28  29
ENDBRANCH  27  28
ENDBRANCH   1  27
TORSDOF 23
ENDMDL
MODEL 2
REMARK VINA RESULT:     -10.3      3.223      9.865
REMARK SMILES Cc1nsc(NC(=O)c2ccc(N)cc2)c1C(=O)OCCOCCOCCOC(=O)c1ccc(-c2c3nc(c(-c4ccc(S(=O)(=O)[O-])cc4)c4ccc([nH]4)c(-c4ccc(S(=O)(=O)[O-])cc4)c4nc(c(-c5ccc(S(=O)(=O)[O-])cc5)c5ccc2[nH]5)C=C4)C=C3)cc1
REMARK SMILES IDX 23 1 22 2 21 3 20 4 19 5 17 6 18 7 16 8 1 9 2 10 3 11 4 12
REMARK SMILES IDX 5 13 6 14 7 15 8 17 9 18 10 19 15 20 11 21 14 22 12 23 13 24
REMARK SMILES IDX 24 27 25 28 26 29 27 30 28 31 29 32 30 33 31 34 32 35 90 36
REMARK SMILES IDX 33 37 89 38 34 39 35 40 36 41 83 42 37 43 88 44 82 45 84 46
REMARK SMILES IDX 38 47 87 48 81 49 80 50 39 52 69 53 50 54 68 55 51 56 54 57
REMARK SMILES IDX 67 58 85 59 52 60 53 61 66 63 86 64 55 65 40 66 41 67 49 68
REMARK SMILES IDX 42 69 48 70 43 71 44 72 45 73 46 74 47 75 70 76 71 77 79 78
REMARK SMILES IDX 72 79 78 80 73 81 74 82 75 83 76 84 77 85 56 86 57 87 65 88
REMARK SMILES IDX 58 89 64 90 59 91 60 92 61 93 62 94 63 95
REMARK H PARENT 6 16 13 25 13 26 84 51 54 62
REMARK Flexibility Score: inf
ROOT
ATOM      1  C   UNL A   1      38.664  21.949  25.600  1.00  0.00     0.188 C 
ENDROOT
BRANCH   1   2
ATOM      2  O   UNL A   1      37.324  21.512  25.797  1.00  0.00    -0.376 OA
BRANCH   2   3
ATOM      3  C   UNL A   1      36.272  22.452  25.966  1.00  0.00     0.202 C 
BRANCH   3   4
ATOM      4  C   UNL A   1      34.859  21.975  26.357  1.00  0.00     0.261 C 
BRANCH   4   5
ATOM      5  O   UNL A   1      33.793  22.884  26.039  1.00  0.00    -0.460 OA
BRANCH   5   6
ATOM      6  C   UNL A   1      32.844  22.428  25.168  1.00  0.00     0.343 C 
ATOM      7  O   UNL A   1      32.088  21.503  25.391  1.00  0.00    -0.246 OA
BRANCH   6   8
ATOM      8  C   UNL A   1      32.688  23.307  24.014  1.00  0.00     0.117 A 
ATOM      9  C   UNL A   1      34.968  22.932  22.756  1.00  0.00     0.069 C 
ATOM     10  C   UNL A   1      33.626  23.551  22.940  1.00  0.00     0.068 A 
ATOM     11  N   UNL A   1      33.270  24.485  22.058  1.00  0.00    -0.195 NA
ATOM     12  S   UNL A   1      31.878  25.199  22.567  1.00  0.00    -0.017 S 
ATOM     13  C   UNL A   1      31.609  24.183  23.906  1.00  0.00     0.131 A 
BRANCH  13  14
ATOM     14  N   UNL A   1      30.579  24.366  24.819  1.00  0.00    -0.312 N 
ATOM     15  C   UNL A   1      30.022  25.511  25.347  1.00  0.00     0.256 C 
ATOM     16  H   UNL A   1      30.175  23.531  25.149  1.00  0.00     0.171 HD
ATOM     17  O   UNL A   1      29.413  25.463  26.414  1.00  0.00    -0.269 OA
BRANCH  15  18
ATOM     18  C   UNL A   1      30.057  26.787  24.613  1.00  0.00     0.040 A 
ATOM     19  C   UNL A   1      31.067  27.713  24.882  1.00  0.00     0.016 A 
ATOM     20  C   UNL A   1      29.085  27.061  23.651  1.00  0.00     0.016 A 
ATOM     21  C   UNL A   1      31.015  28.976  24.294  1.00  0.00     0.026 A 
ATOM     22  C   UNL A   1      29.057  28.323  23.050  1.00  0.00     0.026 A 
ATOM     23  C   UNL A   1      29.975  29.311  23.423  1.00  0.00     0.031 A 
BRANCH  23  24
ATOM     24  N   UNL A   1      29.936  30.568  22.839  1.00  0.00    -0.399 N 
ATOM     25  H   UNL A   1      30.417  31.319  23.255  1.00  0.00     0.156 HD
ATOM     26  H   UNL A   1      29.427  30.709  22.008  1.00  0.00     0.156 HD
ENDBRANCH  23  24
ENDBRANCH  15  18
ENDBRANCH  13  14
ENDBRANCH   6   8
ENDBRANCH   5   6
ENDBRANCH   4   5
ENDBRANCH   3   4
ENDBRANCH   2   3
ENDBRANCH   1   2
BRANCH   1  27
ATOM     27  C   UNL A   1      39.825  21.332  26.407  1.00  0.00     0.188 C 
BRANCH  27  28
ATOM     28  O   UNL A   1      40.056  19.966  26.136  1.00  0.00    -0.376 OA
BRANCH  28  29
ATOM     29  C   UNL A   1      41.387  19.480  26.200  1.00  0.00     0.202 C 
BRANCH  29  30
ATOM     30  C   UNL A   1      42.572  20.444  26.104  1.00  0.00     0.261 C 
BRANCH  30  31
ATOM     31  O   UNL A   1      43.807  19.878  25.704  1.00  0.00    -0.460 OA
BRANCH  31  32
ATOM     32  C   UNL A   1      44.340  20.395  24.579  1.00  0.00     0.338 C 
ATOM     33  O   UNL A   1      44.532  19.813  23.526  1.00  0.00    -0.246 OA
BRANCH  32  34
ATOM     34  C   UNL A   1      44.713  21.784  24.852  1.00  0.00     0.060 A 
ATOM     35  C   UNL A   1      45.644  22.028  25.862  1.00  0.00     0.016 A 
ATOM     36  C   UNL A   1      43.923  22.803  24.298  1.00  0.00     0.016 A 
ATOM     37  C   UNL A   1      45.629  23.263  26.472  1.00  0.00     0.010 A 
ATOM     38  C   UNL A   1      43.895  24.025  24.920  1.00  0.00     0.010 A 
ATOM     39  C   UNL A   1      44.679  24.202  26.055  1.00  0.00    -0.014 A 
BRANCH  39  40
ATOM     40  C   UNL A   1      44.505  25.402  26.842  1.00  0.00     0.031 A 
ATOM     41  C   UNL A   1      45.579  26.392  26.657  1.00  0.00     0.074 A 
ATOM     42  C   UNL A   1      43.395  25.612  27.574  1.00  0.00     0.049 A 
ATOM     43  N   UNL A   1      46.487  26.732  27.507  1.00  0.00    -0.248 NA
ATOM     44  C   UNL A   1      45.767  26.944  25.306  1.00  0.00     0.031 C 
ATOM     45  C   UNL A   1      42.172  24.798  27.589  1.00  0.00     0.029 A 
ATOM     46  N   UNL A   1      43.076  26.666  28.371  1.00  0.00    -0.354 N 
ATOM     47  C   UNL A   1      47.220  27.726  26.873  1.00  0.00     0.074 A 
ATOM     48  C   UNL A   1      46.881  27.657  25.475  1.00  0.00     0.031 C 
ATOM     49  C   UNL A   1      41.177  25.504  28.171  1.00  0.00     0.029 A 
ATOM     50  C   UNL A   1      41.727  26.745  28.691  1.00  0.00     0.049 A 
ATOM     51  H   UNL A   1      43.743  27.315  28.694  1.00  0.00     0.167 HD
ATOM     52  C   UNL A   1      47.800  28.730  27.582  1.00  0.00     0.031 A 
ATOM     53  C   UNL A   1      41.098  27.783  29.291  1.00  0.00     0.031 A 
ATOM     54  C   UNL A   1      47.846  28.435  28.991  1.00  0.00     0.049 A 
ATOM     55  C   UNL A   1      42.126  28.564  30.015  1.00  0.00     0.074 A 
ATOM     56  C   UNL A   1      48.509  27.527  29.788  1.00  0.00     0.029 A 
ATOM     57  N   UNL A   1      46.789  28.923  29.721  1.00  0.00    -0.354 N 
ATOM     58  N   UNL A   1      42.792  28.091  31.031  1.00  0.00    -0.248 NA
ATOM     59  C   UNL A   1      42.709  29.745  29.391  1.00  0.00     0.031 C 
ATOM     60  C   UNL A   1      47.638  27.273  30.887  1.00  0.00     0.029 A 
ATOM     61  C   UNL A   1      46.491  28.056  30.741  1.00  0.00     0.049 A 
ATOM     62  H   UNL A   1      46.316  29.767  29.538  1.00  0.00     0.167 HD
ATOM     63  C   UNL A   1      44.062  28.625  30.900  1.00  0.00     0.074 A 
ATOM     64  C   UNL A   1      43.905  29.753  29.989  1.00  0.00     0.031 C 
ATOM     65  C   UNL A   1      45.160  27.922  31.305  1.00  0.00     0.031 A 
BRANCH  52  66
ATOM     66  C   UNL A   1      47.863  30.150  27.073  1.00  0.00    -0.014 A 
ATOM     67  C   UNL A   1      49.089  30.838  27.131  1.00  0.00     0.010 A 
ATOM     68  C   UNL A   1      46.707  30.919  26.816  1.00  0.00     0.010 A 
ATOM     69  C   UNL A   1      49.144  32.233  26.991  1.00  0.00     0.020 A 
ATOM     70  C   UNL A   1      46.755  32.300  26.632  1.00  0.00     0.020 A 
ATOM     71  C   UNL A   1      47.972  32.953  26.755  1.00  0.00     0.054 A 
BRANCH  71  72
ATOM     72  S   UNL A   1      48.032  34.759  26.684  1.00  0.00     0.124 S 
ATOM     73  O   UNL A   1      46.899  35.129  27.527  1.00  0.00    -0.237 OA
ATOM     74  O   UNL A   1      49.354  35.046  27.233  1.00  0.00    -0.237 OA
ATOM     75  O   UNL A   1      47.876  35.051  25.261  1.00  0.00    -0.744 OA
ENDBRANCH  71  72
ENDBRANCH  52  66
BRANCH  53  76
ATOM     76  C   UNL A   1      39.719  28.269  29.050  1.00  0.00    -0.014 A 
ATOM     77  C   UNL A   1      38.750  28.272  30.069  1.00  0.00     0.010 A 
ATOM     78  C   UNL A   1      39.431  28.982  27.868  1.00  0.00     0.010 A 
ATOM     79  C   UNL A   1      37.558  29.003  29.929  1.00  0.00     0.020 A 
ATOM     80  C   UNL A   1      38.245  29.708  27.718  1.00  0.00     0.020 A 
ATOM     81  C   UNL A   1      37.320  29.732  28.760  1.00  0.00     0.054 A 
BRANCH  81  82
ATOM     82  S   UNL A   1      35.852  30.796  28.648  1.00  0.00     0.124 S 
ATOM     83  O   UNL A   1      35.614  31.145  30.046  1.00  0.00    -0.237 OA
ATOM     84  O   UNL A   1      36.313  31.886  27.794  1.00  0.00    -0.237 OA
ATOM     85  O   UNL A   1      34.841  29.928  28.047  1.00  0.00    -0.744 OA
ENDBRANCH  81  82
ENDBRANCH  53  76
BRANCH  65  86
ATOM     86  C   UNL A   1      44.937  26.777  32.265  1.00  0.00    -0.014 A 
ATOM     87  C   UNL A   1      44.897  26.927  33.666  1.00  0.00     0.010 A 
ATOM     88  C   UNL A   1      44.646  25.518  31.715  1.00  0.00     0.010 A 
ATOM     89  C   UNL A   1      44.592  25.836  34.492  1.00  0.00     0.020 A 
ATOM     90  C   UNL A   1      44.325  24.432  32.533  1.00  0.00     0.020 A 
ATOM     91  C   UNL A   1      44.306  24.593  33.918  1.00  0.00     0.054 A 
BRANCH  91  92
ATOM     92  S   UNL A   1      43.859  23.197  34.988  1.00  0.00     0.124 S 
ATOM     93  O   UNL A   1      44.888  23.243  36.021  1.00  0.00    -0.237 OA
ATOM     94  O   UNL A   1      42.508  23.545  35.429  1.00  0.00    -0.237 OA
ATOM     95  O   UNL A   1      43.928  22.039  34.096  1.00  0.00    -0.744 OA
ENDBRANCH  91  92
ENDBRANCH  65  86
ENDBRANCH  39  40
ENDBRANCH  32  34
ENDBRANCH  31  32
ENDBRANCH  30  31
ENDBRANCH  29  30
ENDBRANCH  28  29
ENDBRANCH  27  28
ENDBRANCH   1  27
TORSDOF 23
ENDMDL
MODEL 3
REMARK VINA RESULT:     -10.1      2.114      3.138
REMARK SMILES Cc1nsc(NC(=O)c2ccc(N)cc2)c1C(=O)OCCOCCOCCOC(=O)c1ccc(-c2c3nc(c(-c4ccc(S(=O)(=O)[O-])cc4)c4ccc([nH]4)c(-c4ccc(S(=O)(=O)[O-])cc4)c4nc(c(-c5ccc(S(=O)(=O)[O-])cc5)c5ccc2[nH]5)C=C4)C=C3)cc1
REMARK SMILES IDX 23 1 22 2 21 3 20 4 19 5 17 6 18 7 16 8 1 9 2 10 3 11 4 12
REMARK SMILES IDX 5 13 6 14 7 15 8 17 9 18 10 19 15 20 11 21 14 22 12 23 13 24
REMARK SMILES IDX 24 27 25 28 26 29 27 30 28 31 29 32 30 33 31 34 32 35 90 36
REMARK SMILES IDX 33 37 89 38 34 39 35 40 36 41 83 42 37 43 88 44 82 45 84 46
REMARK SMILES IDX 38 47 87 48 81 49 80 50 39 52 69 53 50 54 68 55 51 56 54 57
REMARK SMILES IDX 67 58 85 59 52 60 53 61 66 63 86 64 55 65 40 66 41 67 49 68
REMARK SMILES IDX 42 69 48 70 43 71 44 72 45 73 46 74 47 75 70 76 71 77 79 78
REMARK SMILES IDX 72 79 78 80 73 81 74 82 75 83 76 84 77 85 56 86 57 87 65 88
REMARK SMILES IDX 58 89 64 90 59 91 60 92 61 93 62 94 63 95
REMARK H PARENT 6 16 13 25 13 26 84 51 54 62
REMARK Flexibility Score: inf
ROOT
ATOM      1  C   UNL A   1      31.144  28.006  25.869  1.00  0.00     0.188 C 
ENDROOT
BRANCH   1   2
ATOM      2  O   UNL A   1      31.948  27.074  26.581  1.00  0.00    -0.376 OA
BRANCH   2   3
ATOM      3  C   UNL A   1      32.750  26.128  25.887  1.00  0.00     0.202 C 
BRANCH   3   4
ATOM      4  C   UNL A   1      32.691  24.634  26.265  1.00  0.00     0.261 C 
BRANCH   4   5
ATOM      5  O   UNL A   1      31.641  23.881  25.634  1.00  0.00    -0.460 OA
BRANCH   5   6
ATOM      6  C   UNL A   1      31.087  24.432  24.514  1.00  0.00     0.343 C 
ATOM      7  O   UNL A   1      30.058  25.080  24.498  1.00  0.00    -0.246 OA
BRANCH   6   8
ATOM      8  C   UNL A   1      31.975  24.342  23.359  1.00  0.00     0.117 A 
ATOM      9  C   UNL A   1      31.351  26.535  22.046  1.00  0.00     0.069 C 
ATOM     10  C   UNL A   1      32.095  25.262  22.249  1.00  0.00     0.068 A 
ATOM     11  N   UNL A   1      32.918  24.886  21.270  1.00  0.00    -0.195 NA
ATOM     12  S   UNL A   1      33.455  23.361  21.577  1.00  0.00    -0.017 S 
ATOM     13  C   UNL A   1      32.733  23.200  23.110  1.00  0.00     0.131 A 
BRANCH  13  14
ATOM     14  N   UNL A   1      32.763  22.030  23.858  1.00  0.00    -0.312 N 
ATOM     15  C   UNL A   1      33.811  21.336  24.422  1.00  0.00     0.256 C 
ATOM     16  H   UNL A   1      31.880  21.624  24.012  1.00  0.00     0.171 HD
ATOM     17  O   UNL A   1      33.685  20.143  24.691  1.00  0.00    -0.269 OA
BRANCH  15  18
ATOM     18  C   UNL A   1      35.061  22.015  24.803  1.00  0.00     0.040 A 
ATOM     19  C   UNL A   1      36.125  22.065  23.899  1.00  0.00     0.016 A 
ATOM     20  C   UNL A   1      35.175  22.607  26.061  1.00  0.00     0.016 A 
ATOM     21  C   UNL A   1      37.354  22.578  24.311  1.00  0.00     0.026 A 
ATOM     22  C   UNL A   1      36.406  23.140  26.455  1.00  0.00     0.026 A 
ATOM     23  C   UNL A   1      37.520  23.060  25.612  1.00  0.00     0.031 A 
BRANCH  23  24
ATOM     24  N   UNL A   1      38.744  23.574  26.011  1.00  0.00    -0.399 N 
ATOM     25  H   UNL A   1      39.135  23.300  26.873  1.00  0.00     0.156 HD
ATOM     26  H   UNL A   1      39.223  24.212  25.435  1.00  0.00     0.156 HD
ENDBRANCH  23  24
ENDBRANCH  15  18
ENDBRANCH  13  14
ENDBRANCH   6   8
ENDBRANCH   5   6
ENDBRANCH   4   5
ENDBRANCH   3   4
ENDBRANCH   2   3
ENDBRANCH   1   2
BRANCH   1  27
ATOM     27  C   UNL A   1      31.736  28.850  24.722  1.00  0.00     0.188 C 
BRANCH  27  28
ATOM     28  O   UNL A   1      32.216  30.116  25.124  1.00  0.00    -0.376 OA
BRANCH  28  29
ATOM     29  C   UNL A   1      31.741  30.663  26.343  1.00  0.00     0.202 C 
BRANCH  29  30
ATOM     30  C   UNL A   1      32.659  31.511  27.225  1.00  0.00     0.261 C 
BRANCH  30  31
ATOM     31  O   UNL A   1      33.736  30.829  27.843  1.00  0.00    -0.460 OA
BRANCH  31  32
ATOM     32  C   UNL A   1      34.547  31.598  28.598  1.00  0.00     0.338 C 
ATOM     33  O   UNL A   1      34.209  32.448  29.402  1.00  0.00    -0.246 OA
BRANCH  32  34
ATOM     34  C   UNL A   1      35.932  31.279  28.243  1.00  0.00     0.060 A 
ATOM     35  C   UNL A   1      36.217  29.982  27.815  1.00  0.00     0.016 A 
ATOM     36  C   UNL A   1      36.937  32.185  28.615  1.00  0.00     0.016 A 
ATOM     37  C   UNL A   1      37.506  29.519  27.968  1.00  0.00     0.010 A 
ATOM     38  C   UNL A   1      38.213  31.716  28.786  1.00  0.00     0.010 A 
ATOM     39  C   UNL A   1      38.455  30.366  28.550  1.00  0.00    -0.014 A 
BRANCH  39  40
ATOM     40  C   UNL A   1      39.736  29.812  28.924  1.00  0.00     0.031 A 
ATOM     41  C   UNL A   1      39.986  29.825  30.375  1.00  0.00     0.074 A 
ATOM     42  C   UNL A   1      40.549  29.238  28.018  1.00  0.00     0.049 A 
ATOM     43  N   UNL A   1      40.832  30.556  31.018  1.00  0.00    -0.248 NA
ATOM     44  C   UNL A   1      39.066  29.057  31.229  1.00  0.00     0.031 C 
ATOM     45  C   UNL A   1      40.247  28.947  26.610  1.00  0.00     0.029 A 
ATOM     46  N   UNL A   1      41.778  28.684  28.193  1.00  0.00    -0.354 N 
ATOM     47  C   UNL A   1      40.715  30.159  32.343  1.00  0.00     0.074 A 
ATOM     48  C   UNL A   1      39.486  29.415  32.442  1.00  0.00     0.031 C 
ATOM     49  C   UNL A   1      41.164  28.076  26.131  1.00  0.00     0.029 A 
ATOM     50  C   UNL A   1      42.184  27.868  27.145  1.00  0.00     0.049 A 
ATOM     51  H   UNL A   1      42.331  28.847  28.991  1.00  0.00     0.167 HD
ATOM     52  C   UNL A   1      41.783  30.198  33.183  1.00  0.00     0.031 A 
ATOM     53  C   UNL A   1      43.255  27.039  27.134  1.00  0.00     0.031 A 
ATOM     54  C   UNL A   1      42.863  30.982  32.643  1.00  0.00     0.049 A 
ATOM     55  C   UNL A   1      44.198  27.520  28.169  1.00  0.00     0.074 A 
ATOM     56  C   UNL A   1      43.070  32.315  32.365  1.00  0.00     0.029 A 
ATOM     57  N   UNL A   1      43.806  30.268  31.944  1.00  0.00    -0.354 N 
ATOM     58  N   UNL A   1      44.808  28.669  28.094  1.00  0.00    -0.248 NA
ATOM     59  C   UNL A   1      44.191  26.910  29.493  1.00  0.00     0.031 C 
ATOM     60  C   UNL A   1      43.962  32.341  31.252  1.00  0.00     0.029 A 
ATOM     61  C   UNL A   1      44.292  31.028  30.912  1.00  0.00     0.049 A 
ATOM     62  H   UNL A   1      44.090  29.349  32.154  1.00  0.00     0.167 HD
ATOM     63  C   UNL A   1      44.869  29.123  29.401  1.00  0.00     0.074 A 
ATOM     64  C   UNL A   1      44.636  27.940  30.221  1.00  0.00     0.031 C 
ATOM     65  C   UNL A   1      44.807  30.457  29.680  1.00  0.00     0.031 A 
BRANCH  52  66
ATOM     66  C   UNL A   1      42.027  29.139  34.231  1.00  0.00    -0.014 A 
ATOM     67  C   UNL A   1      42.221  27.807  33.820  1.00  0.00     0.010 A 
ATOM     68  C   UNL A   1      41.783  29.356  35.605  1.00  0.00     0.010 A 
ATOM     69  C   UNL A   1      42.122  26.746  34.731  1.00  0.00     0.020 A 
ATOM     70  C   UNL A   1      41.725  28.313  36.527  1.00  0.00     0.020 A 
ATOM     71  C   UNL A   1      41.862  27.009  36.077  1.00  0.00     0.054 A 
BRANCH  71  72
ATOM     72  S   UNL A   1      41.626  25.633  37.226  1.00  0.00     0.124 S 
ATOM     73  O   UNL A   1      41.789  24.478  36.349  1.00  0.00    -0.237 OA
ATOM     74  O   UNL A   1      42.696  25.853  38.195  1.00  0.00    -0.237 OA
ATOM     75  O   UNL A   1      40.274  25.843  37.740  1.00  0.00    -0.744 OA
ENDBRANCH  71  72
ENDBRANCH  52  66
BRANCH  53  76
ATOM     76  C   UNL A   1      43.373  25.721  26.468  1.00  0.00    -0.014 A 
ATOM     77  C   UNL A   1      44.172  25.542  25.324  1.00  0.00     0.010 A 
ATOM     78  C   UNL A   1      42.899  24.566  27.124  1.00  0.00     0.010 A 
ATOM     79  C   UNL A   1      44.521  24.255  24.882  1.00  0.00     0.020 A 
ATOM     80  C   UNL A   1      43.239  23.281  26.688  1.00  0.00     0.020 A 
ATOM     81  C   UNL A   1      44.067  23.131  25.578  1.00  0.00     0.054 A 
BRANCH  81  82
ATOM     82  S   UNL A   1      44.649  21.479  25.094  1.00  0.00     0.124 S 
ATOM     83  O   UNL A   1      43.671  20.605  25.736  1.00  0.00    -0.237 OA
ATOM     84  O   UNL A   1      44.588  21.534  23.637  1.00  0.00    -0.237 OA
ATOM     85  O   UNL A   1      45.998  21.411  25.653  1.00  0.00    -0.744 OA
ENDBRANCH  81  82
ENDBRANCH  53  76
BRANCH  65  86
ATOM     86  C   UNL A   1      45.100  31.418  28.552  1.00  0.00    -0.014 A 
ATOM     87  C   UNL A   1      44.202  31.688  27.501  1.00  0.00     0.010 A 
ATOM     88  C   UNL A   1      46.292  32.159  28.625  1.00  0.00     0.010 A 
ATOM     89  C   UNL A   1      44.502  32.662  26.537  1.00  0.00     0.020 A 
ATOM     90  C   UNL A   1      46.588  33.142  27.678  1.00  0.00     0.020 A 
ATOM     91  C   UNL A   1      45.695  33.385  26.634  1.00  0.00     0.054 A 
BRANCH  91  92
ATOM     92  S   UNL A   1      46.055  34.683  25.417  1.00  0.00     0.124 S 
ATOM     93  O   UNL A   1      47.476  34.485  25.150  1.00  0.00    -0.237 OA
ATOM     94  O   UNL A   1      45.154  34.351  24.313  1.00  0.00    -0.237 OA
ATOM     95  O   UNL A   1      45.723  35.922  26.121  1.00  0.00    -0.744 OA
ENDBRANCH  91  92
ENDBRANCH  65  86
ENDBRANCH  39  40
ENDBRANCH  32  34
ENDBRANCH  31  32
ENDBRANCH  30  31
ENDBRANCH  29  30
ENDBRANCH  28  29
ENDBRANCH  27  28
ENDBRANCH   1  27
TORSDOF 23
ENDMDL
