MODEL 1
REMARK VINA RESULT:      -9.7      0.000      0.000
REMARK SMILES Cc1ccccc1NC(=O)CSc1nc(C(=O)OCCOCCOCCOC(=O)c2ccc(-c3c4nc(c(-c5ccc(S(=O)(=O)[O-])cc5)c5ccc([nH]5)c(-c5ccc(S(=O)(=O)[O-])cc5)c5nc(c(-c6ccc(S(=O)(=O)[O-])cc6)c6ccc3[nH]6)C=C5)C=C4)cc2)c2ccccc2n1
REMARK SMILES IDX 22 1 21 2 20 3 19 4 18 5 16 6 17 7 15 8 13 9 14 10 96 11
REMARK SMILES IDX 95 12 90 13 94 14 91 15 93 16 92 17 12 18 11 19 9 20 8 21
REMARK SMILES IDX 10 23 7 24 1 25 2 26 3 27 4 28 6 29 5 30 23 31 24 32 25 33
REMARK SMILES IDX 26 34 27 35 28 36 29 37 30 38 31 39 89 40 32 41 88 42 33 43
REMARK SMILES IDX 34 44 35 45 82 46 36 47 87 48 81 49 83 50 37 51 86 52 80 53
REMARK SMILES IDX 79 54 38 56 68 57 49 58 67 59 50 60 53 61 66 62 84 63 51 64
REMARK SMILES IDX 52 65 65 67 85 68 54 69 39 70 40 71 48 72 41 73 47 74 42 75
REMARK SMILES IDX 43 76 44 77 45 78 46 79 69 80 70 81 78 82 71 83 77 84 72 85
REMARK SMILES IDX 73 86 74 87 75 88 76 89 55 90 56 91 64 92 57 93 63 94 58 95
REMARK SMILES IDX 59 96 60 97 61 98 62 99
REMARK H PARENT 8 22 83 55 53 66
REMARK Flexibility Score: inf
ROOT
ATOM      1  C   UNL A   1      45.438  24.006  25.043  1.00  0.00     0.188 C 
ENDROOT
BRANCH   1   2
ATOM      2  O   UNL A   1      45.668  23.277  23.838  1.00  0.00    -0.376 OA
BRANCH   2   3
ATOM      3  C   UNL A   1      44.518  22.422  23.569  1.00  0.00     0.202 C 
BRANCH   3   4
ATOM      4  C   UNL A   1      44.331  21.333  24.726  1.00  0.00     0.261 C 
BRANCH   4   5
ATOM      5  O   UNL A   1      43.391  21.588  25.992  1.00  0.00    -0.458 OA
BRANCH   5   6
ATOM      6  C   UNL A   1      42.260  21.102  26.652  1.00  0.00     0.357 C 
ATOM      7  O   UNL A   1      41.850  19.963  26.803  1.00  0.00    -0.244 OA
BRANCH   6   8
ATOM      8  C   UNL A   1      41.238  22.096  27.052  1.00  0.00     0.160 A 
ATOM      9  C   UNL A   1      39.321  23.248  26.525  1.00  0.00     0.189 A 
ATOM     10  N   UNL A   1      40.011  22.106  26.418  1.00  0.00    -0.215 NA
ATOM     11  N   UNL A   1      39.782  24.329  27.188  1.00  0.00    -0.222 NA
ATOM     12  C   UNL A   1      41.000  24.285  27.750  1.00  0.00     0.076 A 
ATOM     13  C   UNL A   1      41.805  23.162  27.716  1.00  0.00     0.034 A 
ATOM     14  C   UNL A   1      41.528  25.402  28.379  1.00  0.00     0.029 A 
ATOM     15  C   UNL A   1      43.124  23.167  28.237  1.00  0.00     0.013 A 
ATOM     16  C   UNL A   1      42.821  25.411  28.926  1.00  0.00     0.002 A 
ATOM     17  C   UNL A   1      43.629  24.292  28.845  1.00  0.00     0.001 A 
BRANCH   9  18
ATOM     18  S   UNL A   1      37.590  23.400  26.114  1.00  0.00    -0.076 SA
BRANCH  18  19
ATOM     19  C   UNL A   1      37.223  22.279  24.733  1.00  0.00     0.178 C 
BRANCH  19  20
ATOM     20  C   UNL A   1      36.633  20.917  25.080  1.00  0.00     0.234 C 
ATOM     21  N   UNL A   1      35.389  20.682  25.589  1.00  0.00    -0.325 N 
ATOM     22  H   UNL A   1      35.165  19.724  25.626  1.00  0.00     0.169 HD
ATOM     23  O   UNL A   1      37.349  19.913  24.953  1.00  0.00    -0.274 OA
BRANCH  21  24
ATOM     24  C   UNL A   1      34.359  21.507  26.071  1.00  0.00     0.044 A 
ATOM     25  C   UNL A   1      33.771  22.236  23.662  1.00  0.00     0.046 C 
ATOM     26  C   UNL A   1      33.593  22.264  25.158  1.00  0.00    -0.027 A 
ATOM     27  C   UNL A   1      32.617  23.153  25.654  1.00  0.00     0.005 A 
ATOM     28  C   UNL A   1      32.363  23.251  27.019  1.00  0.00     0.000 A 
ATOM     29  C   UNL A   1      34.039  21.561  27.432  1.00  0.00     0.026 A 
ATOM     30  C   UNL A   1      33.054  22.434  27.905  1.00  0.00     0.002 A 
ENDBRANCH  21  24
ENDBRANCH  19  20
ENDBRANCH  18  19
ENDBRANCH   9  18
ENDBRANCH   6   8
ENDBRANCH   5   6
ENDBRANCH   4   5
ENDBRANCH   3   4
ENDBRANCH   2   3
ENDBRANCH   1   2
BRANCH   1  31
ATOM     31  C   UNL A   1      46.417  23.810  26.189  1.00  0.00     0.188 C 
BRANCH  31  32
ATOM     32  O   UNL A   1      47.541  24.667  26.299  1.00  0.00    -0.376 OA
BRANCH  32  33
ATOM     33  C   UNL A   1      47.386  26.045  25.980  1.00  0.00     0.202 C 
BRANCH  33  34
ATOM     34  C   UNL A   1      46.807  27.068  27.008  1.00  0.00     0.261 C 
BRANCH  34  35
ATOM     35  O   UNL A   1      45.394  26.987  27.280  1.00  0.00    -0.460 OA
BRANCH  35  36
ATOM     36  C   UNL A   1      44.545  27.611  26.375  1.00  0.00     0.338 C 
ATOM     37  O   UNL A   1      44.154  27.073  25.348  1.00  0.00    -0.246 OA
BRANCH  36  38
ATOM     38  C   UNL A   1      43.715  28.632  27.087  1.00  0.00     0.060 A 
ATOM     39  C   UNL A   1      44.080  29.604  28.011  1.00  0.00     0.016 A 
ATOM     40  C   UNL A   1      42.386  28.550  26.832  1.00  0.00     0.016 A 
ATOM     41  C   UNL A   1      43.095  30.282  28.844  1.00  0.00     0.010 A 
ATOM     42  C   UNL A   1      41.508  29.064  27.799  1.00  0.00     0.010 A 
ATOM     43  C   UNL A   1      41.740  29.916  28.869  1.00  0.00    -0.014 A 
BRANCH  43  44
ATOM     44  C   UNL A   1      40.761  30.068  30.102  1.00  0.00     0.031 A 
ATOM     45  C   UNL A   1      39.695  31.157  30.561  1.00  0.00     0.074 A 
ATOM     46  C   UNL A   1      40.864  29.066  31.010  1.00  0.00     0.049 A 
ATOM     47  N   UNL A   1      39.766  32.006  31.563  1.00  0.00    -0.248 NA
ATOM     48  C   UNL A   1      38.341  31.265  29.989  1.00  0.00     0.031 C 
ATOM     49  C   UNL A   1      40.240  29.017  32.327  1.00  0.00     0.029 A 
ATOM     50  N   UNL A   1      41.799  28.032  31.055  1.00  0.00    -0.354 N 
ATOM     51  C   UNL A   1      38.519  32.683  31.667  1.00  0.00     0.074 A 
ATOM     52  C   UNL A   1      37.781  32.340  30.525  1.00  0.00     0.031 C 
ATOM     53  C   UNL A   1      41.090  28.364  33.138  1.00  0.00     0.029 A 
ATOM     54  C   UNL A   1      42.271  27.997  32.368  1.00  0.00     0.049 A 
ATOM     55  H   UNL A   1      42.071  27.446  30.312  1.00  0.00     0.167 HD
ATOM     56  C   UNL A   1      37.943  33.274  32.756  1.00  0.00     0.031 A 
ATOM     57  C   UNL A   1      43.570  28.321  32.645  1.00  0.00     0.031 A 
ATOM     58  C   UNL A   1      38.684  32.866  33.916  1.00  0.00     0.049 A 
ATOM     59  C   UNL A   1      43.665  29.665  33.375  1.00  0.00     0.074 A 
ATOM     60  C   UNL A   1      38.554  31.764  34.743  1.00  0.00     0.029 A 
ATOM     61  N   UNL A   1      40.001  33.269  33.987  1.00  0.00    -0.354 N 
ATOM     62  N   UNL A   1      42.633  30.388  33.739  1.00  0.00    -0.248 NA
ATOM     63  C   UNL A   1      44.923  30.312  33.746  1.00  0.00     0.031 C 
ATOM     64  C   UNL A   1      39.871  31.388  35.148  1.00  0.00     0.029 A 
ATOM     65  C   UNL A   1      40.765  32.320  34.648  1.00  0.00     0.049 A 
ATOM     66  H   UNL A   1      40.351  34.113  33.620  1.00  0.00     0.167 HD
ATOM     67  C   UNL A   1      43.048  31.566  34.316  1.00  0.00     0.074 A 
ATOM     68  C   UNL A   1      44.495  31.446  34.331  1.00  0.00     0.031 C 
ATOM     69  C   UNL A   1      42.199  32.560  34.730  1.00  0.00     0.031 A 
BRANCH  56  70
ATOM     70  C   UNL A   1      36.497  33.809  32.690  1.00  0.00    -0.014 A 
ATOM     71  C   UNL A   1      35.623  33.477  31.640  1.00  0.00     0.010 A 
ATOM     72  C   UNL A   1      35.998  34.760  33.624  1.00  0.00     0.010 A 
ATOM     73  C   UNL A   1      34.394  34.155  31.446  1.00  0.00     0.020 A 
ATOM     74  C   UNL A   1      34.802  35.483  33.411  1.00  0.00     0.020 A 
ATOM     75  C   UNL A   1      34.008  35.183  32.309  1.00  0.00     0.054 A 
BRANCH  75  76
ATOM     76  S   UNL A   1      32.522  36.178  31.939  1.00  0.00     0.124 S 
ATOM     77  O   UNL A   1      32.694  37.359  32.783  1.00  0.00    -0.237 OA
ATOM     78  O   UNL A   1      32.646  36.412  30.503  1.00  0.00    -0.237 OA
ATOM     79  O   UNL A   1      31.416  35.307  32.335  1.00  0.00    -0.744 OA
ENDBRANCH  75  76
ENDBRANCH  56  70
BRANCH  57  80
ATOM     80  C   UNL A   1      44.575  27.587  31.786  1.00  0.00    -0.014 A 
ATOM     81  C   UNL A   1      45.408  28.424  30.993  1.00  0.00     0.010 A 
ATOM     82  C   UNL A   1      44.940  26.233  31.859  1.00  0.00     0.010 A 
ATOM     83  C   UNL A   1      46.640  28.001  30.483  1.00  0.00     0.020 A 
ATOM     84  C   UNL A   1      46.172  25.787  31.305  1.00  0.00     0.020 A 
ATOM     85  C   UNL A   1      47.046  26.694  30.692  1.00  0.00     0.054 A 
BRANCH  85  86
ATOM     86  S   UNL A   1      48.808  26.283  30.448  1.00  0.00     0.124 S 
ATOM     87  O   UNL A   1      49.161  25.633  31.703  1.00  0.00    -0.237 OA
ATOM     88  O   UNL A   1      48.785  25.420  29.267  1.00  0.00    -0.237 OA
ATOM     89  O   UNL A   1      49.396  27.596  30.210  1.00  0.00    -0.744 OA
ENDBRANCH  85  86
ENDBRANCH  57  80
BRANCH  69  90
ATOM     90  C   UNL A   1      42.600  33.925  35.270  1.00  0.00    -0.014 A 
ATOM     91  C   UNL A   1      42.464  34.329  36.603  1.00  0.00     0.010 A 
ATOM     92  C   UNL A   1      43.323  34.796  34.408  1.00  0.00     0.010 A 
ATOM     93  C   UNL A   1      42.972  35.567  37.039  1.00  0.00     0.020 A 
ATOM     94  C   UNL A   1      43.901  35.985  34.849  1.00  0.00     0.020 A 
ATOM     95  C   UNL A   1      43.689  36.383  36.159  1.00  0.00     0.054 A 
BRANCH  95  96
ATOM     96  S   UNL A   1      44.391  37.957  36.715  1.00  0.00     0.124 S 
ATOM     97  O   UNL A   1      45.819  37.732  36.530  1.00  0.00    -0.237 OA
ATOM     98  O   UNL A   1      43.787  38.936  35.820  1.00  0.00    -0.237 OA
ATOM     99  O   UNL A   1      43.945  38.042  38.112  1.00  0.00    -0.744 OA
ENDBRANCH  95  96
ENDBRANCH  69  90
ENDBRANCH  43  44
ENDBRANCH  36  38
ENDBRANCH  35  36
ENDBRANCH  34  35
ENDBRANCH  33  34
ENDBRANCH  32  33
ENDBRANCH  31  32
ENDBRANCH   1  31
TORSDOF 24
ENDMDL
MODEL 2
REMARK VINA RESULT:      -8.9      4.309     11.125
REMARK SMILES Cc1ccccc1NC(=O)CSc1nc(C(=O)OCCOCCOCCOC(=O)c2ccc(-c3c4nc(c(-c5ccc(S(=O)(=O)[O-])cc5)c5ccc([nH]5)c(-c5ccc(S(=O)(=O)[O-])cc5)c5nc(c(-c6ccc(S(=O)(=O)[O-])cc6)c6ccc3[nH]6)C=C5)C=C4)cc2)c2ccccc2n1
REMARK SMILES IDX 22 1 21 2 20 3 19 4 18 5 16 6 17 7 15 8 13 9 14 10 96 11
REMARK SMILES IDX 95 12 90 13 94 14 91 15 93 16 92 17 12 18 11 19 9 20 8 21
REMARK SMILES IDX 10 23 7 24 1 25 2 26 3 27 4 28 6 29 5 30 23 31 24 32 25 33
REMARK SMILES IDX 26 34 27 35 28 36 29 37 30 38 31 39 89 40 32 41 88 42 33 43
REMARK SMILES IDX 34 44 35 45 82 46 36 47 87 48 81 49 83 50 37 51 86 52 80 53
REMARK SMILES IDX 79 54 38 56 68 57 49 58 67 59 50 60 53 61 66 62 84 63 51 64
REMARK SMILES IDX 52 65 65 67 85 68 54 69 39 70 40 71 48 72 41 73 47 74 42 75
REMARK SMILES IDX 43 76 44 77 45 78 46 79 69 80 70 81 78 82 71 83 77 84 72 85
REMARK SMILES IDX 73 86 74 87 75 88 76 89 55 90 56 91 64 92 57 93 63 94 58 95
REMARK SMILES IDX 59 96 60 97 61 98 62 99
REMARK H PARENT 8 22 83 55 53 66
REMARK Flexibility Score: inf
ROOT
ATOM      1  C   UNL A   1      35.353  31.730  28.321  1.00  0.00     0.188 C 
ENDROOT
BRANCH   1   2
ATOM      2  O   UNL A   1      34.672  31.198  27.186  1.00  0.00    -0.376 OA
BRANCH   2   3
ATOM      3  C   UNL A   1      33.288  30.917  27.546  1.00  0.00     0.202 C 
BRANCH   3   4
ATOM      4  C   UNL A   1      32.662  29.797  26.590  1.00  0.00     0.261 C 
BRANCH   4   5
ATOM      5  O   UNL A   1      33.048  29.686  25.044  1.00  0.00    -0.458 OA
BRANCH   5   6
ATOM      6  C   UNL A   1      32.794  28.946  23.886  1.00  0.00     0.357 C 
ATOM      7  O   UNL A   1      33.173  29.105  22.737  1.00  0.00    -0.244 OA
BRANCH   6   8
ATOM      8  C   UNL A   1      31.717  27.932  23.960  1.00  0.00     0.160 A 
ATOM      9  C   UNL A   1      31.007  25.798  23.495  1.00  0.00     0.189 A 
ATOM     10  N   UNL A   1      32.029  26.594  23.830  1.00  0.00    -0.215 NA
ATOM     11  N   UNL A   1      29.756  26.255  23.282  1.00  0.00    -0.222 NA
ATOM     12  C   UNL A   1      29.511  27.572  23.379  1.00  0.00     0.076 A 
ATOM     13  C   UNL A   1      30.481  28.493  23.725  1.00  0.00     0.034 A 
ATOM     14  C   UNL A   1      28.251  28.078  23.099  1.00  0.00     0.029 A 
ATOM     15  C   UNL A   1      30.223  29.888  23.732  1.00  0.00     0.013 A 
ATOM     16  C   UNL A   1      27.975  29.454  23.132  1.00  0.00     0.002 A 
ATOM     17  C   UNL A   1      28.968  30.367  23.438  1.00  0.00     0.001 A 
BRANCH   9  18
ATOM     18  S   UNL A   1      31.060  24.017  23.611  1.00  0.00    -0.076 SA
BRANCH  18  19
ATOM     19  C   UNL A   1      30.963  23.549  25.364  1.00  0.00     0.178 C 
BRANCH  19  20
ATOM     20  C   UNL A   1      31.894  24.270  26.330  1.00  0.00     0.234 C 
ATOM     21  N   UNL A   1      33.257  24.191  26.350  1.00  0.00    -0.325 N 
ATOM     22  H   UNL A   1      33.669  24.829  26.976  1.00  0.00     0.169 HD
ATOM     23  O   UNL A   1      31.393  24.956  27.234  1.00  0.00    -0.274 OA
BRANCH  21  24
ATOM     24  C   UNL A   1      34.199  23.399  25.673  1.00  0.00     0.044 A 
ATOM     25  C   UNL A   1      34.021  21.574  27.494  1.00  0.00     0.046 C 
ATOM     26  C   UNL A   1      34.581  22.155  26.222  1.00  0.00    -0.027 A 
ATOM     27  C   UNL A   1      35.588  21.404  25.582  1.00  0.00     0.005 A 
ATOM     28  C   UNL A   1      36.167  21.843  24.395  1.00  0.00     0.000 A 
ATOM     29  C   UNL A   1      34.735  23.788  24.441  1.00  0.00     0.026 A 
ATOM     30  C   UNL A   1      35.719  23.021  23.810  1.00  0.00     0.002 A 
ENDBRANCH  21  24
ENDBRANCH  19  20
ENDBRANCH  18  19
ENDBRANCH   9  18
ENDBRANCH   6   8
ENDBRANCH   5   6
ENDBRANCH   4   5
ENDBRANCH   3   4
ENDBRANCH   2   3
ENDBRANCH   1   2
BRANCH   1  31
ATOM     31  C   UNL A   1      35.119  33.191  28.669  1.00  0.00     0.188 C 
BRANCH  31  32
ATOM     32  O   UNL A   1      34.671  33.534  29.969  1.00  0.00    -0.376 OA
BRANCH  32  33
ATOM     33  C   UNL A   1      35.506  33.236  31.083  1.00  0.00     0.202 C 
BRANCH  33  34
ATOM     34  C   UNL A   1      35.133  32.129  32.119  1.00  0.00     0.261 C 
BRANCH  34  35
ATOM     35  O   UNL A   1      36.225  31.405  32.718  1.00  0.00    -0.460 OA
BRANCH  35  36
ATOM     36  C   UNL A   1      36.799  30.394  31.956  1.00  0.00     0.338 C 
ATOM     37  O   UNL A   1      36.146  29.641  31.246  1.00  0.00    -0.246 OA
BRANCH  36  38
ATOM     38  C   UNL A   1      38.210  30.761  31.617  1.00  0.00     0.060 A 
ATOM     39  C   UNL A   1      38.758  31.225  30.427  1.00  0.00     0.016 A 
ATOM     40  C   UNL A   1      39.100  30.544  32.616  1.00  0.00     0.016 A 
ATOM     41  C   UNL A   1      40.195  31.208  30.185  1.00  0.00     0.010 A 
ATOM     42  C   UNL A   1      40.442  30.344  32.255  1.00  0.00     0.010 A 
ATOM     43  C   UNL A   1      41.108  30.610  31.068  1.00  0.00    -0.014 A 
BRANCH  43  44
ATOM     44  C   UNL A   1      42.491  29.954  30.668  1.00  0.00     0.031 A 
ATOM     45  C   UNL A   1      42.952  28.503  30.205  1.00  0.00     0.074 A 
ATOM     46  C   UNL A   1      43.548  30.798  30.772  1.00  0.00     0.049 A 
ATOM     47  N   UNL A   1      43.659  27.614  30.868  1.00  0.00    -0.248 NA
ATOM     48  C   UNL A   1      42.772  27.988  28.836  1.00  0.00     0.031 C 
ATOM     49  C   UNL A   1      44.957  30.444  30.656  1.00  0.00     0.029 A 
ATOM     50  N   UNL A   1      43.578  32.084  31.309  1.00  0.00    -0.354 N 
ATOM     51  C   UNL A   1      43.940  26.525  29.998  1.00  0.00     0.074 A 
ATOM     52  C   UNL A   1      43.167  26.723  28.845  1.00  0.00     0.031 C 
ATOM     53  C   UNL A   1      45.632  31.248  31.497  1.00  0.00     0.029 A 
ATOM     54  C   UNL A   1      44.675  32.115  32.171  1.00  0.00     0.049 A 
ATOM     55  H   UNL A   1      42.953  32.821  31.119  1.00  0.00     0.167 HD
ATOM     56  C   UNL A   1      44.971  25.628  30.038  1.00  0.00     0.031 A 
ATOM     57  C   UNL A   1      44.492  32.250  33.519  1.00  0.00     0.031 A 
ATOM     58  C   UNL A   1      45.940  26.121  30.976  1.00  0.00     0.049 A 
ATOM     59  C   UNL A   1      44.819  30.949  34.259  1.00  0.00     0.074 A 
ATOM     60  C   UNL A   1      47.011  26.983  30.815  1.00  0.00     0.029 A 
ATOM     61  N   UNL A   1      45.541  26.216  32.292  1.00  0.00    -0.354 N 
ATOM     62  N   UNL A   1      45.272  29.860  33.683  1.00  0.00    -0.248 NA
ATOM     63  C   UNL A   1      44.657  30.759  35.700  1.00  0.00     0.031 C 
ATOM     64  C   UNL A   1      47.110  27.753  32.013  1.00  0.00     0.029 A 
ATOM     65  C   UNL A   1      46.172  27.282  32.915  1.00  0.00     0.049 A 
ATOM     66  H   UNL A   1      44.899  25.612  32.730  1.00  0.00     0.167 HD
ATOM     67  C   UNL A   1      45.407  28.848  34.605  1.00  0.00     0.074 A 
ATOM     68  C   UNL A   1      45.047  29.481  35.861  1.00  0.00     0.031 C 
ATOM     69  C   UNL A   1      45.790  27.569  34.291  1.00  0.00     0.031 A 
BRANCH  56  70
ATOM     70  C   UNL A   1      45.184  24.619  28.891  1.00  0.00    -0.014 A 
ATOM     71  C   UNL A   1      46.304  24.676  28.042  1.00  0.00     0.010 A 
ATOM     72  C   UNL A   1      44.207  23.643  28.548  1.00  0.00     0.010 A 
ATOM     73  C   UNL A   1      46.378  23.917  26.847  1.00  0.00     0.020 A 
ATOM     74  C   UNL A   1      44.241  22.923  27.333  1.00  0.00     0.020 A 
ATOM     75  C   UNL A   1      45.328  23.074  26.477  1.00  0.00     0.054 A 
BRANCH  75  76
ATOM     76  S   UNL A   1      45.347  22.251  24.847  1.00  0.00     0.124 S 
ATOM     77  O   UNL A   1      44.053  21.573  24.803  1.00  0.00    -0.237 OA
ATOM     78  O   UNL A   1      45.495  23.376  23.927  1.00  0.00    -0.237 OA
ATOM     79  O   UNL A   1      46.499  21.355  24.926  1.00  0.00    -0.744 OA
ENDBRANCH  75  76
ENDBRANCH  56  70
BRANCH  57  80
ATOM     80  C   UNL A   1      43.589  33.404  33.897  1.00  0.00    -0.014 A 
ATOM     81  C   UNL A   1      42.203  33.174  33.682  1.00  0.00     0.010 A 
ATOM     82  C   UNL A   1      43.924  34.547  34.642  1.00  0.00     0.010 A 
ATOM     83  C   UNL A   1      41.204  33.900  34.339  1.00  0.00     0.020 A 
ATOM     84  C   UNL A   1      42.911  35.316  35.278  1.00  0.00     0.020 A 
ATOM     85  C   UNL A   1      41.565  34.935  35.184  1.00  0.00     0.054 A 
BRANCH  85  86
ATOM     86  S   UNL A   1      40.328  35.557  36.373  1.00  0.00     0.124 S 
ATOM     87  O   UNL A   1      39.406  34.435  36.491  1.00  0.00    -0.237 OA
ATOM     88  O   UNL A   1      41.129  35.851  37.562  1.00  0.00    -0.237 OA
ATOM     89  O   UNL A   1      39.821  36.743  35.693  1.00  0.00    -0.744 OA
ENDBRANCH  85  86
ENDBRANCH  57  80
BRANCH  69  90
ATOM     90  C   UNL A   1      45.850  26.383  35.243  1.00  0.00    -0.014 A 
ATOM     91  C   UNL A   1      45.288  25.126  34.991  1.00  0.00     0.010 A 
ATOM     92  C   UNL A   1      46.679  26.494  36.394  1.00  0.00     0.010 A 
ATOM     93  C   UNL A   1      45.496  24.051  35.874  1.00  0.00     0.020 A 
ATOM     94  C   UNL A   1      46.957  25.414  37.230  1.00  0.00     0.020 A 
ATOM     95  C   UNL A   1      46.331  24.203  36.984  1.00  0.00     0.054 A 
BRANCH  95  96
ATOM     96  S   UNL A   1      46.647  22.817  38.105  1.00  0.00     0.124 S 
ATOM     97  O   UNL A   1      46.697  23.483  39.401  1.00  0.00    -0.237 OA
ATOM     98  O   UNL A   1      45.503  21.938  37.894  1.00  0.00    -0.237 OA
ATOM     99  O   UNL A   1      47.929  22.286  37.623  1.00  0.00    -0.744 OA
ENDBRANCH  95  96
ENDBRANCH  69  90
ENDBRANCH  43  44
ENDBRANCH  36  38
ENDBRANCH  35  36
ENDBRANCH  34  35
ENDBRANCH  33  34
ENDBRANCH  32  33
ENDBRANCH  31  32
ENDBRANCH   1  31
TORSDOF 24
ENDMDL
MODEL 3
REMARK VINA RESULT:      -8.8      9.822     16.386
REMARK SMILES Cc1ccccc1NC(=O)CSc1nc(C(=O)OCCOCCOCCOC(=O)c2ccc(-c3c4nc(c(-c5ccc(S(=O)(=O)[O-])cc5)c5ccc([nH]5)c(-c5ccc(S(=O)(=O)[O-])cc5)c5nc(c(-c6ccc(S(=O)(=O)[O-])cc6)c6ccc3[nH]6)C=C5)C=C4)cc2)c2ccccc2n1
REMARK SMILES IDX 22 1 21 2 20 3 19 4 18 5 16 6 17 7 15 8 13 9 14 10 96 11
REMARK SMILES IDX 95 12 90 13 94 14 91 15 93 16 92 17 12 18 11 19 9 20 8 21
REMARK SMILES IDX 10 23 7 24 1 25 2 26 3 27 4 28 6 29 5 30 23 31 24 32 25 33
REMARK SMILES IDX 26 34 27 35 28 36 29 37 30 38 31 39 89 40 32 41 88 42 33 43
REMARK SMILES IDX 34 44 35 45 82 46 36 47 87 48 81 49 83 50 37 51 86 52 80 53
REMARK SMILES IDX 79 54 38 56 68 57 49 58 67 59 50 60 53 61 66 62 84 63 51 64
REMARK SMILES IDX 52 65 65 67 85 68 54 69 39 70 40 71 48 72 41 73 47 74 42 75
REMARK SMILES IDX 43 76 44 77 45 78 46 79 69 80 70 81 78 82 71 83 77 84 72 85
REMARK SMILES IDX 73 86 74 87 75 88 76 89 55 90 56 91 64 92 57 93 63 94 58 95
REMARK SMILES IDX 59 96 60 97 61 98 62 99
REMARK H PARENT 8 22 83 55 53 66
REMARK Flexibility Score: inf
ROOT
ATOM      1  C   UNL A   1      46.672  39.708  28.705  1.00  0.00     0.188 C 
ENDROOT
BRANCH   1   2
ATOM      2  O   UNL A   1      46.437  40.909  27.971  1.00  0.00    -0.376 OA
BRANCH   2   3
ATOM      3  C   UNL A   1      46.811  40.699  26.578  1.00  0.00     0.202 C 
BRANCH   3   4
ATOM      4  C   UNL A   1      45.521  40.414  25.674  1.00  0.00     0.261 C 
BRANCH   4   5
ATOM      5  O   UNL A   1      45.011  41.447  24.569  1.00  0.00    -0.458 OA
BRANCH   5   6
ATOM      6  C   UNL A   1      44.805  42.808  24.331  1.00  0.00     0.357 C 
ATOM      7  O   UNL A   1      44.316  43.677  25.034  1.00  0.00    -0.244 OA
BRANCH   6   8
ATOM      8  C   UNL A   1      44.977  43.279  22.938  1.00  0.00     0.160 A 
ATOM      9  C   UNL A   1      45.915  44.794  21.488  1.00  0.00     0.189 A 
ATOM     10  N   UNL A   1      46.048  44.089  22.618  1.00  0.00    -0.215 NA
ATOM     11  N   UNL A   1      44.814  44.742  20.712  1.00  0.00    -0.222 NA
ATOM     12  C   UNL A   1      43.779  43.973  21.088  1.00  0.00     0.076 A 
ATOM     13  C   UNL A   1      43.799  43.192  22.228  1.00  0.00     0.034 A 
ATOM     14  C   UNL A   1      42.609  43.952  20.346  1.00  0.00     0.029 A 
ATOM     15  C   UNL A   1      42.663  42.458  22.654  1.00  0.00     0.013 A 
ATOM     16  C   UNL A   1      41.487  43.206  20.741  1.00  0.00     0.002 A 
ATOM     17  C   UNL A   1      41.508  42.463  21.908  1.00  0.00     0.001 A 
BRANCH   9  18
ATOM     18  S   UNL A   1      47.271  45.626  20.675  1.00  0.00    -0.076 SA
BRANCH  18  19
ATOM     19  C   UNL A   1      46.605  46.610  19.302  1.00  0.00     0.178 C 
BRANCH  19  20
ATOM     20  C   UNL A   1      46.680  46.000  17.908  1.00  0.00     0.234 C 
ATOM     21  N   UNL A   1      45.730  46.095  16.933  1.00  0.00    -0.325 N 
ATOM     22  H   UNL A   1      46.029  45.731  16.068  1.00  0.00     0.169 HD
ATOM     23  O   UNL A   1      47.659  45.294  17.622  1.00  0.00    -0.274 OA
BRANCH  21  24
ATOM     24  C   UNL A   1      44.419  46.598  16.892  1.00  0.00     0.044 A 
ATOM     25  C   UNL A   1      43.468  44.201  16.728  1.00  0.00     0.046 C 
ATOM     26  C   UNL A   1      43.334  45.700  16.778  1.00  0.00    -0.027 A 
ATOM     27  C   UNL A   1      42.028  46.216  16.653  1.00  0.00     0.005 A 
ATOM     28  C   UNL A   1      41.790  47.586  16.696  1.00  0.00     0.000 A 
ATOM     29  C   UNL A   1      44.154  47.967  17.010  1.00  0.00     0.026 A 
ATOM     30  C   UNL A   1      42.850  48.460  16.904  1.00  0.00     0.002 A 
ENDBRANCH  21  24
ENDBRANCH  19  20
ENDBRANCH  18  19
ENDBRANCH   9  18
ENDBRANCH   6   8
ENDBRANCH   5   6
ENDBRANCH   4   5
ENDBRANCH   3   4
ENDBRANCH   2   3
ENDBRANCH   1   2
BRANCH   1  31
ATOM     31  C   UNL A   1      45.542  38.694  28.787  1.00  0.00     0.188 C 
BRANCH  31  32
ATOM     32  O   UNL A   1      44.200  39.136  28.678  1.00  0.00    -0.376 OA
BRANCH  32  33
ATOM     33  C   UNL A   1      43.274  38.342  27.945  1.00  0.00     0.202 C 
BRANCH  33  34
ATOM     34  C   UNL A   1      43.740  37.153  27.046  1.00  0.00     0.261 C 
BRANCH  34  35
ATOM     35  O   UNL A   1      43.275  35.840  27.412  1.00  0.00    -0.460 OA
BRANCH  35  36
ATOM     36  C   UNL A   1      44.114  35.081  28.220  1.00  0.00     0.338 C 
ATOM     37  O   UNL A   1      44.452  35.429  29.343  1.00  0.00    -0.246 OA
BRANCH  36  38
ATOM     38  C   UNL A   1      43.992  33.636  27.853  1.00  0.00     0.060 A 
ATOM     39  C   UNL A   1      43.576  32.547  28.610  1.00  0.00     0.016 A 
ATOM     40  C   UNL A   1      44.415  33.338  26.600  1.00  0.00     0.016 A 
ATOM     41  C   UNL A   1      43.839  31.176  28.194  1.00  0.00     0.010 A 
ATOM     42  C   UNL A   1      44.835  32.021  26.354  1.00  0.00     0.010 A 
ATOM     43  C   UNL A   1      44.635  30.858  27.083  1.00  0.00    -0.014 A 
BRANCH  43  44
ATOM     44  C   UNL A   1      45.510  29.550  26.911  1.00  0.00     0.031 A 
ATOM     45  C   UNL A   1      45.189  28.002  26.729  1.00  0.00     0.074 A 
ATOM     46  C   UNL A   1      46.846  29.774  26.965  1.00  0.00     0.049 A 
ATOM     47  N   UNL A   1      45.369  27.020  27.583  1.00  0.00    -0.248 NA
ATOM     48  C   UNL A   1      44.768  27.402  25.450  1.00  0.00     0.031 C 
ATOM     49  C   UNL A   1      47.895  28.764  27.026  1.00  0.00     0.029 A 
ATOM     50  N   UNL A   1      47.513  30.956  27.288  1.00  0.00    -0.354 N 
ATOM     51  C   UNL A   1      45.067  25.794  26.928  1.00  0.00     0.074 A 
ATOM     52  C   UNL A   1      44.485  26.131  25.697  1.00  0.00     0.031 C 
ATOM     53  C   UNL A   1      48.886  29.275  27.779  1.00  0.00     0.029 A 
ATOM     54  C   UNL A   1      48.488  30.604  28.222  1.00  0.00     0.049 A 
ATOM     55  H   UNL A   1      47.332  31.855  26.930  1.00  0.00     0.167 HD
ATOM     56  C   UNL A   1      45.520  24.533  27.198  1.00  0.00     0.031 A 
ATOM     57  C   UNL A   1      48.406  31.054  29.510  1.00  0.00     0.031 A 
ATOM     58  C   UNL A   1      46.613  24.651  28.121  1.00  0.00     0.049 A 
ATOM     59  C   UNL A   1      48.052  29.917  30.475  1.00  0.00     0.074 A 
ATOM     60  C   UNL A   1      47.969  24.836  27.913  1.00  0.00     0.029 A 
ATOM     61  N   UNL A   1      46.324  25.167  29.367  1.00  0.00    -0.354 N 
ATOM     62  N   UNL A   1      47.903  28.662  30.123  1.00  0.00    -0.248 NA
ATOM     63  C   UNL A   1      47.828  30.096  31.910  1.00  0.00     0.031 C 
ATOM     64  C   UNL A   1      48.445  25.663  28.974  1.00  0.00     0.029 A 
ATOM     65  C   UNL A   1      47.404  25.882  29.859  1.00  0.00     0.049 A 
ATOM     66  H   UNL A   1      45.470  25.043  29.841  1.00  0.00     0.167 HD
ATOM     67  C   UNL A   1      47.527  27.899  31.204  1.00  0.00     0.074 A 
ATOM     68  C   UNL A   1      47.536  28.844  32.307  1.00  0.00     0.031 C 
ATOM     69  C   UNL A   1      47.224  26.564  31.134  1.00  0.00     0.031 A 
BRANCH  56  70
ATOM     70  C   UNL A   1      45.197  23.359  26.250  1.00  0.00    -0.014 A 
ATOM     71  C   UNL A   1      44.009  22.615  26.357  1.00  0.00     0.010 A 
ATOM     72  C   UNL A   1      46.131  22.884  25.287  1.00  0.00     0.010 A 
ATOM     73  C   UNL A   1      43.823  21.395  25.659  1.00  0.00     0.020 A 
ATOM     74  C   UNL A   1      45.984  21.642  24.629  1.00  0.00     0.020 A 
ATOM     75  C   UNL A   1      44.829  20.893  24.830  1.00  0.00     0.054 A 
BRANCH  75  76
ATOM     76  S   UNL A   1      44.660  19.232  24.091  1.00  0.00     0.124 S 
ATOM     77  O   UNL A   1      43.507  18.672  24.793  1.00  0.00    -0.237 OA
ATOM     78  O   UNL A   1      44.446  19.535  22.678  1.00  0.00    -0.237 OA
ATOM     79  O   UNL A   1      45.933  18.584  24.402  1.00  0.00    -0.744 OA
ENDBRANCH  75  76
ENDBRANCH  56  70
BRANCH  57  80
ATOM     80  C   UNL A   1      48.195  32.548  29.620  1.00  0.00    -0.014 A 
ATOM     81  C   UNL A   1      47.063  32.937  30.386  1.00  0.00     0.010 A 
ATOM     82  C   UNL A   1      49.095  33.569  29.274  1.00  0.00     0.010 A 
ATOM     83  C   UNL A   1      46.936  34.207  30.958  1.00  0.00     0.020 A 
ATOM     84  C   UNL A   1      48.949  34.875  29.817  1.00  0.00     0.020 A 
ATOM     85  C   UNL A   1      47.913  35.158  30.718  1.00  0.00     0.054 A 
BRANCH  85  86
ATOM     86  S   UNL A   1      47.992  36.617  31.812  1.00  0.00     0.124 S 
ATOM     87  O   UNL A   1      49.006  37.443  31.170  1.00  0.00    -0.237 OA
ATOM     88  O   UNL A   1      46.625  37.137  31.769  1.00  0.00    -0.237 OA
ATOM     89  O   UNL A   1      48.359  36.019  33.090  1.00  0.00    -0.744 OA
ENDBRANCH  85  86
ENDBRANCH  57  80
BRANCH  69  90
ATOM     90  C   UNL A   1      46.697  25.695  32.267  1.00  0.00    -0.014 A 
ATOM     91  C   UNL A   1      47.398  25.403  33.443  1.00  0.00     0.010 A 
ATOM     92  C   UNL A   1      45.334  25.290  32.217  1.00  0.00     0.010 A 
ATOM     93  C   UNL A   1      46.786  24.690  34.491  1.00  0.00     0.020 A 
ATOM     94  C   UNL A   1      44.696  24.656  33.282  1.00  0.00     0.020 A 
ATOM     95  C   UNL A   1      45.440  24.326  34.403  1.00  0.00     0.054 A 
BRANCH  95  96
ATOM     96  S   UNL A   1      44.624  23.449  35.761  1.00  0.00     0.124 S 
ATOM     97  O   UNL A   1      45.535  22.333  35.989  1.00  0.00    -0.237 OA
ATOM     98  O   UNL A   1      44.571  24.444  36.826  1.00  0.00    -0.237 OA
ATOM     99  O   UNL A   1      43.321  23.090  35.188  1.00  0.00    -0.744 OA
ENDBRANCH  95  96
ENDBRANCH  69  90
ENDBRANCH  43  44
ENDBRANCH  36  38
ENDBRANCH  35  36
ENDBRANCH  34  35
ENDBRANCH  33  34
ENDBRANCH  32  33
ENDBRANCH  31  32
ENDBRANCH   1  31
TORSDOF 24
ENDMDL
