MODEL 1
REMARK VINA RESULT:      -9.9      0.000      0.000
REMARK SMILES O=C(OCCOCCOCCOC(=O)[C@@H]1CCCC[C@H]1C(=O)Nc1ccc(NC(=O)c2ccco2)cc1)c1ccc(-c2c3nc(c(-c4ccc(S(=O)(=O)[O-])cc4)c4ccc([nH]4)c(-c4ccc(S(=O)(=O)[O-])cc4)c4nc(c(-c5ccc(S(=O)(=O)[O-])cc5)c5ccc2[nH]5)C=C4)C=C3)cc1
REMARK SMILES IDX 8 1 7 2 6 3 5 4 4 5 3 6 2 7 1 8 38 9 39 10 97 11 40 12 96 13
REMARK SMILES IDX 41 14 42 15 43 16 90 17 44 18 95 19 89 20 91 21 45 22 94 23
REMARK SMILES IDX 88 24 87 25 46 27 76 28 57 29 75 30 58 31 61 32 74 33 92 34
REMARK SMILES IDX 59 35 60 36 73 38 93 39 62 40 47 41 48 42 56 43 49 44 55 45
REMARK SMILES IDX 50 46 51 47 52 48 53 49 54 50 77 51 78 52 86 53 79 54 85 55
REMARK SMILES IDX 80 56 81 57 82 58 83 59 84 60 63 61 64 62 72 63 65 64 71 65
REMARK SMILES IDX 66 66 67 67 68 68 69 69 70 70 9 71 10 72 11 73 12 74 13 75
REMARK SMILES IDX 14 76 15 77 16 78 20 79 17 80 19 81 18 82 21 83 22 84 23 85
REMARK SMILES IDX 24 87 25 88 37 89 26 90 36 91 27 92 28 93 29 94 30 96 31 97
REMARK SMILES IDX 32 98 35 99 33 100 34 101
REMARK H PARENT 91 26 61 37 23 86 28 95
REMARK Flexibility Score: inf
ROOT
ATOM      1  C   UNL A   1      37.814  22.954  25.569  1.00  0.00     0.188 C 
ENDROOT
BRANCH   1   2
ATOM      2  C   UNL A   1      39.017  23.005  26.514  1.00  0.00     0.188 C 
BRANCH   2   3
ATOM      3  O   UNL A   1      39.489  21.692  26.851  1.00  0.00    -0.376 OA
BRANCH   3   4
ATOM      4  C   UNL A   1      40.538  21.236  25.989  1.00  0.00     0.202 C 
BRANCH   4   5
ATOM      5  C   UNL A   1      40.994  19.791  26.240  1.00  0.00     0.261 C 
BRANCH   5   6
ATOM      6  O   UNL A   1      42.107  19.414  25.419  1.00  0.00    -0.460 OA
BRANCH   6   7
ATOM      7  C   UNL A   1      43.273  20.086  25.260  1.00  0.00     0.338 C 
ATOM      8  O   UNL A   1      44.089  19.652  24.446  1.00  0.00    -0.246 OA
BRANCH   7   9
ATOM      9  C   UNL A   1      43.612  21.352  25.984  1.00  0.00     0.060 A 
ATOM     10  C   UNL A   1      43.608  21.543  27.371  1.00  0.00     0.016 A 
ATOM     11  C   UNL A   1      44.075  22.406  25.192  1.00  0.00     0.016 A 
ATOM     12  C   UNL A   1      43.975  22.765  27.957  1.00  0.00     0.010 A 
ATOM     13  C   UNL A   1      44.543  23.584  25.779  1.00  0.00     0.010 A 
ATOM     14  C   UNL A   1      44.479  23.793  27.170  1.00  0.00    -0.014 A 
BRANCH  14  15
ATOM     15  C   UNL A   1      44.914  25.115  27.704  1.00  0.00     0.031 A 
ATOM     16  C   UNL A   1      43.851  26.158  27.883  1.00  0.00     0.074 A 
ATOM     17  C   UNL A   1      46.210  25.451  27.882  1.00  0.00     0.049 A 
ATOM     18  N   UNL A   1      43.973  27.450  27.982  1.00  0.00    -0.248 NA
ATOM     19  C   UNL A   1      42.463  25.666  27.977  1.00  0.00     0.031 C 
ATOM     20  C   UNL A   1      47.352  24.547  27.937  1.00  0.00     0.029 A 
ATOM     21  N   UNL A   1      46.802  26.698  27.895  1.00  0.00    -0.354 N 
ATOM     22  C   UNL A   1      42.685  27.921  28.181  1.00  0.00     0.074 A 
ATOM     23  C   UNL A   1      41.785  26.798  28.069  1.00  0.00     0.031 C 
ATOM     24  C   UNL A   1      48.486  25.236  27.720  1.00  0.00     0.029 A 
ATOM     25  C   UNL A   1      48.142  26.636  27.555  1.00  0.00     0.049 A 
ATOM     26  H   UNL A   1      46.327  27.531  28.119  1.00  0.00     0.167 HD
ATOM     27  C   UNL A   1      42.302  29.175  28.508  1.00  0.00     0.031 A 
ATOM     28  C   UNL A   1      48.964  27.593  27.080  1.00  0.00     0.031 A 
ATOM     29  C   UNL A   1      43.223  30.265  28.631  1.00  0.00     0.049 A 
ATOM     30  C   UNL A   1      48.493  29.011  27.177  1.00  0.00     0.074 A 
ATOM     31  C   UNL A   1      42.990  31.558  29.058  1.00  0.00     0.029 A 
ATOM     32  N   UNL A   1      44.569  30.183  28.305  1.00  0.00    -0.354 N 
ATOM     33  N   UNL A   1      47.307  29.449  27.521  1.00  0.00    -0.248 NA
ATOM     34  C   UNL A   1      49.487  30.063  26.932  1.00  0.00     0.031 C 
ATOM     35  C   UNL A   1      44.184  32.276  28.920  1.00  0.00     0.029 A 
ATOM     36  C   UNL A   1      45.163  31.422  28.436  1.00  0.00     0.049 A 
ATOM     37  H   UNL A   1      45.032  29.361  28.021  1.00  0.00     0.167 HD
ATOM     38  C   UNL A   1      47.442  30.823  27.653  1.00  0.00     0.074 A 
ATOM     39  C   UNL A   1      48.807  31.147  27.283  1.00  0.00     0.031 C 
ATOM     40  C   UNL A   1      46.528  31.719  28.091  1.00  0.00     0.031 A 
BRANCH  27  41
ATOM     41  C   UNL A   1      40.847  29.389  28.795  1.00  0.00    -0.014 A 
ATOM     42  C   UNL A   1      39.920  29.453  27.737  1.00  0.00     0.010 A 
ATOM     43  C   UNL A   1      40.397  29.532  30.117  1.00  0.00     0.010 A 
ATOM     44  C   UNL A   1      38.569  29.687  27.995  1.00  0.00     0.020 A 
ATOM     45  C   UNL A   1      39.040  29.742  30.380  1.00  0.00     0.020 A 
ATOM     46  C   UNL A   1      38.138  29.830  29.316  1.00  0.00     0.054 A 
BRANCH  46  47
ATOM     47  S   UNL A   1      36.370  30.087  29.620  1.00  0.00     0.124 S 
ATOM     48  O   UNL A   1      35.766  29.415  28.472  1.00  0.00    -0.237 OA
ATOM     49  O   UNL A   1      36.170  29.428  30.908  1.00  0.00    -0.237 OA
ATOM     50  O   UNL A   1      36.227  31.540  29.638  1.00  0.00    -0.744 OA
ENDBRANCH  46  47
ENDBRANCH  27  41
BRANCH  28  51
ATOM     51  C   UNL A   1      50.275  27.269  26.452  1.00  0.00    -0.014 A 
ATOM     52  C   UNL A   1      50.392  26.987  25.082  1.00  0.00     0.010 A 
ATOM     53  C   UNL A   1      51.419  27.156  27.267  1.00  0.00     0.010 A 
ATOM     54  C   UNL A   1      51.616  26.564  24.545  1.00  0.00     0.020 A 
ATOM     55  C   UNL A   1      52.648  26.751  26.732  1.00  0.00     0.020 A 
ATOM     56  C   UNL A   1      52.735  26.439  25.375  1.00  0.00     0.054 A 
BRANCH  56  57
ATOM     57  S   UNL A   1      54.302  25.862  24.660  1.00  0.00     0.124 S 
ATOM     58  O   UNL A   1      54.101  24.417  24.616  1.00  0.00    -0.237 OA
ATOM     59  O   UNL A   1      54.324  26.539  23.367  1.00  0.00    -0.237 OA
ATOM     60  O   UNL A   1      55.305  26.325  25.617  1.00  0.00    -0.744 OA
ENDBRANCH  56  57
ENDBRANCH  28  51
BRANCH  40  61
ATOM     61  C   UNL A   1      46.992  33.131  28.268  1.00  0.00    -0.014 A 
ATOM     62  C   UNL A   1      47.610  33.543  29.458  1.00  0.00     0.010 A 
ATOM     63  C   UNL A   1      46.860  34.033  27.198  1.00  0.00     0.010 A 
ATOM     64  C   UNL A   1      48.083  34.849  29.580  1.00  0.00     0.020 A 
ATOM     65  C   UNL A   1      47.356  35.331  27.307  1.00  0.00     0.020 A 
ATOM     66  C   UNL A   1      47.957  35.732  28.503  1.00  0.00     0.054 A 
BRANCH  66  67
ATOM     67  S   UNL A   1      48.646  37.399  28.660  1.00  0.00     0.124 S 
ATOM     68  O   UNL A   1      49.787  37.341  27.751  1.00  0.00    -0.237 OA
ATOM     69  O   UNL A   1      47.538  38.247  28.227  1.00  0.00    -0.237 OA
ATOM     70  O   UNL A   1      48.982  37.501  30.079  1.00  0.00    -0.744 OA
ENDBRANCH  66  67
ENDBRANCH  40  61
ENDBRANCH  14  15
ENDBRANCH   7   9
ENDBRANCH   6   7
ENDBRANCH   5   6
ENDBRANCH   4   5
ENDBRANCH   3   4
ENDBRANCH   2   3
ENDBRANCH   1   2
BRANCH   1  71
ATOM     71  O   UNL A   1      36.978  24.115  25.560  1.00  0.00    -0.376 OA
BRANCH  71  72
ATOM     72  C   UNL A   1      35.622  23.934  25.160  1.00  0.00     0.202 C 
BRANCH  72  73
ATOM     73  C   UNL A   1      35.147  24.710  23.926  1.00  0.00     0.261 C 
BRANCH  73  74
ATOM     74  O   UNL A   1      34.160  25.704  24.218  1.00  0.00    -0.463 OA
BRANCH  74  75
ATOM     75  C   UNL A   1      33.511  26.257  23.147  1.00  0.00     0.309 C 
ATOM     76  O   UNL A   1      33.713  25.979  21.977  1.00  0.00    -0.252 OA
BRANCH  75  77
ATOM     77  C   UNL A   1      32.485  27.271  23.649  1.00  0.00     0.111 C 
ATOM     78  C   UNL A   1      33.145  28.523  24.213  1.00  0.00     0.016 C 
ATOM     79  C   UNL A   1      31.517  26.543  24.609  1.00  0.00     0.093 C 
ATOM     80  C   UNL A   1      32.144  29.370  24.982  1.00  0.00     0.001 C 
ATOM     81  C   UNL A   1      30.916  27.316  25.786  1.00  0.00     0.014 C 
ATOM     82  C   UNL A   1      31.641  28.593  26.183  1.00  0.00     0.001 C 
BRANCH  79  83
ATOM     83  C   UNL A   1      30.462  25.906  23.713  1.00  0.00     0.228 C 
ATOM     84  O   UNL A   1      29.744  26.606  22.994  1.00  0.00    -0.274 OA
ATOM     85  N   UNL A   1      30.139  24.586  23.897  1.00  0.00    -0.326 N 
ATOM     86  H   UNL A   1      29.175  24.386  23.895  1.00  0.00     0.169 HD
BRANCH  85  87
ATOM     87  C   UNL A   1      30.978  23.479  24.087  1.00  0.00     0.041 A 
ATOM     88  C   UNL A   1      31.327  23.099  25.376  1.00  0.00     0.028 A 
ATOM     89  C   UNL A   1      31.737  23.009  23.023  1.00  0.00     0.028 A 
ATOM     90  C   UNL A   1      32.466  22.331  25.623  1.00  0.00     0.028 A 
ATOM     91  C   UNL A   1      32.835  22.172  23.266  1.00  0.00     0.028 A 
ATOM     92  C   UNL A   1      33.252  21.879  24.575  1.00  0.00     0.041 A 
BRANCH  92  93
ATOM     93  N   UNL A   1      34.463  21.182  24.703  1.00  0.00    -0.319 N 
ATOM     94  C   UNL A   1      34.831  19.853  24.773  1.00  0.00     0.291 C 
ATOM     95  H   UNL A   1      35.237  21.787  24.755  1.00  0.00     0.170 HD
ATOM     96  O   UNL A   1      36.042  19.655  24.926  1.00  0.00    -0.265 OA
BRANCH  94  97
ATOM     97  C   UNL A   1      33.880  18.769  24.759  1.00  0.00     0.191 A 
ATOM     98  C   UNL A   1      32.794  18.449  25.553  1.00  0.00     0.056 A 
ATOM     99  O   UNL A   1      33.922  17.910  23.691  1.00  0.00    -0.459 OA
ATOM    100  C   UNL A   1      32.193  17.299  24.984  1.00  0.00     0.043 A 
ATOM    101  C   UNL A   1      32.898  17.029  23.837  1.00  0.00     0.196 A 
ENDBRANCH  94  97
ENDBRANCH  92  93
ENDBRANCH  85  87
ENDBRANCH  79  83
ENDBRANCH  75  77
ENDBRANCH  74  75
ENDBRANCH  73  74
ENDBRANCH  72  73
ENDBRANCH  71  72
ENDBRANCH   1  71
TORSDOF 24
ENDMDL
MODEL 2
REMARK VINA RESULT:      -9.7      2.042      8.912
REMARK SMILES O=C(OCCOCCOCCOC(=O)[C@@H]1CCCC[C@H]1C(=O)Nc1ccc(NC(=O)c2ccco2)cc1)c1ccc(-c2c3nc(c(-c4ccc(S(=O)(=O)[O-])cc4)c4ccc([nH]4)c(-c4ccc(S(=O)(=O)[O-])cc4)c4nc(c(-c5ccc(S(=O)(=O)[O-])cc5)c5ccc2[nH]5)C=C4)C=C3)cc1
REMARK SMILES IDX 8 1 7 2 6 3 5 4 4 5 3 6 2 7 1 8 38 9 39 10 97 11 40 12 96 13
REMARK SMILES IDX 41 14 42 15 43 16 90 17 44 18 95 19 89 20 91 21 45 22 94 23
REMARK SMILES IDX 88 24 87 25 46 27 76 28 57 29 75 30 58 31 61 32 74 33 92 34
REMARK SMILES IDX 59 35 60 36 73 38 93 39 62 40 47 41 48 42 56 43 49 44 55 45
REMARK SMILES IDX 50 46 51 47 52 48 53 49 54 50 77 51 78 52 86 53 79 54 85 55
REMARK SMILES IDX 80 56 81 57 82 58 83 59 84 60 63 61 64 62 72 63 65 64 71 65
REMARK SMILES IDX 66 66 67 67 68 68 69 69 70 70 9 71 10 72 11 73 12 74 13 75
REMARK SMILES IDX 14 76 15 77 16 78 20 79 17 80 19 81 18 82 21 83 22 84 23 85
REMARK SMILES IDX 24 87 25 88 37 89 26 90 36 91 27 92 28 93 29 94 30 96 31 97
REMARK SMILES IDX 32 98 35 99 33 100 34 101
REMARK H PARENT 91 26 61 37 23 86 28 95
REMARK Flexibility Score: inf
ROOT
ATOM      1  C   UNL A   1      38.512  21.023  25.232  1.00  0.00     0.188 C 
ENDROOT
BRANCH   1   2
ATOM      2  C   UNL A   1      39.251  21.955  26.195  1.00  0.00     0.188 C 
BRANCH   2   3
ATOM      3  O   UNL A   1      40.600  21.522  26.429  1.00  0.00    -0.376 OA
BRANCH   3   4
ATOM      4  C   UNL A   1      40.686  20.150  26.829  1.00  0.00     0.202 C 
BRANCH   4   5
ATOM      5  C   UNL A   1      41.606  19.283  25.958  1.00  0.00     0.261 C 
BRANCH   5   6
ATOM      6  O   UNL A   1      42.991  19.618  26.116  1.00  0.00    -0.460 OA
BRANCH   6   7
ATOM      7  C   UNL A   1      43.718  20.475  25.357  1.00  0.00     0.338 C 
ATOM      8  O   UNL A   1      44.117  20.086  24.259  1.00  0.00    -0.246 OA
BRANCH   7   9
ATOM      9  C   UNL A   1      44.031  21.884  25.757  1.00  0.00     0.060 A 
ATOM     10  C   UNL A   1      44.561  22.303  26.983  1.00  0.00     0.016 A 
ATOM     11  C   UNL A   1      43.870  22.853  24.762  1.00  0.00     0.016 A 
ATOM     12  C   UNL A   1      44.850  23.650  27.251  1.00  0.00     0.010 A 
ATOM     13  C   UNL A   1      44.260  24.175  24.989  1.00  0.00     0.010 A 
ATOM     14  C   UNL A   1      44.734  24.601  26.245  1.00  0.00    -0.014 A 
BRANCH  14  15
ATOM     15  C   UNL A   1      45.039  26.049  26.428  1.00  0.00     0.031 A 
ATOM     16  C   UNL A   1      46.480  26.455  26.342  1.00  0.00     0.074 A 
ATOM     17  C   UNL A   1      44.115  26.958  26.809  1.00  0.00     0.049 A 
ATOM     18  N   UNL A   1      47.062  27.529  26.792  1.00  0.00    -0.248 NA
ATOM     19  C   UNL A   1      47.380  25.524  25.635  1.00  0.00     0.031 C 
ATOM     20  C   UNL A   1      42.666  26.804  26.771  1.00  0.00     0.029 A 
ATOM     21  N   UNL A   1      44.282  28.161  27.465  1.00  0.00    -0.354 N 
ATOM     22  C   UNL A   1      48.386  27.417  26.397  1.00  0.00     0.074 A 
ATOM     23  C   UNL A   1      48.551  26.123  25.779  1.00  0.00     0.031 C 
ATOM     24  C   UNL A   1      42.094  27.713  27.581  1.00  0.00     0.029 A 
ATOM     25  C   UNL A   1      43.143  28.534  28.156  1.00  0.00     0.049 A 
ATOM     26  H   UNL A   1      45.114  28.690  27.442  1.00  0.00     0.167 HD
ATOM     27  C   UNL A   1      49.357  28.353  26.476  1.00  0.00     0.031 A 
ATOM     28  C   UNL A   1      42.995  29.380  29.194  1.00  0.00     0.031 A 
ATOM     29  C   UNL A   1      49.156  29.637  27.078  1.00  0.00     0.049 A 
ATOM     30  C   UNL A   1      44.143  30.288  29.510  1.00  0.00     0.074 A 
ATOM     31  C   UNL A   1      50.015  30.717  27.133  1.00  0.00     0.029 A 
ATOM     32  N   UNL A   1      47.999  30.004  27.752  1.00  0.00    -0.354 N 
ATOM     33  N   UNL A   1      45.353  30.267  29.008  1.00  0.00    -0.248 NA
ATOM     34  C   UNL A   1      43.885  31.394  30.439  1.00  0.00     0.031 C 
ATOM     35  C   UNL A   1      49.403  31.713  27.904  1.00  0.00     0.029 A 
ATOM     36  C   UNL A   1      48.153  31.261  28.301  1.00  0.00     0.049 A 
ATOM     37  H   UNL A   1      47.189  29.450  27.827  1.00  0.00     0.167 HD
ATOM     38  C   UNL A   1      45.965  31.424  29.465  1.00  0.00     0.074 A 
ATOM     39  C   UNL A   1      45.014  32.084  30.339  1.00  0.00     0.031 C 
ATOM     40  C   UNL A   1      47.185  31.913  29.144  1.00  0.00     0.031 A 
BRANCH  27  41
ATOM     41  C   UNL A   1      50.678  28.017  25.854  1.00  0.00    -0.014 A 
ATOM     42  C   UNL A   1      50.902  28.275  24.488  1.00  0.00     0.010 A 
ATOM     43  C   UNL A   1      51.699  27.439  26.624  1.00  0.00     0.010 A 
ATOM     44  C   UNL A   1      52.116  27.931  23.894  1.00  0.00     0.020 A 
ATOM     45  C   UNL A   1      52.927  27.117  26.037  1.00  0.00     0.020 A 
ATOM     46  C   UNL A   1      53.122  27.355  24.673  1.00  0.00     0.054 A 
BRANCH  46  47
ATOM     47  S   UNL A   1      54.705  26.964  23.882  1.00  0.00     0.124 S 
ATOM     48  O   UNL A   1      55.498  28.151  24.192  1.00  0.00    -0.237 OA
ATOM     49  O   UNL A   1      55.112  25.742  24.571  1.00  0.00    -0.237 OA
ATOM     50  O   UNL A   1      54.358  26.796  22.474  1.00  0.00    -0.744 OA
ENDBRANCH  46  47
ENDBRANCH  27  41
BRANCH  28  51
ATOM     51  C   UNL A   1      41.758  29.402  30.025  1.00  0.00    -0.014 A 
ATOM     52  C   UNL A   1      41.731  28.876  31.327  1.00  0.00     0.010 A 
ATOM     53  C   UNL A   1      40.560  29.884  29.464  1.00  0.00     0.010 A 
ATOM     54  C   UNL A   1      40.524  28.798  32.036  1.00  0.00     0.020 A 
ATOM     55  C   UNL A   1      39.355  29.825  30.175  1.00  0.00     0.020 A 
ATOM     56  C   UNL A   1      39.341  29.264  31.452  1.00  0.00     0.054 A 
BRANCH  56  57
ATOM     57  S   UNL A   1      37.786  29.126  32.381  1.00  0.00     0.124 S 
ATOM     58  O   UNL A   1      37.848  27.752  32.871  1.00  0.00    -0.237 OA
ATOM     59  O   UNL A   1      37.931  30.168  33.393  1.00  0.00    -0.237 OA
ATOM     60  O   UNL A   1      36.761  29.384  31.372  1.00  0.00    -0.744 OA
ENDBRANCH  56  57
ENDBRANCH  28  51
BRANCH  40  61
ATOM     61  C   UNL A   1      47.538  33.265  29.679  1.00  0.00    -0.014 A 
ATOM     62  C   UNL A   1      48.234  33.403  30.889  1.00  0.00     0.010 A 
ATOM     63  C   UNL A   1      47.221  34.405  28.919  1.00  0.00     0.010 A 
ATOM     64  C   UNL A   1      48.600  34.670  31.341  1.00  0.00     0.020 A 
ATOM     65  C   UNL A   1      47.609  35.670  29.355  1.00  0.00     0.020 A 
ATOM     66  C   UNL A   1      48.289  35.795  30.569  1.00  0.00     0.054 A 
BRANCH  66  67
ATOM     67  S   UNL A   1      48.842  37.422  31.140  1.00  0.00     0.124 S 
ATOM     68  O   UNL A   1      48.333  38.299  30.090  1.00  0.00    -0.237 OA
ATOM     69  O   UNL A   1      48.183  37.546  32.439  1.00  0.00    -0.237 OA
ATOM     70  O   UNL A   1      50.296  37.292  31.197  1.00  0.00    -0.744 OA
ENDBRANCH  66  67
ENDBRANCH  40  61
ENDBRANCH  14  15
ENDBRANCH   7   9
ENDBRANCH   6   7
ENDBRANCH   5   6
ENDBRANCH   4   5
ENDBRANCH   3   4
ENDBRANCH   2   3
ENDBRANCH   1   2
BRANCH   1  71
ATOM     71  O   UNL A   1      37.140  21.346  24.981  1.00  0.00    -0.376 OA
BRANCH  71  72
ATOM     72  C   UNL A   1      36.543  22.334  25.818  1.00  0.00     0.202 C 
BRANCH  72  73
ATOM     73  C   UNL A   1      35.245  21.949  26.536  1.00  0.00     0.261 C 
BRANCH  73  74
ATOM     74  O   UNL A   1      34.071  22.135  25.739  1.00  0.00    -0.463 OA
BRANCH  74  75
ATOM     75  C   UNL A   1      33.727  23.426  25.445  1.00  0.00     0.309 C 
ATOM     76  O   UNL A   1      34.036  24.407  26.100  1.00  0.00    -0.252 OA
BRANCH  75  77
ATOM     77  C   UNL A   1      32.903  23.447  24.159  1.00  0.00     0.111 C 
ATOM     78  C   UNL A   1      33.646  22.811  22.992  1.00  0.00     0.016 C 
ATOM     79  C   UNL A   1      32.413  24.894  23.923  1.00  0.00     0.093 C 
ATOM     80  C   UNL A   1      32.956  23.116  21.672  1.00  0.00     0.001 C 
ATOM     81  C   UNL A   1      32.251  25.399  22.487  1.00  0.00     0.014 C 
ATOM     82  C   UNL A   1      32.991  24.611  21.417  1.00  0.00     0.001 C 
BRANCH  79  83
ATOM     83  C   UNL A   1      31.141  25.030  24.751  1.00  0.00     0.228 C 
ATOM     84  O   UNL A   1      30.405  24.057  24.934  1.00  0.00    -0.274 OA
ATOM     85  N   UNL A   1      30.686  26.283  25.073  1.00  0.00    -0.326 N 
ATOM     86  H   UNL A   1      29.719  26.423  24.950  1.00  0.00     0.169 HD
BRANCH  85  87
ATOM     87  C   UNL A   1      31.393  27.394  25.555  1.00  0.00     0.041 A 
ATOM     88  C   UNL A   1      31.504  27.591  26.925  1.00  0.00     0.028 A 
ATOM     89  C   UNL A   1      31.650  28.460  24.703  1.00  0.00     0.028 A 
ATOM     90  C   UNL A   1      31.783  28.852  27.456  1.00  0.00     0.028 A 
ATOM     91  C   UNL A   1      32.008  29.706  25.234  1.00  0.00     0.028 A 
ATOM     92  C   UNL A   1      32.012  29.933  26.620  1.00  0.00     0.041 A 
BRANCH  92  93
ATOM     93  N   UNL A   1      32.210  31.259  27.035  1.00  0.00    -0.319 N 
ATOM     94  C   UNL A   1      33.276  31.988  27.524  1.00  0.00     0.291 C 
ATOM     95  H   UNL A   1      31.391  31.798  26.960  1.00  0.00     0.170 HD
ATOM     96  O   UNL A   1      33.014  33.162  27.814  1.00  0.00    -0.265 OA
BRANCH  94  97
ATOM     97  C   UNL A   1      34.578  31.419  27.765  1.00  0.00     0.191 A 
ATOM     98  C   UNL A   1      35.131  30.175  27.516  1.00  0.00     0.056 A 
ATOM     99  O   UNL A   1      35.561  32.263  28.214  1.00  0.00    -0.459 OA
ATOM    100  C   UNL A   1      36.492  30.246  27.901  1.00  0.00     0.043 A 
ATOM    101  C   UNL A   1      36.711  31.545  28.290  1.00  0.00     0.196 A 
ENDBRANCH  94  97
ENDBRANCH  92  93
ENDBRANCH  85  87
ENDBRANCH  79  83
ENDBRANCH  75  77
ENDBRANCH  74  75
ENDBRANCH  73  74
ENDBRANCH  72  73
ENDBRANCH  71  72
ENDBRANCH   1  71
TORSDOF 24
ENDMDL
MODEL 3
REMARK VINA RESULT:      -9.6      3.582      7.588
REMARK SMILES O=C(OCCOCCOCCOC(=O)[C@@H]1CCCC[C@H]1C(=O)Nc1ccc(NC(=O)c2ccco2)cc1)c1ccc(-c2c3nc(c(-c4ccc(S(=O)(=O)[O-])cc4)c4ccc([nH]4)c(-c4ccc(S(=O)(=O)[O-])cc4)c4nc(c(-c5ccc(S(=O)(=O)[O-])cc5)c5ccc2[nH]5)C=C4)C=C3)cc1
REMARK SMILES IDX 8 1 7 2 6 3 5 4 4 5 3 6 2 7 1 8 38 9 39 10 97 11 40 12 96 13
REMARK SMILES IDX 41 14 42 15 43 16 90 17 44 18 95 19 89 20 91 21 45 22 94 23
REMARK SMILES IDX 88 24 87 25 46 27 76 28 57 29 75 30 58 31 61 32 74 33 92 34
REMARK SMILES IDX 59 35 60 36 73 38 93 39 62 40 47 41 48 42 56 43 49 44 55 45
REMARK SMILES IDX 50 46 51 47 52 48 53 49 54 50 77 51 78 52 86 53 79 54 85 55
REMARK SMILES IDX 80 56 81 57 82 58 83 59 84 60 63 61 64 62 72 63 65 64 71 65
REMARK SMILES IDX 66 66 67 67 68 68 69 69 70 70 9 71 10 72 11 73 12 74 13 75
REMARK SMILES IDX 14 76 15 77 16 78 20 79 17 80 19 81 18 82 21 83 22 84 23 85
REMARK SMILES IDX 24 87 25 88 37 89 26 90 36 91 27 92 28 93 29 94 30 96 31 97
REMARK SMILES IDX 32 98 35 99 33 100 34 101
REMARK H PARENT 91 26 61 37 23 86 28 95
REMARK Flexibility Score: inf
ROOT
ATOM      1  C   UNL A   1      34.424  32.121  28.631  1.00  0.00     0.188 C 
ENDROOT
BRANCH   1   2
ATOM      2  C   UNL A   1      34.911  33.570  28.701  1.00  0.00     0.188 C 
BRANCH   2   3
ATOM      3  O   UNL A   1      35.888  33.756  29.737  1.00  0.00    -0.376 OA
BRANCH   3   4
ATOM      4  C   UNL A   1      35.309  33.861  31.042  1.00  0.00     0.202 C 
BRANCH   4   5
ATOM      5  C   UNL A   1      35.927  32.933  32.097  1.00  0.00     0.261 C 
BRANCH   5   6
ATOM      6  O   UNL A   1      35.579  31.557  31.891  1.00  0.00    -0.460 OA
BRANCH   6   7
ATOM      7  C   UNL A   1      36.373  30.576  31.397  1.00  0.00     0.338 C 
ATOM      8  O   UNL A   1      35.878  29.464  31.214  1.00  0.00    -0.246 OA
BRANCH   7   9
ATOM      9  C   UNL A   1      37.808  30.775  31.018  1.00  0.00     0.060 A 
ATOM     10  C   UNL A   1      38.294  31.107  29.748  1.00  0.00     0.016 A 
ATOM     11  C   UNL A   1      38.731  30.723  32.066  1.00  0.00     0.016 A 
ATOM     12  C   UNL A   1      39.662  31.305  29.500  1.00  0.00     0.010 A 
ATOM     13  C   UNL A   1      40.077  31.026  31.843  1.00  0.00     0.010 A 
ATOM     14  C   UNL A   1      40.569  31.299  30.552  1.00  0.00    -0.014 A 
BRANCH  14  15
ATOM     15  C   UNL A   1      42.035  31.520  30.391  1.00  0.00     0.031 A 
ATOM     16  C   UNL A   1      42.499  32.943  30.293  1.00  0.00     0.074 A 
ATOM     17  C   UNL A   1      42.916  30.518  30.180  1.00  0.00     0.049 A 
ATOM     18  N   UNL A   1      43.614  33.414  29.813  1.00  0.00    -0.248 NA
ATOM     19  C   UNL A   1      41.583  33.968  30.828  1.00  0.00     0.031 C 
ATOM     20  C   UNL A   1      42.698  29.096  30.412  1.00  0.00     0.029 A 
ATOM     21  N   UNL A   1      44.148  30.546  29.560  1.00  0.00    -0.354 N 
ATOM     22  C   UNL A   1      43.545  34.784  30.014  1.00  0.00     0.074 A 
ATOM     23  C   UNL A   1      42.237  35.083  30.548  1.00  0.00     0.031 C 
ATOM     24  C   UNL A   1      43.611  28.382  29.729  1.00  0.00     0.029 A 
ATOM     25  C   UNL A   1      44.497  29.308  29.049  1.00  0.00     0.049 A 
ATOM     26  H   UNL A   1      44.711  31.351  29.489  1.00  0.00     0.167 HD
ATOM     27  C   UNL A   1      44.524  35.698  29.841  1.00  0.00     0.031 A 
ATOM     28  C   UNL A   1      45.374  28.983  28.079  1.00  0.00     0.031 A 
ATOM     29  C   UNL A   1      45.820  35.366  29.328  1.00  0.00     0.049 A 
ATOM     30  C   UNL A   1      46.341  30.040  27.646  1.00  0.00     0.074 A 
ATOM     31  C   UNL A   1      46.937  36.167  29.200  1.00  0.00     0.029 A 
ATOM     32  N   UNL A   1      46.161  34.113  28.838  1.00  0.00    -0.354 N 
ATOM     33  N   UNL A   1      46.354  31.309  27.974  1.00  0.00    -0.248 NA
ATOM     34  C   UNL A   1      47.468  29.612  26.810  1.00  0.00     0.031 C 
ATOM     35  C   UNL A   1      47.933  35.416  28.565  1.00  0.00     0.029 A 
ATOM     36  C   UNL A   1      47.442  34.141  28.326  1.00  0.00     0.049 A 
ATOM     37  H   UNL A   1      45.575  33.322  28.853  1.00  0.00     0.167 HD
ATOM     38  C   UNL A   1      47.553  31.806  27.485  1.00  0.00     0.074 A 
ATOM     39  C   UNL A   1      48.202  30.717  26.781  1.00  0.00     0.031 C 
ATOM     40  C   UNL A   1      48.082  33.040  27.654  1.00  0.00     0.031 A 
BRANCH  27  41
ATOM     41  C   UNL A   1      44.223  37.105  30.260  1.00  0.00    -0.014 A 
ATOM     42  C   UNL A   1      43.749  38.037  29.317  1.00  0.00     0.010 A 
ATOM     43  C   UNL A   1      44.416  37.507  31.591  1.00  0.00     0.010 A 
ATOM     44  C   UNL A   1      43.502  39.357  29.692  1.00  0.00     0.020 A 
ATOM     45  C   UNL A   1      44.144  38.823  31.975  1.00  0.00     0.020 A 
ATOM     46  C   UNL A   1      43.701  39.742  31.020  1.00  0.00     0.054 A 
BRANCH  46  47
ATOM     47  S   UNL A   1      43.324  41.452  31.485  1.00  0.00     0.124 S 
ATOM     48  O   UNL A   1      43.959  42.206  30.406  1.00  0.00    -0.237 OA
ATOM     49  O   UNL A   1      41.863  41.468  31.485  1.00  0.00    -0.237 OA
ATOM     50  O   UNL A   1      43.945  41.600  32.799  1.00  0.00    -0.744 OA
ENDBRANCH  46  47
ENDBRANCH  27  41
BRANCH  28  51
ATOM     51  C   UNL A   1      45.372  27.642  27.429  1.00  0.00    -0.014 A 
ATOM     52  C   UNL A   1      46.100  26.562  27.954  1.00  0.00     0.010 A 
ATOM     53  C   UNL A   1      44.692  27.470  26.207  1.00  0.00     0.010 A 
ATOM     54  C   UNL A   1      46.179  25.351  27.253  1.00  0.00     0.020 A 
ATOM     55  C   UNL A   1      44.753  26.256  25.512  1.00  0.00     0.020 A 
ATOM     56  C   UNL A   1      45.512  25.208  26.032  1.00  0.00     0.054 A 
BRANCH  56  57
ATOM     57  S   UNL A   1      45.654  23.637  25.130  1.00  0.00     0.124 S 
ATOM     58  O   UNL A   1      46.304  22.780  26.116  1.00  0.00    -0.237 OA
ATOM     59  O   UNL A   1      44.260  23.319  24.833  1.00  0.00    -0.237 OA
ATOM     60  O   UNL A   1      46.469  23.983  23.968  1.00  0.00    -0.744 OA
ENDBRANCH  56  57
ENDBRANCH  28  51
BRANCH  40  61
ATOM     61  C   UNL A   1      49.467  33.262  27.133  1.00  0.00    -0.014 A 
ATOM     62  C   UNL A   1      50.586  32.784  27.831  1.00  0.00     0.010 A 
ATOM     63  C   UNL A   1      49.636  33.904  25.893  1.00  0.00     0.010 A 
ATOM     64  C   UNL A   1      51.863  32.955  27.299  1.00  0.00     0.020 A 
ATOM     65  C   UNL A   1      50.909  34.052  25.346  1.00  0.00     0.020 A 
ATOM     66  C   UNL A   1      52.016  33.584  26.058  1.00  0.00     0.054 A 
BRANCH  66  67
ATOM     67  S   UNL A   1      53.678  33.727  25.354  1.00  0.00     0.124 S 
ATOM     68  O   UNL A   1      54.212  34.881  26.072  1.00  0.00    -0.237 OA
ATOM     69  O   UNL A   1      54.281  32.440  25.693  1.00  0.00    -0.237 OA
ATOM     70  O   UNL A   1      53.432  33.936  23.929  1.00  0.00    -0.744 OA
ENDBRANCH  66  67
ENDBRANCH  40  61
ENDBRANCH  14  15
ENDBRANCH   7   9
ENDBRANCH   6   7
ENDBRANCH   5   6
ENDBRANCH   4   5
ENDBRANCH   3   4
ENDBRANCH   2   3
ENDBRANCH   1   2
BRANCH   1  71
ATOM     71  O   UNL A   1      34.837  31.379  27.478  1.00  0.00    -0.376 OA
BRANCH  71  72
ATOM     72  C   UNL A   1      35.114  29.993  27.663  1.00  0.00     0.202 C 
BRANCH  72  73
ATOM     73  C   UNL A   1      34.047  28.998  27.192  1.00  0.00     0.261 C 
BRANCH  73  74
ATOM     74  O   UNL A   1      33.980  28.859  25.770  1.00  0.00    -0.463 OA
BRANCH  74  75
ATOM     75  C   UNL A   1      33.100  27.930  25.285  1.00  0.00     0.309 C 
ATOM     76  O   UNL A   1      32.958  26.798  25.714  1.00  0.00    -0.252 OA
BRANCH  75  77
ATOM     77  C   UNL A   1      32.313  28.540  24.126  1.00  0.00     0.111 C 
ATOM     78  C   UNL A   1      31.169  29.420  24.611  1.00  0.00     0.016 C 
ATOM     79  C   UNL A   1      31.911  27.400  23.164  1.00  0.00     0.093 C 
ATOM     80  C   UNL A   1      30.219  29.759  23.473  1.00  0.00     0.001 C 
ATOM     81  C   UNL A   1      30.589  27.505  22.398  1.00  0.00     0.014 C 
ATOM     82  C   UNL A   1      29.572  28.488  22.958  1.00  0.00     0.001 C 
BRANCH  79  83
ATOM     83  C   UNL A   1      33.114  27.196  22.252  1.00  0.00     0.228 C 
ATOM     84  O   UNL A   1      33.605  28.149  21.640  1.00  0.00    -0.274 OA
ATOM     85  N   UNL A   1      33.486  25.921  21.912  1.00  0.00    -0.326 N 
ATOM     86  H   UNL A   1      33.693  25.783  20.960  1.00  0.00     0.169 HD
BRANCH  85  87
ATOM     87  C   UNL A   1      33.618  24.784  22.722  1.00  0.00     0.041 A 
ATOM     88  C   UNL A   1      32.507  23.988  22.968  1.00  0.00     0.028 A 
ATOM     89  C   UNL A   1      34.723  24.663  23.554  1.00  0.00     0.028 A 
ATOM     90  C   UNL A   1      32.451  23.141  24.076  1.00  0.00     0.028 A 
ATOM     91  C   UNL A   1      34.697  23.754  24.621  1.00  0.00     0.028 A 
ATOM     92  C   UNL A   1      33.534  23.032  24.934  1.00  0.00     0.041 A 
BRANCH  92  93
ATOM     93  N   UNL A   1      33.562  22.288  26.124  1.00  0.00    -0.319 N 
ATOM     94  C   UNL A   1      33.534  20.946  26.446  1.00  0.00     0.291 C 
ATOM     95  H   UNL A   1      33.614  22.863  26.920  1.00  0.00     0.170 HD
ATOM     96  O   UNL A   1      33.540  20.701  27.659  1.00  0.00    -0.265 OA
BRANCH  94  97
ATOM     97  C   UNL A   1      33.419  19.899  25.461  1.00  0.00     0.191 A 
ATOM     98  C   UNL A   1      34.321  19.313  24.590  1.00  0.00     0.056 A 
ATOM     99  O   UNL A   1      32.236  19.209  25.410  1.00  0.00    -0.459 OA
ATOM    100  C   UNL A   1      33.631  18.268  23.927  1.00  0.00     0.043 A 
ATOM    101  C   UNL A   1      32.376  18.227  24.483  1.00  0.00     0.196 A 
ENDBRANCH  94  97
ENDBRANCH  92  93
ENDBRANCH  85  87
ENDBRANCH  79  83
ENDBRANCH  75  77
ENDBRANCH  74  75
ENDBRANCH  73  74
ENDBRANCH  72  73
ENDBRANCH  71  72
ENDBRANCH   1  71
TORSDOF 24
ENDMDL
