MODEL 1
REMARK VINA RESULT:     -10.6      0.000      0.000
REMARK SMILES Cc1ccnc(C(=O)c2[nH]c3cc(F)ccc3c2CC(=O)OCCOCCOCCOC(=O)c2ccc(-c3c4nc(c(-c5ccc(S(=O)(=O)[O-])cc5)c5ccc([nH]5)c(-c5ccc(S(=O)(=O)[O-])cc5)c5nc(c(-c6ccc(S(=O)(=O)[O-])cc6)c6ccc3[nH]6)C=C5)C=C4)cc2)c1
REMARK SMILES IDX 26 1 25 2 24 3 23 4 22 5 20 6 21 7 19 8 18 9 9 10 10 11
REMARK SMILES IDX 11 12 17 14 12 15 16 16 13 17 15 18 14 19 7 20 8 21 6 22
REMARK SMILES IDX 1 23 2 24 3 25 94 26 4 27 5 28 27 29 28 30 29 31 30 32 31 33
REMARK SMILES IDX 32 34 33 35 34 36 35 37 93 38 36 39 92 40 37 41 38 42 39 43
REMARK SMILES IDX 86 44 40 45 91 46 85 47 87 48 41 49 90 50 84 51 83 52 42 54
REMARK SMILES IDX 72 55 53 56 71 57 54 58 57 59 70 60 88 61 55 62 56 63 69 65
REMARK SMILES IDX 89 66 58 67 43 68 44 69 52 70 45 71 51 72 46 73 47 74 48 75
REMARK SMILES IDX 49 76 50 77 73 78 74 79 82 80 75 81 81 82 76 83 77 84 78 85
REMARK SMILES IDX 79 86 80 87 59 88 60 89 68 90 61 91 67 92 62 93 63 94 64 95
REMARK SMILES IDX 65 96 66 97
REMARK H PARENT 10 13 87 53 57 64
REMARK Flexibility Score: inf
ROOT
ATOM      1  C   UNL A   1      31.767  28.633  25.992  1.00  0.00     0.188 C 
ENDROOT
BRANCH   1   2
ATOM      2  O   UNL A   1      31.892  27.935  24.758  1.00  0.00    -0.376 OA
BRANCH   2   3
ATOM      3  C   UNL A   1      32.690  26.760  24.741  1.00  0.00     0.202 C 
BRANCH   3   4
ATOM      4  C   UNL A   1      32.648  25.943  23.449  1.00  0.00     0.261 C 
BRANCH   4   5
ATOM      5  O   UNL A   1      33.152  24.598  23.626  1.00  0.00    -0.463 OA
BRANCH   5   6
ATOM      6  C   UNL A   1      32.426  23.815  24.461  1.00  0.00     0.310 C 
ATOM      7  O   UNL A   1      31.229  23.586  24.289  1.00  0.00    -0.252 OA
BRANCH   6   8
ATOM      8  C   UNL A   1      33.177  23.161  25.606  1.00  0.00     0.161 C 
BRANCH   8   9
ATOM      9  C   UNL A   1      34.356  22.246  25.349  1.00  0.00     0.000 A 
ATOM     10  C   UNL A   1      34.335  20.855  25.173  1.00  0.00     0.093 A 
ATOM     11  N   UNL A   1      35.636  20.451  24.972  1.00  0.00    -0.351 N 
ATOM     12  C   UNL A   1      36.503  21.450  25.335  1.00  0.00     0.049 A 
ATOM     13  H   UNL A   1      35.906  19.572  24.620  1.00  0.00     0.167 HD
ATOM     14  C   UNL A   1      35.736  22.597  25.543  1.00  0.00     0.004 A 
ATOM     15  C   UNL A   1      37.888  21.412  25.524  1.00  0.00     0.066 A 
ATOM     16  C   UNL A   1      36.393  23.773  25.965  1.00  0.00     0.013 A 
ATOM     17  C   UNL A   1      38.494  22.576  25.988  1.00  0.00     0.125 A 
ATOM     18  C   UNL A   1      37.772  23.741  26.206  1.00  0.00     0.040 A 
ATOM     19  F   UNL A   1      39.808  22.563  26.252  1.00  0.00    -0.207 F 
BRANCH  10  20
ATOM     20  C   UNL A   1      33.197  19.952  25.184  1.00  0.00     0.227 C 
ATOM     21  O   UNL A   1      32.047  20.343  25.370  1.00  0.00    -0.285 OA
BRANCH  20  22
ATOM     22  C   UNL A   1      33.410  18.488  24.995  1.00  0.00     0.113 A 
ATOM     23  C   UNL A   1      31.967  15.194  26.164  1.00  0.00     0.044 C 
ATOM     24  C   UNL A   1      32.743  16.226  25.402  1.00  0.00    -0.047 A 
ATOM     25  C   UNL A   1      33.423  15.869  24.234  1.00  0.00     0.023 A 
ATOM     26  C   UNL A   1      32.717  17.573  25.779  1.00  0.00     0.036 A 
ATOM     27  C   UNL A   1      34.128  16.846  23.551  1.00  0.00     0.112 A 
ATOM     28  N   UNL A   1      34.169  18.142  23.929  1.00  0.00    -0.253 NA
ENDBRANCH  20  22
ENDBRANCH  10  20
ENDBRANCH   8   9
ENDBRANCH   6   8
ENDBRANCH   5   6
ENDBRANCH   4   5
ENDBRANCH   3   4
ENDBRANCH   2   3
ENDBRANCH   1   2
BRANCH   1  29
ATOM     29  C   UNL A   1      32.160  30.125  26.043  1.00  0.00     0.188 C 
BRANCH  29  30
ATOM     30  O   UNL A   1      32.719  30.658  27.237  1.00  0.00    -0.376 OA
BRANCH  30  31
ATOM     31  C   UNL A   1      34.102  30.986  27.209  1.00  0.00     0.202 C 
BRANCH  31  32
ATOM     32  C   UNL A   1      34.570  31.871  28.360  1.00  0.00     0.261 C 
BRANCH  32  33
ATOM     33  O   UNL A   1      35.279  31.103  29.350  1.00  0.00    -0.460 OA
BRANCH  33  34
ATOM     34  C   UNL A   1      36.507  31.593  29.642  1.00  0.00     0.338 C 
ATOM     35  O   UNL A   1      36.755  32.719  30.039  1.00  0.00    -0.246 OA
BRANCH  34  36
ATOM     36  C   UNL A   1      37.571  30.587  29.436  1.00  0.00     0.060 A 
ATOM     37  C   UNL A   1      38.394  30.198  30.486  1.00  0.00     0.016 A 
ATOM     38  C   UNL A   1      37.925  30.249  28.131  1.00  0.00     0.016 A 
ATOM     39  C   UNL A   1      39.651  29.642  30.226  1.00  0.00     0.010 A 
ATOM     40  C   UNL A   1      39.138  29.593  27.881  1.00  0.00     0.010 A 
ATOM     41  C   UNL A   1      40.059  29.356  28.916  1.00  0.00    -0.014 A 
BRANCH  41  42
ATOM     42  C   UNL A   1      41.461  28.921  28.626  1.00  0.00     0.031 A 
ATOM     43  C   UNL A   1      42.604  29.916  28.707  1.00  0.00     0.074 A 
ATOM     44  C   UNL A   1      41.746  27.632  28.346  1.00  0.00     0.049 A 
ATOM     45  N   UNL A   1      43.859  29.769  28.357  1.00  0.00    -0.248 NA
ATOM     46  C   UNL A   1      42.301  31.248  29.259  1.00  0.00     0.031 C 
ATOM     47  C   UNL A   1      40.779  26.532  28.321  1.00  0.00     0.029 A 
ATOM     48  N   UNL A   1      42.941  27.022  28.041  1.00  0.00    -0.354 N 
ATOM     49  C   UNL A   1      44.479  30.990  28.609  1.00  0.00     0.074 A 
ATOM     50  C   UNL A   1      43.463  31.874  29.136  1.00  0.00     0.031 C 
ATOM     51  C   UNL A   1      41.421  25.384  28.058  1.00  0.00     0.029 A 
ATOM     52  C   UNL A   1      42.824  25.674  27.788  1.00  0.00     0.049 A 
ATOM     53  H   UNL A   1      43.799  27.504  28.007  1.00  0.00     0.167 HD
ATOM     54  C   UNL A   1      45.773  31.348  28.417  1.00  0.00     0.031 A 
ATOM     55  C   UNL A   1      43.720  24.775  27.331  1.00  0.00     0.031 A 
ATOM     56  C   UNL A   1      46.790  30.474  27.890  1.00  0.00     0.049 A 
ATOM     57  C   UNL A   1      45.116  25.230  27.008  1.00  0.00     0.074 A 
ATOM     58  C   UNL A   1      48.118  30.764  27.616  1.00  0.00     0.029 A 
ATOM     59  N   UNL A   1      46.600  29.142  27.562  1.00  0.00    -0.354 N 
ATOM     60  N   UNL A   1      45.661  26.411  27.178  1.00  0.00    -0.248 NA
ATOM     61  C   UNL A   1      46.013  24.231  26.411  1.00  0.00     0.031 C 
ATOM     62  C   UNL A   1      48.714  29.622  27.069  1.00  0.00     0.029 A 
ATOM     63  C   UNL A   1      47.777  28.603  27.065  1.00  0.00     0.049 A 
ATOM     64  H   UNL A   1      45.754  28.650  27.668  1.00  0.00     0.167 HD
ATOM     65  C   UNL A   1      46.968  26.292  26.716  1.00  0.00     0.074 A 
ATOM     66  C   UNL A   1      47.142  24.917  26.298  1.00  0.00     0.031 C 
ATOM     67  C   UNL A   1      47.936  27.238  26.637  1.00  0.00     0.031 A 
BRANCH  54  68
ATOM     68  C   UNL A   1      46.170  32.769  28.734  1.00  0.00    -0.014 A 
ATOM     69  C   UNL A   1      46.745  33.110  29.971  1.00  0.00     0.010 A 
ATOM     70  C   UNL A   1      46.043  33.760  27.742  1.00  0.00     0.010 A 
ATOM     71  C   UNL A   1      47.172  34.421  30.215  1.00  0.00     0.020 A 
ATOM     72  C   UNL A   1      46.489  35.064  27.973  1.00  0.00     0.020 A 
ATOM     73  C   UNL A   1      47.044  35.389  29.213  1.00  0.00     0.054 A 
BRANCH  73  74
ATOM     74  S   UNL A   1      47.654  37.066  29.541  1.00  0.00     0.124 S 
ATOM     75  O   UNL A   1      47.707  37.087  31.001  1.00  0.00    -0.237 OA
ATOM     76  O   UNL A   1      48.948  37.073  28.865  1.00  0.00    -0.237 OA
ATOM     77  O   UNL A   1      46.636  37.929  28.943  1.00  0.00    -0.744 OA
ENDBRANCH  73  74
ENDBRANCH  54  68
BRANCH  55  78
ATOM     78  C   UNL A   1      43.298  23.372  27.051  1.00  0.00    -0.014 A 
ATOM     79  C   UNL A   1      42.957  22.493  28.094  1.00  0.00     0.010 A 
ATOM     80  C   UNL A   1      43.271  22.897  25.726  1.00  0.00     0.010 A 
ATOM     81  C   UNL A   1      42.625  21.162  27.819  1.00  0.00     0.020 A 
ATOM     82  C   UNL A   1      42.901  21.581  25.444  1.00  0.00     0.020 A 
ATOM     83  C   UNL A   1      42.600  20.716  26.495  1.00  0.00     0.054 A 
BRANCH  83  84
ATOM     84  S   UNL A   1      42.143  18.994  26.151  1.00  0.00     0.124 S 
ATOM     85  O   UNL A   1      42.427  18.346  27.428  1.00  0.00    -0.237 OA
ATOM     86  O   UNL A   1      40.730  19.103  25.796  1.00  0.00    -0.237 OA
ATOM     87  O   UNL A   1      43.027  18.620  25.049  1.00  0.00    -0.744 OA
ENDBRANCH  83  84
ENDBRANCH  55  78
BRANCH  67  88
ATOM     88  C   UNL A   1      49.274  26.801  26.103  1.00  0.00    -0.014 A 
ATOM     89  C   UNL A   1      50.254  26.251  26.948  1.00  0.00     0.010 A 
ATOM     90  C   UNL A   1      49.562  26.961  24.735  1.00  0.00     0.010 A 
ATOM     91  C   UNL A   1      51.521  25.932  26.450  1.00  0.00     0.020 A 
ATOM     92  C   UNL A   1      50.815  26.613  24.227  1.00  0.00     0.020 A 
ATOM     93  C   UNL A   1      51.796  26.126  25.093  1.00  0.00     0.054 A 
BRANCH  93  94
ATOM     94  S   UNL A   1      53.452  25.726  24.471  1.00  0.00     0.124 S 
ATOM     95  O   UNL A   1      53.641  24.365  24.969  1.00  0.00    -0.237 OA
ATOM     96  O   UNL A   1      53.292  25.849  23.024  1.00  0.00    -0.237 OA
ATOM     97  O   UNL A   1      54.306  26.739  25.087  1.00  0.00    -0.744 OA
ENDBRANCH  93  94
ENDBRANCH  67  88
ENDBRANCH  41  42
ENDBRANCH  34  36
ENDBRANCH  33  34
ENDBRANCH  32  33
ENDBRANCH  31  32
ENDBRANCH  30  31
ENDBRANCH  29  30
ENDBRANCH   1  29
TORSDOF 23
ENDMDL
MODEL 2
REMARK VINA RESULT:     -10.5      1.879      3.448
REMARK SMILES Cc1ccnc(C(=O)c2[nH]c3cc(F)ccc3c2CC(=O)OCCOCCOCCOC(=O)c2ccc(-c3c4nc(c(-c5ccc(S(=O)(=O)[O-])cc5)c5ccc([nH]5)c(-c5ccc(S(=O)(=O)[O-])cc5)c5nc(c(-c6ccc(S(=O)(=O)[O-])cc6)c6ccc3[nH]6)C=C5)C=C4)cc2)c1
REMARK SMILES IDX 26 1 25 2 24 3 23 4 22 5 20 6 21 7 19 8 18 9 9 10 10 11
REMARK SMILES IDX 11 12 17 14 12 15 16 16 13 17 15 18 14 19 7 20 8 21 6 22
REMARK SMILES IDX 1 23 2 24 3 25 94 26 4 27 5 28 27 29 28 30 29 31 30 32 31 33
REMARK SMILES IDX 32 34 33 35 34 36 35 37 93 38 36 39 92 40 37 41 38 42 39 43
REMARK SMILES IDX 86 44 40 45 91 46 85 47 87 48 41 49 90 50 84 51 83 52 42 54
REMARK SMILES IDX 72 55 53 56 71 57 54 58 57 59 70 60 88 61 55 62 56 63 69 65
REMARK SMILES IDX 89 66 58 67 43 68 44 69 52 70 45 71 51 72 46 73 47 74 48 75
REMARK SMILES IDX 49 76 50 77 73 78 74 79 82 80 75 81 81 82 76 83 77 84 78 85
REMARK SMILES IDX 79 86 80 87 59 88 60 89 68 90 61 91 67 92 62 93 63 94 64 95
REMARK SMILES IDX 65 96 66 97
REMARK H PARENT 10 13 87 53 57 64
REMARK Flexibility Score: inf
ROOT
ATOM      1  C   UNL A   1      32.750  29.347  24.632  1.00  0.00     0.188 C 
ENDROOT
BRANCH   1   2
ATOM      2  O   UNL A   1      33.339  28.226  23.985  1.00  0.00    -0.376 OA
BRANCH   2   3
ATOM      3  C   UNL A   1      32.914  26.931  24.386  1.00  0.00     0.202 C 
BRANCH   3   4
ATOM      4  C   UNL A   1      33.267  25.787  23.435  1.00  0.00     0.261 C 
BRANCH   4   5
ATOM      5  O   UNL A   1      34.304  24.927  23.964  1.00  0.00    -0.463 OA
BRANCH   5   6
ATOM      6  C   UNL A   1      34.064  23.597  23.851  1.00  0.00     0.310 C 
ATOM      7  O   UNL A   1      33.819  23.052  22.775  1.00  0.00    -0.252 OA
BRANCH   6   8
ATOM      8  C   UNL A   1      34.178  22.775  25.121  1.00  0.00     0.161 C 
BRANCH   8   9
ATOM      9  C   UNL A   1      34.809  21.398  25.109  1.00  0.00     0.000 A 
ATOM     10  C   UNL A   1      36.175  21.084  25.145  1.00  0.00     0.093 A 
ATOM     11  N   UNL A   1      36.277  19.712  25.111  1.00  0.00    -0.351 N 
ATOM     12  C   UNL A   1      35.083  19.157  24.728  1.00  0.00     0.049 A 
ATOM     13  H   UNL A   1      37.091  19.201  25.330  1.00  0.00     0.167 HD
ATOM     14  C   UNL A   1      34.134  20.180  24.752  1.00  0.00     0.004 A 
ATOM     15  C   UNL A   1      34.786  17.848  24.336  1.00  0.00     0.066 A 
ATOM     16  C   UNL A   1      32.813  19.876  24.360  1.00  0.00     0.013 A 
ATOM     17  C   UNL A   1      33.486  17.597  23.909  1.00  0.00     0.125 A 
ATOM     18  C   UNL A   1      32.508  18.582  23.917  1.00  0.00     0.040 A 
ATOM     19  F   UNL A   1      33.176  16.374  23.455  1.00  0.00    -0.207 F 
BRANCH  10  20
ATOM     20  C   UNL A   1      37.314  21.983  25.209  1.00  0.00     0.227 C 
ATOM     21  O   UNL A   1      37.238  23.168  24.892  1.00  0.00    -0.285 OA
BRANCH  20  22
ATOM     22  C   UNL A   1      38.644  21.465  25.645  1.00  0.00     0.113 A 
ATOM     23  C   UNL A   1      41.345  22.235  28.176  1.00  0.00     0.044 C 
ATOM     24  C   UNL A   1      40.513  21.546  27.136  1.00  0.00    -0.047 A 
ATOM     25  C   UNL A   1      40.771  20.213  26.805  1.00  0.00     0.023 A 
ATOM     26  C   UNL A   1      39.408  22.181  26.559  1.00  0.00     0.036 A 
ATOM     27  C   UNL A   1      39.983  19.603  25.843  1.00  0.00     0.112 A 
ATOM     28  N   UNL A   1      38.948  20.214  25.226  1.00  0.00    -0.253 NA
ENDBRANCH  20  22
ENDBRANCH  10  20
ENDBRANCH   8   9
ENDBRANCH   6   8
ENDBRANCH   5   6
ENDBRANCH   4   5
ENDBRANCH   3   4
ENDBRANCH   2   3
ENDBRANCH   1   2
BRANCH   1  29
ATOM     29  C   UNL A   1      31.947  29.117  25.931  1.00  0.00     0.188 C 
BRANCH  29  30
ATOM     30  O   UNL A   1      32.520  29.487  27.179  1.00  0.00    -0.376 OA
BRANCH  30  31
ATOM     31  C   UNL A   1      33.742  30.212  27.137  1.00  0.00     0.202 C 
BRANCH  31  32
ATOM     32  C   UNL A   1      34.948  29.458  27.688  1.00  0.00     0.261 C 
BRANCH  32  33
ATOM     33  O   UNL A   1      36.045  30.353  27.948  1.00  0.00    -0.460 OA
BRANCH  33  34
ATOM     34  C   UNL A   1      36.799  29.994  29.014  1.00  0.00     0.338 C 
ATOM     35  O   UNL A   1      36.545  30.225  30.184  1.00  0.00    -0.246 OA
BRANCH  34  36
ATOM     36  C   UNL A   1      38.014  29.253  28.611  1.00  0.00     0.060 A 
ATOM     37  C   UNL A   1      38.757  28.545  29.548  1.00  0.00     0.016 A 
ATOM     38  C   UNL A   1      38.563  29.504  27.355  1.00  0.00     0.016 A 
ATOM     39  C   UNL A   1      40.102  28.251  29.303  1.00  0.00     0.010 A 
ATOM     40  C   UNL A   1      39.879  29.112  27.073  1.00  0.00     0.010 A 
ATOM     41  C   UNL A   1      40.697  28.556  28.071  1.00  0.00    -0.014 A 
BRANCH  41  42
ATOM     42  C   UNL A   1      42.171  28.398  27.870  1.00  0.00     0.031 A 
ATOM     43  C   UNL A   1      43.119  29.529  28.225  1.00  0.00     0.074 A 
ATOM     44  C   UNL A   1      42.693  27.234  27.428  1.00  0.00     0.049 A 
ATOM     45  N   UNL A   1      44.405  29.639  27.992  1.00  0.00    -0.248 NA
ATOM     46  C   UNL A   1      42.550  30.686  28.938  1.00  0.00     0.031 C 
ATOM     47  C   UNL A   1      41.931  26.018  27.131  1.00  0.00     0.029 A 
ATOM     48  N   UNL A   1      43.994  26.876  27.162  1.00  0.00    -0.354 N 
ATOM     49  C   UNL A   1      44.786  30.881  28.494  1.00  0.00     0.074 A 
ATOM     50  C   UNL A   1      43.596  31.495  29.038  1.00  0.00     0.031 C 
ATOM     51  C   UNL A   1      42.778  25.044  26.766  1.00  0.00     0.029 A 
ATOM     52  C   UNL A   1      44.128  25.588  26.695  1.00  0.00     0.049 A 
ATOM     53  H   UNL A   1      44.758  27.484  27.295  1.00  0.00     0.167 HD
ATOM     54  C   UNL A   1      46.012  31.460  28.499  1.00  0.00     0.031 A 
ATOM     55  C   UNL A   1      45.197  24.928  26.204  1.00  0.00     0.031 A 
ATOM     56  C   UNL A   1      47.202  30.856  27.956  1.00  0.00     0.049 A 
ATOM     57  C   UNL A   1      46.518  25.641  26.107  1.00  0.00     0.074 A 
ATOM     58  C   UNL A   1      48.479  31.388  27.874  1.00  0.00     0.029 A 
ATOM     59  N   UNL A   1      47.268  29.585  27.410  1.00  0.00    -0.354 N 
ATOM     60  N   UNL A   1      46.839  26.846  26.513  1.00  0.00    -0.248 NA
ATOM     61  C   UNL A   1      47.616  24.907  25.464  1.00  0.00     0.031 C 
ATOM     62  C   UNL A   1      49.302  30.461  27.226  1.00  0.00     0.029 A 
ATOM     63  C   UNL A   1      48.555  29.325  26.965  1.00  0.00     0.049 A 
ATOM     64  H   UNL A   1      46.511  28.957  27.347  1.00  0.00     0.167 HD
ATOM     65  C   UNL A   1      48.180  27.009  26.181  1.00  0.00     0.074 A 
ATOM     66  C   UNL A   1      48.618  25.768  25.578  1.00  0.00     0.031 C 
ATOM     67  C   UNL A   1      48.977  28.093  26.352  1.00  0.00     0.031 A 
BRANCH  54  68
ATOM     68  C   UNL A   1      46.135  32.851  29.071  1.00  0.00    -0.014 A 
ATOM     69  C   UNL A   1      46.516  33.063  30.408  1.00  0.00     0.010 A 
ATOM     70  C   UNL A   1      45.950  33.964  28.229  1.00  0.00     0.010 A 
ATOM     71  C   UNL A   1      46.695  34.363  30.895  1.00  0.00     0.020 A 
ATOM     72  C   UNL A   1      46.150  35.263  28.705  1.00  0.00     0.020 A 
ATOM     73  C   UNL A   1      46.513  35.455  30.039  1.00  0.00     0.054 A 
BRANCH  73  74
ATOM     74  S   UNL A   1      46.802  37.125  30.687  1.00  0.00     0.124 S 
ATOM     75  O   UNL A   1      47.323  36.843  32.023  1.00  0.00    -0.237 OA
ATOM     76  O   UNL A   1      47.768  37.673  29.739  1.00  0.00    -0.237 OA
ATOM     77  O   UNL A   1      45.479  37.745  30.653  1.00  0.00    -0.744 OA
ENDBRANCH  73  74
ENDBRANCH  54  68
BRANCH  55  78
ATOM     78  C   UNL A   1      45.044  23.545  25.669  1.00  0.00    -0.014 A 
ATOM     79  C   UNL A   1      45.417  22.424  26.432  1.00  0.00     0.010 A 
ATOM     80  C   UNL A   1      44.551  23.345  24.365  1.00  0.00     0.010 A 
ATOM     81  C   UNL A   1      45.325  21.136  25.892  1.00  0.00     0.020 A 
ATOM     82  C   UNL A   1      44.421  22.060  23.837  1.00  0.00     0.020 A 
ATOM     83  C   UNL A   1      44.828  20.964  24.597  1.00  0.00     0.054 A 
BRANCH  83  84
ATOM     84  S   UNL A   1      44.692  19.287  23.919  1.00  0.00     0.124 S 
ATOM     85  O   UNL A   1      44.589  19.548  22.487  1.00  0.00    -0.237 OA
ATOM     86  O   UNL A   1      45.937  18.662  24.361  1.00  0.00    -0.237 OA
ATOM     87  O   UNL A   1      43.483  18.761  24.550  1.00  0.00    -0.744 OA
ENDBRANCH  83  84
ENDBRANCH  55  78
BRANCH  67  88
ATOM     88  C   UNL A   1      50.409  27.964  25.904  1.00  0.00    -0.014 A 
ATOM     89  C   UNL A   1      51.407  27.493  26.775  1.00  0.00     0.010 A 
ATOM     90  C   UNL A   1      50.763  28.339  24.595  1.00  0.00     0.010 A 
ATOM     91  C   UNL A   1      52.744  27.462  26.368  1.00  0.00     0.020 A 
ATOM     92  C   UNL A   1      52.093  28.278  24.174  1.00  0.00     0.020 A 
ATOM     93  C   UNL A   1      53.079  27.867  25.073  1.00  0.00     0.054 A 
BRANCH  93  94
ATOM     94  S   UNL A   1      54.822  27.839  24.571  1.00  0.00     0.124 S 
ATOM     95  O   UNL A   1      55.453  28.626  25.628  1.00  0.00    -0.237 OA
ATOM     96  O   UNL A   1      55.137  26.413  24.576  1.00  0.00    -0.237 OA
ATOM     97  O   UNL A   1      54.811  28.465  23.251  1.00  0.00    -0.744 OA
ENDBRANCH  93  94
ENDBRANCH  67  88
ENDBRANCH  41  42
ENDBRANCH  34  36
ENDBRANCH  33  34
ENDBRANCH  32  33
ENDBRANCH  31  32
ENDBRANCH  30  31
ENDBRANCH  29  30
ENDBRANCH   1  29
TORSDOF 23
ENDMDL
MODEL 3
REMARK VINA RESULT:     -10.2      6.033     10.472
REMARK SMILES Cc1ccnc(C(=O)c2[nH]c3cc(F)ccc3c2CC(=O)OCCOCCOCCOC(=O)c2ccc(-c3c4nc(c(-c5ccc(S(=O)(=O)[O-])cc5)c5ccc([nH]5)c(-c5ccc(S(=O)(=O)[O-])cc5)c5nc(c(-c6ccc(S(=O)(=O)[O-])cc6)c6ccc3[nH]6)C=C5)C=C4)cc2)c1
REMARK SMILES IDX 26 1 25 2 24 3 23 4 22 5 20 6 21 7 19 8 18 9 9 10 10 11
REMARK SMILES IDX 11 12 17 14 12 15 16 16 13 17 15 18 14 19 7 20 8 21 6 22
REMARK SMILES IDX 1 23 2 24 3 25 94 26 4 27 5 28 27 29 28 30 29 31 30 32 31 33
REMARK SMILES IDX 32 34 33 35 34 36 35 37 93 38 36 39 92 40 37 41 38 42 39 43
REMARK SMILES IDX 86 44 40 45 91 46 85 47 87 48 41 49 90 50 84 51 83 52 42 54
REMARK SMILES IDX 72 55 53 56 71 57 54 58 57 59 70 60 88 61 55 62 56 63 69 65
REMARK SMILES IDX 89 66 58 67 43 68 44 69 52 70 45 71 51 72 46 73 47 74 48 75
REMARK SMILES IDX 49 76 50 77 73 78 74 79 82 80 75 81 81 82 76 83 77 84 78 85
REMARK SMILES IDX 79 86 80 87 59 88 60 89 68 90 61 91 67 92 62 93 63 94 64 95
REMARK SMILES IDX 65 96 66 97
REMARK H PARENT 10 13 87 53 57 64
REMARK Flexibility Score: inf
ROOT
ATOM      1  C   UNL A   1      31.402  27.248  25.277  1.00  0.00     0.188 C 
ENDROOT
BRANCH   1   2
ATOM      2  O   UNL A   1      30.224  26.570  25.701  1.00  0.00    -0.376 OA
BRANCH   2   3
ATOM      3  C   UNL A   1      29.883  25.360  25.039  1.00  0.00     0.202 C 
BRANCH   3   4
ATOM      4  C   UNL A   1      30.948  24.262  25.063  1.00  0.00     0.261 C 
BRANCH   4   5
ATOM      5  O   UNL A   1      31.106  23.615  23.778  1.00  0.00    -0.463 OA
BRANCH   5   6
ATOM      6  C   UNL A   1      32.356  23.667  23.256  1.00  0.00     0.310 C 
ATOM      7  O   UNL A   1      32.949  24.725  23.048  1.00  0.00    -0.252 OA
BRANCH   6   8
ATOM      8  C   UNL A   1      33.040  22.338  22.992  1.00  0.00     0.161 C 
BRANCH   8   9
ATOM      9  C   UNL A   1      33.196  21.306  24.090  1.00  0.00     0.000 A 
ATOM     10  C   UNL A   1      33.905  21.439  25.292  1.00  0.00     0.093 A 
ATOM     11  N   UNL A   1      33.775  20.250  25.974  1.00  0.00    -0.351 N 
ATOM     12  C   UNL A   1      33.307  19.272  25.133  1.00  0.00     0.049 A 
ATOM     13  H   UNL A   1      33.989  20.119  26.927  1.00  0.00     0.167 HD
ATOM     14  C   UNL A   1      32.903  19.905  23.958  1.00  0.00     0.004 A 
ATOM     15  C   UNL A   1      33.245  17.886  25.316  1.00  0.00     0.066 A 
ATOM     16  C   UNL A   1      32.409  19.107  22.904  1.00  0.00     0.013 A 
ATOM     17  C   UNL A   1      32.800  17.128  24.237  1.00  0.00     0.125 A 
ATOM     18  C   UNL A   1      32.385  17.715  23.050  1.00  0.00     0.040 A 
ATOM     19  F   UNL A   1      32.793  15.791  24.343  1.00  0.00    -0.207 F 
BRANCH  10  20
ATOM     20  C   UNL A   1      34.651  22.582  25.788  1.00  0.00     0.227 C 
ATOM     21  O   UNL A   1      34.102  23.567  26.278  1.00  0.00    -0.285 OA
BRANCH  20  22
ATOM     22  C   UNL A   1      36.139  22.599  25.682  1.00  0.00     0.113 A 
ATOM     23  C   UNL A   1      39.076  24.743  26.720  1.00  0.00     0.044 C 
ATOM     24  C   UNL A   1      38.246  23.598  26.222  1.00  0.00    -0.047 A 
ATOM     25  C   UNL A   1      38.839  22.356  25.981  1.00  0.00     0.023 A 
ATOM     26  C   UNL A   1      36.857  23.716  26.092  1.00  0.00     0.036 A 
ATOM     27  C   UNL A   1      38.045  21.317  25.525  1.00  0.00     0.112 A 
ATOM     28  N   UNL A   1      36.712  21.423  25.332  1.00  0.00    -0.253 NA
ENDBRANCH  20  22
ENDBRANCH  10  20
ENDBRANCH   8   9
ENDBRANCH   6   8
ENDBRANCH   5   6
ENDBRANCH   4   5
ENDBRANCH   3   4
ENDBRANCH   2   3
ENDBRANCH   1   2
BRANCH   1  29
ATOM     29  C   UNL A   1      32.275  27.952  26.338  1.00  0.00     0.188 C 
BRANCH  29  30
ATOM     30  O   UNL A   1      31.879  29.224  26.835  1.00  0.00    -0.376 OA
BRANCH  30  31
ATOM     31  C   UNL A   1      32.643  30.346  26.413  1.00  0.00     0.202 C 
BRANCH  31  32
ATOM     32  C   UNL A   1      32.691  31.496  27.414  1.00  0.00     0.261 C 
BRANCH  32  33
ATOM     33  O   UNL A   1      34.019  32.043  27.513  1.00  0.00    -0.460 OA
BRANCH  33  34
ATOM     34  C   UNL A   1      34.062  33.265  28.093  1.00  0.00     0.338 C 
ATOM     35  O   UNL A   1      33.414  34.243  27.758  1.00  0.00    -0.246 OA
BRANCH  34  36
ATOM     36  C   UNL A   1      35.005  33.308  29.231  1.00  0.00     0.060 A 
ATOM     37  C   UNL A   1      36.178  34.050  29.154  1.00  0.00     0.016 A 
ATOM     38  C   UNL A   1      34.853  32.380  30.260  1.00  0.00     0.016 A 
ATOM     39  C   UNL A   1      37.262  33.740  29.981  1.00  0.00     0.010 A 
ATOM     40  C   UNL A   1      35.904  32.147  31.157  1.00  0.00     0.010 A 
ATOM     41  C   UNL A   1      37.155  32.762  30.978  1.00  0.00    -0.014 A 
BRANCH  41  42
ATOM     42  C   UNL A   1      38.359  32.312  31.746  1.00  0.00     0.031 A 
ATOM     43  C   UNL A   1      39.310  31.290  31.151  1.00  0.00     0.074 A 
ATOM     44  C   UNL A   1      38.655  32.845  32.950  1.00  0.00     0.049 A 
ATOM     45  N   UNL A   1      40.322  30.673  31.711  1.00  0.00    -0.248 NA
ATOM     46  C   UNL A   1      39.103  30.918  29.740  1.00  0.00     0.031 C 
ATOM     47  C   UNL A   1      37.898  33.904  33.623  1.00  0.00     0.029 A 
ATOM     48  N   UNL A   1      39.685  32.577  33.822  1.00  0.00    -0.354 N 
ATOM     49  C   UNL A   1      40.842  29.820  30.741  1.00  0.00     0.074 A 
ATOM     50  C   UNL A   1      40.032  29.991  29.556  1.00  0.00     0.031 C 
ATOM     51  C   UNL A   1      38.509  34.221  34.774  1.00  0.00     0.029 A 
ATOM     52  C   UNL A   1      39.635  33.320  34.981  1.00  0.00     0.049 A 
ATOM     53  H   UNL A   1      40.392  31.918  33.635  1.00  0.00     0.167 HD
ATOM     54  C   UNL A   1      41.894  28.969  30.828  1.00  0.00     0.031 A 
ATOM     55  C   UNL A   1      40.366  33.251  36.112  1.00  0.00     0.031 A 
ATOM     56  C   UNL A   1      42.704  28.791  32.006  1.00  0.00     0.049 A 
ATOM     57  C   UNL A   1      41.447  32.210  36.225  1.00  0.00     0.074 A 
ATOM     58  C   UNL A   1      43.761  27.915  32.201  1.00  0.00     0.029 A 
ATOM     59  N   UNL A   1      42.556  29.501  33.186  1.00  0.00    -0.354 N 
ATOM     60  N   UNL A   1      41.870  31.358  35.324  1.00  0.00    -0.248 NA
ATOM     61  C   UNL A   1      42.134  32.113  37.520  1.00  0.00     0.031 C 
ATOM     62  C   UNL A   1      44.213  28.058  33.517  1.00  0.00     0.029 A 
ATOM     63  C   UNL A   1      43.483  29.067  34.121  1.00  0.00     0.049 A 
ATOM     64  H   UNL A   1      41.890  30.210  33.338  1.00  0.00     0.167 HD
ATOM     65  C   UNL A   1      42.880  30.628  35.942  1.00  0.00     0.074 A 
ATOM     66  C   UNL A   1      43.029  31.166  37.278  1.00  0.00     0.031 C 
ATOM     67  C   UNL A   1      43.614  29.598  35.452  1.00  0.00     0.031 A 
BRANCH  54  68
ATOM     68  C   UNL A   1      42.215  28.115  29.625  1.00  0.00    -0.014 A 
ATOM     69  C   UNL A   1      41.658  26.834  29.466  1.00  0.00     0.010 A 
ATOM     70  C   UNL A   1      43.019  28.643  28.597  1.00  0.00     0.010 A 
ATOM     71  C   UNL A   1      41.912  26.091  28.308  1.00  0.00     0.020 A 
ATOM     72  C   UNL A   1      43.257  27.914  27.428  1.00  0.00     0.020 A 
ATOM     73  C   UNL A   1      42.708  26.637  27.295  1.00  0.00     0.054 A 
BRANCH  73  74
ATOM     74  S   UNL A   1      42.977  25.670  25.783  1.00  0.00     0.124 S 
ATOM     75  O   UNL A   1      44.384  25.941  25.499  1.00  0.00    -0.237 OA
ATOM     76  O   UNL A   1      42.675  24.308  26.217  1.00  0.00    -0.237 OA
ATOM     77  O   UNL A   1      42.028  26.244  24.830  1.00  0.00    -0.744 OA
ENDBRANCH  73  74
ENDBRANCH  54  68
BRANCH  55  78
ATOM     78  C   UNL A   1      40.036  34.127  37.273  1.00  0.00    -0.014 A 
ATOM     79  C   UNL A   1      40.622  35.397  37.416  1.00  0.00     0.010 A 
ATOM     80  C   UNL A   1      39.150  33.671  38.268  1.00  0.00     0.010 A 
ATOM     81  C   UNL A   1      40.349  36.180  38.543  1.00  0.00     0.020 A 
ATOM     82  C   UNL A   1      38.845  34.466  39.374  1.00  0.00     0.020 A 
ATOM     83  C   UNL A   1      39.463  35.708  39.515  1.00  0.00     0.054 A 
BRANCH  83  84
ATOM     84  S   UNL A   1      39.100  36.745  40.959  1.00  0.00     0.124 S 
ATOM     85  O   UNL A   1      40.438  37.059  41.448  1.00  0.00    -0.237 OA
ATOM     86  O   UNL A   1      38.361  37.861  40.372  1.00  0.00    -0.237 OA
ATOM     87  O   UNL A   1      38.309  35.867  41.819  1.00  0.00    -0.744 OA
ENDBRANCH  83  84
ENDBRANCH  55  78
BRANCH  67  88
ATOM     88  C   UNL A   1      44.660  29.012  36.363  1.00  0.00    -0.014 A 
ATOM     89  C   UNL A   1      44.384  27.893  37.168  1.00  0.00     0.010 A 
ATOM     90  C   UNL A   1      45.935  29.605  36.428  1.00  0.00     0.010 A 
ATOM     91  C   UNL A   1      45.340  27.418  38.071  1.00  0.00     0.020 A 
ATOM     92  C   UNL A   1      46.903  29.113  37.305  1.00  0.00     0.020 A 
ATOM     93  C   UNL A   1      46.590  28.040  38.141  1.00  0.00     0.054 A 
BRANCH  93  94
ATOM     94  S   UNL A   1      47.809  27.421  39.333  1.00  0.00     0.124 S 
ATOM     95  O   UNL A   1      48.746  26.710  38.467  1.00  0.00    -0.237 OA
ATOM     96  O   UNL A   1      48.319  28.648  39.940  1.00  0.00    -0.237 OA
ATOM     97  O   UNL A   1      47.019  26.574  40.225  1.00  0.00    -0.744 OA
ENDBRANCH  93  94
ENDBRANCH  67  88
ENDBRANCH  41  42
ENDBRANCH  34  36
ENDBRANCH  33  34
ENDBRANCH  32  33
ENDBRANCH  31  32
ENDBRANCH  30  31
ENDBRANCH  29  30
ENDBRANCH   1  29
TORSDOF 23
ENDMDL
