MODEL 1
REMARK VINA RESULT:      -7.3      0.000      0.000
REMARK SMILES CCOc1cc(OCC)cc(-c2ccc([C@@H](C)C(=O)OCCOCCOCCOC(=O)c3ccc(-c4c5nc(c(-c6ccc(S(=O)(=O)[O-])cc6)c6ccc([nH]6)c(-c6ccc(S(=O)(=O)[O-])cc6)c6nc(c(-c7ccc(S(=O)(=O)[O-])cc7)c7ccc4[nH]7)C=C6)C=C5)cc3)cc2F)c1
REMARK SMILES IDX 24 1 23 2 22 3 21 4 20 5 18 6 19 7 16 8 17 9 15 10 12 11
REMARK SMILES IDX 13 12 93 13 14 14 92 15 94 16 11 17 4 18 5 19 95 20 6 21
REMARK SMILES IDX 10 22 3 23 2 24 1 25 7 26 8 27 9 28 25 29 26 30 27 31 28 32
REMARK SMILES IDX 29 33 30 34 31 35 32 36 33 37 91 38 34 39 90 40 35 41 36 42
REMARK SMILES IDX 37 43 84 44 38 45 89 46 83 47 85 48 39 49 88 50 82 51 81 52
REMARK SMILES IDX 40 54 70 55 51 56 69 57 52 58 55 59 68 60 86 61 53 62 54 63
REMARK SMILES IDX 67 65 87 66 56 67 41 68 42 69 50 70 43 71 49 72 44 73 45 74
REMARK SMILES IDX 46 75 47 76 48 77 71 78 72 79 80 80 73 81 79 82 74 83 75 84
REMARK SMILES IDX 76 85 77 86 78 87 57 88 58 89 66 90 59 91 65 92 60 93 61 94
REMARK SMILES IDX 62 95 63 96 64 97
REMARK H PARENT 85 53 55 64
REMARK Flexibility Score: inf
ROOT
ATOM      1  C   UNL A   1      46.248  23.457  25.569  1.00  0.00     0.188 C 
ENDROOT
BRANCH   1   2
ATOM      2  O   UNL A   1      47.457  24.139  25.877  1.00  0.00    -0.376 OA
BRANCH   2   3
ATOM      3  C   UNL A   1      47.593  24.764  27.149  1.00  0.00     0.202 C 
BRANCH   3   4
ATOM      4  C   UNL A   1      48.630  25.889  27.316  1.00  0.00     0.261 C 
BRANCH   4   5
ATOM      5  O   UNL A   1      48.197  27.033  28.091  1.00  0.00    -0.463 OA
BRANCH   5   6
ATOM      6  C   UNL A   1      47.136  27.729  27.606  1.00  0.00     0.313 C 
ATOM      7  O   UNL A   1      47.062  28.109  26.439  1.00  0.00    -0.252 OA
BRANCH   6   8
ATOM      8  C   UNL A   1      45.992  28.007  28.590  1.00  0.00     0.126 C 
ATOM      9  C   UNL A   1      46.132  29.439  29.102  1.00  0.00     0.025 C 
BRANCH   8  10
ATOM     10  C   UNL A   1      45.701  27.067  29.760  1.00  0.00    -0.031 A 
ATOM     11  C   UNL A   1      45.086  25.236  31.877  1.00  0.00     0.018 A 
ATOM     12  C   UNL A   1      46.038  26.262  32.035  1.00  0.00     0.012 A 
ATOM     13  C   UNL A   1      44.453  25.146  30.635  1.00  0.00     0.131 A 
ATOM     14  C   UNL A   1      46.334  27.171  31.003  1.00  0.00     0.005 A 
ATOM     15  C   UNL A   1      44.742  26.044  29.600  1.00  0.00     0.044 A 
ATOM     16  F   UNL A   1      43.523  24.204  30.414  1.00  0.00    -0.206 F 
BRANCH  11  17
ATOM     17  C   UNL A   1      44.723  24.374  33.018  1.00  0.00    -0.008 A 
ATOM     18  C   UNL A   1      45.106  22.528  34.557  1.00  0.00     0.123 A 
ATOM     19  C   UNL A   1      43.929  22.837  35.242  1.00  0.00     0.092 A 
ATOM     20  C   UNL A   1      45.496  23.283  33.444  1.00  0.00     0.055 A 
ATOM     21  C   UNL A   1      43.126  23.893  34.815  1.00  0.00     0.123 A 
ATOM     22  C   UNL A   1      43.526  24.642  33.708  1.00  0.00     0.055 A 
BRANCH  18  23
ATOM     23  O   UNL A   1      45.741  21.368  34.914  1.00  0.00    -0.494 OA
BRANCH  23  24
ATOM     24  C   UNL A   1      46.921  21.536  35.707  1.00  0.00     0.226 C 
ATOM     25  C   UNL A   1      47.057  20.454  36.759  1.00  0.00     0.049 C 
ENDBRANCH  23  24
ENDBRANCH  18  23
BRANCH  21  26
ATOM     26  O   UNL A   1      41.991  24.119  35.548  1.00  0.00    -0.494 OA
BRANCH  26  27
ATOM     27  C   UNL A   1      41.894  25.368  36.241  1.00  0.00     0.226 C 
ATOM     28  C   UNL A   1      40.822  25.326  37.320  1.00  0.00     0.049 C 
ENDBRANCH  26  27
ENDBRANCH  21  26
ENDBRANCH  11  17
ENDBRANCH   8  10
ENDBRANCH   6   8
ENDBRANCH   5   6
ENDBRANCH   4   5
ENDBRANCH   3   4
ENDBRANCH   2   3
ENDBRANCH   1   2
BRANCH   1  29
ATOM     29  C   UNL A   1      45.034  23.655  26.488  1.00  0.00     0.188 C 
BRANCH  29  30
ATOM     30  O   UNL A   1      43.820  23.164  25.971  1.00  0.00    -0.376 OA
BRANCH  30  31
ATOM     31  C   UNL A   1      42.747  22.974  26.869  1.00  0.00     0.202 C 
BRANCH  31  32
ATOM     32  C   UNL A   1      42.089  24.213  27.500  1.00  0.00     0.261 C 
BRANCH  32  33
ATOM     33  O   UNL A   1      40.676  24.154  27.747  1.00  0.00    -0.460 OA
BRANCH  33  34
ATOM     34  C   UNL A   1      39.921  25.151  27.233  1.00  0.00     0.338 C 
ATOM     35  O   UNL A   1      39.194  25.079  26.255  1.00  0.00    -0.246 OA
BRANCH  34  36
ATOM     36  C   UNL A   1      39.930  26.277  28.188  1.00  0.00     0.060 A 
ATOM     37  C   UNL A   1      40.706  27.416  27.915  1.00  0.00     0.016 A 
ATOM     38  C   UNL A   1      39.156  26.206  29.344  1.00  0.00     0.016 A 
ATOM     39  C   UNL A   1      40.708  28.492  28.806  1.00  0.00     0.010 A 
ATOM     40  C   UNL A   1      39.183  27.267  30.246  1.00  0.00     0.010 A 
ATOM     41  C   UNL A   1      39.972  28.405  29.992  1.00  0.00    -0.014 A 
BRANCH  41  42
ATOM     42  C   UNL A   1      40.154  29.385  31.089  1.00  0.00     0.031 A 
ATOM     43  C   UNL A   1      41.323  29.189  32.012  1.00  0.00     0.074 A 
ATOM     44  C   UNL A   1      39.261  30.364  31.315  1.00  0.00     0.049 A 
ATOM     45  N   UNL A   1      41.567  29.743  33.169  1.00  0.00    -0.248 NA
ATOM     46  C   UNL A   1      42.342  28.219  31.575  1.00  0.00     0.031 C 
ATOM     47  C   UNL A   1      38.125  30.695  30.459  1.00  0.00     0.029 A 
ATOM     48  N   UNL A   1      39.157  31.240  32.369  1.00  0.00    -0.354 N 
ATOM     49  C   UNL A   1      42.750  29.166  33.615  1.00  0.00     0.074 A 
ATOM     50  C   UNL A   1      43.165  28.211  32.612  1.00  0.00     0.031 C 
ATOM     51  C   UNL A   1      37.418  31.682  31.036  1.00  0.00     0.029 A 
ATOM     52  C   UNL A   1      38.020  32.012  32.329  1.00  0.00     0.049 A 
ATOM     53  H   UNL A   1      39.831  31.309  33.082  1.00  0.00     0.167 HD
ATOM     54  C   UNL A   1      43.422  29.403  34.766  1.00  0.00     0.031 A 
ATOM     55  C   UNL A   1      37.500  32.849  33.251  1.00  0.00     0.031 A 
ATOM     56  C   UNL A   1      42.989  30.342  35.764  1.00  0.00     0.049 A 
ATOM     57  C   UNL A   1      38.218  33.037  34.565  1.00  0.00     0.074 A 
ATOM     58  C   UNL A   1      43.600  30.666  36.961  1.00  0.00     0.029 A 
ATOM     59  N   UNL A   1      41.830  31.100  35.686  1.00  0.00    -0.354 N 
ATOM     60  N   UNL A   1      39.337  32.489  34.980  1.00  0.00    -0.248 NA
ATOM     61  C   UNL A   1      37.605  33.955  35.538  1.00  0.00     0.031 C 
ATOM     62  C   UNL A   1      42.780  31.572  37.636  1.00  0.00     0.029 A 
ATOM     63  C   UNL A   1      41.697  31.874  36.825  1.00  0.00     0.049 A 
ATOM     64  H   UNL A   1      41.196  31.089  34.934  1.00  0.00     0.167 HD
ATOM     65  C   UNL A   1      39.583  33.032  36.239  1.00  0.00     0.074 A 
ATOM     66  C   UNL A   1      38.497  33.945  36.520  1.00  0.00     0.031 C 
ATOM     67  C   UNL A   1      40.623  32.802  37.079  1.00  0.00     0.031 A 
BRANCH  54  68
ATOM     68  C   UNL A   1      44.667  28.599  35.027  1.00  0.00    -0.014 A 
ATOM     69  C   UNL A   1      45.926  29.026  34.567  1.00  0.00     0.010 A 
ATOM     70  C   UNL A   1      44.579  27.413  35.778  1.00  0.00     0.010 A 
ATOM     71  C   UNL A   1      47.068  28.261  34.822  1.00  0.00     0.020 A 
ATOM     72  C   UNL A   1      45.722  26.662  36.063  1.00  0.00     0.020 A 
ATOM     73  C   UNL A   1      46.958  27.084  35.568  1.00  0.00     0.054 A 
BRANCH  73  74
ATOM     74  S   UNL A   1      48.460  26.126  35.906  1.00  0.00     0.124 S 
ATOM     75  O   UNL A   1      49.066  26.038  34.580  1.00  0.00    -0.237 OA
ATOM     76  O   UNL A   1      49.167  26.970  36.865  1.00  0.00    -0.237 OA
ATOM     77  O   UNL A   1      47.955  24.864  36.443  1.00  0.00    -0.744 OA
ENDBRANCH  73  74
ENDBRANCH  54  68
BRANCH  55  78
ATOM     78  C   UNL A   1      36.215  33.555  32.980  1.00  0.00    -0.014 A 
ATOM     79  C   UNL A   1      34.986  32.897  33.157  1.00  0.00     0.010 A 
ATOM     80  C   UNL A   1      36.214  34.893  32.540  1.00  0.00     0.010 A 
ATOM     81  C   UNL A   1      33.783  33.553  32.882  1.00  0.00     0.020 A 
ATOM     82  C   UNL A   1      35.012  35.563  32.296  1.00  0.00     0.020 A 
ATOM     83  C   UNL A   1      33.803  34.884  32.458  1.00  0.00     0.054 A 
BRANCH  83  84
ATOM     84  S   UNL A   1      32.225  35.728  32.155  1.00  0.00     0.124 S 
ATOM     85  O   UNL A   1      31.293  34.917  32.931  1.00  0.00    -0.237 OA
ATOM     86  O   UNL A   1      32.483  37.068  32.675  1.00  0.00    -0.237 OA
ATOM     87  O   UNL A   1      32.067  35.649  30.705  1.00  0.00    -0.744 OA
ENDBRANCH  83  84
ENDBRANCH  55  78
BRANCH  67  88
ATOM     88  C   UNL A   1      40.699  33.598  38.356  1.00  0.00    -0.014 A 
ATOM     89  C   UNL A   1      41.285  34.875  38.399  1.00  0.00     0.010 A 
ATOM     90  C   UNL A   1      40.055  33.100  39.506  1.00  0.00     0.010 A 
ATOM     91  C   UNL A   1      41.228  35.637  39.571  1.00  0.00     0.020 A 
ATOM     92  C   UNL A   1      39.971  33.869  40.668  1.00  0.00     0.020 A 
ATOM     93  C   UNL A   1      40.562  35.134  40.694  1.00  0.00     0.054 A 
BRANCH  93  94
ATOM     94  S   UNL A   1      40.419  36.182  42.168  1.00  0.00     0.124 S 
ATOM     95  O   UNL A   1      38.985  36.459  42.208  1.00  0.00    -0.237 OA
ATOM     96  O   UNL A   1      40.920  35.311  43.228  1.00  0.00    -0.237 OA
ATOM     97  O   UNL A   1      41.266  37.332  41.861  1.00  0.00    -0.744 OA
ENDBRANCH  93  94
ENDBRANCH  67  88
ENDBRANCH  41  42
ENDBRANCH  34  36
ENDBRANCH  33  34
ENDBRANCH  32  33
ENDBRANCH  31  32
ENDBRANCH  30  31
ENDBRANCH  29  30
ENDBRANCH   1  29
TORSDOF 26
ENDMDL
MODEL 2
REMARK VINA RESULT:      -7.1      3.601     10.563
REMARK SMILES CCOc1cc(OCC)cc(-c2ccc([C@@H](C)C(=O)OCCOCCOCCOC(=O)c3ccc(-c4c5nc(c(-c6ccc(S(=O)(=O)[O-])cc6)c6ccc([nH]6)c(-c6ccc(S(=O)(=O)[O-])cc6)c6nc(c(-c7ccc(S(=O)(=O)[O-])cc7)c7ccc4[nH]7)C=C6)C=C5)cc3)cc2F)c1
REMARK SMILES IDX 24 1 23 2 22 3 21 4 20 5 18 6 19 7 16 8 17 9 15 10 12 11
REMARK SMILES IDX 13 12 93 13 14 14 92 15 94 16 11 17 4 18 5 19 95 20 6 21
REMARK SMILES IDX 10 22 3 23 2 24 1 25 7 26 8 27 9 28 25 29 26 30 27 31 28 32
REMARK SMILES IDX 29 33 30 34 31 35 32 36 33 37 91 38 34 39 90 40 35 41 36 42
REMARK SMILES IDX 37 43 84 44 38 45 89 46 83 47 85 48 39 49 88 50 82 51 81 52
REMARK SMILES IDX 40 54 70 55 51 56 69 57 52 58 55 59 68 60 86 61 53 62 54 63
REMARK SMILES IDX 67 65 87 66 56 67 41 68 42 69 50 70 43 71 49 72 44 73 45 74
REMARK SMILES IDX 46 75 47 76 48 77 71 78 72 79 80 80 73 81 79 82 74 83 75 84
REMARK SMILES IDX 76 85 77 86 78 87 57 88 58 89 66 90 59 91 65 92 60 93 61 94
REMARK SMILES IDX 62 95 63 96 64 97
REMARK H PARENT 85 53 55 64
REMARK Flexibility Score: inf
ROOT
ATOM      1  C   UNL A   1      33.785  29.075  26.055  1.00  0.00     0.188 C 
ENDROOT
BRANCH   1   2
ATOM      2  O   UNL A   1      32.953  28.640  24.988  1.00  0.00    -0.376 OA
BRANCH   2   3
ATOM      3  C   UNL A   1      31.948  27.666  25.248  1.00  0.00     0.202 C 
BRANCH   3   4
ATOM      4  C   UNL A   1      32.376  26.262  25.708  1.00  0.00     0.261 C 
BRANCH   4   5
ATOM      5  O   UNL A   1      32.226  25.206  24.728  1.00  0.00    -0.463 OA
BRANCH   5   6
ATOM      6  C   UNL A   1      33.340  24.858  24.033  1.00  0.00     0.313 C 
ATOM      7  O   UNL A   1      34.009  25.667  23.393  1.00  0.00    -0.252 OA
BRANCH   6   8
ATOM      8  C   UNL A   1      33.756  23.384  24.101  1.00  0.00     0.126 C 
ATOM      9  C   UNL A   1      32.659  22.603  24.822  1.00  0.00     0.025 C 
BRANCH   8  10
ATOM     10  C   UNL A   1      35.125  22.966  24.639  1.00  0.00    -0.031 A 
ATOM     11  C   UNL A   1      37.690  22.282  25.720  1.00  0.00     0.018 A 
ATOM     12  C   UNL A   1      36.973  21.397  24.891  1.00  0.00     0.012 A 
ATOM     13  C   UNL A   1      37.091  23.513  25.999  1.00  0.00     0.131 A 
ATOM     14  C   UNL A   1      35.720  21.734  24.348  1.00  0.00     0.005 A 
ATOM     15  C   UNL A   1      35.842  23.857  25.465  1.00  0.00     0.044 A 
ATOM     16  F   UNL A   1      37.719  24.415  26.769  1.00  0.00    -0.206 F 
BRANCH  11  17
ATOM     17  C   UNL A   1      39.049  21.939  26.179  1.00  0.00    -0.008 A 
ATOM     18  C   UNL A   1      41.116  22.386  27.384  1.00  0.00     0.123 A 
ATOM     19  C   UNL A   1      41.615  21.133  27.020  1.00  0.00     0.092 A 
ATOM     20  C   UNL A   1      39.846  22.793  26.955  1.00  0.00     0.055 A 
ATOM     21  C   UNL A   1      40.856  20.282  26.219  1.00  0.00     0.123 A 
ATOM     22  C   UNL A   1      39.590  20.696  25.803  1.00  0.00     0.055 A 
BRANCH  18  23
ATOM     23  O   UNL A   1      41.987  23.239  28.008  1.00  0.00    -0.494 OA
BRANCH  23  24
ATOM     24  C   UNL A   1      43.039  22.608  28.745  1.00  0.00     0.226 C 
ATOM     25  C   UNL A   1      43.540  23.480  29.879  1.00  0.00     0.049 C 
ENDBRANCH  23  24
ENDBRANCH  18  23
BRANCH  21  26
ATOM     26  O   UNL A   1      41.428  19.076  25.914  1.00  0.00    -0.494 OA
BRANCH  26  27
ATOM     27  C   UNL A   1      42.857  18.998  25.947  1.00  0.00     0.226 C 
ATOM     28  C   UNL A   1      43.333  17.770  26.707  1.00  0.00     0.049 C 
ENDBRANCH  26  27
ENDBRANCH  21  26
ENDBRANCH  11  17
ENDBRANCH   8  10
ENDBRANCH   6   8
ENDBRANCH   5   6
ENDBRANCH   4   5
ENDBRANCH   3   4
ENDBRANCH   2   3
ENDBRANCH   1   2
BRANCH   1  29
ATOM     29  C   UNL A   1      33.358  30.307  26.867  1.00  0.00     0.188 C 
BRANCH  29  30
ATOM     30  O   UNL A   1      34.321  30.768  27.785  1.00  0.00    -0.376 OA
BRANCH  30  31
ATOM     31  C   UNL A   1      34.698  32.127  27.722  1.00  0.00     0.202 C 
BRANCH  31  32
ATOM     32  C   UNL A   1      33.596  33.198  27.782  1.00  0.00     0.261 C 
BRANCH  32  33
ATOM     33  O   UNL A   1      33.909  34.427  28.455  1.00  0.00    -0.460 OA
BRANCH  33  34
ATOM     34  C   UNL A   1      33.656  34.482  29.782  1.00  0.00     0.338 C 
ATOM     35  O   UNL A   1      32.585  34.743  30.305  1.00  0.00    -0.246 OA
BRANCH  34  36
ATOM     36  C   UNL A   1      34.826  33.938  30.498  1.00  0.00     0.060 A 
ATOM     37  C   UNL A   1      36.101  34.478  30.261  1.00  0.00     0.016 A 
ATOM     38  C   UNL A   1      34.653  32.904  31.416  1.00  0.00     0.016 A 
ATOM     39  C   UNL A   1      37.212  33.979  30.946  1.00  0.00     0.010 A 
ATOM     40  C   UNL A   1      35.766  32.387  32.076  1.00  0.00     0.010 A 
ATOM     41  C   UNL A   1      37.051  32.907  31.831  1.00  0.00    -0.014 A 
BRANCH  41  42
ATOM     42  C   UNL A   1      38.216  32.165  32.368  1.00  0.00     0.031 A 
ATOM     43  C   UNL A   1      38.677  32.502  33.758  1.00  0.00     0.074 A 
ATOM     44  C   UNL A   1      38.900  31.286  31.616  1.00  0.00     0.049 A 
ATOM     45  N   UNL A   1      39.791  32.187  34.360  1.00  0.00    -0.248 NA
ATOM     46  C   UNL A   1      37.760  33.325  34.565  1.00  0.00     0.031 C 
ATOM     47  C   UNL A   1      38.519  30.829  30.282  1.00  0.00     0.029 A 
ATOM     48  N   UNL A   1      40.091  30.647  31.864  1.00  0.00    -0.354 N 
ATOM     49  C   UNL A   1      39.726  32.800  35.606  1.00  0.00     0.074 A 
ATOM     50  C   UNL A   1      38.471  33.514  35.666  1.00  0.00     0.031 C 
ATOM     51  C   UNL A   1      39.474  30.006  29.814  1.00  0.00     0.029 A 
ATOM     52  C   UNL A   1      40.559  29.925  30.792  1.00  0.00     0.049 A 
ATOM     53  H   UNL A   1      40.562  30.700  32.727  1.00  0.00     0.167 HD
ATOM     54  C   UNL A   1      40.639  32.777  36.605  1.00  0.00     0.031 A 
ATOM     55  C   UNL A   1      41.747  29.313  30.604  1.00  0.00     0.031 A 
ATOM     56  C   UNL A   1      41.893  32.078  36.525  1.00  0.00     0.049 A 
ATOM     57  C   UNL A   1      42.788  29.370  31.695  1.00  0.00     0.074 A 
ATOM     58  C   UNL A   1      42.885  31.982  37.483  1.00  0.00     0.029 A 
ATOM     59  N   UNL A   1      42.329  31.362  35.420  1.00  0.00    -0.354 N 
ATOM     60  N   UNL A   1      42.720  29.950  32.872  1.00  0.00    -0.248 NA
ATOM     61  C   UNL A   1      44.068  28.693  31.437  1.00  0.00     0.031 C 
ATOM     62  C   UNL A   1      43.949  31.263  36.936  1.00  0.00     0.029 A 
ATOM     63  C   UNL A   1      43.587  30.841  35.665  1.00  0.00     0.049 A 
ATOM     64  H   UNL A   1      41.822  31.243  34.586  1.00  0.00     0.167 HD
ATOM     65  C   UNL A   1      43.926  29.666  33.507  1.00  0.00     0.074 A 
ATOM     66  C   UNL A   1      44.707  28.870  32.586  1.00  0.00     0.031 C 
ATOM     67  C   UNL A   1      44.343  30.025  34.747  1.00  0.00     0.031 A 
BRANCH  54  68
ATOM     68  C   UNL A   1      40.337  33.572  37.847  1.00  0.00    -0.014 A 
ATOM     69  C   UNL A   1      40.726  34.918  37.969  1.00  0.00     0.010 A 
ATOM     70  C   UNL A   1      39.617  32.970  38.895  1.00  0.00     0.010 A 
ATOM     71  C   UNL A   1      40.434  35.635  39.133  1.00  0.00     0.020 A 
ATOM     72  C   UNL A   1      39.295  33.692  40.046  1.00  0.00     0.020 A 
ATOM     73  C   UNL A   1      39.720  35.017  40.164  1.00  0.00     0.054 A 
BRANCH  73  74
ATOM     74  S   UNL A   1      39.332  35.979  41.650  1.00  0.00     0.124 S 
ATOM     75  O   UNL A   1      40.656  36.174  42.237  1.00  0.00    -0.237 OA
ATOM     76  O   UNL A   1      38.707  37.179  41.099  1.00  0.00    -0.237 OA
ATOM     77  O   UNL A   1      38.440  35.106  42.409  1.00  0.00    -0.744 OA
ENDBRANCH  73  74
ENDBRANCH  54  68
BRANCH  55  78
ATOM     78  C   UNL A   1      42.033  28.613  29.319  1.00  0.00    -0.014 A 
ATOM     79  C   UNL A   1      41.641  27.277  29.129  1.00  0.00     0.010 A 
ATOM     80  C   UNL A   1      42.705  29.280  28.277  1.00  0.00     0.010 A 
ATOM     81  C   UNL A   1      41.929  26.615  27.932  1.00  0.00     0.020 A 
ATOM     82  C   UNL A   1      42.966  28.632  27.066  1.00  0.00     0.020 A 
ATOM     83  C   UNL A   1      42.586  27.298  26.905  1.00  0.00     0.054 A 
BRANCH  83  84
ATOM     84  S   UNL A   1      42.904  26.431  25.344  1.00  0.00     0.124 S 
ATOM     85  O   UNL A   1      42.880  27.523  24.378  1.00  0.00    -0.237 OA
ATOM     86  O   UNL A   1      44.212  25.825  25.583  1.00  0.00    -0.237 OA
ATOM     87  O   UNL A   1      41.796  25.483  25.246  1.00  0.00    -0.744 OA
ENDBRANCH  83  84
ENDBRANCH  55  78
BRANCH  67  88
ATOM     88  C   UNL A   1      45.670  29.503  35.233  1.00  0.00    -0.014 A 
ATOM     89  C   UNL A   1      45.789  28.248  35.856  1.00  0.00     0.010 A 
ATOM     90  C   UNL A   1      46.836  30.239  34.945  1.00  0.00     0.010 A 
ATOM     91  C   UNL A   1      47.052  27.742  36.183  1.00  0.00     0.020 A 
ATOM     92  C   UNL A   1      48.099  29.724  35.243  1.00  0.00     0.020 A 
ATOM     93  C   UNL A   1      48.199  28.478  35.864  1.00  0.00     0.054 A 
BRANCH  93  94
ATOM     94  S   UNL A   1      49.826  27.755  36.210  1.00  0.00     0.124 S 
ATOM     95  O   UNL A   1      49.518  26.329  36.282  1.00  0.00    -0.237 OA
ATOM     96  O   UNL A   1      50.612  28.170  35.051  1.00  0.00    -0.237 OA
ATOM     97  O   UNL A   1      50.219  28.371  37.476  1.00  0.00    -0.744 OA
ENDBRANCH  93  94
ENDBRANCH  67  88
ENDBRANCH  41  42
ENDBRANCH  34  36
ENDBRANCH  33  34
ENDBRANCH  32  33
ENDBRANCH  31  32
ENDBRANCH  30  31
ENDBRANCH  29  30
ENDBRANCH   1  29
TORSDOF 26
ENDMDL
MODEL 3
REMARK VINA RESULT:      -7.0      4.114      9.477
REMARK SMILES CCOc1cc(OCC)cc(-c2ccc([C@@H](C)C(=O)OCCOCCOCCOC(=O)c3ccc(-c4c5nc(c(-c6ccc(S(=O)(=O)[O-])cc6)c6ccc([nH]6)c(-c6ccc(S(=O)(=O)[O-])cc6)c6nc(c(-c7ccc(S(=O)(=O)[O-])cc7)c7ccc4[nH]7)C=C6)C=C5)cc3)cc2F)c1
REMARK SMILES IDX 24 1 23 2 22 3 21 4 20 5 18 6 19 7 16 8 17 9 15 10 12 11
REMARK SMILES IDX 13 12 93 13 14 14 92 15 94 16 11 17 4 18 5 19 95 20 6 21
REMARK SMILES IDX 10 22 3 23 2 24 1 25 7 26 8 27 9 28 25 29 26 30 27 31 28 32
REMARK SMILES IDX 29 33 30 34 31 35 32 36 33 37 91 38 34 39 90 40 35 41 36 42
REMARK SMILES IDX 37 43 84 44 38 45 89 46 83 47 85 48 39 49 88 50 82 51 81 52
REMARK SMILES IDX 40 54 70 55 51 56 69 57 52 58 55 59 68 60 86 61 53 62 54 63
REMARK SMILES IDX 67 65 87 66 56 67 41 68 42 69 50 70 43 71 49 72 44 73 45 74
REMARK SMILES IDX 46 75 47 76 48 77 71 78 72 79 80 80 73 81 79 82 74 83 75 84
REMARK SMILES IDX 76 85 77 86 78 87 57 88 58 89 66 90 59 91 65 92 60 93 61 94
REMARK SMILES IDX 62 95 63 96 64 97
REMARK H PARENT 85 53 55 64
REMARK Flexibility Score: inf
ROOT
ATOM      1  C   UNL A   1      32.384  25.819  25.763  1.00  0.00     0.188 C 
ENDROOT
BRANCH   1   2
ATOM      2  O   UNL A   1      31.192  25.111  25.448  1.00  0.00    -0.376 OA
BRANCH   2   3
ATOM      3  C   UNL A   1      30.688  24.158  26.378  1.00  0.00     0.202 C 
BRANCH   3   4
ATOM      4  C   UNL A   1      30.631  22.677  25.964  1.00  0.00     0.261 C 
BRANCH   4   5
ATOM      5  O   UNL A   1      31.908  22.049  25.699  1.00  0.00    -0.463 OA
BRANCH   5   6
ATOM      6  C   UNL A   1      32.256  21.905  24.395  1.00  0.00     0.313 C 
ATOM      7  O   UNL A   1      31.657  22.462  23.477  1.00  0.00    -0.252 OA
BRANCH   6   8
ATOM      8  C   UNL A   1      33.475  21.020  24.105  1.00  0.00     0.126 C 
ATOM      9  C   UNL A   1      33.125  19.579  24.472  1.00  0.00     0.025 C 
BRANCH   8  10
ATOM     10  C   UNL A   1      34.861  21.368  24.647  1.00  0.00    -0.031 A 
ATOM     11  C   UNL A   1      37.420  22.137  25.684  1.00  0.00     0.018 A 
ATOM     12  C   UNL A   1      37.106  20.793  25.399  1.00  0.00     0.012 A 
ATOM     13  C   UNL A   1      36.423  23.084  25.441  1.00  0.00     0.131 A 
ATOM     14  C   UNL A   1      35.857  20.413  24.879  1.00  0.00     0.005 A 
ATOM     15  C   UNL A   1      35.173  22.716  24.925  1.00  0.00     0.044 A 
ATOM     16  F   UNL A   1      36.652  24.386  25.673  1.00  0.00    -0.206 F 
BRANCH  11  17
ATOM     17  C   UNL A   1      38.779  22.509  26.123  1.00  0.00    -0.008 A 
ATOM     18  C   UNL A   1      41.123  22.037  26.575  1.00  0.00     0.123 A 
ATOM     19  C   UNL A   1      41.333  23.368  26.943  1.00  0.00     0.092 A 
ATOM     20  C   UNL A   1      39.850  21.606  26.179  1.00  0.00     0.055 A 
ATOM     21  C   UNL A   1      40.276  24.275  26.929  1.00  0.00     0.123 A 
ATOM     22  C   UNL A   1      39.014  23.835  26.528  1.00  0.00     0.055 A 
BRANCH  18  23
ATOM     23  O   UNL A   1      42.157  21.166  26.793  1.00  0.00    -0.494 OA
BRANCH  23  24
ATOM     24  C   UNL A   1      41.953  19.838  26.300  1.00  0.00     0.226 C 
ATOM     25  C   UNL A   1      43.171  19.309  25.570  1.00  0.00     0.049 C 
ENDBRANCH  23  24
ENDBRANCH  18  23
BRANCH  21  26
ATOM     26  O   UNL A   1      40.578  25.556  27.307  1.00  0.00    -0.494 OA
BRANCH  26  27
ATOM     27  C   UNL A   1      40.884  26.493  26.269  1.00  0.00     0.226 C 
ATOM     28  C   UNL A   1      40.601  27.923  26.704  1.00  0.00     0.049 C 
ENDBRANCH  26  27
ENDBRANCH  21  26
ENDBRANCH  11  17
ENDBRANCH   8  10
ENDBRANCH   6   8
ENDBRANCH   5   6
ENDBRANCH   4   5
ENDBRANCH   3   4
ENDBRANCH   2   3
ENDBRANCH   1   2
BRANCH   1  29
ATOM     29  C   UNL A   1      32.667  27.144  25.041  1.00  0.00     0.188 C 
BRANCH  29  30
ATOM     30  O   UNL A   1      32.663  28.280  25.872  1.00  0.00    -0.376 OA
BRANCH  30  31
ATOM     31  C   UNL A   1      33.898  28.909  26.140  1.00  0.00     0.202 C 
BRANCH  31  32
ATOM     32  C   UNL A   1      33.887  30.356  26.660  1.00  0.00     0.261 C 
BRANCH  32  33
ATOM     33  O   UNL A   1      34.769  30.671  27.749  1.00  0.00    -0.460 OA
BRANCH  33  34
ATOM     34  C   UNL A   1      35.091  31.973  27.920  1.00  0.00     0.338 C 
ATOM     35  O   UNL A   1      34.455  32.935  27.522  1.00  0.00    -0.246 OA
BRANCH  34  36
ATOM     36  C   UNL A   1      36.213  32.049  28.877  1.00  0.00     0.060 A 
ATOM     37  C   UNL A   1      37.166  33.074  28.752  1.00  0.00     0.016 A 
ATOM     38  C   UNL A   1      36.307  31.114  29.906  1.00  0.00     0.016 A 
ATOM     39  C   UNL A   1      38.222  33.163  29.663  1.00  0.00     0.010 A 
ATOM     40  C   UNL A   1      37.377  31.186  30.794  1.00  0.00     0.010 A 
ATOM     41  C   UNL A   1      38.349  32.197  30.666  1.00  0.00    -0.014 A 
BRANCH  41  42
ATOM     42  C   UNL A   1      39.584  32.081  31.477  1.00  0.00     0.031 A 
ATOM     43  C   UNL A   1      40.619  31.085  31.033  1.00  0.00     0.074 A 
ATOM     44  C   UNL A   1      39.745  32.770  32.620  1.00  0.00     0.049 A 
ATOM     45  N   UNL A   1      41.652  30.620  31.681  1.00  0.00    -0.248 NA
ATOM     46  C   UNL A   1      40.445  30.525  29.682  1.00  0.00     0.031 C 
ATOM     47  C   UNL A   1      38.847  33.807  33.122  1.00  0.00     0.029 A 
ATOM     48  N   UNL A   1      40.716  32.666  33.586  1.00  0.00    -0.354 N 
ATOM     49  C   UNL A   1      42.235  29.688  30.830  1.00  0.00     0.074 A 
ATOM     50  C   UNL A   1      41.433  29.645  29.628  1.00  0.00     0.031 C 
ATOM     51  C   UNL A   1      39.292  34.223  34.321  1.00  0.00     0.029 A 
ATOM     52  C   UNL A   1      40.471  33.442  34.695  1.00  0.00     0.049 A 
ATOM     53  H   UNL A   1      41.510  32.092  33.494  1.00  0.00     0.167 HD
ATOM     54  C   UNL A   1      43.335  28.928  31.040  1.00  0.00     0.031 A 
ATOM     55  C   UNL A   1      41.096  33.479  35.890  1.00  0.00     0.031 A 
ATOM     56  C   UNL A   1      44.114  28.967  32.248  1.00  0.00     0.049 A 
ATOM     57  C   UNL A   1      42.269  32.562  36.138  1.00  0.00     0.074 A 
ATOM     58  C   UNL A   1      45.252  28.246  32.559  1.00  0.00     0.029 A 
ATOM     59  N   UNL A   1      43.829  29.764  33.347  1.00  0.00    -0.354 N 
ATOM     60  N   UNL A   1      42.817  31.684  35.329  1.00  0.00    -0.248 NA
ATOM     61  C   UNL A   1      42.911  32.637  37.460  1.00  0.00     0.031 C 
ATOM     62  C   UNL A   1      45.619  28.559  33.870  1.00  0.00     0.029 A 
ATOM     63  C   UNL A   1      44.757  29.535  34.347  1.00  0.00     0.049 A 
ATOM     64  H   UNL A   1      43.079  30.398  33.408  1.00  0.00     0.167 HD
ATOM     65  C   UNL A   1      43.892  31.141  36.028  1.00  0.00     0.074 A 
ATOM     66  C   UNL A   1      43.915  31.782  37.324  1.00  0.00     0.031 C 
ATOM     67  C   UNL A   1      44.784  30.202  35.624  1.00  0.00     0.031 A 
BRANCH  54  68
ATOM     68  C   UNL A   1      43.729  27.956  29.961  1.00  0.00    -0.014 A 
ATOM     69  C   UNL A   1      43.194  26.656  29.914  1.00  0.00     0.010 A 
ATOM     70  C   UNL A   1      44.624  28.364  28.955  1.00  0.00     0.010 A 
ATOM     71  C   UNL A   1      43.576  25.771  28.902  1.00  0.00     0.020 A 
ATOM     72  C   UNL A   1      44.984  27.493  27.924  1.00  0.00     0.020 A 
ATOM     73  C   UNL A   1      44.469  26.196  27.914  1.00  0.00     0.054 A 
BRANCH  73  74
ATOM     74  S   UNL A   1      44.925  25.035  26.599  1.00  0.00     0.124 S 
ATOM     75  O   UNL A   1      43.926  25.331  25.574  1.00  0.00    -0.237 OA
ATOM     76  O   UNL A   1      46.292  25.437  26.278  1.00  0.00    -0.237 OA
ATOM     77  O   UNL A   1      44.796  23.723  27.230  1.00  0.00    -0.744 OA
ENDBRANCH  73  74
ENDBRANCH  54  68
BRANCH  55  78
ATOM     78  C   UNL A   1      40.612  34.397  36.960  1.00  0.00    -0.014 A 
ATOM     79  C   UNL A   1      41.125  35.701  37.069  1.00  0.00     0.010 A 
ATOM     80  C   UNL A   1      39.635  33.970  37.879  1.00  0.00     0.010 A 
ATOM     81  C   UNL A   1      40.686  36.554  38.087  1.00  0.00     0.020 A 
ATOM     82  C   UNL A   1      39.169  34.831  38.878  1.00  0.00     0.020 A 
ATOM     83  C   UNL A   1      39.707  36.115  38.982  1.00  0.00     0.054 A 
BRANCH  83  84
ATOM     84  S   UNL A   1      39.119  37.259  40.262  1.00  0.00     0.124 S 
ATOM     85  O   UNL A   1      38.387  38.246  39.476  1.00  0.00    -0.237 OA
ATOM     86  O   UNL A   1      38.304  36.390  41.107  1.00  0.00    -0.237 OA
ATOM     87  O   UNL A   1      40.351  37.742  40.883  1.00  0.00    -0.744 OA
ENDBRANCH  83  84
ENDBRANCH  55  78
BRANCH  67  88
ATOM     88  C   UNL A   1      45.921  29.854  36.551  1.00  0.00    -0.014 A 
ATOM     89  C   UNL A   1      45.834  28.785  37.460  1.00  0.00     0.010 A 
ATOM     90  C   UNL A   1      47.143  30.540  36.413  1.00  0.00     0.010 A 
ATOM     91  C   UNL A   1      46.951  28.412  38.216  1.00  0.00     0.020 A 
ATOM     92  C   UNL A   1      48.267  30.152  37.145  1.00  0.00     0.020 A 
ATOM     93  C   UNL A   1      48.163  29.091  38.046  1.00  0.00     0.054 A 
BRANCH  93  94
ATOM     94  S   UNL A   1      49.619  28.524  38.967  1.00  0.00     0.124 S 
ATOM     95  O   UNL A   1      50.676  28.629  37.964  1.00  0.00    -0.237 OA
ATOM     96  O   UNL A   1      49.696  29.486  40.064  1.00  0.00    -0.237 OA
ATOM     97  O   UNL A   1      49.272  27.161  39.365  1.00  0.00    -0.744 OA
ENDBRANCH  93  94
ENDBRANCH  67  88
ENDBRANCH  41  42
ENDBRANCH  34  36
ENDBRANCH  33  34
ENDBRANCH  32  33
ENDBRANCH  31  32
ENDBRANCH  30  31
ENDBRANCH  29  30
ENDBRANCH   1  29
TORSDOF 26
ENDMDL
