MODEL 1
REMARK VINA RESULT:     -10.1      0.000      0.000
REMARK SMILES Cc1c(Cl)cc2c(c1C)O[C@H](C(F)(F)F)C(C(=O)OCCOCCOCCOC(=O)c1ccc(-c3c4nc(c(-c5ccc(S(=O)(=O)[O-])cc5)c5ccc([nH]5)c(-c5ccc(S(=O)(=O)[O-])cc5)c5nc(c(-c6ccc(S(=O)(=O)[O-])cc6)c6ccc3[nH]6)C=C5)C=C4)cc1)=C2
REMARK SMILES IDX 24 1 23 2 22 3 21 4 20 5 19 6 17 7 18 8 16 9 1 10 2 11 3 12
REMARK SMILES IDX 8 13 4 14 5 15 7 16 9 17 6 18 10 19 91 20 11 21 12 22 13 23
REMARK SMILES IDX 14 24 15 25 25 26 26 27 27 28 28 29 29 30 30 31 31 32 32 33
REMARK SMILES IDX 90 34 33 35 89 36 34 37 35 38 36 39 83 40 37 41 88 42 82 43
REMARK SMILES IDX 84 44 38 45 87 46 81 47 80 48 39 50 69 51 50 52 68 53 51 54
REMARK SMILES IDX 54 55 67 56 85 57 52 58 53 59 66 61 86 62 55 63 40 64 41 65
REMARK SMILES IDX 49 66 42 67 48 68 43 69 44 70 45 71 46 72 47 73 70 74 71 75
REMARK SMILES IDX 79 76 72 77 78 78 73 79 74 80 75 81 76 82 77 83 56 84 57 85
REMARK SMILES IDX 65 86 58 87 64 88 59 89 60 90 61 91 62 92 63 93
REMARK H PARENT 84 49 54 60
REMARK Flexibility Score: inf
ROOT
ATOM      1  C   UNL A   1      34.726  33.588  29.505  1.00  0.00     0.188 C 
ENDROOT
BRANCH   1   2
ATOM      2  C   UNL A   1      36.028  33.048  28.877  1.00  0.00     0.188 C 
BRANCH   2   3
ATOM      3  O   UNL A   1      36.013  31.861  28.114  1.00  0.00    -0.376 OA
BRANCH   3   4
ATOM      4  C   UNL A   1      34.822  31.340  27.551  1.00  0.00     0.202 C 
BRANCH   4   5
ATOM      5  C   UNL A   1      34.532  29.845  27.380  1.00  0.00     0.261 C 
BRANCH   5   6
ATOM      6  O   UNL A   1      33.660  29.497  26.302  1.00  0.00    -0.460 OA
BRANCH   6   7
ATOM      7  C   UNL A   1      32.436  29.059  26.682  1.00  0.00     0.338 C 
ATOM      8  O   UNL A   1      31.606  29.675  27.330  1.00  0.00    -0.246 OA
BRANCH   7   9
ATOM      9  C   UNL A   1      32.188  27.730  26.101  1.00  0.00     0.087 C 
ATOM     10  C   UNL A   1      32.646  21.726  23.629  1.00  0.00     0.046 C 
ATOM     11  C   UNL A   1      32.695  23.003  24.432  1.00  0.00    -0.026 A 
ATOM     12  C   UNL A   1      33.673  23.208  25.425  1.00  0.00     0.045 A 
ATOM     13  C   UNL A   1      31.753  24.034  24.185  1.00  0.00    -0.004 A 
ATOM     14  Cl  UNL A   1      34.827  21.996  25.858  1.00  0.00    -0.084 Cl
ATOM     15  C   UNL A   1      33.763  24.426  26.105  1.00  0.00     0.032 A 
ATOM     16  C   UNL A   1      31.851  25.254  24.890  1.00  0.00     0.131 A 
ATOM     17  C   UNL A   1      30.641  23.888  23.173  1.00  0.00     0.049 C 
ATOM     18  C   UNL A   1      32.874  25.459  25.817  1.00  0.00     0.019 A 
ATOM     19  O   UNL A   1      30.907  26.204  24.605  1.00  0.00    -0.475 OA
ATOM     20  C   UNL A   1      33.049  26.761  26.436  1.00  0.00     0.027 C 
ATOM     21  C   UNL A   1      31.020  27.532  25.179  1.00  0.00     0.316 C 
BRANCH  21  22
ATOM     22  C   UNL A   1      30.992  28.550  24.029  1.00  0.00     0.430 C 
ATOM     23  F   UNL A   1      30.210  28.118  23.010  1.00  0.00    -0.167 F 
ATOM     24  F   UNL A   1      30.482  29.742  24.422  1.00  0.00    -0.167 F 
ATOM     25  F   UNL A   1      32.223  28.784  23.522  1.00  0.00    -0.167 F 
ENDBRANCH  21  22
ENDBRANCH   7   9
ENDBRANCH   6   7
ENDBRANCH   5   6
ENDBRANCH   4   5
ENDBRANCH   3   4
ENDBRANCH   2   3
ENDBRANCH   1   2
BRANCH   1  26
ATOM     26  O   UNL A   1      34.133  32.948  30.621  1.00  0.00    -0.376 OA
BRANCH  26  27
ATOM     27  C   UNL A   1      34.733  33.096  31.898  1.00  0.00     0.202 C 
BRANCH  27  28
ATOM     28  C   UNL A   1      35.503  31.934  32.535  1.00  0.00     0.261 C 
BRANCH  28  29
ATOM     29  O   UNL A   1      36.803  31.711  31.970  1.00  0.00    -0.460 OA
BRANCH  29  30
ATOM     30  C   UNL A   1      36.966  30.512  31.356  1.00  0.00     0.338 C 
ATOM     31  O   UNL A   1      36.109  29.675  31.134  1.00  0.00    -0.246 OA
BRANCH  30  32
ATOM     32  C   UNL A   1      38.329  30.432  30.804  1.00  0.00     0.060 A 
ATOM     33  C   UNL A   1      38.472  30.232  29.424  1.00  0.00     0.016 A 
ATOM     34  C   UNL A   1      39.449  30.507  31.633  1.00  0.00     0.016 A 
ATOM     35  C   UNL A   1      39.743  30.092  28.868  1.00  0.00     0.010 A 
ATOM     36  C   UNL A   1      40.721  30.338  31.078  1.00  0.00     0.010 A 
ATOM     37  C   UNL A   1      40.871  30.106  29.699  1.00  0.00    -0.014 A 
BRANCH  37  38
ATOM     38  C   UNL A   1      42.187  29.705  29.149  1.00  0.00     0.031 A 
ATOM     39  C   UNL A   1      42.370  28.284  28.690  1.00  0.00     0.074 A 
ATOM     40  C   UNL A   1      43.190  30.592  29.030  1.00  0.00     0.049 A 
ATOM     41  N   UNL A   1      43.431  27.708  28.189  1.00  0.00    -0.248 NA
ATOM     42  C   UNL A   1      41.199  27.398  28.807  1.00  0.00     0.031 C 
ATOM     43  C   UNL A   1      43.117  32.008  29.386  1.00  0.00     0.029 A 
ATOM     44  N   UNL A   1      44.472  30.426  28.570  1.00  0.00    -0.354 N 
ATOM     45  C   UNL A   1      43.054  26.398  27.921  1.00  0.00     0.074 A 
ATOM     46  C   UNL A   1      41.679  26.254  28.345  1.00  0.00     0.031 C 
ATOM     47  C   UNL A   1      44.305  32.582  29.131  1.00  0.00     0.029 A 
ATOM     48  C   UNL A   1      45.231  31.570  28.623  1.00  0.00     0.049 A 
ATOM     49  H   UNL A   1      44.816  29.566  28.233  1.00  0.00     0.167 HD
ATOM     50  C   UNL A   1      43.786  25.405  27.364  1.00  0.00     0.031 A 
ATOM     51  C   UNL A   1      46.527  31.772  28.312  1.00  0.00     0.031 A 
ATOM     52  C   UNL A   1      45.163  25.537  26.973  1.00  0.00     0.049 A 
ATOM     53  C   UNL A   1      47.353  30.621  27.798  1.00  0.00     0.074 A 
ATOM     54  C   UNL A   1      45.993  24.583  26.414  1.00  0.00     0.029 A 
ATOM     55  N   UNL A   1      45.915  26.695  27.107  1.00  0.00    -0.354 N 
ATOM     56  N   UNL A   1      46.984  29.389  27.546  1.00  0.00    -0.248 NA
ATOM     57  C   UNL A   1      48.774  30.891  27.525  1.00  0.00     0.031 C 
ATOM     58  C   UNL A   1      47.264  25.148  26.260  1.00  0.00     0.029 A 
ATOM     59  C   UNL A   1      47.207  26.471  26.667  1.00  0.00     0.049 A 
ATOM     60  H   UNL A   1      45.579  27.549  27.464  1.00  0.00     0.167 HD
ATOM     61  C   UNL A   1      48.118  28.742  27.062  1.00  0.00     0.074 A 
ATOM     62  C   UNL A   1      49.184  29.722  27.049  1.00  0.00     0.031 C 
ATOM     63  C   UNL A   1      48.261  27.455  26.661  1.00  0.00     0.031 A 
BRANCH  50  64
ATOM     64  C   UNL A   1      43.111  24.075  27.169  1.00  0.00    -0.014 A 
ATOM     65  C   UNL A   1      42.532  23.734  25.934  1.00  0.00     0.010 A 
ATOM     66  C   UNL A   1      43.091  23.140  28.219  1.00  0.00     0.010 A 
ATOM     67  C   UNL A   1      41.918  22.491  25.761  1.00  0.00     0.020 A 
ATOM     68  C   UNL A   1      42.499  21.887  28.042  1.00  0.00     0.020 A 
ATOM     69  C   UNL A   1      41.905  21.575  26.818  1.00  0.00     0.054 A 
BRANCH  69  70
ATOM     70  S   UNL A   1      41.124  19.960  26.555  1.00  0.00     0.124 S 
ATOM     71  O   UNL A   1      42.127  19.268  25.749  1.00  0.00    -0.237 OA
ATOM     72  O   UNL A   1      40.960  19.459  27.917  1.00  0.00    -0.237 OA
ATOM     73  O   UNL A   1      39.882  20.282  25.859  1.00  0.00    -0.744 OA
ENDBRANCH  69  70
ENDBRANCH  50  64
BRANCH  51  74
ATOM     74  C   UNL A   1      47.130  33.122  28.486  1.00  0.00    -0.014 A 
ATOM     75  C   UNL A   1      47.727  33.484  29.705  1.00  0.00     0.010 A 
ATOM     76  C   UNL A   1      47.116  34.050  27.428  1.00  0.00     0.010 A 
ATOM     77  C   UNL A   1      48.294  34.752  29.866  1.00  0.00     0.020 A 
ATOM     78  C   UNL A   1      47.702  35.310  27.578  1.00  0.00     0.020 A 
ATOM     79  C   UNL A   1      48.282  35.656  28.799  1.00  0.00     0.054 A 
BRANCH  79  80
ATOM     80  S   UNL A   1      49.075  37.273  29.016  1.00  0.00     0.124 S 
ATOM     81  O   UNL A   1      47.942  38.124  29.368  1.00  0.00    -0.237 OA
ATOM     82  O   UNL A   1      50.031  37.013  30.090  1.00  0.00    -0.237 OA
ATOM     83  O   UNL A   1      49.674  37.538  27.709  1.00  0.00    -0.744 OA
ENDBRANCH  79  80
ENDBRANCH  51  74
BRANCH  63  84
ATOM     84  C   UNL A   1      49.609  27.022  26.150  1.00  0.00    -0.014 A 
ATOM     85  C   UNL A   1      50.519  26.349  26.981  1.00  0.00     0.010 A 
ATOM     86  C   UNL A   1      49.930  27.211  24.792  1.00  0.00     0.010 A 
ATOM     87  C   UNL A   1      51.733  25.883  26.467  1.00  0.00     0.020 A 
ATOM     88  C   UNL A   1      51.131  26.726  24.269  1.00  0.00     0.020 A 
ATOM     89  C   UNL A   1      52.030  26.071  25.113  1.00  0.00     0.054 A 
BRANCH  89  90
ATOM     90  S   UNL A   1      53.582  25.397  24.460  1.00  0.00     0.124 S 
ATOM     91  O   UNL A   1      53.506  25.769  23.049  1.00  0.00    -0.237 OA
ATOM     92  O   UNL A   1      54.592  26.104  25.242  1.00  0.00    -0.237 OA
ATOM     93  O   UNL A   1      53.481  23.965  24.731  1.00  0.00    -0.744 OA
ENDBRANCH  89  90
ENDBRANCH  63  84
ENDBRANCH  37  38
ENDBRANCH  30  32
ENDBRANCH  29  30
ENDBRANCH  28  29
ENDBRANCH  27  28
ENDBRANCH  26  27
ENDBRANCH   1  26
TORSDOF 21
ENDMDL
MODEL 2
REMARK VINA RESULT:      -9.8      2.776      9.912
REMARK SMILES Cc1c(Cl)cc2c(c1C)O[C@H](C(F)(F)F)C(C(=O)OCCOCCOCCOC(=O)c1ccc(-c3c4nc(c(-c5ccc(S(=O)(=O)[O-])cc5)c5ccc([nH]5)c(-c5ccc(S(=O)(=O)[O-])cc5)c5nc(c(-c6ccc(S(=O)(=O)[O-])cc6)c6ccc3[nH]6)C=C5)C=C4)cc1)=C2
REMARK SMILES IDX 24 1 23 2 22 3 21 4 20 5 19 6 17 7 18 8 16 9 1 10 2 11 3 12
REMARK SMILES IDX 8 13 4 14 5 15 7 16 9 17 6 18 10 19 91 20 11 21 12 22 13 23
REMARK SMILES IDX 14 24 15 25 25 26 26 27 27 28 28 29 29 30 30 31 31 32 32 33
REMARK SMILES IDX 90 34 33 35 89 36 34 37 35 38 36 39 83 40 37 41 88 42 82 43
REMARK SMILES IDX 84 44 38 45 87 46 81 47 80 48 39 50 69 51 50 52 68 53 51 54
REMARK SMILES IDX 54 55 67 56 85 57 52 58 53 59 66 61 86 62 55 63 40 64 41 65
REMARK SMILES IDX 49 66 42 67 48 68 43 69 44 70 45 71 46 72 47 73 70 74 71 75
REMARK SMILES IDX 79 76 72 77 78 78 73 79 74 80 75 81 76 82 77 83 56 84 57 85
REMARK SMILES IDX 65 86 58 87 64 88 59 89 60 90 61 91 62 92 63 93
REMARK H PARENT 84 49 54 60
REMARK Flexibility Score: inf
ROOT
ATOM      1  C   UNL A   1      41.296  21.260  27.389  1.00  0.00     0.188 C 
ENDROOT
BRANCH   1   2
ATOM      2  C   UNL A   1      40.602  22.073  26.275  1.00  0.00     0.188 C 
BRANCH   2   3
ATOM      3  O   UNL A   1      39.206  22.274  26.304  1.00  0.00    -0.376 OA
BRANCH   3   4
ATOM      4  C   UNL A   1      38.319  21.540  25.479  1.00  0.00     0.202 C 
BRANCH   4   5
ATOM      5  C   UNL A   1      36.796  21.523  25.651  1.00  0.00     0.261 C 
BRANCH   5   6
ATOM      6  O   UNL A   1      36.031  21.756  24.466  1.00  0.00    -0.460 OA
BRANCH   6   7
ATOM      7  C   UNL A   1      34.722  21.425  24.563  1.00  0.00     0.338 C 
ATOM      8  O   UNL A   1      34.254  20.299  24.627  1.00  0.00    -0.246 OA
BRANCH   7   9
ATOM      9  C   UNL A   1      33.913  22.648  24.691  1.00  0.00     0.087 C 
ATOM     10  C   UNL A   1      31.637  28.745  24.723  1.00  0.00     0.046 C 
ATOM     11  C   UNL A   1      32.231  27.390  24.429  1.00  0.00    -0.026 A 
ATOM     12  C   UNL A   1      33.120  27.196  23.353  1.00  0.00     0.045 A 
ATOM     13  C   UNL A   1      31.909  26.280  25.250  1.00  0.00    -0.004 A 
ATOM     14  Cl  UNL A   1      33.530  28.460  22.246  1.00  0.00    -0.084 Cl
ATOM     15  C   UNL A   1      33.730  25.957  23.139  1.00  0.00     0.032 A 
ATOM     16  C   UNL A   1      32.526  25.032  25.012  1.00  0.00     0.131 A 
ATOM     17  C   UNL A   1      30.932  26.379  26.398  1.00  0.00     0.049 C 
ATOM     18  C   UNL A   1      33.459  24.883  23.984  1.00  0.00     0.019 A 
ATOM     19  O   UNL A   1      32.166  24.002  25.840  1.00  0.00    -0.475 OA
ATOM     20  C   UNL A   1      34.187  23.637  23.832  1.00  0.00     0.027 C 
ATOM     21  C   UNL A   1      32.856  22.728  25.754  1.00  0.00     0.316 C 
BRANCH  21  22
ATOM     22  C   UNL A   1      33.392  22.382  27.150  1.00  0.00     0.430 C 
ATOM     23  F   UNL A   1      34.603  22.953  27.366  1.00  0.00    -0.167 F 
ATOM     24  F   UNL A   1      32.576  22.836  28.132  1.00  0.00    -0.167 F 
ATOM     25  F   UNL A   1      33.537  21.050  27.328  1.00  0.00    -0.167 F 
ENDBRANCH  21  22
ENDBRANCH   7   9
ENDBRANCH   6   7
ENDBRANCH   5   6
ENDBRANCH   4   5
ENDBRANCH   3   4
ENDBRANCH   2   3
ENDBRANCH   1   2
BRANCH   1  26
ATOM     26  O   UNL A   1      41.392  19.849  27.312  1.00  0.00    -0.376 OA
BRANCH  26  27
ATOM     27  C   UNL A   1      41.695  19.248  26.062  1.00  0.00     0.202 C 
BRANCH  27  28
ATOM     28  C   UNL A   1      43.134  18.843  25.723  1.00  0.00     0.261 C 
BRANCH  28  29
ATOM     29  O   UNL A   1      43.594  19.319  24.450  1.00  0.00    -0.460 OA
BRANCH  29  30
ATOM     30  C   UNL A   1      44.833  19.870  24.456  1.00  0.00     0.338 C 
ATOM     31  O   UNL A   1      45.849  19.405  23.969  1.00  0.00    -0.246 OA
BRANCH  30  32
ATOM     32  C   UNL A   1      44.751  21.244  24.981  1.00  0.00     0.060 A 
ATOM     33  C   UNL A   1      44.619  22.295  24.064  1.00  0.00     0.016 A 
ATOM     34  C   UNL A   1      44.847  21.499  26.350  1.00  0.00     0.016 A 
ATOM     35  C   UNL A   1      44.596  23.614  24.514  1.00  0.00     0.010 A 
ATOM     36  C   UNL A   1      44.853  22.824  26.797  1.00  0.00     0.010 A 
ATOM     37  C   UNL A   1      44.752  23.885  25.880  1.00  0.00    -0.014 A 
BRANCH  37  38
ATOM     38  C   UNL A   1      44.983  25.279  26.326  1.00  0.00     0.031 A 
ATOM     39  C   UNL A   1      46.374  25.844  26.224  1.00  0.00     0.074 A 
ATOM     40  C   UNL A   1      43.973  26.040  26.782  1.00  0.00     0.049 A 
ATOM     41  N   UNL A   1      46.811  27.028  26.562  1.00  0.00    -0.248 NA
ATOM     42  C   UNL A   1      47.405  24.956  25.660  1.00  0.00     0.031 C 
ATOM     43  C   UNL A   1      42.574  25.626  26.874  1.00  0.00     0.029 A 
ATOM     44  N   UNL A   1      43.975  27.329  27.252  1.00  0.00    -0.354 N 
ATOM     45  C   UNL A   1      48.163  27.032  26.243  1.00  0.00     0.074 A 
ATOM     46  C   UNL A   1      48.482  25.724  25.716  1.00  0.00     0.031 C 
ATOM     47  C   UNL A   1      41.852  26.644  27.373  1.00  0.00     0.029 A 
ATOM     48  C   UNL A   1      42.740  27.770  27.663  1.00  0.00     0.049 A 
ATOM     49  H   UNL A   1      44.786  27.887  27.292  1.00  0.00     0.167 HD
ATOM     50  C   UNL A   1      49.059  28.039  26.371  1.00  0.00     0.031 A 
ATOM     51  C   UNL A   1      42.372  28.940  28.222  1.00  0.00     0.031 A 
ATOM     52  C   UNL A   1      48.752  29.329  26.926  1.00  0.00     0.049 A 
ATOM     53  C   UNL A   1      43.411  30.006  28.457  1.00  0.00     0.074 A 
ATOM     54  C   UNL A   1      49.596  30.409  27.111  1.00  0.00     0.029 A 
ATOM     55  N   UNL A   1      47.503  29.711  27.393  1.00  0.00    -0.354 N 
ATOM     56  N   UNL A   1      44.685  29.999  28.148  1.00  0.00    -0.248 NA
ATOM     57  C   UNL A   1      42.960  31.241  29.117  1.00  0.00     0.031 C 
ATOM     58  C   UNL A   1      48.871  31.426  27.739  1.00  0.00     0.029 A 
ATOM     59  C   UNL A   1      47.560  31.000  27.891  1.00  0.00     0.049 A 
ATOM     60  H   UNL A   1      46.696  29.147  27.374  1.00  0.00     0.167 HD
ATOM     61  C   UNL A   1      45.183  31.234  28.552  1.00  0.00     0.074 A 
ATOM     62  C   UNL A   1      44.071  31.967  29.121  1.00  0.00     0.031 C 
ATOM     63  C   UNL A   1      46.446  31.718  28.457  1.00  0.00     0.031 A 
BRANCH  50  64
ATOM     64  C   UNL A   1      50.469  27.771  25.922  1.00  0.00    -0.014 A 
ATOM     65  C   UNL A   1      50.881  28.077  24.613  1.00  0.00     0.010 A 
ATOM     66  C   UNL A   1      51.405  27.244  26.831  1.00  0.00     0.010 A 
ATOM     67  C   UNL A   1      52.196  27.834  24.211  1.00  0.00     0.020 A 
ATOM     68  C   UNL A   1      52.727  27.023  26.439  1.00  0.00     0.020 A 
ATOM     69  C   UNL A   1      53.112  27.307  25.127  1.00  0.00     0.054 A 
BRANCH  69  70
ATOM     70  S   UNL A   1      54.819  27.027  24.584  1.00  0.00     0.124 S 
ATOM     71  O   UNL A   1      54.627  26.578  23.207  1.00  0.00    -0.237 OA
ATOM     72  O   UNL A   1      55.422  28.349  24.734  1.00  0.00    -0.237 OA
ATOM     73  O   UNL A   1      55.315  26.010  25.506  1.00  0.00    -0.744 OA
ENDBRANCH  69  70
ENDBRANCH  50  64
BRANCH  51  74
ATOM     74  C   UNL A   1      40.953  29.165  28.607  1.00  0.00    -0.014 A 
ATOM     75  C   UNL A   1      40.532  28.959  29.931  1.00  0.00     0.010 A 
ATOM     76  C   UNL A   1      40.014  29.595  27.651  1.00  0.00     0.010 A 
ATOM     77  C   UNL A   1      39.197  29.171  30.292  1.00  0.00     0.020 A 
ATOM     78  C   UNL A   1      38.685  29.831  28.012  1.00  0.00     0.020 A 
ATOM     79  C   UNL A   1      38.283  29.611  29.330  1.00  0.00     0.054 A 
BRANCH  79  80
ATOM     80  S   UNL A   1      36.571  29.935  29.837  1.00  0.00     0.124 S 
ATOM     81  O   UNL A   1      36.545  31.393  29.907  1.00  0.00    -0.237 OA
ATOM     82  O   UNL A   1      35.803  29.339  28.747  1.00  0.00    -0.237 OA
ATOM     83  O   UNL A   1      36.458  29.245  31.121  1.00  0.00    -0.744 OA
ENDBRANCH  79  80
ENDBRANCH  51  74
BRANCH  63  84
ATOM     84  C   UNL A   1      46.704  33.116  28.955  1.00  0.00    -0.014 A 
ATOM     85  C   UNL A   1      47.122  33.350  30.276  1.00  0.00     0.010 A 
ATOM     86  C   UNL A   1      46.615  34.199  28.060  1.00  0.00     0.010 A 
ATOM     87  C   UNL A   1      47.435  34.646  30.697  1.00  0.00     0.020 A 
ATOM     88  C   UNL A   1      46.950  35.491  28.471  1.00  0.00     0.020 A 
ATOM     89  C   UNL A   1      47.351  35.708  29.791  1.00  0.00     0.054 A 
BRANCH  89  90
ATOM     90  S   UNL A   1      47.827  37.368  30.347  1.00  0.00     0.124 S 
ATOM     91  O   UNL A   1      48.662  37.832  29.242  1.00  0.00    -0.237 OA
ATOM     92  O   UNL A   1      46.538  38.041  30.487  1.00  0.00    -0.237 OA
ATOM     93  O   UNL A   1      48.536  37.124  31.602  1.00  0.00    -0.744 OA
ENDBRANCH  89  90
ENDBRANCH  63  84
ENDBRANCH  37  38
ENDBRANCH  30  32
ENDBRANCH  29  30
ENDBRANCH  28  29
ENDBRANCH  27  28
ENDBRANCH  26  27
ENDBRANCH   1  26
TORSDOF 21
ENDMDL
MODEL 3
REMARK VINA RESULT:      -9.4      2.697      8.914
REMARK SMILES Cc1c(Cl)cc2c(c1C)O[C@H](C(F)(F)F)C(C(=O)OCCOCCOCCOC(=O)c1ccc(-c3c4nc(c(-c5ccc(S(=O)(=O)[O-])cc5)c5ccc([nH]5)c(-c5ccc(S(=O)(=O)[O-])cc5)c5nc(c(-c6ccc(S(=O)(=O)[O-])cc6)c6ccc3[nH]6)C=C5)C=C4)cc1)=C2
REMARK SMILES IDX 24 1 23 2 22 3 21 4 20 5 19 6 17 7 18 8 16 9 1 10 2 11 3 12
REMARK SMILES IDX 8 13 4 14 5 15 7 16 9 17 6 18 10 19 91 20 11 21 12 22 13 23
REMARK SMILES IDX 14 24 15 25 25 26 26 27 27 28 28 29 29 30 30 31 31 32 32 33
REMARK SMILES IDX 90 34 33 35 89 36 34 37 35 38 36 39 83 40 37 41 88 42 82 43
REMARK SMILES IDX 84 44 38 45 87 46 81 47 80 48 39 50 69 51 50 52 68 53 51 54
REMARK SMILES IDX 54 55 67 56 85 57 52 58 53 59 66 61 86 62 55 63 40 64 41 65
REMARK SMILES IDX 49 66 42 67 48 68 43 69 44 70 45 71 46 72 47 73 70 74 71 75
REMARK SMILES IDX 79 76 72 77 78 78 73 79 74 80 75 81 76 82 77 83 56 84 57 85
REMARK SMILES IDX 65 86 58 87 64 88 59 89 60 90 61 91 62 92 63 93
REMARK H PARENT 84 49 54 60
REMARK Flexibility Score: inf
ROOT
ATOM      1  C   UNL A   1      41.109  22.107  27.082  1.00  0.00     0.188 C 
ENDROOT
BRANCH   1   2
ATOM      2  C   UNL A   1      40.095  23.025  26.365  1.00  0.00     0.188 C 
BRANCH   2   3
ATOM      3  O   UNL A   1      38.752  23.074  26.793  1.00  0.00    -0.376 OA
BRANCH   3   4
ATOM      4  C   UNL A   1      37.677  23.244  25.887  1.00  0.00     0.202 C 
BRANCH   4   5
ATOM      5  C   UNL A   1      36.670  22.145  25.529  1.00  0.00     0.261 C 
BRANCH   5   6
ATOM      6  O   UNL A   1      35.293  22.467  25.736  1.00  0.00    -0.460 OA
BRANCH   6   7
ATOM      7  C   UNL A   1      34.461  22.060  24.749  1.00  0.00     0.338 C 
ATOM      8  O   UNL A   1      34.411  20.950  24.244  1.00  0.00    -0.246 OA
BRANCH   7   9
ATOM      9  C   UNL A   1      33.519  23.142  24.422  1.00  0.00     0.087 C 
ATOM     10  C   UNL A   1      30.446  28.827  23.647  1.00  0.00     0.046 C 
ATOM     11  C   UNL A   1      31.385  27.647  23.687  1.00  0.00    -0.026 A 
ATOM     12  C   UNL A   1      32.779  27.814  23.566  1.00  0.00     0.045 A 
ATOM     13  C   UNL A   1      30.873  26.337  23.863  1.00  0.00    -0.004 A 
ATOM     14  Cl  UNL A   1      33.510  29.355  23.279  1.00  0.00    -0.084 Cl
ATOM     15  C   UNL A   1      33.647  26.726  23.688  1.00  0.00     0.032 A 
ATOM     16  C   UNL A   1      31.763  25.246  23.972  1.00  0.00     0.131 A 
ATOM     17  C   UNL A   1      29.392  26.054  23.957  1.00  0.00     0.049 C 
ATOM     18  C   UNL A   1      33.144  25.447  23.921  1.00  0.00     0.019 A 
ATOM     19  O   UNL A   1      31.201  24.009  24.136  1.00  0.00    -0.475 OA
ATOM     20  C   UNL A   1      34.053  24.343  24.170  1.00  0.00     0.027 C 
ATOM     21  C   UNL A   1      32.045  22.858  24.399  1.00  0.00     0.316 C 
BRANCH  21  22
ATOM     22  C   UNL A   1      31.549  22.188  25.688  1.00  0.00     0.430 C 
ATOM     23  F   UNL A   1      30.256  22.509  25.941  1.00  0.00    -0.167 F 
ATOM     24  F   UNL A   1      31.596  20.836  25.607  1.00  0.00    -0.167 F 
ATOM     25  F   UNL A   1      32.274  22.554  26.768  1.00  0.00    -0.167 F 
ENDBRANCH  21  22
ENDBRANCH   7   9
ENDBRANCH   6   7
ENDBRANCH   5   6
ENDBRANCH   4   5
ENDBRANCH   3   4
ENDBRANCH   2   3
ENDBRANCH   1   2
BRANCH   1  26
ATOM     26  O   UNL A   1      40.781  20.768  27.404  1.00  0.00    -0.376 OA
BRANCH  26  27
ATOM     27  C   UNL A   1      40.900  19.770  26.401  1.00  0.00     0.202 C 
BRANCH  27  28
ATOM     28  C   UNL A   1      42.266  19.157  26.073  1.00  0.00     0.261 C 
BRANCH  28  29
ATOM     29  O   UNL A   1      42.825  19.602  24.829  1.00  0.00    -0.460 OA
BRANCH  29  30
ATOM     30  C   UNL A   1      44.136  19.947  24.878  1.00  0.00     0.338 C 
ATOM     31  O   UNL A   1      45.083  19.307  24.456  1.00  0.00    -0.246 OA
BRANCH  30  32
ATOM     32  C   UNL A   1      44.254  21.336  25.355  1.00  0.00     0.060 A 
ATOM     33  C   UNL A   1      44.071  22.371  24.428  1.00  0.00     0.016 A 
ATOM     34  C   UNL A   1      44.582  21.616  26.682  1.00  0.00     0.016 A 
ATOM     35  C   UNL A   1      44.231  23.697  24.825  1.00  0.00     0.010 A 
ATOM     36  C   UNL A   1      44.771  22.946  27.071  1.00  0.00     0.010 A 
ATOM     37  C   UNL A   1      44.620  23.988  26.139  1.00  0.00    -0.014 A 
BRANCH  37  38
ATOM     38  C   UNL A   1      45.036  25.366  26.489  1.00  0.00     0.031 A 
ATOM     39  C   UNL A   1      43.993  26.323  27.001  1.00  0.00     0.074 A 
ATOM     40  C   UNL A   1      46.319  25.753  26.386  1.00  0.00     0.049 A 
ATOM     41  N   UNL A   1      44.123  27.574  27.357  1.00  0.00    -0.248 NA
ATOM     42  C   UNL A   1      42.625  25.795  27.134  1.00  0.00     0.031 C 
ATOM     43  C   UNL A   1      47.429  24.903  25.958  1.00  0.00     0.029 A 
ATOM     44  N   UNL A   1      46.903  26.968  26.639  1.00  0.00    -0.354 N 
ATOM     45  C   UNL A   1      42.859  27.980  27.766  1.00  0.00     0.074 A 
ATOM     46  C   UNL A   1      41.969  26.854  27.583  1.00  0.00     0.031 C 
ATOM     47  C   UNL A   1      48.562  25.626  25.978  1.00  0.00     0.029 A 
ATOM     48  C   UNL A   1      48.255  26.995  26.389  1.00  0.00     0.049 A 
ATOM     49  H   UNL A   1      46.401  27.750  26.969  1.00  0.00     0.167 HD
ATOM     50  C   UNL A   1      42.474  29.181  28.257  1.00  0.00     0.031 A 
ATOM     51  C   UNL A   1      49.137  28.011  26.470  1.00  0.00     0.031 A 
ATOM     52  C   UNL A   1      43.350  30.311  28.407  1.00  0.00     0.049 A 
ATOM     53  C   UNL A   1      48.661  29.371  26.914  1.00  0.00     0.074 A 
ATOM     54  C   UNL A   1      43.049  31.574  28.881  1.00  0.00     0.029 A 
ATOM     55  N   UNL A   1      44.697  30.315  28.078  1.00  0.00    -0.354 N 
ATOM     56  N   UNL A   1      47.464  29.740  27.300  1.00  0.00    -0.248 NA
ATOM     57  C   UNL A   1      49.659  30.452  26.932  1.00  0.00     0.031 C 
ATOM     58  C   UNL A   1      44.202  32.360  28.789  1.00  0.00     0.029 A 
ATOM     59  C   UNL A   1      45.235  31.568  28.313  1.00  0.00     0.049 A 
ATOM     60  H   UNL A   1      45.196  29.542  27.728  1.00  0.00     0.167 HD
ATOM     61  C   UNL A   1      47.569  31.088  27.632  1.00  0.00     0.074 A 
ATOM     62  C   UNL A   1      48.949  31.467  27.408  1.00  0.00     0.031 C 
ATOM     63  C   UNL A   1      46.610  31.933  28.084  1.00  0.00     0.031 A 
BRANCH  50  64
ATOM     64  C   UNL A   1      41.029  29.339  28.643  1.00  0.00    -0.014 A 
ATOM     65  C   UNL A   1      40.647  29.407  29.995  1.00  0.00     0.010 A 
ATOM     66  C   UNL A   1      40.047  29.461  27.645  1.00  0.00     0.010 A 
ATOM     67  C   UNL A   1      39.303  29.565  30.342  1.00  0.00     0.020 A 
ATOM     68  C   UNL A   1      38.705  29.644  27.988  1.00  0.00     0.020 A 
ATOM     69  C   UNL A   1      38.340  29.682  29.336  1.00  0.00     0.054 A 
BRANCH  69  70
ATOM     70  S   UNL A   1      36.607  29.913  29.816  1.00  0.00     0.124 S 
ATOM     71  O   UNL A   1      36.527  31.365  29.966  1.00  0.00    -0.237 OA
ATOM     72  O   UNL A   1      35.882  29.360  28.676  1.00  0.00    -0.237 OA
ATOM     73  O   UNL A   1      36.485  29.153  31.057  1.00  0.00    -0.744 OA
ENDBRANCH  69  70
ENDBRANCH  50  64
BRANCH  51  74
ATOM     74  C   UNL A   1      50.564  27.785  26.115  1.00  0.00    -0.014 A 
ATOM     75  C   UNL A   1      50.982  27.834  24.775  1.00  0.00     0.010 A 
ATOM     76  C   UNL A   1      51.516  27.525  27.119  1.00  0.00     0.010 A 
ATOM     77  C   UNL A   1      52.323  27.622  24.442  1.00  0.00     0.020 A 
ATOM     78  C   UNL A   1      52.861  27.335  26.793  1.00  0.00     0.020 A 
ATOM     79  C   UNL A   1      53.256  27.378  25.455  1.00  0.00     0.054 A 
BRANCH  79  80
ATOM     80  S   UNL A   1      55.000  27.164  25.002  1.00  0.00     0.124 S 
ATOM     81  O   UNL A   1      55.202  28.247  24.045  1.00  0.00    -0.237 OA
ATOM     82  O   UNL A   1      55.679  27.317  26.286  1.00  0.00    -0.237 OA
ATOM     83  O   UNL A   1      55.044  25.815  24.439  1.00  0.00    -0.744 OA
ENDBRANCH  79  80
ENDBRANCH  51  74
BRANCH  63  84
ATOM     84  C   UNL A   1      47.011  33.351  28.394  1.00  0.00    -0.014 A 
ATOM     85  C   UNL A   1      47.528  33.701  29.653  1.00  0.00     0.010 A 
ATOM     86  C   UNL A   1      46.953  34.326  27.380  1.00  0.00     0.010 A 
ATOM     87  C   UNL A   1      47.970  35.005  29.896  1.00  0.00     0.020 A 
ATOM     88  C   UNL A   1      47.416  35.623  27.612  1.00  0.00     0.020 A 
ATOM     89  C   UNL A   1      47.915  35.957  28.873  1.00  0.00     0.054 A 
BRANCH  89  90
ATOM     90  S   UNL A   1      48.557  37.622  29.197  1.00  0.00     0.124 S 
ATOM     91  O   UNL A   1      49.291  37.911  27.967  1.00  0.00    -0.237 OA
ATOM     92  O   UNL A   1      47.339  38.402  29.399  1.00  0.00    -0.237 OA
ATOM     93  O   UNL A   1      49.385  37.450  30.389  1.00  0.00    -0.744 OA
ENDBRANCH  89  90
ENDBRANCH  63  84
ENDBRANCH  37  38
ENDBRANCH  30  32
ENDBRANCH  29  30
ENDBRANCH  28  29
ENDBRANCH  27  28
ENDBRANCH  26  27
ENDBRANCH   1  26
TORSDOF 21
ENDMDL
