MODEL 1
REMARK VINA RESULT:     -13.1      0.000      0.000
REMARK SMILES Cc1ccccc1[C@@H]1[NH2+][C@@H](C(=O)OCCOCCOCCOC(=O)c2ccc(-c3c4nc(c(-c5ccc(S(=O)(=O)[O-])cc5)c5ccc([nH]5)c(-c5ccc(S(=O)(=O)[O-])cc5)c5nc(c(-c6ccc(S(=O)(=O)[O-])cc6)c6ccc3[nH]6)C=C5)C=C4)cc2)CC2=c3ccccc3=N[C@H]21
REMARK SMILES IDX 18 1 17 2 16 3 15 4 14 5 13 6 11 7 12 8 10 9 8 10 9 11 94 12
REMARK SMILES IDX 86 15 93 16 85 17 87 18 92 19 88 20 91 21 89 22 90 23 7 24
REMARK SMILES IDX 1 25 2 26 3 27 4 28 6 29 5 30 19 31 20 32 21 33 22 34 23 35
REMARK SMILES IDX 24 36 25 37 26 38 84 39 27 40 83 41 28 42 29 43 30 44 77 45
REMARK SMILES IDX 31 46 82 47 76 48 78 49 32 50 81 51 75 52 74 53 33 55 63 56
REMARK SMILES IDX 44 57 62 58 45 59 48 60 61 61 79 62 46 63 47 64 60 66 80 67
REMARK SMILES IDX 49 68 34 69 35 70 43 71 36 72 42 73 37 74 38 75 39 76 40 77
REMARK SMILES IDX 41 78 64 79 65 80 73 81 66 82 72 83 67 84 68 85 69 86 70 87
REMARK SMILES IDX 71 88 50 89 51 90 59 91 52 92 58 93 53 94 54 95 55 96 56 97
REMARK SMILES IDX 57 98
REMARK H PARENT 9 13 9 14 78 54 48 65
REMARK Flexibility Score: inf
ROOT
ATOM      1  C   UNL A   1      31.686  27.679  25.885  1.00  0.00     0.188 C 
ENDROOT
BRANCH   1   2
ATOM      2  C   UNL A   1      32.252  26.453  26.633  1.00  0.00     0.188 C 
BRANCH   2   3
ATOM      3  O   UNL A   1      31.569  25.179  26.775  1.00  0.00    -0.376 OA
BRANCH   3   4
ATOM      4  C   UNL A   1      32.138  23.864  26.563  1.00  0.00     0.202 C 
BRANCH   4   5
ATOM      5  C   UNL A   1      31.245  22.403  26.515  1.00  0.00     0.261 C 
BRANCH   5   6
ATOM      6  O   UNL A   1      31.310  21.180  25.408  1.00  0.00    -0.459 OA
BRANCH   6   7
ATOM      7  C   UNL A   1      32.122  20.030  25.170  1.00  0.00     0.365 C 
ATOM      8  O   UNL A   1      31.921  18.848  25.466  1.00  0.00    -0.245 OA
BRANCH   7   9
ATOM      9  C   UNL A   1      33.438  20.175  24.417  1.00  0.00     0.298 C 
ATOM     10  C   UNL A   1      35.309  21.987  24.842  1.00  0.00     0.243 C 
ATOM     11  N   UNL A   1      34.436  20.882  25.340  1.00  0.00    -0.326 N 
ATOM     12  C   UNL A   1      35.062  22.456  23.375  1.00  0.00     0.196 C 
ATOM     13  H   UNL A   1      33.892  21.271  26.110  1.00  0.00     0.347 HD
ATOM     14  H   UNL A   1      35.110  20.145  25.542  1.00  0.00     0.347 HD
ATOM     15  C   UNL A   1      33.592  22.307  23.121  1.00  0.00    -0.024 C 
ATOM     16  N   UNL A   1      35.324  23.921  23.197  1.00  0.00    -0.270 NA
ATOM     17  C   UNL A   1      33.072  20.915  23.134  1.00  0.00     0.111 C 
ATOM     18  C   UNL A   1      32.989  23.489  23.109  1.00  0.00     0.002 A 
ATOM     19  C   UNL A   1      34.130  24.419  23.073  1.00  0.00     0.066 A 
ATOM     20  C   UNL A   1      31.643  23.952  23.184  1.00  0.00     0.010 A 
ATOM     21  C   UNL A   1      33.797  25.845  22.856  1.00  0.00     0.028 A 
ATOM     22  C   UNL A   1      31.418  25.274  23.105  1.00  0.00     0.001 A 
ATOM     23  C   UNL A   1      32.503  26.214  22.864  1.00  0.00     0.002 A 
BRANCH  10  24
ATOM     24  C   UNL A   1      36.799  21.735  25.129  1.00  0.00     0.015 A 
ATOM     25  C   UNL A   1      37.253  24.106  26.007  1.00  0.00     0.045 C 
ATOM     26  C   UNL A   1      37.660  22.697  25.701  1.00  0.00    -0.042 A 
ATOM     27  C   UNL A   1      38.978  22.340  26.045  1.00  0.00     0.004 A 
ATOM     28  C   UNL A   1      39.478  21.069  25.787  1.00  0.00     0.000 A 
ATOM     29  C   UNL A   1      37.343  20.458  24.844  1.00  0.00     0.010 A 
ATOM     30  C   UNL A   1      38.666  20.131  25.165  1.00  0.00     0.001 A 
ENDBRANCH  10  24
ENDBRANCH   7   9
ENDBRANCH   6   7
ENDBRANCH   5   6
ENDBRANCH   4   5
ENDBRANCH   3   4
ENDBRANCH   2   3
ENDBRANCH   1   2
BRANCH   1  31
ATOM     31  O   UNL A   1      32.584  28.775  25.878  1.00  0.00    -0.376 OA
BRANCH  31  32
ATOM     32  C   UNL A   1      32.704  29.512  27.090  1.00  0.00     0.202 C 
BRANCH  32  33
ATOM     33  C   UNL A   1      33.364  30.913  26.980  1.00  0.00     0.261 C 
BRANCH  33  34
ATOM     34  O   UNL A   1      34.210  31.256  28.116  1.00  0.00    -0.460 OA
BRANCH  34  35
ATOM     35  C   UNL A   1      35.554  31.527  27.899  1.00  0.00     0.338 C 
ATOM     36  O   UNL A   1      35.919  32.612  27.462  1.00  0.00    -0.246 OA
BRANCH  35  37
ATOM     37  C   UNL A   1      36.447  30.447  28.461  1.00  0.00     0.060 A 
ATOM     38  C   UNL A   1      36.491  29.794  29.704  1.00  0.00     0.016 A 
ATOM     39  C   UNL A   1      37.430  30.057  27.629  1.00  0.00     0.016 A 
ATOM     40  C   UNL A   1      37.568  28.826  30.076  1.00  0.00     0.010 A 
ATOM     41  C   UNL A   1      38.494  29.307  28.124  1.00  0.00     0.010 A 
ATOM     42  C   UNL A   1      38.654  28.529  29.248  1.00  0.00    -0.014 A 
BRANCH  42  43
ATOM     43  C   UNL A   1      40.023  27.705  29.366  1.00  0.00     0.031 A 
ATOM     44  C   UNL A   1      40.577  26.188  28.887  1.00  0.00     0.074 A 
ATOM     45  C   UNL A   1      41.039  28.484  29.802  1.00  0.00     0.049 A 
ATOM     46  N   UNL A   1      41.726  25.674  29.307  1.00  0.00    -0.248 NA
ATOM     47  C   UNL A   1      40.005  25.129  27.986  1.00  0.00     0.031 C 
ATOM     48  C   UNL A   1      42.477  28.278  29.650  1.00  0.00     0.029 A 
ATOM     49  N   UNL A   1      40.970  29.599  30.609  1.00  0.00    -0.354 N 
ATOM     50  C   UNL A   1      42.045  24.513  28.579  1.00  0.00     0.074 A 
ATOM     51  C   UNL A   1      40.860  24.125  27.937  1.00  0.00     0.031 C 
ATOM     52  C   UNL A   1      43.123  29.049  30.536  1.00  0.00     0.029 A 
ATOM     53  C   UNL A   1      42.124  29.676  31.376  1.00  0.00     0.049 A 
ATOM     54  H   UNL A   1      40.223  30.240  30.636  1.00  0.00     0.167 HD
ATOM     55  C   UNL A   1      43.305  24.012  28.427  1.00  0.00     0.031 A 
ATOM     56  C   UNL A   1      42.061  29.599  32.737  1.00  0.00     0.031 A 
ATOM     57  C   UNL A   1      44.197  24.648  29.363  1.00  0.00     0.049 A 
ATOM     58  C   UNL A   1      42.829  28.430  33.320  1.00  0.00     0.074 A 
ATOM     59  C   UNL A   1      45.216  25.572  29.262  1.00  0.00     0.029 A 
ATOM     60  N   UNL A   1      43.890  24.525  30.705  1.00  0.00    -0.354 N 
ATOM     61  N   UNL A   1      43.420  27.511  32.608  1.00  0.00    -0.248 NA
ATOM     62  C   UNL A   1      42.986  28.187  34.750  1.00  0.00     0.031 C 
ATOM     63  C   UNL A   1      45.478  26.056  30.575  1.00  0.00     0.029 A 
ATOM     64  C   UNL A   1      44.651  25.385  31.459  1.00  0.00     0.049 A 
ATOM     65  H   UNL A   1      43.217  23.906  31.070  1.00  0.00     0.167 HD
ATOM     66  C   UNL A   1      43.929  26.532  33.421  1.00  0.00     0.074 A 
ATOM     67  C   UNL A   1      43.681  27.034  34.758  1.00  0.00     0.031 C 
ATOM     68  C   UNL A   1      44.462  25.382  32.904  1.00  0.00     0.031 A 
BRANCH  55  69
ATOM     69  C   UNL A   1      43.778  23.037  27.327  1.00  0.00    -0.014 A 
ATOM     70  C   UNL A   1      42.912  22.008  26.891  1.00  0.00     0.010 A 
ATOM     71  C   UNL A   1      45.066  22.996  26.743  1.00  0.00     0.010 A 
ATOM     72  C   UNL A   1      43.318  20.993  25.992  1.00  0.00     0.020 A 
ATOM     73  C   UNL A   1      45.483  22.004  25.832  1.00  0.00     0.020 A 
ATOM     74  C   UNL A   1      44.610  20.991  25.476  1.00  0.00     0.054 A 
BRANCH  74  75
ATOM     75  S   UNL A   1      45.159  19.649  24.384  1.00  0.00     0.124 S 
ATOM     76  O   UNL A   1      44.637  20.066  23.086  1.00  0.00    -0.237 OA
ATOM     77  O   UNL A   1      46.611  19.694  24.526  1.00  0.00    -0.237 OA
ATOM     78  O   UNL A   1      44.521  18.458  24.945  1.00  0.00    -0.744 OA
ENDBRANCH  74  75
ENDBRANCH  55  69
BRANCH  56  79
ATOM     79  C   UNL A   1      40.845  30.273  33.290  1.00  0.00    -0.014 A 
ATOM     80  C   UNL A   1      40.879  31.687  33.289  1.00  0.00     0.010 A 
ATOM     81  C   UNL A   1      39.589  29.636  33.325  1.00  0.00     0.010 A 
ATOM     82  C   UNL A   1      39.709  32.435  33.137  1.00  0.00     0.020 A 
ATOM     83  C   UNL A   1      38.406  30.393  33.211  1.00  0.00     0.020 A 
ATOM     84  C   UNL A   1      38.485  31.779  33.040  1.00  0.00     0.054 A 
BRANCH  84  85
ATOM     85  S   UNL A   1      37.057  32.758  32.479  1.00  0.00     0.124 S 
ATOM     86  O   UNL A   1      35.927  32.011  33.026  1.00  0.00    -0.237 OA
ATOM     87  O   UNL A   1      37.316  34.051  33.114  1.00  0.00    -0.237 OA
ATOM     88  O   UNL A   1      37.174  32.735  31.025  1.00  0.00    -0.744 OA
ENDBRANCH  84  85
ENDBRANCH  56  79
BRANCH  68  89
ATOM     89  C   UNL A   1      44.837  24.111  33.651  1.00  0.00    -0.014 A 
ATOM     90  C   UNL A   1      43.924  23.174  34.152  1.00  0.00     0.010 A 
ATOM     91  C   UNL A   1      46.212  23.768  33.774  1.00  0.00     0.010 A 
ATOM     92  C   UNL A   1      44.353  21.995  34.782  1.00  0.00     0.020 A 
ATOM     93  C   UNL A   1      46.651  22.572  34.349  1.00  0.00     0.020 A 
ATOM     94  C   UNL A   1      45.713  21.702  34.880  1.00  0.00     0.054 A 
BRANCH  94  95
ATOM     95  S   UNL A   1      46.244  20.162  35.666  1.00  0.00     0.124 S 
ATOM     96  O   UNL A   1      45.351  19.187  35.049  1.00  0.00    -0.237 OA
ATOM     97  O   UNL A   1      47.648  20.062  35.273  1.00  0.00    -0.237 OA
ATOM     98  O   UNL A   1      46.020  20.407  37.089  1.00  0.00    -0.744 OA
ENDBRANCH  94  95
ENDBRANCH  68  89
ENDBRANCH  42  43
ENDBRANCH  35  37
ENDBRANCH  34  35
ENDBRANCH  33  34
ENDBRANCH  32  33
ENDBRANCH  31  32
ENDBRANCH   1  31
TORSDOF 21
ENDMDL
MODEL 2
REMARK VINA RESULT:     -12.4      1.764      2.514
REMARK SMILES Cc1ccccc1[C@@H]1[NH2+][C@@H](C(=O)OCCOCCOCCOC(=O)c2ccc(-c3c4nc(c(-c5ccc(S(=O)(=O)[O-])cc5)c5ccc([nH]5)c(-c5ccc(S(=O)(=O)[O-])cc5)c5nc(c(-c6ccc(S(=O)(=O)[O-])cc6)c6ccc3[nH]6)C=C5)C=C4)cc2)CC2=c3ccccc3=N[C@H]21
REMARK SMILES IDX 18 1 17 2 16 3 15 4 14 5 13 6 11 7 12 8 10 9 8 10 9 11 94 12
REMARK SMILES IDX 86 15 93 16 85 17 87 18 92 19 88 20 91 21 89 22 90 23 7 24
REMARK SMILES IDX 1 25 2 26 3 27 4 28 6 29 5 30 19 31 20 32 21 33 22 34 23 35
REMARK SMILES IDX 24 36 25 37 26 38 84 39 27 40 83 41 28 42 29 43 30 44 77 45
REMARK SMILES IDX 31 46 82 47 76 48 78 49 32 50 81 51 75 52 74 53 33 55 63 56
REMARK SMILES IDX 44 57 62 58 45 59 48 60 61 61 79 62 46 63 47 64 60 66 80 67
REMARK SMILES IDX 49 68 34 69 35 70 43 71 36 72 42 73 37 74 38 75 39 76 40 77
REMARK SMILES IDX 41 78 64 79 65 80 73 81 66 82 72 83 67 84 68 85 69 86 70 87
REMARK SMILES IDX 71 88 50 89 51 90 59 91 52 92 58 93 53 94 54 95 55 96 56 97
REMARK SMILES IDX 57 98
REMARK H PARENT 9 13 9 14 78 54 48 65
REMARK Flexibility Score: inf
ROOT
ATOM      1  C   UNL A   1      34.446  29.397  27.042  1.00  0.00     0.188 C 
ENDROOT
BRANCH   1   2
ATOM      2  C   UNL A   1      34.235  28.715  25.673  1.00  0.00     0.188 C 
BRANCH   2   3
ATOM      3  O   UNL A   1      33.866  27.324  25.487  1.00  0.00    -0.376 OA
BRANCH   3   4
ATOM      4  C   UNL A   1      33.167  26.478  26.433  1.00  0.00     0.202 C 
BRANCH   4   5
ATOM      5  C   UNL A   1      31.476  26.493  26.701  1.00  0.00     0.261 C 
BRANCH   5   6
ATOM      6  O   UNL A   1      30.372  25.290  26.451  1.00  0.00    -0.459 OA
BRANCH   6   7
ATOM      7  C   UNL A   1      30.337  23.867  26.562  1.00  0.00     0.365 C 
ATOM      8  O   UNL A   1      29.759  23.155  27.390  1.00  0.00    -0.245 OA
BRANCH   7   9
ATOM      9  C   UNL A   1      31.064  23.009  25.535  1.00  0.00     0.298 C 
ATOM     10  C   UNL A   1      33.575  23.257  24.764  1.00  0.00     0.243 C 
ATOM     11  N   UNL A   1      32.563  23.067  25.845  1.00  0.00    -0.326 N 
ATOM     12  C   UNL A   1      33.016  23.513  23.329  1.00  0.00     0.196 C 
ATOM     13  H   UNL A   1      32.693  23.839  26.499  1.00  0.00     0.347 HD
ATOM     14  H   UNL A   1      32.759  22.119  26.164  1.00  0.00     0.347 HD
ATOM     15  C   UNL A   1      31.746  24.290  23.500  1.00  0.00    -0.024 C 
ATOM     16  N   UNL A   1      33.903  24.418  22.529  1.00  0.00    -0.270 NA
ATOM     17  C   UNL A   1      30.637  23.576  24.184  1.00  0.00     0.111 C 
ATOM     18  C   UNL A   1      31.916  25.562  23.157  1.00  0.00     0.002 A 
ATOM     19  C   UNL A   1      33.231  25.530  22.494  1.00  0.00     0.066 A 
ATOM     20  C   UNL A   1      31.200  26.778  23.347  1.00  0.00     0.010 A 
ATOM     21  C   UNL A   1      33.642  26.777  21.810  1.00  0.00     0.028 A 
ATOM     22  C   UNL A   1      31.694  27.903  22.802  1.00  0.00     0.001 A 
ATOM     23  C   UNL A   1      32.885  27.878  21.967  1.00  0.00     0.002 A 
BRANCH  10  24
ATOM     24  C   UNL A   1      34.664  22.170  24.777  1.00  0.00     0.015 A 
ATOM     25  C   UNL A   1      36.623  23.829  24.850  1.00  0.00     0.045 C 
ATOM     26  C   UNL A   1      36.046  22.447  24.862  1.00  0.00    -0.042 A 
ATOM     27  C   UNL A   1      36.964  21.388  24.996  1.00  0.00     0.004 A 
ATOM     28  C   UNL A   1      36.550  20.061  24.995  1.00  0.00     0.000 A 
ATOM     29  C   UNL A   1      34.271  20.810  24.743  1.00  0.00     0.010 A 
ATOM     30  C   UNL A   1      35.202  19.769  24.846  1.00  0.00     0.001 A 
ENDBRANCH  10  24
ENDBRANCH   7   9
ENDBRANCH   6   7
ENDBRANCH   5   6
ENDBRANCH   4   5
ENDBRANCH   3   4
ENDBRANCH   2   3
ENDBRANCH   1   2
BRANCH   1  31
ATOM     31  O   UNL A   1      33.266  30.014  27.529  1.00  0.00    -0.376 OA
BRANCH  31  32
ATOM     32  C   UNL A   1      33.304  31.427  27.695  1.00  0.00     0.202 C 
BRANCH  32  33
ATOM     33  C   UNL A   1      34.711  32.082  27.700  1.00  0.00     0.261 C 
BRANCH  33  34
ATOM     34  O   UNL A   1      34.775  33.334  28.444  1.00  0.00    -0.460 OA
BRANCH  34  35
ATOM     35  C   UNL A   1      35.258  33.320  29.746  1.00  0.00     0.338 C 
ATOM     36  O   UNL A   1      34.834  34.103  30.587  1.00  0.00    -0.246 OA
BRANCH  35  37
ATOM     37  C   UNL A   1      36.148  32.129  30.006  1.00  0.00     0.060 A 
ATOM     38  C   UNL A   1      36.053  31.038  30.886  1.00  0.00     0.016 A 
ATOM     39  C   UNL A   1      37.286  32.126  29.289  1.00  0.00     0.016 A 
ATOM     40  C   UNL A   1      37.144  30.030  31.052  1.00  0.00     0.010 A 
ATOM     41  C   UNL A   1      38.324  31.269  29.648  1.00  0.00     0.010 A 
ATOM     42  C   UNL A   1      38.374  30.113  30.394  1.00  0.00    -0.014 A 
BRANCH  42  43
ATOM     43  C   UNL A   1      39.780  29.346  30.442  1.00  0.00     0.031 A 
ATOM     44  C   UNL A   1      40.464  28.009  29.677  1.00  0.00     0.074 A 
ATOM     45  C   UNL A   1      40.708  30.043  31.134  1.00  0.00     0.049 A 
ATOM     46  N   UNL A   1      41.607  27.461  30.068  1.00  0.00    -0.248 NA
ATOM     47  C   UNL A   1      40.031  27.168  28.508  1.00  0.00     0.031 C 
ATOM     48  C   UNL A   1      42.163  29.942  31.069  1.00  0.00     0.029 A 
ATOM     49  N   UNL A   1      40.506  30.934  32.167  1.00  0.00    -0.354 N 
ATOM     50  C   UNL A   1      42.055  26.520  29.124  1.00  0.00     0.074 A 
ATOM     51  C   UNL A   1      40.950  26.242  28.306  1.00  0.00     0.031 C 
ATOM     52  C   UNL A   1      42.689  30.510  32.163  1.00  0.00     0.029 A 
ATOM     53  C   UNL A   1      41.591  30.878  33.032  1.00  0.00     0.049 A 
ATOM     54  H   UNL A   1      39.720  31.516  32.274  1.00  0.00     0.167 HD
ATOM     55  C   UNL A   1      43.352  26.124  28.974  1.00  0.00     0.031 A 
ATOM     56  C   UNL A   1      41.428  30.480  34.327  1.00  0.00     0.031 A 
ATOM     57  C   UNL A   1      44.127  26.560  30.108  1.00  0.00     0.049 A 
ATOM     58  C   UNL A   1      42.221  29.243  34.692  1.00  0.00     0.074 A 
ATOM     59  C   UNL A   1      45.090  27.526  30.314  1.00  0.00     0.029 A 
ATOM     60  N   UNL A   1      43.726  26.112  31.352  1.00  0.00    -0.354 N 
ATOM     61  N   UNL A   1      42.923  28.543  33.843  1.00  0.00    -0.248 NA
ATOM     62  C   UNL A   1      42.283  28.677  36.035  1.00  0.00     0.031 C 
ATOM     63  C   UNL A   1      45.219  27.699  31.722  1.00  0.00     0.029 A 
ATOM     64  C   UNL A   1      44.371  26.803  32.350  1.00  0.00     0.049 A 
ATOM     65  H   UNL A   1      43.068  25.396  31.503  1.00  0.00     0.167 HD
ATOM     66  C   UNL A   1      43.429  27.423  34.450  1.00  0.00     0.074 A 
ATOM     67  C   UNL A   1      43.047  27.585  35.839  1.00  0.00     0.031 C 
ATOM     68  C   UNL A   1      44.071  26.452  33.731  1.00  0.00     0.031 A 
BRANCH  55  69
ATOM     69  C   UNL A   1      43.970  25.456  27.726  1.00  0.00    -0.014 A 
ATOM     70  C   UNL A   1      43.498  24.189  27.311  1.00  0.00     0.010 A 
ATOM     71  C   UNL A   1      45.060  25.945  26.969  1.00  0.00     0.010 A 
ATOM     72  C   UNL A   1      44.102  23.451  26.266  1.00  0.00     0.020 A 
ATOM     73  C   UNL A   1      45.664  25.232  25.914  1.00  0.00     0.020 A 
ATOM     74  C   UNL A   1      45.194  23.974  25.580  1.00  0.00     0.054 A 
BRANCH  74  75
ATOM     75  S   UNL A   1      46.020  22.998  24.291  1.00  0.00     0.124 S 
ATOM     76  O   UNL A   1      46.475  21.823  25.029  1.00  0.00    -0.237 OA
ATOM     77  O   UNL A   1      44.947  22.764  23.329  1.00  0.00    -0.237 OA
ATOM     78  O   UNL A   1      47.091  23.876  23.819  1.00  0.00    -0.744 OA
ENDBRANCH  74  75
ENDBRANCH  55  69
BRANCH  56  79
ATOM     79  C   UNL A   1      40.133  30.952  34.909  1.00  0.00    -0.014 A 
ATOM     80  C   UNL A   1      40.143  32.266  35.432  1.00  0.00     0.010 A 
ATOM     81  C   UNL A   1      38.897  30.394  34.528  1.00  0.00     0.010 A 
ATOM     82  C   UNL A   1      38.995  33.062  35.400  1.00  0.00     0.020 A 
ATOM     83  C   UNL A   1      37.730  31.185  34.532  1.00  0.00     0.020 A 
ATOM     84  C   UNL A   1      37.809  32.534  34.896  1.00  0.00     0.054 A 
BRANCH  84  85
ATOM     85  S   UNL A   1      36.462  33.704  34.536  1.00  0.00     0.124 S 
ATOM     86  O   UNL A   1      35.846  33.890  35.847  1.00  0.00    -0.237 OA
ATOM     87  O   UNL A   1      37.201  34.859  34.024  1.00  0.00    -0.237 OA
ATOM     88  O   UNL A   1      35.645  32.996  33.557  1.00  0.00    -0.744 OA
ENDBRANCH  84  85
ENDBRANCH  56  79
BRANCH  68  89
ATOM     89  C   UNL A   1      44.468  25.059  34.196  1.00  0.00    -0.014 A 
ATOM     90  C   UNL A   1      43.573  24.013  34.455  1.00  0.00     0.010 A 
ATOM     91  C   UNL A   1      45.850  24.732  34.282  1.00  0.00     0.010 A 
ATOM     92  C   UNL A   1      44.023  22.736  34.827  1.00  0.00     0.020 A 
ATOM     93  C   UNL A   1      46.311  23.451  34.597  1.00  0.00     0.020 A 
ATOM     94  C   UNL A   1      45.389  22.463  34.898  1.00  0.00     0.054 A 
BRANCH  94  95
ATOM     95  S   UNL A   1      45.948  20.802  35.348  1.00  0.00     0.124 S 
ATOM     96  O   UNL A   1      44.834  19.977  34.891  1.00  0.00    -0.237 OA
ATOM     97  O   UNL A   1      47.187  20.658  34.587  1.00  0.00    -0.237 OA
ATOM     98  O   UNL A   1      46.122  20.877  36.796  1.00  0.00    -0.744 OA
ENDBRANCH  94  95
ENDBRANCH  68  89
ENDBRANCH  42  43
ENDBRANCH  35  37
ENDBRANCH  34  35
ENDBRANCH  33  34
ENDBRANCH  32  33
ENDBRANCH  31  32
ENDBRANCH   1  31
TORSDOF 21
ENDMDL
MODEL 3
REMARK VINA RESULT:     -12.3      1.960      3.662
REMARK SMILES Cc1ccccc1[C@@H]1[NH2+][C@@H](C(=O)OCCOCCOCCOC(=O)c2ccc(-c3c4nc(c(-c5ccc(S(=O)(=O)[O-])cc5)c5ccc([nH]5)c(-c5ccc(S(=O)(=O)[O-])cc5)c5nc(c(-c6ccc(S(=O)(=O)[O-])cc6)c6ccc3[nH]6)C=C5)C=C4)cc2)CC2=c3ccccc3=N[C@H]21
REMARK SMILES IDX 18 1 17 2 16 3 15 4 14 5 13 6 11 7 12 8 10 9 8 10 9 11 94 12
REMARK SMILES IDX 86 15 93 16 85 17 87 18 92 19 88 20 91 21 89 22 90 23 7 24
REMARK SMILES IDX 1 25 2 26 3 27 4 28 6 29 5 30 19 31 20 32 21 33 22 34 23 35
REMARK SMILES IDX 24 36 25 37 26 38 84 39 27 40 83 41 28 42 29 43 30 44 77 45
REMARK SMILES IDX 31 46 82 47 76 48 78 49 32 50 81 51 75 52 74 53 33 55 63 56
REMARK SMILES IDX 44 57 62 58 45 59 48 60 61 61 79 62 46 63 47 64 60 66 80 67
REMARK SMILES IDX 49 68 34 69 35 70 43 71 36 72 42 73 37 74 38 75 39 76 40 77
REMARK SMILES IDX 41 78 64 79 65 80 73 81 66 82 72 83 67 84 68 85 69 86 70 87
REMARK SMILES IDX 71 88 50 89 51 90 59 91 52 92 58 93 53 94 54 95 55 96 56 97
REMARK SMILES IDX 57 98
REMARK H PARENT 9 13 9 14 78 54 48 65
REMARK Flexibility Score: inf
ROOT
ATOM      1  C   UNL A   1      30.230  29.345  23.464  1.00  0.00     0.188 C 
ENDROOT
BRANCH   1   2
ATOM      2  C   UNL A   1      30.675  28.286  22.433  1.00  0.00     0.188 C 
BRANCH   2   3
ATOM      3  O   UNL A   1      31.981  27.652  22.405  1.00  0.00    -0.376 OA
BRANCH   3   4
ATOM      4  C   UNL A   1      32.433  26.561  23.244  1.00  0.00     0.202 C 
BRANCH   4   5
ATOM      5  C   UNL A   1      33.628  26.688  24.464  1.00  0.00     0.261 C 
BRANCH   5   6
ATOM      6  O   UNL A   1      33.979  25.640  25.691  1.00  0.00    -0.459 OA
BRANCH   6   7
ATOM      7  C   UNL A   1      33.825  24.244  25.946  1.00  0.00     0.365 C 
ATOM      8  O   UNL A   1      33.418  23.669  26.961  1.00  0.00    -0.245 OA
BRANCH   7   9
ATOM      9  C   UNL A   1      34.155  23.233  24.856  1.00  0.00     0.298 C 
ATOM     10  C   UNL A   1      35.082  20.787  25.200  1.00  0.00     0.243 C 
ATOM     11  N   UNL A   1      34.047  21.830  25.462  1.00  0.00    -0.326 N 
ATOM     12  C   UNL A   1      36.330  21.240  24.381  1.00  0.00     0.196 C 
ATOM     13  H   UNL A   1      34.013  21.955  26.474  1.00  0.00     0.347 HD
ATOM     14  H   UNL A   1      33.227  21.450  24.990  1.00  0.00     0.347 HD
ATOM     15  C   UNL A   1      36.588  22.669  24.754  1.00  0.00    -0.024 C 
ATOM     16  N   UNL A   1      37.574  20.515  24.797  1.00  0.00    -0.270 NA
ATOM     17  C   UNL A   1      35.538  23.642  24.355  1.00  0.00     0.111 C 
ATOM     18  C   UNL A   1      37.649  22.770  25.546  1.00  0.00     0.002 A 
ATOM     19  C   UNL A   1      38.239  21.424  25.447  1.00  0.00     0.066 A 
ATOM     20  C   UNL A   1      38.197  23.770  26.400  1.00  0.00     0.010 A 
ATOM     21  C   UNL A   1      39.569  21.252  26.073  1.00  0.00     0.028 A 
ATOM     22  C   UNL A   1      39.349  23.502  27.039  1.00  0.00     0.001 A 
ATOM     23  C   UNL A   1      40.071  22.260  26.810  1.00  0.00     0.002 A 
BRANCH  10  24
ATOM     24  C   UNL A   1      34.477  19.479  24.661  1.00  0.00     0.015 A 
ATOM     25  C   UNL A   1      32.348  20.587  23.747  1.00  0.00     0.045 C 
ATOM     26  C   UNL A   1      33.252  19.412  23.961  1.00  0.00    -0.042 A 
ATOM     27  C   UNL A   1      32.836  18.193  23.393  1.00  0.00     0.004 A 
ATOM     28  C   UNL A   1      33.579  17.028  23.546  1.00  0.00     0.000 A 
ATOM     29  C   UNL A   1      35.198  18.271  24.833  1.00  0.00     0.010 A 
ATOM     30  C   UNL A   1      34.753  17.061  24.287  1.00  0.00     0.001 A 
ENDBRANCH  10  24
ENDBRANCH   7   9
ENDBRANCH   6   7
ENDBRANCH   5   6
ENDBRANCH   4   5
ENDBRANCH   3   4
ENDBRANCH   2   3
ENDBRANCH   1   2
BRANCH   1  31
ATOM     31  O   UNL A   1      30.803  29.133  24.743  1.00  0.00    -0.376 OA
BRANCH  31  32
ATOM     32  C   UNL A   1      31.469  30.242  25.338  1.00  0.00     0.202 C 
BRANCH  32  33
ATOM     33  C   UNL A   1      32.944  30.010  25.763  1.00  0.00     0.261 C 
BRANCH  33  34
ATOM     34  O   UNL A   1      33.197  30.270  27.175  1.00  0.00    -0.460 OA
BRANCH  34  35
ATOM     35  C   UNL A   1      33.727  31.497  27.551  1.00  0.00     0.338 C 
ATOM     36  O   UNL A   1      33.041  32.512  27.546  1.00  0.00    -0.246 OA
BRANCH  35  37
ATOM     37  C   UNL A   1      35.107  31.358  28.146  1.00  0.00     0.060 A 
ATOM     38  C   UNL A   1      36.028  32.289  28.653  1.00  0.00     0.016 A 
ATOM     39  C   UNL A   1      35.578  30.097  28.155  1.00  0.00     0.016 A 
ATOM     40  C   UNL A   1      37.411  31.915  29.082  1.00  0.00     0.010 A 
ATOM     41  C   UNL A   1      36.933  29.871  28.382  1.00  0.00     0.010 A 
ATOM     42  C   UNL A   1      37.928  30.623  28.964  1.00  0.00    -0.014 A 
BRANCH  42  43
ATOM     43  C   UNL A   1      39.351  29.911  29.158  1.00  0.00     0.031 A 
ATOM     44  C   UNL A   1      40.070  28.471  28.661  1.00  0.00     0.074 A 
ATOM     45  C   UNL A   1      40.259  30.749  29.708  1.00  0.00     0.049 A 
ATOM     46  N   UNL A   1      41.223  28.034  29.150  1.00  0.00    -0.248 NA
ATOM     47  C   UNL A   1      39.664  27.415  27.670  1.00  0.00     0.031 C 
ATOM     48  C   UNL A   1      41.717  30.671  29.666  1.00  0.00     0.029 A 
ATOM     49  N   UNL A   1      40.030  31.813  30.555  1.00  0.00    -0.354 N 
ATOM     50  C   UNL A   1      41.698  26.942  28.401  1.00  0.00     0.074 A 
ATOM     51  C   UNL A   1      40.605  26.489  27.648  1.00  0.00     0.031 C 
ATOM     52  C   UNL A   1      42.222  31.448  30.634  1.00  0.00     0.029 A 
ATOM     53  C   UNL A   1      41.110  31.947  31.416  1.00  0.00     0.049 A 
ATOM     54  H   UNL A   1      39.230  32.386  30.548  1.00  0.00     0.167 HD
ATOM     55  C   UNL A   1      43.005  26.556  28.330  1.00  0.00     0.031 A 
ATOM     56  C   UNL A   1      40.949  31.797  32.763  1.00  0.00     0.031 A 
ATOM     57  C   UNL A   1      43.763  27.216  29.363  1.00  0.00     0.049 A 
ATOM     58  C   UNL A   1      41.768  30.669  33.356  1.00  0.00     0.074 A 
ATOM     59  C   UNL A   1      44.702  28.226  29.386  1.00  0.00     0.029 A 
ATOM     60  N   UNL A   1      43.364  27.002  30.669  1.00  0.00    -0.354 N 
ATOM     61  N   UNL A   1      42.490  29.838  32.655  1.00  0.00    -0.248 NA
ATOM     62  C   UNL A   1      41.834  30.368  34.782  1.00  0.00     0.031 C 
ATOM     63  C   UNL A   1      44.818  28.664  30.735  1.00  0.00     0.029 A 
ATOM     64  C   UNL A   1      43.987  27.883  31.519  1.00  0.00     0.049 A 
ATOM     65  H   UNL A   1      42.722  26.311  30.951  1.00  0.00     0.167 HD
ATOM     66  C   UNL A   1      43.018  28.866  33.463  1.00  0.00     0.074 A 
ATOM     67  C   UNL A   1      42.624  29.277  34.796  1.00  0.00     0.031 C 
ATOM     68  C   UNL A   1      43.687  27.792  32.942  1.00  0.00     0.031 A 
BRANCH  55  69
ATOM     69  C   UNL A   1      43.646  25.680  27.232  1.00  0.00    -0.014 A 
ATOM     70  C   UNL A   1      43.224  24.339  27.079  1.00  0.00     0.010 A 
ATOM     71  C   UNL A   1      44.714  26.052  26.383  1.00  0.00     0.010 A 
ATOM     72  C   UNL A   1      43.854  23.433  26.194  1.00  0.00     0.020 A 
ATOM     73  C   UNL A   1      45.342  25.168  25.482  1.00  0.00     0.020 A 
ATOM     74  C   UNL A   1      44.922  23.852  25.407  1.00  0.00     0.054 A 
BRANCH  74  75
ATOM     75  S   UNL A   1      45.783  22.673  24.327  1.00  0.00     0.124 S 
ATOM     76  O   UNL A   1      44.702  22.172  23.483  1.00  0.00    -0.237 OA
ATOM     77  O   UNL A   1      46.769  23.516  23.656  1.00  0.00    -0.237 OA
ATOM     78  O   UNL A   1      46.342  21.691  25.256  1.00  0.00    -0.744 OA
ENDBRANCH  74  75
ENDBRANCH  55  69
BRANCH  56  79
ATOM     79  C   UNL A   1      39.640  32.339  33.243  1.00  0.00    -0.014 A 
ATOM     80  C   UNL A   1      39.222  33.546  32.638  1.00  0.00     0.010 A 
ATOM     81  C   UNL A   1      38.661  31.513  33.832  1.00  0.00     0.010 A 
ATOM     82  C   UNL A   1      37.866  33.831  32.459  1.00  0.00     0.020 A 
ATOM     83  C   UNL A   1      37.293  31.820  33.685  1.00  0.00     0.020 A 
ATOM     84  C   UNL A   1      36.910  32.935  32.933  1.00  0.00     0.054 A 
BRANCH  84  85
ATOM     85  S   UNL A   1      35.198  33.161  32.357  1.00  0.00     0.124 S 
ATOM     86  O   UNL A   1      34.940  31.916  31.639  1.00  0.00    -0.237 OA
ATOM     87  O   UNL A   1      34.478  33.313  33.621  1.00  0.00    -0.237 OA
ATOM     88  O   UNL A   1      35.271  34.358  31.525  1.00  0.00    -0.744 OA
ENDBRANCH  84  85
ENDBRANCH  56  79
BRANCH  68  89
ATOM     89  C   UNL A   1      44.112  26.521  33.662  1.00  0.00    -0.014 A 
ATOM     90  C   UNL A   1      43.351  25.851  34.628  1.00  0.00     0.010 A 
ATOM     91  C   UNL A   1      45.322  25.882  33.269  1.00  0.00     0.010 A 
ATOM     92  C   UNL A   1      43.790  24.649  35.207  1.00  0.00     0.020 A 
ATOM     93  C   UNL A   1      45.743  24.658  33.796  1.00  0.00     0.020 A 
ATOM     94  C   UNL A   1      44.984  24.062  34.789  1.00  0.00     0.054 A 
BRANCH  94  95
ATOM     95  S   UNL A   1      45.516  22.496  35.524  1.00  0.00     0.124 S 
ATOM     96  O   UNL A   1      45.049  22.636  36.900  1.00  0.00    -0.237 OA
ATOM     97  O   UNL A   1      44.808  21.502  34.720  1.00  0.00    -0.237 OA
ATOM     98  O   UNL A   1      46.966  22.508  35.348  1.00  0.00    -0.744 OA
ENDBRANCH  94  95
ENDBRANCH  68  89
ENDBRANCH  42  43
ENDBRANCH  35  37
ENDBRANCH  34  35
ENDBRANCH  33  34
ENDBRANCH  32  33
ENDBRANCH  31  32
ENDBRANCH   1  31
TORSDOF 21
ENDMDL
