MODEL 1
REMARK VINA RESULT:      -8.0      0.000      0.000
REMARK SMILES O=C(N[C@@H](Cc1ccccc1)C(=O)N[C@@H](CS)C(=O)N[C@@H](CO)C(=O)OCCOCCOCCOC(=O)c1ccc(-c2c3nc(c(-c4ccc(S(=O)(=O)[O-])cc4)c4ccc([nH]4)c(-c4ccc(S(=O)(=O)[O-])cc4)c4nc(c(-c5ccc(S(=O)(=O)[O-])cc5)c5ccc2[nH]5)C=C4)C=C3)cc1)c1ccc(F)cc1
REMARK SMILES IDX 29 1 28 2 27 3 26 4 24 5 25 6 21 7 20 8 18 9 19 10 15 12
REMARK SMILES IDX 14 13 12 14 13 15 4 17 3 18 1 19 2 20 98 22 99 23 104 24
REMARK SMILES IDX 100 25 103 26 101 27 102 28 5 29 6 30 7 31 11 32 8 33 10 34
REMARK SMILES IDX 9 35 16 36 17 37 22 39 23 40 30 42 31 43 32 44 33 45 34 46
REMARK SMILES IDX 35 47 36 48 37 49 38 50 39 51 97 52 40 53 96 54 41 55 42 56
REMARK SMILES IDX 43 57 90 58 44 59 95 60 89 61 91 62 45 63 94 64 88 65 87 66
REMARK SMILES IDX 46 68 76 69 57 70 75 71 58 72 61 73 74 74 92 75 59 76 60 77
REMARK SMILES IDX 73 79 93 80 62 81 47 82 48 83 56 84 49 85 55 86 50 87 51 88
REMARK SMILES IDX 52 89 53 90 54 91 77 92 78 93 86 94 79 95 85 96 80 97 81 98
REMARK SMILES IDX 82 99 83 100 84 101 63 102 64 103 72 104 65 105 71 106
REMARK SMILES IDX 66 107 67 108 68 109 69 110 70 111
REMARK H PARENT 20 11 14 16 3 21 17 38 23 41 91 67 61 78
REMARK Flexibility Score: inf
ROOT
ATOM      1  O   UNL A   1      32.312  32.859  27.412  1.00  0.00    -0.376 OA
ENDROOT
BRANCH   1   2
ATOM      2  C   UNL A   1      31.536  32.392  26.322  1.00  0.00     0.202 C 
BRANCH   2   3
ATOM      3  C   UNL A   1      31.163  30.909  26.343  1.00  0.00     0.261 C 
BRANCH   3   4
ATOM      4  O   UNL A   1      31.249  30.268  25.057  1.00  0.00    -0.462 OA
BRANCH   4   5
ATOM      5  C   UNL A   1      30.187  30.462  24.219  1.00  0.00     0.331 C 
ATOM      6  O   UNL A   1      29.293  31.279  24.402  1.00  0.00    -0.250 OA
BRANCH   5   7
ATOM      7  C   UNL A   1      30.146  29.420  23.076  1.00  0.00     0.218 C 
BRANCH   7   8
ATOM      8  N   UNL A   1      29.593  28.124  23.494  1.00  0.00    -0.339 N 
ATOM      9  C   UNL A   1      30.190  27.035  24.040  1.00  0.00     0.244 C 
ATOM     10  O   UNL A   1      29.529  26.443  24.899  1.00  0.00    -0.273 OA
ATOM     11  H   UNL A   1      28.624  28.030  23.353  1.00  0.00     0.164 HD
BRANCH   9  12
ATOM     12  C   UNL A   1      31.618  26.539  23.746  1.00  0.00     0.181 C 
BRANCH  12  13
ATOM     13  N   UNL A   1      31.958  26.419  22.333  1.00  0.00    -0.342 N 
ATOM     14  C   UNL A   1      32.507  25.364  21.661  1.00  0.00     0.243 C 
ATOM     15  O   UNL A   1      32.382  25.387  20.430  1.00  0.00    -0.273 OA
ATOM     16  H   UNL A   1      31.765  27.212  21.785  1.00  0.00     0.164 HD
BRANCH  14  17
ATOM     17  C   UNL A   1      33.157  24.122  22.341  1.00  0.00     0.176 C 
BRANCH  17  18
ATOM     18  N   UNL A   1      32.586  22.817  21.997  1.00  0.00    -0.340 N 
ATOM     19  O   UNL A   1      31.864  20.721  22.264  1.00  0.00    -0.269 OA
ATOM     20  C   UNL A   1      32.237  21.760  22.799  1.00  0.00     0.251 C 
ATOM     21  H   UNL A   1      32.428  22.677  21.036  1.00  0.00     0.164 HD
BRANCH  20  22
ATOM     22  C   UNL A   1      32.414  21.822  24.268  1.00  0.00     0.040 A 
ATOM     23  C   UNL A   1      31.767  22.781  25.056  1.00  0.00     0.017 A 
ATOM     24  C   UNL A   1      33.284  20.896  24.860  1.00  0.00     0.017 A 
ATOM     25  C   UNL A   1      32.075  22.880  26.415  1.00  0.00     0.040 A 
ATOM     26  C   UNL A   1      33.576  20.987  26.223  1.00  0.00     0.040 A 
ATOM     27  C   UNL A   1      32.985  21.992  26.982  1.00  0.00     0.123 A 
ATOM     28  F   UNL A   1      33.303  22.113  28.278  1.00  0.00    -0.207 F 
ENDBRANCH  20  22
ENDBRANCH  17  18
BRANCH  17  29
ATOM     29  C   UNL A   1      34.696  24.133  22.341  1.00  0.00     0.070 C 
BRANCH  29  30
ATOM     30  C   UNL A   1      35.412  23.645  23.574  1.00  0.00    -0.045 A 
ATOM     31  C   UNL A   1      36.299  22.560  23.485  1.00  0.00     0.004 A 
ATOM     32  C   UNL A   1      35.263  24.302  24.803  1.00  0.00     0.004 A 
ATOM     33  C   UNL A   1      37.028  22.149  24.602  1.00  0.00     0.000 A 
ATOM     34  C   UNL A   1      35.988  23.883  25.920  1.00  0.00     0.000 A 
ATOM     35  C   UNL A   1      36.871  22.809  25.819  1.00  0.00     0.000 A 
ENDBRANCH  29  30
ENDBRANCH  17  29
ENDBRANCH  14  17
ENDBRANCH  12  13
BRANCH  12  36
ATOM     36  C   UNL A   1      32.698  27.179  24.628  1.00  0.00     0.101 C 
BRANCH  36  37
ATOM     37  S   UNL A   1      33.944  28.196  23.787  1.00  0.00    -0.177 SA
ATOM     38  H   UNL A   1      33.324  29.081  22.962  1.00  0.00     0.102 HD
ENDBRANCH  36  37
ENDBRANCH  12  36
ENDBRANCH   9  12
ENDBRANCH   7   8
BRANCH   7  39
ATOM     39  C   UNL A   1      29.304  30.038  21.954  1.00  0.00     0.193 C 
BRANCH  39  40
ATOM     40  O   UNL A   1      29.735  31.366  21.644  1.00  0.00    -0.394 OA
ATOM     41  H   UNL A   1      30.699  31.378  21.546  1.00  0.00     0.210 HD
ENDBRANCH  39  40
ENDBRANCH   7  39
ENDBRANCH   5   7
ENDBRANCH   4   5
ENDBRANCH   3   4
ENDBRANCH   2   3
ENDBRANCH   1   2
BRANCH   1  42
ATOM     42  C   UNL A   1      33.524  32.175  27.723  1.00  0.00     0.188 C 
BRANCH  42  43
ATOM     43  C   UNL A   1      34.294  32.529  29.007  1.00  0.00     0.188 C 
BRANCH  43  44
ATOM     44  O   UNL A   1      35.670  32.827  28.787  1.00  0.00    -0.376 OA
BRANCH  44  45
ATOM     45  C   UNL A   1      36.540  31.737  29.067  1.00  0.00     0.202 C 
BRANCH  45  46
ATOM     46  C   UNL A   1      37.925  32.261  29.449  1.00  0.00     0.261 C 
BRANCH  46  47
ATOM     47  O   UNL A   1      38.414  31.761  30.709  1.00  0.00    -0.460 OA
BRANCH  47  48
ATOM     48  C   UNL A   1      39.170  32.614  31.429  1.00  0.00     0.338 C 
ATOM     49  O   UNL A   1      39.151  33.840  31.360  1.00  0.00    -0.246 OA
BRANCH  48  50
ATOM     50  C   UNL A   1      39.964  31.862  32.420  1.00  0.00     0.060 A 
ATOM     51  C   UNL A   1      39.289  31.197  33.449  1.00  0.00     0.016 A 
ATOM     52  C   UNL A   1      41.361  31.881  32.395  1.00  0.00     0.016 A 
ATOM     53  C   UNL A   1      40.006  30.592  34.484  1.00  0.00     0.010 A 
ATOM     54  C   UNL A   1      42.080  31.280  33.439  1.00  0.00     0.010 A 
ATOM     55  C   UNL A   1      41.404  30.661  34.508  1.00  0.00    -0.014 A 
BRANCH  55  56
ATOM     56  C   UNL A   1      42.131  30.295  35.753  1.00  0.00     0.031 A 
ATOM     57  C   UNL A   1      42.063  31.248  36.920  1.00  0.00     0.074 A 
ATOM     58  C   UNL A   1      42.789  29.127  35.883  1.00  0.00     0.049 A 
ATOM     59  N   UNL A   1      42.660  31.186  38.082  1.00  0.00    -0.248 NA
ATOM     60  C   UNL A   1      41.205  32.433  36.749  1.00  0.00     0.031 C 
ATOM     61  C   UNL A   1      42.871  28.076  34.869  1.00  0.00     0.029 A 
ATOM     62  N   UNL A   1      43.516  28.629  36.939  1.00  0.00    -0.354 N 
ATOM     63  C   UNL A   1      42.264  32.325  38.772  1.00  0.00     0.074 A 
ATOM     64  C   UNL A   1      41.386  33.070  37.895  1.00  0.00     0.031 C 
ATOM     65  C   UNL A   1      43.604  27.058  35.357  1.00  0.00     0.029 A 
ATOM     66  C   UNL A   1      44.080  27.399  36.697  1.00  0.00     0.049 A 
ATOM     67  H   UNL A   1      43.622  29.111  37.792  1.00  0.00     0.167 HD
ATOM     68  C   UNL A   1      42.599  32.722  40.021  1.00  0.00     0.031 A 
ATOM     69  C   UNL A   1      44.903  26.649  37.460  1.00  0.00     0.031 A 
ATOM     70  C   UNL A   1      43.464  31.986  40.902  1.00  0.00     0.049 A 
ATOM     71  C   UNL A   1      45.322  27.151  38.824  1.00  0.00     0.074 A 
ATOM     72  C   UNL A   1      43.881  32.325  42.178  1.00  0.00     0.029 A 
ATOM     73  N   UNL A   1      44.041  30.762  40.604  1.00  0.00    -0.354 N 
ATOM     74  N   UNL A   1      44.960  28.245  39.452  1.00  0.00    -0.248 NA
ATOM     75  C   UNL A   1      46.263  26.312  39.584  1.00  0.00     0.031 C 
ATOM     76  C   UNL A   1      44.747  31.327  42.634  1.00  0.00     0.029 A 
ATOM     77  C   UNL A   1      44.821  30.339  41.667  1.00  0.00     0.049 A 
ATOM     78  H   UNL A   1      43.913  30.267  39.762  1.00  0.00     0.167 HD
ATOM     79  C   UNL A   1      45.595  28.201  40.691  1.00  0.00     0.074 A 
ATOM     80  C   UNL A   1      46.355  26.972  40.730  1.00  0.00     0.031 C 
ATOM     81  C   UNL A   1      45.551  29.099  41.707  1.00  0.00     0.031 A 
BRANCH  68  82
ATOM     82  C   UNL A   1      42.067  34.045  40.497  1.00  0.00    -0.014 A 
ATOM     83  C   UNL A   1      40.855  34.136  41.203  1.00  0.00     0.010 A 
ATOM     84  C   UNL A   1      42.824  35.211  40.275  1.00  0.00     0.010 A 
ATOM     85  C   UNL A   1      40.399  35.375  41.661  1.00  0.00     0.020 A 
ATOM     86  C   UNL A   1      42.383  36.446  40.753  1.00  0.00     0.020 A 
ATOM     87  C   UNL A   1      41.167  36.523  41.434  1.00  0.00     0.054 A 
BRANCH  87  88
ATOM     88  S   UNL A   1      40.573  38.111  42.077  1.00  0.00     0.124 S 
ATOM     89  O   UNL A   1      41.823  38.794  42.397  1.00  0.00    -0.237 OA
ATOM     90  O   UNL A   1      39.830  38.657  40.943  1.00  0.00    -0.237 OA
ATOM     91  O   UNL A   1      39.756  37.735  43.228  1.00  0.00    -0.744 OA
ENDBRANCH  87  88
ENDBRANCH  68  82
BRANCH  69  92
ATOM     92  C   UNL A   1      45.448  25.356  36.950  1.00  0.00    -0.014 A 
ATOM     93  C   UNL A   1      44.827  24.134  37.263  1.00  0.00     0.010 A 
ATOM     94  C   UNL A   1      46.645  25.339  36.209  1.00  0.00     0.010 A 
ATOM     95  C   UNL A   1      45.415  22.921  36.887  1.00  0.00     0.020 A 
ATOM     96  C   UNL A   1      47.217  24.131  35.802  1.00  0.00     0.020 A 
ATOM     97  C   UNL A   1      46.610  22.927  36.165  1.00  0.00     0.054 A 
BRANCH  97  98
ATOM     98  S   UNL A   1      47.360  21.345  35.685  1.00  0.00     0.124 S 
ATOM     99  O   UNL A   1      48.733  21.506  36.154  1.00  0.00    -0.237 OA
ATOM    100  O   UNL A   1      46.550  20.376  36.419  1.00  0.00    -0.237 OA
ATOM    101  O   UNL A   1      47.192  21.314  34.234  1.00  0.00    -0.744 OA
ENDBRANCH  97  98
ENDBRANCH  69  92
BRANCH  81 102
ATOM    102  C   UNL A   1      46.282  28.760  42.981  1.00  0.00    -0.014 A 
ATOM    103  C   UNL A   1      45.634  28.140  44.063  1.00  0.00     0.010 A 
ATOM    104  C   UNL A   1      47.663  29.017  43.068  1.00  0.00     0.010 A 
ATOM    105  C   UNL A   1      46.346  27.816  45.222  1.00  0.00     0.020 A 
ATOM    106  C   UNL A   1      48.385  28.669  44.213  1.00  0.00     0.020 A 
ATOM    107  C   UNL A   1      47.717  28.086  45.291  1.00  0.00     0.054 A 
BRANCH 107 108
ATOM    108  S   UNL A   1      48.628  27.626  46.791  1.00  0.00     0.124 S 
ATOM    109  O   UNL A   1      47.666  27.945  47.841  1.00  0.00    -0.237 OA
ATOM    110  O   UNL A   1      48.888  26.203  46.588  1.00  0.00    -0.237 OA
ATOM    111  O   UNL A   1      49.814  28.480  46.752  1.00  0.00    -0.744 OA
ENDBRANCH 107 108
ENDBRANCH  81 102
ENDBRANCH  55  56
ENDBRANCH  48  50
ENDBRANCH  47  48
ENDBRANCH  46  47
ENDBRANCH  45  46
ENDBRANCH  44  45
ENDBRANCH  43  44
ENDBRANCH  42  43
ENDBRANCH   1  42
TORSDOF 32
ENDMDL
MODEL 2
REMARK VINA RESULT:      -7.6      8.389     11.320
REMARK SMILES O=C(N[C@@H](Cc1ccccc1)C(=O)N[C@@H](CS)C(=O)N[C@@H](CO)C(=O)OCCOCCOCCOC(=O)c1ccc(-c2c3nc(c(-c4ccc(S(=O)(=O)[O-])cc4)c4ccc([nH]4)c(-c4ccc(S(=O)(=O)[O-])cc4)c4nc(c(-c5ccc(S(=O)(=O)[O-])cc5)c5ccc2[nH]5)C=C4)C=C3)cc1)c1ccc(F)cc1
REMARK SMILES IDX 29 1 28 2 27 3 26 4 24 5 25 6 21 7 20 8 18 9 19 10 15 12
REMARK SMILES IDX 14 13 12 14 13 15 4 17 3 18 1 19 2 20 98 22 99 23 104 24
REMARK SMILES IDX 100 25 103 26 101 27 102 28 5 29 6 30 7 31 11 32 8 33 10 34
REMARK SMILES IDX 9 35 16 36 17 37 22 39 23 40 30 42 31 43 32 44 33 45 34 46
REMARK SMILES IDX 35 47 36 48 37 49 38 50 39 51 97 52 40 53 96 54 41 55 42 56
REMARK SMILES IDX 43 57 90 58 44 59 95 60 89 61 91 62 45 63 94 64 88 65 87 66
REMARK SMILES IDX 46 68 76 69 57 70 75 71 58 72 61 73 74 74 92 75 59 76 60 77
REMARK SMILES IDX 73 79 93 80 62 81 47 82 48 83 56 84 49 85 55 86 50 87 51 88
REMARK SMILES IDX 52 89 53 90 54 91 77 92 78 93 86 94 79 95 85 96 80 97 81 98
REMARK SMILES IDX 82 99 83 100 84 101 63 102 64 103 72 104 65 105 71 106
REMARK SMILES IDX 66 107 67 108 68 109 69 110 70 111
REMARK H PARENT 20 11 14 16 3 21 17 38 23 41 91 67 61 78
REMARK Flexibility Score: inf
ROOT
ATOM      1  O   UNL A   1      31.682  33.340  26.771  1.00  0.00    -0.376 OA
ENDROOT
BRANCH   1   2
ATOM      2  C   UNL A   1      31.098  32.182  26.201  1.00  0.00     0.202 C 
BRANCH   2   3
ATOM      3  C   UNL A   1      31.740  30.845  26.578  1.00  0.00     0.261 C 
BRANCH   3   4
ATOM      4  O   UNL A   1      32.556  30.278  25.537  1.00  0.00    -0.462 OA
BRANCH   4   5
ATOM      5  C   UNL A   1      32.005  29.238  24.843  1.00  0.00     0.331 C 
ATOM      6  O   UNL A   1      30.858  29.215  24.413  1.00  0.00    -0.250 OA
BRANCH   5   7
ATOM      7  C   UNL A   1      32.943  28.009  24.786  1.00  0.00     0.218 C 
BRANCH   7   8
ATOM      8  N   UNL A   1      33.729  27.938  23.546  1.00  0.00    -0.339 N 
ATOM      9  C   UNL A   1      33.406  27.478  22.311  1.00  0.00     0.244 C 
ATOM     10  O   UNL A   1      33.872  28.123  21.367  1.00  0.00    -0.273 OA
ATOM     11  H   UNL A   1      34.648  28.283  23.624  1.00  0.00     0.164 HD
BRANCH   9  12
ATOM     12  C   UNL A   1      32.464  26.301  21.998  1.00  0.00     0.181 C 
BRANCH  12  13
ATOM     13  N   UNL A   1      31.078  26.484  22.413  1.00  0.00    -0.342 N 
ATOM     14  C   UNL A   1      30.385  25.865  23.413  1.00  0.00     0.243 C 
ATOM     15  O   UNL A   1      29.346  26.431  23.778  1.00  0.00    -0.273 OA
ATOM     16  H   UNL A   1      30.570  27.150  21.898  1.00  0.00     0.164 HD
BRANCH  14  17
ATOM     17  C   UNL A   1      30.869  24.592  24.170  1.00  0.00     0.176 C 
BRANCH  17  18
ATOM     18  N   UNL A   1      30.201  24.297  25.441  1.00  0.00    -0.340 N 
ATOM     19  O   UNL A   1      29.941  23.605  27.548  1.00  0.00    -0.269 OA
ATOM     20  C   UNL A   1      30.720  23.886  26.643  1.00  0.00     0.251 C 
ATOM     21  H   UNL A   1      29.224  24.412  25.430  1.00  0.00     0.164 HD
BRANCH  20  22
ATOM     22  C   UNL A   1      32.174  23.671  26.816  1.00  0.00     0.040 A 
ATOM     23  C   UNL A   1      33.125  24.570  26.318  1.00  0.00     0.017 A 
ATOM     24  C   UNL A   1      32.588  22.508  27.481  1.00  0.00     0.017 A 
ATOM     25  C   UNL A   1      34.483  24.251  26.390  1.00  0.00     0.040 A 
ATOM     26  C   UNL A   1      33.948  22.201  27.567  1.00  0.00     0.040 A 
ATOM     27  C   UNL A   1      34.880  23.065  27.001  1.00  0.00     0.123 A 
ATOM     28  F   UNL A   1      36.181  22.747  27.037  1.00  0.00    -0.207 F 
ENDBRANCH  20  22
ENDBRANCH  17  18
BRANCH  17  29
ATOM     29  C   UNL A   1      31.051  23.353  23.276  1.00  0.00     0.070 C 
BRANCH  29  30
ATOM     30  C   UNL A   1      32.055  22.311  23.698  1.00  0.00    -0.045 A 
ATOM     31  C   UNL A   1      31.613  21.093  24.238  1.00  0.00     0.004 A 
ATOM     32  C   UNL A   1      33.428  22.507  23.496  1.00  0.00     0.004 A 
ATOM     33  C   UNL A   1      32.527  20.089  24.560  1.00  0.00     0.000 A 
ATOM     34  C   UNL A   1      34.340  21.503  23.826  1.00  0.00     0.000 A 
ATOM     35  C   UNL A   1      33.890  20.295  24.356  1.00  0.00     0.000 A 
ENDBRANCH  29  30
ENDBRANCH  17  29
ENDBRANCH  14  17
ENDBRANCH  12  13
BRANCH  12  36
ATOM     36  C   UNL A   1      32.655  25.699  20.600  1.00  0.00     0.101 C 
BRANCH  36  37
ATOM     37  S   UNL A   1      33.245  23.984  20.521  1.00  0.00    -0.177 SA
ATOM     38  H   UNL A   1      34.158  23.774  21.507  1.00  0.00     0.102 HD
ENDBRANCH  36  37
ENDBRANCH  12  36
ENDBRANCH   9  12
ENDBRANCH   7   8
BRANCH   7  39
ATOM     39  C   UNL A   1      33.861  28.104  26.010  1.00  0.00     0.193 C 
BRANCH  39  40
ATOM     40  O   UNL A   1      33.143  27.869  27.224  1.00  0.00    -0.394 OA
ATOM     41  H   UNL A   1      33.123  26.917  27.409  1.00  0.00     0.210 HD
ENDBRANCH  39  40
ENDBRANCH   7  39
ENDBRANCH   5   7
ENDBRANCH   4   5
ENDBRANCH   3   4
ENDBRANCH   2   3
ENDBRANCH   1   2
BRANCH   1  42
ATOM     42  C   UNL A   1      32.597  33.175  27.853  1.00  0.00     0.188 C 
BRANCH  42  43
ATOM     43  C   UNL A   1      33.259  34.411  28.489  1.00  0.00     0.188 C 
BRANCH  43  44
ATOM     44  O   UNL A   1      34.671  34.292  28.637  1.00  0.00    -0.376 OA
BRANCH  44  45
ATOM     45  C   UNL A   1      35.073  33.859  29.930  1.00  0.00     0.202 C 
BRANCH  45  46
ATOM     46  C   UNL A   1      36.537  33.417  29.899  1.00  0.00     0.261 C 
BRANCH  46  47
ATOM     47  O   UNL A   1      37.470  34.456  30.258  1.00  0.00    -0.460 OA
BRANCH  47  48
ATOM     48  C   UNL A   1      38.351  34.146  31.231  1.00  0.00     0.338 C 
ATOM     49  O   UNL A   1      38.103  33.551  32.276  1.00  0.00    -0.246 OA
BRANCH  48  50
ATOM     50  C   UNL A   1      39.713  34.526  30.809  1.00  0.00     0.060 A 
ATOM     51  C   UNL A   1      39.930  34.843  29.464  1.00  0.00     0.016 A 
ATOM     52  C   UNL A   1      40.788  34.484  31.702  1.00  0.00     0.016 A 
ATOM     53  C   UNL A   1      41.226  35.070  28.995  1.00  0.00     0.010 A 
ATOM     54  C   UNL A   1      42.089  34.706  31.228  1.00  0.00     0.010 A 
ATOM     55  C   UNL A   1      42.319  34.966  29.864  1.00  0.00    -0.014 A 
BRANCH  55  56
ATOM     56  C   UNL A   1      43.694  34.901  29.301  1.00  0.00     0.031 A 
ATOM     57  C   UNL A   1      44.392  36.200  28.985  1.00  0.00     0.074 A 
ATOM     58  C   UNL A   1      44.343  33.734  29.123  1.00  0.00     0.049 A 
ATOM     59  N   UNL A   1      45.560  36.405  28.431  1.00  0.00    -0.248 NA
ATOM     60  C   UNL A   1      43.673  37.435  29.343  1.00  0.00     0.031 C 
ATOM     61  C   UNL A   1      43.824  32.409  29.459  1.00  0.00     0.029 A 
ATOM     62  N   UNL A   1      45.595  33.483  28.613  1.00  0.00    -0.354 N 
ATOM     63  C   UNL A   1      45.707  37.785  28.360  1.00  0.00     0.074 A 
ATOM     64  C   UNL A   1      44.506  38.371  28.915  1.00  0.00     0.031 C 
ATOM     65  C   UNL A   1      44.753  31.486  29.149  1.00  0.00     0.029 A 
ATOM     66  C   UNL A   1      45.914  32.147  28.553  1.00  0.00     0.049 A 
ATOM     67  H   UNL A   1      46.207  34.196  28.317  1.00  0.00     0.167 HD
ATOM     68  C   UNL A   1      46.745  38.505  27.875  1.00  0.00     0.031 A 
ATOM     69  C   UNL A   1      47.006  31.530  28.053  1.00  0.00     0.031 A 
ATOM     70  C   UNL A   1      47.945  37.933  27.329  1.00  0.00     0.049 A 
ATOM     71  C   UNL A   1      48.120  32.356  27.450  1.00  0.00     0.074 A 
ATOM     72  C   UNL A   1      49.041  38.586  26.791  1.00  0.00     0.029 A 
ATOM     73  N   UNL A   1      48.213  36.576  27.257  1.00  0.00    -0.354 N 
ATOM     74  N   UNL A   1      48.232  33.661  27.365  1.00  0.00    -0.248 NA
ATOM     75  C   UNL A   1      49.259  31.621  26.875  1.00  0.00     0.031 C 
ATOM     76  C   UNL A   1      49.952  37.621  26.350  1.00  0.00     0.029 A 
ATOM     77  C   UNL A   1      49.449  36.370  26.670  1.00  0.00     0.049 A 
ATOM     78  H   UNL A   1      47.613  35.863  27.576  1.00  0.00     0.167 HD
ATOM     79  C   UNL A   1      49.469  33.898  26.768  1.00  0.00     0.074 A 
ATOM     80  C   UNL A   1      50.070  32.607  26.519  1.00  0.00     0.031 C 
ATOM     81  C   UNL A   1      50.053  35.082  26.453  1.00  0.00     0.031 A 
BRANCH  68  82
ATOM     82  C   UNL A   1      46.609  40.002  27.866  1.00  0.00    -0.014 A 
ATOM     83  C   UNL A   1      45.890  40.666  26.857  1.00  0.00     0.010 A 
ATOM     84  C   UNL A   1      47.170  40.750  28.917  1.00  0.00     0.010 A 
ATOM     85  C   UNL A   1      45.753  42.057  26.889  1.00  0.00     0.020 A 
ATOM     86  C   UNL A   1      47.014  42.137  28.965  1.00  0.00     0.020 A 
ATOM     87  C   UNL A   1      46.316  42.783  27.945  1.00  0.00     0.054 A 
BRANCH  87  88
ATOM     88  S   UNL A   1      46.086  44.581  27.985  1.00  0.00     0.124 S 
ATOM     89  O   UNL A   1      45.486  44.839  26.679  1.00  0.00    -0.237 OA
ATOM     90  O   UNL A   1      45.199  44.765  29.132  1.00  0.00    -0.237 OA
ATOM     91  O   UNL A   1      47.440  45.100  28.162  1.00  0.00    -0.744 OA
ENDBRANCH  87  88
ENDBRANCH  68  82
BRANCH  69  92
ATOM     92  C   UNL A   1      47.101  30.040  28.040  1.00  0.00    -0.014 A 
ATOM     93  C   UNL A   1      47.969  29.362  28.914  1.00  0.00     0.010 A 
ATOM     94  C   UNL A   1      46.375  29.297  27.091  1.00  0.00     0.010 A 
ATOM     95  C   UNL A   1      48.145  27.977  28.808  1.00  0.00     0.020 A 
ATOM     96  C   UNL A   1      46.521  27.909  27.005  1.00  0.00     0.020 A 
ATOM     97  C   UNL A   1      47.424  27.261  27.849  1.00  0.00     0.054 A 
BRANCH  97  98
ATOM     98  S   UNL A   1      47.664  25.466  27.725  1.00  0.00     0.124 S 
ATOM     99  O   UNL A   1      49.117  25.349  27.794  1.00  0.00    -0.237 OA
ATOM    100  O   UNL A   1      46.933  24.968  28.888  1.00  0.00    -0.237 OA
ATOM    101  O   UNL A   1      47.068  25.130  26.434  1.00  0.00    -0.744 OA
ENDBRANCH  97  98
ENDBRANCH  69  92
BRANCH  81 102
ATOM    102  C   UNL A   1      51.444  35.050  25.876  1.00  0.00    -0.014 A 
ATOM    103  C   UNL A   1      51.669  35.027  24.488  1.00  0.00     0.010 A 
ATOM    104  C   UNL A   1      52.549  35.104  26.746  1.00  0.00     0.010 A 
ATOM    105  C   UNL A   1      52.974  35.022  23.984  1.00  0.00     0.020 A 
ATOM    106  C   UNL A   1      53.854  35.128  26.246  1.00  0.00     0.020 A 
ATOM    107  C   UNL A   1      54.059  35.069  24.867  1.00  0.00     0.054 A 
BRANCH 107 108
ATOM    108  S   UNL A   1      55.741  35.097  24.189  1.00  0.00     0.124 S 
ATOM    109  O   UNL A   1      55.535  35.728  22.889  1.00  0.00    -0.237 OA
ATOM    110  O   UNL A   1      56.471  35.899  25.167  1.00  0.00    -0.237 OA
ATOM    111  O   UNL A   1      56.120  33.686  24.143  1.00  0.00    -0.744 OA
ENDBRANCH 107 108
ENDBRANCH  81 102
ENDBRANCH  55  56
ENDBRANCH  48  50
ENDBRANCH  47  48
ENDBRANCH  46  47
ENDBRANCH  45  46
ENDBRANCH  44  45
ENDBRANCH  43  44
ENDBRANCH  42  43
ENDBRANCH   1  42
TORSDOF 32
ENDMDL
MODEL 3
REMARK VINA RESULT:      -7.5      6.124     10.342
REMARK SMILES O=C(N[C@@H](Cc1ccccc1)C(=O)N[C@@H](CS)C(=O)N[C@@H](CO)C(=O)OCCOCCOCCOC(=O)c1ccc(-c2c3nc(c(-c4ccc(S(=O)(=O)[O-])cc4)c4ccc([nH]4)c(-c4ccc(S(=O)(=O)[O-])cc4)c4nc(c(-c5ccc(S(=O)(=O)[O-])cc5)c5ccc2[nH]5)C=C4)C=C3)cc1)c1ccc(F)cc1
REMARK SMILES IDX 29 1 28 2 27 3 26 4 24 5 25 6 21 7 20 8 18 9 19 10 15 12
REMARK SMILES IDX 14 13 12 14 13 15 4 17 3 18 1 19 2 20 98 22 99 23 104 24
REMARK SMILES IDX 100 25 103 26 101 27 102 28 5 29 6 30 7 31 11 32 8 33 10 34
REMARK SMILES IDX 9 35 16 36 17 37 22 39 23 40 30 42 31 43 32 44 33 45 34 46
REMARK SMILES IDX 35 47 36 48 37 49 38 50 39 51 97 52 40 53 96 54 41 55 42 56
REMARK SMILES IDX 43 57 90 58 44 59 95 60 89 61 91 62 45 63 94 64 88 65 87 66
REMARK SMILES IDX 46 68 76 69 57 70 75 71 58 72 61 73 74 74 92 75 59 76 60 77
REMARK SMILES IDX 73 79 93 80 62 81 47 82 48 83 56 84 49 85 55 86 50 87 51 88
REMARK SMILES IDX 52 89 53 90 54 91 77 92 78 93 86 94 79 95 85 96 80 97 81 98
REMARK SMILES IDX 82 99 83 100 84 101 63 102 64 103 72 104 65 105 71 106
REMARK SMILES IDX 66 107 67 108 68 109 69 110 70 111
REMARK H PARENT 20 11 14 16 3 21 17 38 23 41 91 67 61 78
REMARK Flexibility Score: inf
ROOT
ATOM      1  O   UNL A   1      32.037  32.859  27.112  1.00  0.00    -0.376 OA
ENDROOT
BRANCH   1   2
ATOM      2  C   UNL A   1      31.127  32.473  26.097  1.00  0.00     0.202 C 
BRANCH   2   3
ATOM      3  C   UNL A   1      30.913  30.969  25.916  1.00  0.00     0.261 C 
BRANCH   3   4
ATOM      4  O   UNL A   1      31.057  30.520  24.556  1.00  0.00    -0.462 OA
BRANCH   4   5
ATOM      5  C   UNL A   1      29.924  30.549  23.792  1.00  0.00     0.331 C 
ATOM      6  O   UNL A   1      28.855  31.031  24.147  1.00  0.00    -0.250 OA
BRANCH   5   7
ATOM      7  C   UNL A   1      30.088  29.760  22.472  1.00  0.00     0.218 C 
BRANCH   7   8
ATOM      8  N   UNL A   1      29.741  28.338  22.601  1.00  0.00    -0.339 N 
ATOM      9  C   UNL A   1      30.454  27.285  23.074  1.00  0.00     0.244 C 
ATOM     10  O   UNL A   1      29.808  26.453  23.718  1.00  0.00    -0.273 OA
ATOM     11  H   UNL A   1      28.835  28.109  22.291  1.00  0.00     0.164 HD
BRANCH   9  12
ATOM     12  C   UNL A   1      31.977  27.091  22.949  1.00  0.00     0.181 C 
BRANCH  12  13
ATOM     13  N   UNL A   1      32.451  26.711  21.625  1.00  0.00    -0.342 N 
ATOM     14  C   UNL A   1      32.908  25.502  21.182  1.00  0.00     0.243 C 
ATOM     15  O   UNL A   1      32.926  25.351  19.954  1.00  0.00    -0.273 OA
ATOM     16  H   UNL A   1      32.441  27.429  20.952  1.00  0.00     0.164 HD
BRANCH  14  17
ATOM     17  C   UNL A   1      33.286  24.306  22.106  1.00  0.00     0.176 C 
BRANCH  17  18
ATOM     18  N   UNL A   1      32.843  22.979  21.668  1.00  0.00    -0.340 N 
ATOM     19  O   UNL A   1      31.997  20.917  21.793  1.00  0.00    -0.269 OA
ATOM     20  C   UNL A   1      32.173  21.995  22.350  1.00  0.00     0.251 C 
ATOM     21  H   UNL A   1      33.062  22.759  20.734  1.00  0.00     0.164 HD
BRANCH  20  22
ATOM     22  C   UNL A   1      31.772  22.180  23.764  1.00  0.00     0.040 A 
ATOM     23  C   UNL A   1      31.033  23.290  24.190  1.00  0.00     0.017 A 
ATOM     24  C   UNL A   1      32.183  21.212  24.691  1.00  0.00     0.017 A 
ATOM     25  C   UNL A   1      30.801  23.483  25.553  1.00  0.00     0.040 A 
ATOM     26  C   UNL A   1      31.933  21.399  26.052  1.00  0.00     0.040 A 
ATOM     27  C   UNL A   1      31.263  22.545  26.471  1.00  0.00     0.123 A 
ATOM     28  F   UNL A   1      31.068  22.752  27.780  1.00  0.00    -0.207 F 
ENDBRANCH  20  22
ENDBRANCH  17  18
BRANCH  17  29
ATOM     29  C   UNL A   1      34.740  24.327  22.609  1.00  0.00     0.070 C 
BRANCH  29  30
ATOM     30  C   UNL A   1      35.058  23.616  23.899  1.00  0.00    -0.045 A 
ATOM     31  C   UNL A   1      34.604  24.142  25.118  1.00  0.00     0.004 A 
ATOM     32  C   UNL A   1      35.745  22.394  23.899  1.00  0.00     0.004 A 
ATOM     33  C   UNL A   1      34.823  23.453  26.312  1.00  0.00     0.000 A 
ATOM     34  C   UNL A   1      35.969  21.711  25.096  1.00  0.00     0.000 A 
ATOM     35  C   UNL A   1      35.508  22.239  26.301  1.00  0.00     0.000 A 
ENDBRANCH  29  30
ENDBRANCH  17  29
ENDBRANCH  14  17
ENDBRANCH  12  13
BRANCH  12  36
ATOM     36  C   UNL A   1      32.806  28.171  23.658  1.00  0.00     0.101 C 
BRANCH  36  37
ATOM     37  S   UNL A   1      33.986  27.604  24.914  1.00  0.00    -0.177 SA
ATOM     38  H   UNL A   1      35.062  28.435  24.933  1.00  0.00     0.102 HD
ENDBRANCH  36  37
ENDBRANCH  12  36
ENDBRANCH   9  12
ENDBRANCH   7   8
BRANCH   7  39
ATOM     39  C   UNL A   1      29.191  30.450  21.438  1.00  0.00     0.193 C 
BRANCH  39  40
ATOM     40  O   UNL A   1      27.871  29.899  21.437  1.00  0.00    -0.394 OA
ATOM     41  H   UNL A   1      27.751  29.348  20.648  1.00  0.00     0.210 HD
ENDBRANCH  39  40
ENDBRANCH   7  39
ENDBRANCH   5   7
ENDBRANCH   4   5
ENDBRANCH   3   4
ENDBRANCH   2   3
ENDBRANCH   1   2
BRANCH   1  42
ATOM     42  C   UNL A   1      33.116  31.980  27.424  1.00  0.00     0.188 C 
BRANCH  42  43
ATOM     43  C   UNL A   1      34.379  32.533  28.110  1.00  0.00     0.188 C 
BRANCH  43  44
ATOM     44  O   UNL A   1      35.590  31.954  27.634  1.00  0.00    -0.376 OA
BRANCH  44  45
ATOM     45  C   UNL A   1      35.754  30.591  28.006  1.00  0.00     0.202 C 
BRANCH  45  46
ATOM     46  C   UNL A   1      37.219  30.318  28.350  1.00  0.00     0.261 C 
BRANCH  46  47
ATOM     47  O   UNL A   1      37.452  30.048  29.747  1.00  0.00    -0.460 OA
BRANCH  47  48
ATOM     48  C   UNL A   1      38.734  29.822  30.098  1.00  0.00     0.338 C 
ATOM     49  O   UNL A   1      39.263  28.726  30.257  1.00  0.00    -0.246 OA
BRANCH  48  50
ATOM     50  C   UNL A   1      39.468  31.102  30.153  1.00  0.00     0.060 A 
ATOM     51  C   UNL A   1      40.832  31.102  29.843  1.00  0.00     0.016 A 
ATOM     52  C   UNL A   1      38.847  32.275  30.591  1.00  0.00     0.016 A 
ATOM     53  C   UNL A   1      41.592  32.261  30.018  1.00  0.00     0.010 A 
ATOM     54  C   UNL A   1      39.613  33.436  30.773  1.00  0.00     0.010 A 
ATOM     55  C   UNL A   1      40.998  33.425  30.520  1.00  0.00    -0.014 A 
BRANCH  55  56
ATOM     56  C   UNL A   1      41.862  34.540  30.991  1.00  0.00     0.031 A 
ATOM     57  C   UNL A   1      42.383  34.484  32.406  1.00  0.00     0.074 A 
ATOM     58  C   UNL A   1      42.234  35.552  30.184  1.00  0.00     0.049 A 
ATOM     59  N   UNL A   1      43.095  35.359  33.067  1.00  0.00    -0.248 NA
ATOM     60  C   UNL A   1      42.052  33.273  33.178  1.00  0.00     0.031 C 
ATOM     61  C   UNL A   1      41.873  35.695  28.774  1.00  0.00     0.029 A 
ATOM     62  N   UNL A   1      43.008  36.658  30.444  1.00  0.00    -0.354 N 
ATOM     63  C   UNL A   1      43.284  34.815  34.332  1.00  0.00     0.074 A 
ATOM     64  C   UNL A   1      42.600  33.540  34.353  1.00  0.00     0.031 C 
ATOM     65  C   UNL A   1      42.430  36.823  28.295  1.00  0.00     0.029 A 
ATOM     66  C   UNL A   1      43.150  37.505  29.370  1.00  0.00     0.049 A 
ATOM     67  H   UNL A   1      43.423  36.828  31.321  1.00  0.00     0.167 HD
ATOM     68  C   UNL A   1      43.961  35.328  35.385  1.00  0.00     0.031 A 
ATOM     69  C   UNL A   1      43.766  38.702  29.275  1.00  0.00     0.031 A 
ATOM     70  C   UNL A   1      44.649  36.589  35.371  1.00  0.00     0.049 A 
ATOM     71  C   UNL A   1      44.454  39.286  30.489  1.00  0.00     0.074 A 
ATOM     72  C   UNL A   1      45.342  37.201  36.402  1.00  0.00     0.029 A 
ATOM     73  N   UNL A   1      44.739  37.430  34.274  1.00  0.00    -0.354 N 
ATOM     74  N   UNL A   1      44.600  38.771  31.687  1.00  0.00    -0.248 NA
ATOM     75  C   UNL A   1      45.063  40.618  30.334  1.00  0.00     0.031 C 
ATOM     76  C   UNL A   1      45.812  38.435  35.940  1.00  0.00     0.029 A 
ATOM     77  C   UNL A   1      45.463  38.562  34.606  1.00  0.00     0.049 A 
ATOM     78  H   UNL A   1      44.346  37.248  33.389  1.00  0.00     0.167 HD
ATOM     79  C   UNL A   1      45.350  39.697  32.410  1.00  0.00     0.074 A 
ATOM     80  C   UNL A   1      45.636  40.796  31.516  1.00  0.00     0.031 C 
ATOM     81  C   UNL A   1      45.767  39.639  33.701  1.00  0.00     0.031 A 
BRANCH  68  82
ATOM     82  C   UNL A   1      43.950  34.543  36.667  1.00  0.00    -0.014 A 
ATOM     83  C   UNL A   1      44.960  33.611  36.964  1.00  0.00     0.010 A 
ATOM     84  C   UNL A   1      42.936  34.784  37.612  1.00  0.00     0.010 A 
ATOM     85  C   UNL A   1      44.942  32.917  38.177  1.00  0.00     0.020 A 
ATOM     86  C   UNL A   1      42.930  34.111  38.836  1.00  0.00     0.020 A 
ATOM     87  C   UNL A   1      43.927  33.173  39.106  1.00  0.00     0.054 A 
BRANCH  87  88
ATOM     88  S   UNL A   1      43.953  32.291  40.691  1.00  0.00     0.124 S 
ATOM     89  O   UNL A   1      42.799  32.867  41.376  1.00  0.00    -0.237 OA
ATOM     90  O   UNL A   1      43.811  30.896  40.283  1.00  0.00    -0.237 OA
ATOM     91  O   UNL A   1      45.253  32.640  41.260  1.00  0.00    -0.744 OA
ENDBRANCH  87  88
ENDBRANCH  68  82
BRANCH  69  92
ATOM     92  C   UNL A   1      43.731  39.479  28.001  1.00  0.00    -0.014 A 
ATOM     93  C   UNL A   1      44.809  39.439  27.098  1.00  0.00     0.010 A 
ATOM     94  C   UNL A   1      42.645  40.329  27.724  1.00  0.00     0.010 A 
ATOM     95  C   UNL A   1      44.821  40.267  25.969  1.00  0.00     0.020 A 
ATOM     96  C   UNL A   1      42.638  41.132  26.581  1.00  0.00     0.020 A 
ATOM     97  C   UNL A   1      43.738  41.113  25.722  1.00  0.00     0.054 A 
BRANCH  97  98
ATOM     98  S   UNL A   1      43.770  42.181  24.254  1.00  0.00     0.124 S 
ATOM     99  O   UNL A   1      43.637  43.510  24.844  1.00  0.00    -0.237 OA
ATOM    100  O   UNL A   1      45.074  41.876  23.670  1.00  0.00    -0.237 OA
ATOM    101  O   UNL A   1      42.624  41.723  23.473  1.00  0.00    -0.744 OA
ENDBRANCH  97  98
ENDBRANCH  69  92
BRANCH  81 102
ATOM    102  C   UNL A   1      46.640  40.756  34.211  1.00  0.00    -0.014 A 
ATOM    103  C   UNL A   1      46.098  41.889  34.842  1.00  0.00     0.010 A 
ATOM    104  C   UNL A   1      48.039  40.635  34.106  1.00  0.00     0.010 A 
ATOM    105  C   UNL A   1      46.938  42.898  35.326  1.00  0.00     0.020 A 
ATOM    106  C   UNL A   1      48.882  41.626  34.614  1.00  0.00     0.020 A 
ATOM    107  C   UNL A   1      48.325  42.761  35.206  1.00  0.00     0.054 A 
BRANCH 107 108
ATOM    108  S   UNL A   1      49.396  44.065  35.872  1.00  0.00     0.124 S 
ATOM    109  O   UNL A   1      48.553  44.650  36.910  1.00  0.00    -0.237 OA
ATOM    110  O   UNL A   1      50.556  43.318  36.352  1.00  0.00    -0.237 OA
ATOM    111  O   UNL A   1      49.652  44.926  34.719  1.00  0.00    -0.744 OA
ENDBRANCH 107 108
ENDBRANCH  81 102
ENDBRANCH  55  56
ENDBRANCH  48  50
ENDBRANCH  47  48
ENDBRANCH  46  47
ENDBRANCH  45  46
ENDBRANCH  44  45
ENDBRANCH  43  44
ENDBRANCH  42  43
ENDBRANCH   1  42
TORSDOF 32
ENDMDL
