MODEL 1
REMARK VINA RESULT:      -9.3      0.000      0.000
REMARK SMILES O=C(C[C@@H]1C[N@@H+](C[C@H]2CCOC2)CCO1)OCCOCCOCCOC(=O)c1ccc(-c2c3nc(c(-c4ccc(S(=O)(=O)[O-])cc4)c4ccc([nH]4)c(-c4ccc(S(=O)(=O)[O-])cc4)c4nc(c(-c5ccc(S(=O)(=O)[O-])cc5)c5ccc2[nH]5)C=C4)C=C3)cc1
REMARK SMILES IDX 20 1 19 2 18 3 17 4 16 5 2 6 1 7 3 8 4 9 5 10 15 11 6 12
REMARK SMILES IDX 14 13 13 14 7 16 8 17 9 18 12 19 10 20 11 21 21 22 22 23
REMARK SMILES IDX 23 24 24 25 25 26 26 27 27 28 28 29 29 30 87 31 30 32 86 33
REMARK SMILES IDX 31 34 32 35 33 36 80 37 34 38 85 39 79 40 81 41 35 42 84 43
REMARK SMILES IDX 78 44 77 45 36 47 66 48 47 49 65 50 48 51 51 52 64 53 82 54
REMARK SMILES IDX 49 55 50 56 63 58 83 59 52 60 37 61 38 62 46 63 39 64 45 65
REMARK SMILES IDX 40 66 41 67 42 68 43 69 44 70 67 71 68 72 76 73 69 74 75 75
REMARK SMILES IDX 70 76 71 77 72 78 73 79 74 80 53 81 54 82 62 83 55 84 61 85
REMARK SMILES IDX 56 86 57 87 58 88 59 89 60 90
REMARK H PARENT 6 15 81 46 51 57
REMARK Flexibility Score: inf
ROOT
ATOM      1  C   UNL A   1      39.366  21.433  25.689  1.00  0.00     0.188 C 
ENDROOT
BRANCH   1   2
ATOM      2  O   UNL A   1      38.324  20.484  25.733  1.00  0.00    -0.376 OA
BRANCH   2   3
ATOM      3  C   UNL A   1      37.129  20.800  25.047  1.00  0.00     0.202 C 
BRANCH   3   4
ATOM      4  C   UNL A   1      37.240  21.883  23.982  1.00  0.00     0.261 C 
BRANCH   4   5
ATOM      5  O   UNL A   1      36.844  23.250  24.304  1.00  0.00    -0.463 OA
BRANCH   5   6
ATOM      6  C   UNL A   1      36.289  23.873  25.358  1.00  0.00     0.308 C 
ATOM      7  O   UNL A   1      36.938  23.947  26.403  1.00  0.00    -0.252 OA
BRANCH   6   8
ATOM      8  C   UNL A   1      34.863  24.359  25.351  1.00  0.00     0.160 C 
BRANCH   8   9
ATOM      9  C   UNL A   1      33.835  23.332  25.736  1.00  0.00     0.184 C 
ATOM     10  C   UNL A   1      33.588  22.343  24.560  1.00  0.00     0.295 C 
ATOM     11  O   UNL A   1      32.597  23.924  26.114  1.00  0.00    -0.366 OA
ATOM     12  N   UNL A   1      32.602  21.291  24.864  1.00  0.00    -0.331 N 
ATOM     13  C   UNL A   1      31.738  22.924  26.647  1.00  0.00     0.222 C 
ATOM     14  C   UNL A   1      31.451  21.822  25.610  1.00  0.00     0.291 C 
ATOM     15  H   UNL A   1      32.179  20.982  23.989  1.00  0.00     0.348 HD
BRANCH  12  16
ATOM     16  C   UNL A   1      33.207  20.029  25.327  1.00  0.00     0.268 C 
BRANCH  16  17
ATOM     17  C   UNL A   1      33.450  19.006  24.233  1.00  0.00     0.072 C 
ATOM     18  C   UNL A   1      33.706  17.583  24.671  1.00  0.00     0.040 C 
ATOM     19  C   UNL A   1      32.401  18.769  23.170  1.00  0.00     0.169 C 
ATOM     20  C   UNL A   1      33.887  16.961  23.307  1.00  0.00     0.160 C 
ATOM     21  O   UNL A   1      32.883  17.582  22.479  1.00  0.00    -0.381 OA
ENDBRANCH  16  17
ENDBRANCH  12  16
ENDBRANCH   8   9
ENDBRANCH   6   8
ENDBRANCH   5   6
ENDBRANCH   4   5
ENDBRANCH   3   4
ENDBRANCH   2   3
ENDBRANCH   1   2
BRANCH   1  22
ATOM     22  C   UNL A   1      40.435  21.329  26.780  1.00  0.00     0.188 C 
BRANCH  22  23
ATOM     23  O   UNL A   1      41.030  20.076  27.068  1.00  0.00    -0.376 OA
BRANCH  23  24
ATOM     24  C   UNL A   1      41.321  19.194  25.998  1.00  0.00     0.202 C 
BRANCH  24  25
ATOM     25  C   UNL A   1      42.697  18.501  25.955  1.00  0.00     0.261 C 
BRANCH  25  26
ATOM     26  O   UNL A   1      43.454  18.588  24.729  1.00  0.00    -0.460 OA
BRANCH  26  27
ATOM     27  C   UNL A   1      44.630  19.269  24.778  1.00  0.00     0.338 C 
ATOM     28  O   UNL A   1      45.740  18.816  24.528  1.00  0.00    -0.246 OA
BRANCH  27  29
ATOM     29  C   UNL A   1      44.396  20.717  25.027  1.00  0.00     0.060 A 
ATOM     30  C   UNL A   1      44.369  21.617  23.946  1.00  0.00     0.016 A 
ATOM     31  C   UNL A   1      44.264  21.201  26.328  1.00  0.00     0.016 A 
ATOM     32  C   UNL A   1      44.265  22.999  24.165  1.00  0.00     0.010 A 
ATOM     33  C   UNL A   1      44.186  22.583  26.546  1.00  0.00     0.010 A 
ATOM     34  C   UNL A   1      44.229  23.495  25.473  1.00  0.00    -0.014 A 
BRANCH  34  35
ATOM     35  C   UNL A   1      44.474  24.935  25.769  1.00  0.00     0.031 A 
ATOM     36  C   UNL A   1      45.888  25.448  25.661  1.00  0.00     0.074 A 
ATOM     37  C   UNL A   1      43.506  25.766  26.198  1.00  0.00     0.049 A 
ATOM     38  N   UNL A   1      46.397  26.585  26.057  1.00  0.00    -0.248 NA
ATOM     39  C   UNL A   1      46.858  24.537  25.033  1.00  0.00     0.031 C 
ATOM     40  C   UNL A   1      42.088  25.436  26.299  1.00  0.00     0.029 A 
ATOM     41  N   UNL A   1      43.587  27.058  26.667  1.00  0.00    -0.354 N 
ATOM     42  C   UNL A   1      47.755  26.512  25.764  1.00  0.00     0.074 A 
ATOM     43  C   UNL A   1      47.988  25.213  25.171  1.00  0.00     0.031 C 
ATOM     44  C   UNL A   1      41.435  26.483  26.835  1.00  0.00     0.029 A 
ATOM     45  C   UNL A   1      42.397  27.539  27.163  1.00  0.00     0.049 A 
ATOM     46  H   UNL A   1      44.416  27.587  26.649  1.00  0.00     0.167 HD
ATOM     47  C   UNL A   1      48.727  27.432  25.979  1.00  0.00     0.031 A 
ATOM     48  C   UNL A   1      42.119  28.671  27.844  1.00  0.00     0.031 A 
ATOM     49  C   UNL A   1      48.501  28.714  26.593  1.00  0.00     0.049 A 
ATOM     50  C   UNL A   1      43.218  29.659  28.145  1.00  0.00     0.074 A 
ATOM     51  C   UNL A   1      49.415  29.726  26.835  1.00  0.00     0.029 A 
ATOM     52  N   UNL A   1      47.279  29.157  27.081  1.00  0.00    -0.354 N 
ATOM     53  N   UNL A   1      44.495  29.585  27.851  1.00  0.00    -0.248 NA
ATOM     54  C   UNL A   1      42.840  30.885  28.864  1.00  0.00     0.031 C 
ATOM     55  C   UNL A   1      48.763  30.746  27.533  1.00  0.00     0.029 A 
ATOM     56  C   UNL A   1      47.424  30.411  27.651  1.00  0.00     0.049 A 
ATOM     57  H   UNL A   1      46.434  28.654  27.028  1.00  0.00     0.167 HD
ATOM     58  C   UNL A   1      45.064  30.768  28.318  1.00  0.00     0.074 A 
ATOM     59  C   UNL A   1      43.994  31.539  28.914  1.00  0.00     0.031 C 
ATOM     60  C   UNL A   1      46.355  31.180  28.244  1.00  0.00     0.031 A 
BRANCH  47  61
ATOM     61  C   UNL A   1      50.137  27.048  25.610  1.00  0.00    -0.014 A 
ATOM     62  C   UNL A   1      50.908  26.193  26.420  1.00  0.00     0.010 A 
ATOM     63  C   UNL A   1      50.708  27.565  24.432  1.00  0.00     0.010 A 
ATOM     64  C   UNL A   1      52.241  25.924  26.098  1.00  0.00     0.020 A 
ATOM     65  C   UNL A   1      52.028  27.268  24.085  1.00  0.00     0.020 A 
ATOM     66  C   UNL A   1      52.796  26.473  24.937  1.00  0.00     0.054 A 
BRANCH  66  67
ATOM     67  S   UNL A   1      54.536  26.133  24.558  1.00  0.00     0.124 S 
ATOM     68  O   UNL A   1      54.590  26.405  23.124  1.00  0.00    -0.237 OA
ATOM     69  O   UNL A   1      55.242  27.089  25.406  1.00  0.00    -0.237 OA
ATOM     70  O   UNL A   1      54.706  24.730  24.931  1.00  0.00    -0.744 OA
ENDBRANCH  66  67
ENDBRANCH  47  61
BRANCH  48  71
ATOM     71  C   UNL A   1      40.727  28.909  28.320  1.00  0.00    -0.014 A 
ATOM     72  C   UNL A   1      40.401  28.796  29.682  1.00  0.00     0.010 A 
ATOM     73  C   UNL A   1      39.729  29.308  27.410  1.00  0.00     0.010 A 
ATOM     74  C   UNL A   1      39.109  29.098  30.130  1.00  0.00     0.020 A 
ATOM     75  C   UNL A   1      38.445  29.636  27.857  1.00  0.00     0.020 A 
ATOM     76  C   UNL A   1      38.145  29.533  29.215  1.00  0.00     0.054 A 
BRANCH  76  77
ATOM     77  S   UNL A   1      36.517  30.043  29.837  1.00  0.00     0.124 S 
ATOM     78  O   UNL A   1      35.642  29.698  28.723  1.00  0.00    -0.237 OA
ATOM     79  O   UNL A   1      36.372  29.226  31.038  1.00  0.00    -0.237 OA
ATOM     80  O   UNL A   1      36.680  31.475  30.086  1.00  0.00    -0.744 OA
ENDBRANCH  76  77
ENDBRANCH  48  71
BRANCH  60  81
ATOM     81  C   UNL A   1      46.700  32.553  28.766  1.00  0.00    -0.014 A 
ATOM     82  C   UNL A   1      47.173  32.753  30.074  1.00  0.00     0.010 A 
ATOM     83  C   UNL A   1      46.644  33.653  27.887  1.00  0.00     0.010 A 
ATOM     84  C   UNL A   1      47.572  34.027  30.496  1.00  0.00     0.020 A 
ATOM     85  C   UNL A   1      47.069  34.920  28.294  1.00  0.00     0.020 A 
ATOM     86  C   UNL A   1      47.524  35.101  29.601  1.00  0.00     0.054 A 
BRANCH  86  87
ATOM     87  S   UNL A   1      48.118  36.727  30.149  1.00  0.00     0.124 S 
ATOM     88  O   UNL A   1      48.741  36.407  31.431  1.00  0.00    -0.237 OA
ATOM     89  O   UNL A   1      49.039  37.107  29.080  1.00  0.00    -0.237 OA
ATOM     90  O   UNL A   1      46.901  37.532  30.231  1.00  0.00    -0.744 OA
ENDBRANCH  86  87
ENDBRANCH  60  81
ENDBRANCH  34  35
ENDBRANCH  27  29
ENDBRANCH  26  27
ENDBRANCH  25  26
ENDBRANCH  24  25
ENDBRANCH  23  24
ENDBRANCH  22  23
ENDBRANCH   1  22
TORSDOF 23
ENDMDL
MODEL 2
REMARK VINA RESULT:      -9.3      2.391      9.576
REMARK SMILES O=C(C[C@@H]1C[N@@H+](C[C@H]2CCOC2)CCO1)OCCOCCOCCOC(=O)c1ccc(-c2c3nc(c(-c4ccc(S(=O)(=O)[O-])cc4)c4ccc([nH]4)c(-c4ccc(S(=O)(=O)[O-])cc4)c4nc(c(-c5ccc(S(=O)(=O)[O-])cc5)c5ccc2[nH]5)C=C4)C=C3)cc1
REMARK SMILES IDX 20 1 19 2 18 3 17 4 16 5 2 6 1 7 3 8 4 9 5 10 15 11 6 12
REMARK SMILES IDX 14 13 13 14 7 16 8 17 9 18 12 19 10 20 11 21 21 22 22 23
REMARK SMILES IDX 23 24 24 25 25 26 26 27 27 28 28 29 29 30 87 31 30 32 86 33
REMARK SMILES IDX 31 34 32 35 33 36 80 37 34 38 85 39 79 40 81 41 35 42 84 43
REMARK SMILES IDX 78 44 77 45 36 47 66 48 47 49 65 50 48 51 51 52 64 53 82 54
REMARK SMILES IDX 49 55 50 56 63 58 83 59 52 60 37 61 38 62 46 63 39 64 45 65
REMARK SMILES IDX 40 66 41 67 42 68 43 69 44 70 67 71 68 72 76 73 69 74 75 75
REMARK SMILES IDX 70 76 71 77 72 78 73 79 74 80 53 81 54 82 62 83 55 84 61 85
REMARK SMILES IDX 56 86 57 87 58 88 59 89 60 90
REMARK H PARENT 6 15 81 46 51 57
REMARK Flexibility Score: inf
ROOT
ATOM      1  C   UNL A   1      35.341  31.105  28.244  1.00  0.00     0.188 C 
ENDROOT
BRANCH   1   2
ATOM      2  O   UNL A   1      34.438  30.827  27.197  1.00  0.00    -0.376 OA
BRANCH   2   3
ATOM      3  C   UNL A   1      33.062  31.020  27.457  1.00  0.00     0.202 C 
BRANCH   3   4
ATOM      4  C   UNL A   1      32.102  30.396  26.452  1.00  0.00     0.261 C 
BRANCH   4   5
ATOM      5  O   UNL A   1      31.804  28.970  26.533  1.00  0.00    -0.463 OA
BRANCH   5   6
ATOM      6  C   UNL A   1      31.667  27.959  25.657  1.00  0.00     0.308 C 
ATOM      7  O   UNL A   1      31.999  28.152  24.486  1.00  0.00    -0.252 OA
BRANCH   6   8
ATOM      8  C   UNL A   1      31.003  26.657  26.021  1.00  0.00     0.160 C 
BRANCH   8   9
ATOM      9  C   UNL A   1      31.923  25.472  26.113  1.00  0.00     0.184 C 
ATOM     10  C   UNL A   1      32.180  24.872  24.701  1.00  0.00     0.295 C 
ATOM     11  O   UNL A   1      31.407  24.455  26.964  1.00  0.00    -0.366 OA
ATOM     12  N   UNL A   1      33.088  23.713  24.702  1.00  0.00    -0.331 N 
ATOM     13  C   UNL A   1      32.399  23.456  27.163  1.00  0.00     0.222 C 
ATOM     14  C   UNL A   1      32.815  22.808  25.828  1.00  0.00     0.291 C 
ATOM     15  H   UNL A   1      32.874  23.133  23.891  1.00  0.00     0.348 HD
BRANCH  12  16
ATOM     16  C   UNL A   1      34.492  24.061  24.418  1.00  0.00     0.268 C 
BRANCH  16  17
ATOM     17  C   UNL A   1      35.515  23.146  25.066  1.00  0.00     0.072 C 
ATOM     18  C   UNL A   1      35.992  21.968  24.251  1.00  0.00     0.040 C 
ATOM     19  C   UNL A   1      36.844  23.701  25.529  1.00  0.00     0.169 C 
ATOM     20  C   UNL A   1      36.948  21.375  25.259  1.00  0.00     0.160 C 
ATOM     21  O   UNL A   1      37.613  22.509  25.852  1.00  0.00    -0.381 OA
ENDBRANCH  16  17
ENDBRANCH  12  16
ENDBRANCH   8   9
ENDBRANCH   6   8
ENDBRANCH   5   6
ENDBRANCH   4   5
ENDBRANCH   3   4
ENDBRANCH   2   3
ENDBRANCH   1   2
BRANCH   1  22
ATOM     22  C   UNL A   1      35.437  32.566  28.694  1.00  0.00     0.188 C 
BRANCH  22  23
ATOM     23  O   UNL A   1      35.826  32.871  30.022  1.00  0.00    -0.376 OA
BRANCH  23  24
ATOM     24  C   UNL A   1      35.182  32.205  31.095  1.00  0.00     0.202 C 
BRANCH  24  25
ATOM     25  C   UNL A   1      36.019  31.312  32.030  1.00  0.00     0.261 C 
BRANCH  25  26
ATOM     26  O   UNL A   1      36.308  29.967  31.594  1.00  0.00    -0.460 OA
BRANCH  26  27
ATOM     27  C   UNL A   1      37.366  29.343  32.175  1.00  0.00     0.338 C 
ATOM     28  O   UNL A   1      37.321  28.578  33.131  1.00  0.00    -0.246 OA
BRANCH  27  29
ATOM     29  C   UNL A   1      38.614  29.578  31.399  1.00  0.00     0.060 A 
ATOM     30  C   UNL A   1      38.539  29.852  30.021  1.00  0.00     0.016 A 
ATOM     31  C   UNL A   1      39.862  29.469  32.012  1.00  0.00     0.016 A 
ATOM     32  C   UNL A   1      39.705  29.963  29.248  1.00  0.00     0.010 A 
ATOM     33  C   UNL A   1      41.024  29.554  31.234  1.00  0.00     0.010 A 
ATOM     34  C   UNL A   1      40.956  29.758  29.841  1.00  0.00    -0.014 A 
BRANCH  34  35
ATOM     35  C   UNL A   1      42.178  29.515  29.024  1.00  0.00     0.031 A 
ATOM     36  C   UNL A   1      42.378  28.136  28.446  1.00  0.00     0.074 A 
ATOM     37  C   UNL A   1      43.135  30.445  28.848  1.00  0.00     0.049 A 
ATOM     38  N   UNL A   1      43.435  27.611  27.884  1.00  0.00    -0.248 NA
ATOM     39  C   UNL A   1      41.226  27.226  28.537  1.00  0.00     0.031 C 
ATOM     40  C   UNL A   1      43.061  31.833  29.293  1.00  0.00     0.029 A 
ATOM     41  N   UNL A   1      44.382  30.340  28.273  1.00  0.00    -0.354 N 
ATOM     42  C   UNL A   1      43.090  26.296  27.590  1.00  0.00     0.074 A 
ATOM     43  C   UNL A   1      41.732  26.104  28.049  1.00  0.00     0.031 C 
ATOM     44  C   UNL A   1      44.227  32.442  29.011  1.00  0.00     0.029 A 
ATOM     45  C   UNL A   1      45.148  31.474  28.411  1.00  0.00     0.049 A 
ATOM     46  H   UNL A   1      44.694  29.531  27.807  1.00  0.00     0.167 HD
ATOM     47  C   UNL A   1      43.836  25.328  27.002  1.00  0.00     0.031 A 
ATOM     48  C   UNL A   1      46.451  31.697  28.135  1.00  0.00     0.031 A 
ATOM     49  C   UNL A   1      45.196  25.511  26.568  1.00  0.00     0.049 A 
ATOM     50  C   UNL A   1      47.296  30.593  27.548  1.00  0.00     0.074 A 
ATOM     51  C   UNL A   1      46.029  24.599  25.943  1.00  0.00     0.029 A 
ATOM     52  N   UNL A   1      45.932  26.676  26.730  1.00  0.00    -0.354 N 
ATOM     53  N   UNL A   1      46.956  29.359  27.262  1.00  0.00    -0.248 NA
ATOM     54  C   UNL A   1      48.699  30.913  27.243  1.00  0.00     0.031 C 
ATOM     55  C   UNL A   1      47.288  25.187  25.794  1.00  0.00     0.029 A 
ATOM     56  C   UNL A   1      47.218  26.495  26.247  1.00  0.00     0.049 A 
ATOM     57  H   UNL A   1      45.590  27.509  27.129  1.00  0.00     0.167 HD
ATOM     58  C   UNL A   1      48.091  28.767  26.711  1.00  0.00     0.074 A 
ATOM     59  C   UNL A   1      49.128  29.777  26.707  1.00  0.00     0.031 C 
ATOM     60  C   UNL A   1      48.250  27.504  26.241  1.00  0.00     0.031 A 
BRANCH  47  61
ATOM     61  C   UNL A   1      43.212  23.962  26.865  1.00  0.00    -0.014 A 
ATOM     62  C   UNL A   1      42.952  23.151  27.985  1.00  0.00     0.010 A 
ATOM     63  C   UNL A   1      42.891  23.476  25.584  1.00  0.00     0.010 A 
ATOM     64  C   UNL A   1      42.453  21.855  27.821  1.00  0.00     0.020 A 
ATOM     65  C   UNL A   1      42.357  22.196  25.417  1.00  0.00     0.020 A 
ATOM     66  C   UNL A   1      42.170  21.383  26.535  1.00  0.00     0.054 A 
BRANCH  66  67
ATOM     67  S   UNL A   1      41.553  19.688  26.347  1.00  0.00     0.124 S 
ATOM     68  O   UNL A   1      41.932  19.087  27.624  1.00  0.00    -0.237 OA
ATOM     69  O   UNL A   1      40.120  19.888  26.148  1.00  0.00    -0.237 OA
ATOM     70  O   UNL A   1      42.276  19.182  25.183  1.00  0.00    -0.744 OA
ENDBRANCH  66  67
ENDBRANCH  47  61
BRANCH  48  71
ATOM     71  C   UNL A   1      47.043  33.028  28.448  1.00  0.00    -0.014 A 
ATOM     72  C   UNL A   1      47.585  33.296  29.717  1.00  0.00     0.010 A 
ATOM     73  C   UNL A   1      47.117  34.020  27.451  1.00  0.00     0.010 A 
ATOM     74  C   UNL A   1      48.208  34.522  29.976  1.00  0.00     0.020 A 
ATOM     75  C   UNL A   1      47.763  35.234  27.698  1.00  0.00     0.020 A 
ATOM     76  C   UNL A   1      48.308  35.476  28.959  1.00  0.00     0.054 A 
BRANCH  76  77
ATOM     77  S   UNL A   1      49.235  37.004  29.280  1.00  0.00     0.124 S 
ATOM     78  O   UNL A   1      50.011  37.155  28.054  1.00  0.00    -0.237 OA
ATOM     79  O   UNL A   1      48.168  37.979  29.483  1.00  0.00    -0.237 OA
ATOM     80  O   UNL A   1      50.011  36.687  30.479  1.00  0.00    -0.744 OA
ENDBRANCH  76  77
ENDBRANCH  48  71
BRANCH  60  81
ATOM     81  C   UNL A   1      49.575  27.133  25.620  1.00  0.00    -0.014 A 
ATOM     82  C   UNL A   1      49.882  27.447  24.285  1.00  0.00     0.010 A 
ATOM     83  C   UNL A   1      50.569  26.546  26.428  1.00  0.00     0.010 A 
ATOM     84  C   UNL A   1      51.153  27.171  23.768  1.00  0.00     0.020 A 
ATOM     85  C   UNL A   1      51.848  26.297  25.924  1.00  0.00     0.020 A 
ATOM     86  C   UNL A   1      52.131  26.604  24.593  1.00  0.00     0.054 A 
BRANCH  86  87
ATOM     87  S   UNL A   1      53.793  26.326  23.920  1.00  0.00     0.124 S 
ATOM     88  O   UNL A   1      53.519  26.135  22.498  1.00  0.00    -0.237 OA
ATOM     89  O   UNL A   1      54.488  27.564  24.265  1.00  0.00    -0.237 OA
ATOM     90  O   UNL A   1      54.262  25.137  24.629  1.00  0.00    -0.744 OA
ENDBRANCH  86  87
ENDBRANCH  60  81
ENDBRANCH  34  35
ENDBRANCH  27  29
ENDBRANCH  26  27
ENDBRANCH  25  26
ENDBRANCH  24  25
ENDBRANCH  23  24
ENDBRANCH  22  23
ENDBRANCH   1  22
TORSDOF 23
ENDMDL
MODEL 3
REMARK VINA RESULT:      -9.0      7.597     13.390
REMARK SMILES O=C(C[C@@H]1C[N@@H+](C[C@H]2CCOC2)CCO1)OCCOCCOCCOC(=O)c1ccc(-c2c3nc(c(-c4ccc(S(=O)(=O)[O-])cc4)c4ccc([nH]4)c(-c4ccc(S(=O)(=O)[O-])cc4)c4nc(c(-c5ccc(S(=O)(=O)[O-])cc5)c5ccc2[nH]5)C=C4)C=C3)cc1
REMARK SMILES IDX 20 1 19 2 18 3 17 4 16 5 2 6 1 7 3 8 4 9 5 10 15 11 6 12
REMARK SMILES IDX 14 13 13 14 7 16 8 17 9 18 12 19 10 20 11 21 21 22 22 23
REMARK SMILES IDX 23 24 24 25 25 26 26 27 27 28 28 29 29 30 87 31 30 32 86 33
REMARK SMILES IDX 31 34 32 35 33 36 80 37 34 38 85 39 79 40 81 41 35 42 84 43
REMARK SMILES IDX 78 44 77 45 36 47 66 48 47 49 65 50 48 51 51 52 64 53 82 54
REMARK SMILES IDX 49 55 50 56 63 58 83 59 52 60 37 61 38 62 46 63 39 64 45 65
REMARK SMILES IDX 40 66 41 67 42 68 43 69 44 70 67 71 68 72 76 73 69 74 75 75
REMARK SMILES IDX 70 76 71 77 72 78 73 79 74 80 53 81 54 82 62 83 55 84 61 85
REMARK SMILES IDX 56 86 57 87 58 88 59 89 60 90
REMARK H PARENT 6 15 81 46 51 57
REMARK Flexibility Score: inf
ROOT
ATOM      1  C   UNL A   1      35.019  31.777  28.548  1.00  0.00     0.188 C 
ENDROOT
BRANCH   1   2
ATOM      2  O   UNL A   1      33.637  31.784  28.264  1.00  0.00    -0.376 OA
BRANCH   2   3
ATOM      3  C   UNL A   1      33.197  31.020  27.160  1.00  0.00     0.202 C 
BRANCH   3   4
ATOM      4  C   UNL A   1      33.927  29.702  26.931  1.00  0.00     0.261 C 
BRANCH   4   5
ATOM      5  O   UNL A   1      33.401  28.477  27.522  1.00  0.00    -0.463 OA
BRANCH   5   6
ATOM      6  C   UNL A   1      32.315  27.704  27.341  1.00  0.00     0.308 C 
ATOM      7  O   UNL A   1      31.285  27.991  27.953  1.00  0.00    -0.252 OA
BRANCH   6   8
ATOM      8  C   UNL A   1      32.352  26.434  26.532  1.00  0.00     0.160 C 
BRANCH   8   9
ATOM      9  C   UNL A   1      31.655  26.502  25.202  1.00  0.00     0.184 C 
ATOM     10  C   UNL A   1      30.302  25.735  25.258  1.00  0.00     0.295 C 
ATOM     11  O   UNL A   1      32.450  25.966  24.150  1.00  0.00    -0.366 OA
ATOM     12  N   UNL A   1      29.546  25.768  23.994  1.00  0.00    -0.331 N 
ATOM     13  C   UNL A   1      31.823  26.233  22.901  1.00  0.00     0.222 C 
ATOM     14  C   UNL A   1      30.425  25.589  22.829  1.00  0.00     0.291 C 
ATOM     15  H   UNL A   1      28.949  24.942  23.953  1.00  0.00     0.348 HD
BRANCH  12  16
ATOM     16  C   UNL A   1      28.530  26.835  23.940  1.00  0.00     0.268 C 
BRANCH  16  17
ATOM     17  C   UNL A   1      28.911  28.027  23.081  1.00  0.00     0.072 C 
ATOM     18  C   UNL A   1      27.789  28.928  22.624  1.00  0.00     0.040 C 
ATOM     19  C   UNL A   1      29.881  29.062  23.607  1.00  0.00     0.169 C 
ATOM     20  C   UNL A   1      28.610  29.921  21.835  1.00  0.00     0.160 C 
ATOM     21  O   UNL A   1      29.796  30.133  22.627  1.00  0.00    -0.381 OA
ENDBRANCH  16  17
ENDBRANCH  12  16
ENDBRANCH   8   9
ENDBRANCH   6   8
ENDBRANCH   5   6
ENDBRANCH   4   5
ENDBRANCH   3   4
ENDBRANCH   2   3
ENDBRANCH   1   2
BRANCH   1  22
ATOM     22  C   UNL A   1      35.774  33.088  28.307  1.00  0.00     0.188 C 
BRANCH  22  23
ATOM     23  O   UNL A   1      35.364  34.271  28.970  1.00  0.00    -0.376 OA
BRANCH  23  24
ATOM     24  C   UNL A   1      34.487  35.162  28.302  1.00  0.00     0.202 C 
BRANCH  24  25
ATOM     25  C   UNL A   1      33.182  35.590  29.001  1.00  0.00     0.261 C 
BRANCH  25  26
ATOM     26  O   UNL A   1      32.803  34.888  30.203  1.00  0.00    -0.460 OA
BRANCH  26  27
ATOM     27  C   UNL A   1      32.951  35.553  31.379  1.00  0.00     0.338 C 
ATOM     28  O   UNL A   1      32.244  36.466  31.790  1.00  0.00    -0.246 OA
BRANCH  27  29
ATOM     29  C   UNL A   1      34.010  34.926  32.216  1.00  0.00     0.060 A 
ATOM     30  C   UNL A   1      35.313  35.458  32.208  1.00  0.00     0.016 A 
ATOM     31  C   UNL A   1      33.739  33.779  32.961  1.00  0.00     0.016 A 
ATOM     32  C   UNL A   1      36.353  34.817  32.899  1.00  0.00     0.010 A 
ATOM     33  C   UNL A   1      34.784  33.126  33.628  1.00  0.00     0.010 A 
ATOM     34  C   UNL A   1      36.105  33.613  33.568  1.00  0.00    -0.014 A 
BRANCH  34  35
ATOM     35  C   UNL A   1      37.215  32.720  34.008  1.00  0.00     0.031 A 
ATOM     36  C   UNL A   1      37.926  33.057  35.294  1.00  0.00     0.074 A 
ATOM     37  C   UNL A   1      37.651  31.683  33.270  1.00  0.00     0.049 A 
ATOM     38  N   UNL A   1      39.037  32.576  35.786  1.00  0.00    -0.248 NA
ATOM     39  C   UNL A   1      37.297  34.096  36.125  1.00  0.00     0.031 C 
ATOM     40  C   UNL A   1      37.035  31.199  32.038  1.00  0.00     0.029 A 
ATOM     41  N   UNL A   1      38.750  30.871  33.440  1.00  0.00    -0.354 N 
ATOM     42  C   UNL A   1      39.264  33.280  36.964  1.00  0.00     0.074 A 
ATOM     43  C   UNL A   1      38.180  34.229  37.102  1.00  0.00     0.031 C 
ATOM     44  C   UNL A   1      37.786  30.198  31.541  1.00  0.00     0.029 A 
ATOM     45  C   UNL A   1      38.962  30.005  32.392  1.00  0.00     0.049 A 
ATOM     46  H   UNL A   1      39.328  30.905  34.236  1.00  0.00     0.167 HD
ATOM     47  C   UNL A   1      40.284  33.161  37.848  1.00  0.00     0.031 A 
ATOM     48  C   UNL A   1      40.003  29.189  32.119  1.00  0.00     0.031 A 
ATOM     49  C   UNL A   1      41.376  32.235  37.698  1.00  0.00     0.049 A 
ATOM     50  C   UNL A   1      41.172  29.114  33.071  1.00  0.00     0.074 A 
ATOM     51  C   UNL A   1      42.447  32.023  38.550  1.00  0.00     0.029 A 
ATOM     52  N   UNL A   1      41.550  31.380  36.620  1.00  0.00    -0.354 N 
ATOM     53  N   UNL A   1      41.368  29.774  34.187  1.00  0.00    -0.248 NA
ATOM     54  C   UNL A   1      42.257  28.182  32.728  1.00  0.00     0.031 C 
ATOM     55  C   UNL A   1      43.304  31.096  37.952  1.00  0.00     0.029 A 
ATOM     56  C   UNL A   1      42.727  30.664  36.768  1.00  0.00     0.049 A 
ATOM     57  H   UNL A   1      40.928  31.295  35.861  1.00  0.00     0.167 HD
ATOM     58  C   UNL A   1      42.579  29.312  34.697  1.00  0.00     0.074 A 
ATOM     59  C   UNL A   1      43.072  28.318  33.767  1.00  0.00     0.031 C 
ATOM     60  C   UNL A   1      43.215  29.672  35.840  1.00  0.00     0.031 A 
BRANCH  47  61
ATOM     61  C   UNL A   1      40.300  34.112  39.018  1.00  0.00    -0.014 A 
ATOM     62  C   UNL A   1      40.944  35.361  38.949  1.00  0.00     0.010 A 
ATOM     63  C   UNL A   1      39.665  33.740  40.218  1.00  0.00     0.010 A 
ATOM     64  C   UNL A   1      41.016  36.184  40.077  1.00  0.00     0.020 A 
ATOM     65  C   UNL A   1      39.702  34.575  41.337  1.00  0.00     0.020 A 
ATOM     66  C   UNL A   1      40.403  35.780  41.267  1.00  0.00     0.054 A 
BRANCH  66  67
ATOM     67  S   UNL A   1      40.538  36.851  42.724  1.00  0.00     0.124 S 
ATOM     68  O   UNL A   1      40.706  38.168  42.114  1.00  0.00    -0.237 OA
ATOM     69  O   UNL A   1      39.264  36.631  43.403  1.00  0.00    -0.237 OA
ATOM     70  O   UNL A   1      41.712  36.338  43.426  1.00  0.00    -0.744 OA
ENDBRANCH  66  67
ENDBRANCH  47  61
BRANCH  48  71
ATOM     71  C   UNL A   1      39.993  28.396  30.858  1.00  0.00    -0.014 A 
ATOM     72  C   UNL A   1      40.866  28.709  29.802  1.00  0.00     0.010 A 
ATOM     73  C   UNL A   1      39.142  27.280  30.732  1.00  0.00     0.010 A 
ATOM     74  C   UNL A   1      40.904  27.911  28.653  1.00  0.00     0.020 A 
ATOM     75  C   UNL A   1      39.197  26.466  29.597  1.00  0.00     0.020 A 
ATOM     76  C   UNL A   1      40.081  26.785  28.566  1.00  0.00     0.054 A 
BRANCH  76  77
ATOM     77  S   UNL A   1      40.241  25.692  27.125  1.00  0.00     0.124 S 
ATOM     78  O   UNL A   1      41.252  24.740  27.572  1.00  0.00    -0.237 OA
ATOM     79  O   UNL A   1      38.888  25.163  26.983  1.00  0.00    -0.237 OA
ATOM     80  O   UNL A   1      40.660  26.596  26.055  1.00  0.00    -0.744 OA
ENDBRANCH  76  77
ENDBRANCH  48  71
BRANCH  60  81
ATOM     81  C   UNL A   1      44.493  28.957  36.205  1.00  0.00    -0.014 A 
ATOM     82  C   UNL A   1      45.756  29.470  35.861  1.00  0.00     0.010 A 
ATOM     83  C   UNL A   1      44.425  27.796  37.000  1.00  0.00     0.010 A 
ATOM     84  C   UNL A   1      46.923  28.831  36.294  1.00  0.00     0.020 A 
ATOM     85  C   UNL A   1      45.587  27.171  37.460  1.00  0.00     0.020 A 
ATOM     86  C   UNL A   1      46.831  27.689  37.097  1.00  0.00     0.054 A 
BRANCH  86  87
ATOM     87  S   UNL A   1      48.358  26.922  37.709  1.00  0.00     0.124 S 
ATOM     88  O   UNL A   1      49.037  28.052  38.337  1.00  0.00    -0.237 OA
ATOM     89  O   UNL A   1      47.857  25.901  38.626  1.00  0.00    -0.237 OA
ATOM     90  O   UNL A   1      48.997  26.406  36.500  1.00  0.00    -0.744 OA
ENDBRANCH  86  87
ENDBRANCH  60  81
ENDBRANCH  34  35
ENDBRANCH  27  29
ENDBRANCH  26  27
ENDBRANCH  25  26
ENDBRANCH  24  25
ENDBRANCH  23  24
ENDBRANCH  22  23
ENDBRANCH   1  22
TORSDOF 23
ENDMDL
