MODEL 1
REMARK VINA RESULT:      -7.8      0.000      0.000
REMARK SMILES Cc1cc(F)ccc1OC1(C(=O)OCCOCCOCCOC(=O)c2ccc(-c3c4nc(c(-c5ccc(S(=O)(=O)[O-])cc5)c5ccc([nH]5)c(-c5ccc(S(=O)(=O)[O-])cc5)c5nc(c(-c6ccc(S(=O)(=O)[O-])cc6)c6ccc3[nH]6)C=C5)C=C4)cc2)CCN(C(=O)[C@H]2CCOC2)CC1
REMARK SMILES IDX 18 1 17 2 16 3 15 4 14 5 13 6 11 7 12 8 10 9 85 10 96 11
REMARK SMILES IDX 86 12 95 13 87 14 88 15 89 16 9 17 8 18 1 19 2 20 3 21 4 22
REMARK SMILES IDX 7 23 5 24 6 25 90 26 91 27 94 28 92 29 93 30 19 31 20 32
REMARK SMILES IDX 21 33 22 34 23 35 24 36 25 37 26 38 84 39 27 40 83 41 28 42
REMARK SMILES IDX 29 43 30 44 77 45 31 46 82 47 76 48 78 49 32 50 81 51 75 52
REMARK SMILES IDX 74 53 33 55 63 56 44 57 62 58 45 59 48 60 61 61 79 62 46 63
REMARK SMILES IDX 47 64 60 66 80 67 49 68 34 69 35 70 43 71 36 72 42 73 37 74
REMARK SMILES IDX 38 75 39 76 40 77 41 78 64 79 65 80 73 81 66 82 72 83 67 84
REMARK SMILES IDX 68 85 69 86 70 87 71 88 50 89 51 90 59 91 52 92 58 93 53 94
REMARK SMILES IDX 54 95 55 96 56 97 57 98
REMARK H PARENT 78 54 48 65
REMARK Flexibility Score: inf
ROOT
ATOM      1  C   UNL A   1      34.363  34.064  31.148  1.00  0.00     0.188 C 
ENDROOT
BRANCH   1   2
ATOM      2  C   UNL A   1      35.602  34.174  32.039  1.00  0.00     0.188 C 
BRANCH   2   3
ATOM      3  O   UNL A   1      35.365  34.481  33.406  1.00  0.00    -0.376 OA
BRANCH   3   4
ATOM      4  C   UNL A   1      36.168  33.796  34.366  1.00  0.00     0.202 C 
BRANCH   4   5
ATOM      5  C   UNL A   1      36.779  32.457  33.922  1.00  0.00     0.261 C 
BRANCH   5   6
ATOM      6  O   UNL A   1      38.136  32.253  34.379  1.00  0.00    -0.460 OA
BRANCH   6   7
ATOM      7  C   UNL A   1      38.292  31.843  35.672  1.00  0.00     0.350 C 
ATOM      8  O   UNL A   1      37.471  31.131  36.248  1.00  0.00    -0.247 OA
BRANCH   7   9
ATOM      9  C   UNL A   1      39.612  32.335  36.367  1.00  0.00     0.209 C 
ATOM     10  C   UNL A   1      40.417  33.308  35.511  1.00  0.00     0.082 C 
ATOM     11  C   UNL A   1      39.077  32.857  37.704  1.00  0.00     0.082 C 
ATOM     12  C   UNL A   1      40.598  34.725  36.044  1.00  0.00     0.124 C 
ATOM     13  C   UNL A   1      39.855  33.976  38.345  1.00  0.00     0.124 C 
ATOM     14  N   UNL A   1      40.235  35.040  37.424  1.00  0.00    -0.342 N 
ATOM     15  C   UNL A   1      40.497  36.357  37.815  1.00  0.00     0.228 C 
ATOM     16  O   UNL A   1      40.917  37.185  37.000  1.00  0.00    -0.274 OA
BRANCH   9  17
ATOM     17  O   UNL A   1      40.282  31.055  36.443  1.00  0.00    -0.475 OA
BRANCH  17  18
ATOM     18  C   UNL A   1      41.287  30.447  35.767  1.00  0.00     0.124 A 
ATOM     19  C   UNL A   1      40.242  29.431  33.603  1.00  0.00     0.048 C 
ATOM     20  C   UNL A   1      41.349  29.757  34.548  1.00  0.00    -0.006 A 
ATOM     21  C   UNL A   1      42.587  29.191  34.141  1.00  0.00     0.046 A 
ATOM     22  C   UNL A   1      43.724  29.274  34.926  1.00  0.00     0.123 A 
ATOM     23  C   UNL A   1      42.468  30.498  36.547  1.00  0.00     0.050 A 
ATOM     24  F   UNL A   1      44.859  28.701  34.509  1.00  0.00    -0.207 F 
ATOM     25  C   UNL A   1      43.674  29.919  36.141  1.00  0.00     0.043 A 
ENDBRANCH  17  18
ENDBRANCH   9  17
BRANCH  15  26
ATOM     26  C   UNL A   1      40.286  36.750  39.268  1.00  0.00     0.107 C 
ATOM     27  C   UNL A   1      41.071  37.985  39.660  1.00  0.00     0.044 C 
ATOM     28  C   UNL A   1      38.857  37.199  39.527  1.00  0.00     0.173 C 
ATOM     29  C   UNL A   1      40.230  38.614  40.754  1.00  0.00     0.161 C 
ATOM     30  O   UNL A   1      38.902  38.091  40.647  1.00  0.00    -0.381 OA
ENDBRANCH  15  26
ENDBRANCH   7   9
ENDBRANCH   6   7
ENDBRANCH   5   6
ENDBRANCH   4   5
ENDBRANCH   3   4
ENDBRANCH   2   3
ENDBRANCH   1   2
BRANCH   1  31
ATOM     31  O   UNL A   1      34.357  34.894  29.990  1.00  0.00    -0.376 OA
BRANCH  31  32
ATOM     32  C   UNL A   1      33.956  34.250  28.774  1.00  0.00     0.202 C 
BRANCH  32  33
ATOM     33  C   UNL A   1      34.809  33.042  28.333  1.00  0.00     0.261 C 
BRANCH  33  34
ATOM     34  O   UNL A   1      34.385  31.773  28.877  1.00  0.00    -0.460 OA
BRANCH  34  35
ATOM     35  C   UNL A   1      34.611  30.668  28.128  1.00  0.00     0.338 C 
ATOM     36  O   UNL A   1      33.898  30.246  27.232  1.00  0.00    -0.246 OA
BRANCH  35  37
ATOM     37  C   UNL A   1      36.004  30.205  28.379  1.00  0.00     0.060 A 
ATOM     38  C   UNL A   1      36.313  29.707  29.653  1.00  0.00     0.016 A 
ATOM     39  C   UNL A   1      36.973  30.177  27.369  1.00  0.00     0.016 A 
ATOM     40  C   UNL A   1      37.598  29.231  29.933  1.00  0.00     0.010 A 
ATOM     41  C   UNL A   1      38.260  29.707  27.652  1.00  0.00     0.010 A 
ATOM     42  C   UNL A   1      38.590  29.266  28.945  1.00  0.00    -0.014 A 
BRANCH  42  43
ATOM     43  C   UNL A   1      40.012  29.051  29.319  1.00  0.00     0.031 A 
ATOM     44  C   UNL A   1      40.650  27.737  28.950  1.00  0.00     0.074 A 
ATOM     45  C   UNL A   1      40.741  29.991  29.945  1.00  0.00     0.049 A 
ATOM     46  N   UNL A   1      41.870  27.316  29.161  1.00  0.00    -0.248 NA
ATOM     47  C   UNL A   1      39.790  26.769  28.249  1.00  0.00     0.031 C 
ATOM     48  C   UNL A   1      40.269  31.322  30.322  1.00  0.00     0.029 A 
ATOM     49  N   UNL A   1      42.048  29.964  30.369  1.00  0.00    -0.354 N 
ATOM     50  C   UNL A   1      41.923  26.035  28.627  1.00  0.00     0.074 A 
ATOM     51  C   UNL A   1      40.605  25.736  28.111  1.00  0.00     0.031 C 
ATOM     52  C   UNL A   1      41.278  31.990  30.909  1.00  0.00     0.029 A 
ATOM     53  C   UNL A   1      42.457  31.123  30.982  1.00  0.00     0.049 A 
ATOM     54  H   UNL A   1      42.637  29.186  30.245  1.00  0.00     0.167 HD
ATOM     55  C   UNL A   1      42.970  25.178  28.564  1.00  0.00     0.031 A 
ATOM     56  C   UNL A   1      43.639  31.446  31.547  1.00  0.00     0.031 A 
ATOM     57  C   UNL A   1      44.276  25.452  29.102  1.00  0.00     0.049 A 
ATOM     58  C   UNL A   1      44.766  30.441  31.555  1.00  0.00     0.074 A 
ATOM     59  C   UNL A   1      45.401  24.647  29.080  1.00  0.00     0.029 A 
ATOM     60  N   UNL A   1      44.626  26.612  29.776  1.00  0.00    -0.354 N 
ATOM     61  N   UNL A   1      44.809  29.242  31.022  1.00  0.00    -0.248 NA
ATOM     62  C   UNL A   1      46.005  30.838  32.242  1.00  0.00     0.031 C 
ATOM     63  C   UNL A   1      46.414  25.293  29.798  1.00  0.00     0.029 A 
ATOM     64  C   UNL A   1      45.940  26.530  30.208  1.00  0.00     0.049 A 
ATOM     65  H   UNL A   1      44.029  27.380  29.925  1.00  0.00     0.167 HD
ATOM     66  C   UNL A   1      46.086  28.754  31.287  1.00  0.00     0.074 A 
ATOM     67  C   UNL A   1      46.787  29.789  32.019  1.00  0.00     0.031 C 
ATOM     68  C   UNL A   1      46.630  27.559  30.945  1.00  0.00     0.031 A 
BRANCH  55  69
ATOM     69  C   UNL A   1      42.712  23.833  27.939  1.00  0.00    -0.014 A 
ATOM     70  C   UNL A   1      42.488  22.689  28.728  1.00  0.00     0.010 A 
ATOM     71  C   UNL A   1      42.720  23.709  26.539  1.00  0.00     0.010 A 
ATOM     72  C   UNL A   1      42.344  21.436  28.128  1.00  0.00     0.020 A 
ATOM     73  C   UNL A   1      42.544  22.463  25.934  1.00  0.00     0.020 A 
ATOM     74  C   UNL A   1      42.386  21.329  26.735  1.00  0.00     0.054 A 
BRANCH  74  75
ATOM     75  S   UNL A   1      42.232  19.688  25.981  1.00  0.00     0.124 S 
ATOM     76  O   UNL A   1      43.403  19.647  25.109  1.00  0.00    -0.237 OA
ATOM     77  O   UNL A   1      42.278  18.796  27.138  1.00  0.00    -0.237 OA
ATOM     78  O   UNL A   1      40.945  19.742  25.291  1.00  0.00    -0.744 OA
ENDBRANCH  74  75
ENDBRANCH  55  69
BRANCH  56  79
ATOM     79  C   UNL A   1      43.826  32.790  32.160  1.00  0.00    -0.014 A 
ATOM     80  C   UNL A   1      44.226  33.884  31.373  1.00  0.00     0.010 A 
ATOM     81  C   UNL A   1      43.596  32.987  33.534  1.00  0.00     0.010 A 
ATOM     82  C   UNL A   1      44.392  35.148  31.947  1.00  0.00     0.020 A 
ATOM     83  C   UNL A   1      43.735  34.254  34.106  1.00  0.00     0.020 A 
ATOM     84  C   UNL A   1      44.137  35.328  33.309  1.00  0.00     0.054 A 
BRANCH  84  85
ATOM     85  S   UNL A   1      44.280  36.994  34.013  1.00  0.00     0.124 S 
ATOM     86  O   UNL A   1      43.115  37.666  33.446  1.00  0.00    -0.237 OA
ATOM     87  O   UNL A   1      44.223  36.733  35.449  1.00  0.00    -0.237 OA
ATOM     88  O   UNL A   1      45.574  37.463  33.523  1.00  0.00    -0.744 OA
ENDBRANCH  84  85
ENDBRANCH  56  79
BRANCH  68  89
ATOM     89  C   UNL A   1      48.067  27.302  31.328  1.00  0.00    -0.014 A 
ATOM     90  C   UNL A   1      48.410  26.785  32.589  1.00  0.00     0.010 A 
ATOM     91  C   UNL A   1      49.085  27.520  30.380  1.00  0.00     0.010 A 
ATOM     92  C   UNL A   1      49.746  26.516  32.906  1.00  0.00     0.020 A 
ATOM     93  C   UNL A   1      50.418  27.226  30.683  1.00  0.00     0.020 A 
ATOM     94  C   UNL A   1      50.743  26.738  31.949  1.00  0.00     0.054 A 
BRANCH  94  95
ATOM     95  S   UNL A   1      52.461  26.335  32.366  1.00  0.00     0.124 S 
ATOM     96  O   UNL A   1      52.317  25.051  33.045  1.00  0.00    -0.237 OA
ATOM     97  O   UNL A   1      53.107  26.285  31.057  1.00  0.00    -0.237 OA
ATOM     98  O   UNL A   1      52.881  27.446  33.218  1.00  0.00    -0.744 OA
ENDBRANCH  94  95
ENDBRANCH  68  89
ENDBRANCH  42  43
ENDBRANCH  35  37
ENDBRANCH  34  35
ENDBRANCH  33  34
ENDBRANCH  32  33
ENDBRANCH  31  32
ENDBRANCH   1  31
TORSDOF 23
ENDMDL
MODEL 2
REMARK VINA RESULT:      -7.2      2.204      4.595
REMARK SMILES Cc1cc(F)ccc1OC1(C(=O)OCCOCCOCCOC(=O)c2ccc(-c3c4nc(c(-c5ccc(S(=O)(=O)[O-])cc5)c5ccc([nH]5)c(-c5ccc(S(=O)(=O)[O-])cc5)c5nc(c(-c6ccc(S(=O)(=O)[O-])cc6)c6ccc3[nH]6)C=C5)C=C4)cc2)CCN(C(=O)[C@H]2CCOC2)CC1
REMARK SMILES IDX 18 1 17 2 16 3 15 4 14 5 13 6 11 7 12 8 10 9 85 10 96 11
REMARK SMILES IDX 86 12 95 13 87 14 88 15 89 16 9 17 8 18 1 19 2 20 3 21 4 22
REMARK SMILES IDX 7 23 5 24 6 25 90 26 91 27 94 28 92 29 93 30 19 31 20 32
REMARK SMILES IDX 21 33 22 34 23 35 24 36 25 37 26 38 84 39 27 40 83 41 28 42
REMARK SMILES IDX 29 43 30 44 77 45 31 46 82 47 76 48 78 49 32 50 81 51 75 52
REMARK SMILES IDX 74 53 33 55 63 56 44 57 62 58 45 59 48 60 61 61 79 62 46 63
REMARK SMILES IDX 47 64 60 66 80 67 49 68 34 69 35 70 43 71 36 72 42 73 37 74
REMARK SMILES IDX 38 75 39 76 40 77 41 78 64 79 65 80 73 81 66 82 72 83 67 84
REMARK SMILES IDX 68 85 69 86 70 87 71 88 50 89 51 90 59 91 52 92 58 93 53 94
REMARK SMILES IDX 54 95 55 96 56 97 57 98
REMARK H PARENT 78 54 48 65
REMARK Flexibility Score: inf
ROOT
ATOM      1  C   UNL A   1      34.344  33.223  31.358  1.00  0.00     0.188 C 
ENDROOT
BRANCH   1   2
ATOM      2  C   UNL A   1      35.629  33.430  32.161  1.00  0.00     0.188 C 
BRANCH   2   3
ATOM      3  O   UNL A   1      36.136  32.288  32.838  1.00  0.00    -0.376 OA
BRANCH   3   4
ATOM      4  C   UNL A   1      37.546  32.077  32.772  1.00  0.00     0.202 C 
BRANCH   4   5
ATOM      5  C   UNL A   1      38.033  30.627  32.927  1.00  0.00     0.261 C 
BRANCH   5   6
ATOM      6  O   UNL A   1      39.454  30.510  33.170  1.00  0.00    -0.460 OA
BRANCH   6   7
ATOM      7  C   UNL A   1      39.834  30.194  34.443  1.00  0.00     0.350 C 
ATOM      8  O   UNL A   1      39.044  30.159  35.384  1.00  0.00    -0.247 OA
BRANCH   7   9
ATOM      9  C   UNL A   1      41.360  29.862  34.615  1.00  0.00     0.209 C 
ATOM     10  C   UNL A   1      41.757  29.590  36.063  1.00  0.00     0.082 C 
ATOM     11  C   UNL A   1      41.538  28.716  33.614  1.00  0.00     0.082 C 
ATOM     12  C   UNL A   1      42.273  28.195  36.397  1.00  0.00     0.124 C 
ATOM     13  C   UNL A   1      42.608  27.706  33.935  1.00  0.00     0.124 C 
ATOM     14  N   UNL A   1      42.607  27.261  35.323  1.00  0.00    -0.342 N 
ATOM     15  C   UNL A   1      43.121  26.033  35.751  1.00  0.00     0.228 C 
ATOM     16  O   UNL A   1      43.184  25.760  36.953  1.00  0.00    -0.274 OA
BRANCH   9  17
ATOM     17  O   UNL A   1      41.889  31.135  34.176  1.00  0.00    -0.475 OA
BRANCH  17  18
ATOM     18  C   UNL A   1      41.938  32.389  34.687  1.00  0.00     0.124 A 
ATOM     19  C   UNL A   1      40.342  33.863  33.242  1.00  0.00     0.048 C 
ATOM     20  C   UNL A   1      41.295  33.591  34.356  1.00  0.00    -0.006 A 
ATOM     21  C   UNL A   1      41.617  34.766  35.088  1.00  0.00     0.046 A 
ATOM     22  C   UNL A   1      42.568  34.766  36.094  1.00  0.00     0.123 A 
ATOM     23  C   UNL A   1      42.914  32.434  35.713  1.00  0.00     0.050 A 
ATOM     24  F   UNL A   1      42.853  35.905  36.735  1.00  0.00    -0.207 F 
ATOM     25  C   UNL A   1      43.232  33.603  36.410  1.00  0.00     0.043 A 
ENDBRANCH  17  18
ENDBRANCH   9  17
BRANCH  15  26
ATOM     26  C   UNL A   1      43.629  25.044  34.713  1.00  0.00     0.107 C 
ATOM     27  C   UNL A   1      44.988  24.475  35.063  1.00  0.00     0.044 C 
ATOM     28  C   UNL A   1      42.773  23.790  34.665  1.00  0.00     0.173 C 
ATOM     29  C   UNL A   1      44.976  23.099  34.427  1.00  0.00     0.161 C 
ATOM     30  O   UNL A   1      43.614  22.735  34.184  1.00  0.00    -0.381 OA
ENDBRANCH  15  26
ENDBRANCH   7   9
ENDBRANCH   6   7
ENDBRANCH   5   6
ENDBRANCH   4   5
ENDBRANCH   3   4
ENDBRANCH   2   3
ENDBRANCH   1   2
BRANCH   1  31
ATOM     31  O   UNL A   1      33.980  34.288  30.486  1.00  0.00    -0.376 OA
BRANCH  31  32
ATOM     32  C   UNL A   1      33.992  33.972  29.089  1.00  0.00     0.202 C 
BRANCH  32  33
ATOM     33  C   UNL A   1      34.940  32.834  28.659  1.00  0.00     0.261 C 
BRANCH  33  34
ATOM     34  O   UNL A   1      34.501  31.509  29.029  1.00  0.00    -0.460 OA
BRANCH  34  35
ATOM     35  C   UNL A   1      34.737  30.506  28.150  1.00  0.00     0.338 C 
ATOM     36  O   UNL A   1      34.023  30.184  27.215  1.00  0.00    -0.246 OA
BRANCH  35  37
ATOM     37  C   UNL A   1      36.139  30.039  28.334  1.00  0.00     0.060 A 
ATOM     38  C   UNL A   1      36.493  29.486  29.573  1.00  0.00     0.016 A 
ATOM     39  C   UNL A   1      37.074  30.062  27.292  1.00  0.00     0.016 A 
ATOM     40  C   UNL A   1      37.787  29.005  29.789  1.00  0.00     0.010 A 
ATOM     41  C   UNL A   1      38.371  29.585  27.511  1.00  0.00     0.010 A 
ATOM     42  C   UNL A   1      38.746  29.089  28.771  1.00  0.00    -0.014 A 
BRANCH  42  43
ATOM     43  C   UNL A   1      40.181  28.864  29.087  1.00  0.00     0.031 A 
ATOM     44  C   UNL A   1      40.786  27.534  28.724  1.00  0.00     0.074 A 
ATOM     45  C   UNL A   1      40.947  29.810  29.656  1.00  0.00     0.049 A 
ATOM     46  N   UNL A   1      42.009  27.102  28.891  1.00  0.00    -0.248 NA
ATOM     47  C   UNL A   1      39.884  26.560  28.086  1.00  0.00     0.031 C 
ATOM     48  C   UNL A   1      40.509  31.156  30.021  1.00  0.00     0.029 A 
ATOM     49  N   UNL A   1      42.272  29.776  30.023  1.00  0.00    -0.354 N 
ATOM     50  C   UNL A   1      42.023  25.807  28.388  1.00  0.00     0.074 A 
ATOM     51  C   UNL A   1      40.679  25.513  27.938  1.00  0.00     0.031 C 
ATOM     52  C   UNL A   1      41.551  31.825  30.546  1.00  0.00     0.029 A 
ATOM     53  C   UNL A   1      42.721  30.945  30.589  1.00  0.00     0.049 A 
ATOM     54  H   UNL A   1      42.846  28.987  29.893  1.00  0.00     0.167 HD
ATOM     55  C   UNL A   1      43.056  24.936  28.300  1.00  0.00     0.031 A 
ATOM     56  C   UNL A   1      43.931  31.265  31.093  1.00  0.00     0.031 A 
ATOM     57  C   UNL A   1      44.387  25.206  28.774  1.00  0.00     0.049 A 
ATOM     58  C   UNL A   1      45.045  30.246  31.076  1.00  0.00     0.074 A 
ATOM     59  C   UNL A   1      45.500  24.385  28.723  1.00  0.00     0.029 A 
ATOM     60  N   UNL A   1      44.780  26.377  29.402  1.00  0.00    -0.354 N 
ATOM     61  N   UNL A   1      45.050  29.034  30.573  1.00  0.00    -0.248 NA
ATOM     62  C   UNL A   1      46.318  30.643  31.698  1.00  0.00     0.031 C 
ATOM     63  C   UNL A   1      46.551  25.036  29.378  1.00  0.00     0.029 A 
ATOM     64  C   UNL A   1      46.111  26.288  29.778  1.00  0.00     0.049 A 
ATOM     65  H   UNL A   1      44.200  27.156  29.558  1.00  0.00     0.167 HD
ATOM     66  C   UNL A   1      46.332  28.536  30.793  1.00  0.00     0.074 A 
ATOM     67  C   UNL A   1      47.076  29.579  31.468  1.00  0.00     0.031 C 
ATOM     68  C   UNL A   1      46.846  27.325  30.458  1.00  0.00     0.031 A 
BRANCH  55  69
ATOM     69  C   UNL A   1      42.754  23.579  27.721  1.00  0.00    -0.014 A 
ATOM     70  C   UNL A   1      42.241  22.539  28.519  1.00  0.00     0.010 A 
ATOM     71  C   UNL A   1      43.013  23.335  26.361  1.00  0.00     0.010 A 
ATOM     72  C   UNL A   1      42.057  21.264  27.981  1.00  0.00     0.020 A 
ATOM     73  C   UNL A   1      42.800  22.070  25.812  1.00  0.00     0.020 A 
ATOM     74  C   UNL A   1      42.350  21.034  26.634  1.00  0.00     0.054 A 
BRANCH  74  75
ATOM     75  S   UNL A   1      42.136  19.361  25.968  1.00  0.00     0.124 S 
ATOM     76  O   UNL A   1      40.695  19.312  25.739  1.00  0.00    -0.237 OA
ATOM     77  O   UNL A   1      42.964  19.386  24.764  1.00  0.00    -0.237 OA
ATOM     78  O   UNL A   1      42.626  18.496  27.038  1.00  0.00    -0.744 OA
ENDBRANCH  74  75
ENDBRANCH  55  69
BRANCH  56  79
ATOM     79  C   UNL A   1      44.162  32.622  31.664  1.00  0.00    -0.014 A 
ATOM     80  C   UNL A   1      43.519  33.745  31.115  1.00  0.00     0.010 A 
ATOM     81  C   UNL A   1      45.018  32.797  32.767  1.00  0.00     0.010 A 
ATOM     82  C   UNL A   1      43.727  35.017  31.658  1.00  0.00     0.020 A 
ATOM     83  C   UNL A   1      45.208  34.062  33.328  1.00  0.00     0.020 A 
ATOM     84  C   UNL A   1      44.564  35.167  32.766  1.00  0.00     0.054 A 
BRANCH  84  85
ATOM     85  S   UNL A   1      44.754  36.815  33.502  1.00  0.00     0.124 S 
ATOM     86  O   UNL A   1      43.406  37.362  33.376  1.00  0.00    -0.237 OA
ATOM     87  O   UNL A   1      45.185  36.502  34.862  1.00  0.00    -0.237 OA
ATOM     88  O   UNL A   1      45.769  37.449  32.664  1.00  0.00    -0.744 OA
ENDBRANCH  84  85
ENDBRANCH  56  79
BRANCH  68  89
ATOM     89  C   UNL A   1      48.295  27.060  30.784  1.00  0.00    -0.014 A 
ATOM     90  C   UNL A   1      49.321  27.383  29.880  1.00  0.00     0.010 A 
ATOM     91  C   UNL A   1      48.637  26.539  32.047  1.00  0.00     0.010 A 
ATOM     92  C   UNL A   1      50.661  27.166  30.222  1.00  0.00     0.020 A 
ATOM     93  C   UNL A   1      49.975  26.347  32.402  1.00  0.00     0.020 A 
ATOM     94  C   UNL A   1      50.980  26.650  31.482  1.00  0.00     0.054 A 
BRANCH  94  95
ATOM     95  S   UNL A   1      52.725  26.424  31.920  1.00  0.00     0.124 S 
ATOM     96  O   UNL A   1      52.904  27.413  32.979  1.00  0.00    -0.237 OA
ATOM     97  O   UNL A   1      52.771  25.028  32.349  1.00  0.00    -0.237 OA
ATOM     98  O   UNL A   1      53.435  26.709  30.675  1.00  0.00    -0.744 OA
ENDBRANCH  94  95
ENDBRANCH  68  89
ENDBRANCH  42  43
ENDBRANCH  35  37
ENDBRANCH  34  35
ENDBRANCH  33  34
ENDBRANCH  32  33
ENDBRANCH  31  32
ENDBRANCH   1  31
TORSDOF 23
ENDMDL
MODEL 3
REMARK VINA RESULT:      -7.1      3.886      9.586
REMARK SMILES Cc1cc(F)ccc1OC1(C(=O)OCCOCCOCCOC(=O)c2ccc(-c3c4nc(c(-c5ccc(S(=O)(=O)[O-])cc5)c5ccc([nH]5)c(-c5ccc(S(=O)(=O)[O-])cc5)c5nc(c(-c6ccc(S(=O)(=O)[O-])cc6)c6ccc3[nH]6)C=C5)C=C4)cc2)CCN(C(=O)[C@H]2CCOC2)CC1
REMARK SMILES IDX 18 1 17 2 16 3 15 4 14 5 13 6 11 7 12 8 10 9 85 10 96 11
REMARK SMILES IDX 86 12 95 13 87 14 88 15 89 16 9 17 8 18 1 19 2 20 3 21 4 22
REMARK SMILES IDX 7 23 5 24 6 25 90 26 91 27 94 28 92 29 93 30 19 31 20 32
REMARK SMILES IDX 21 33 22 34 23 35 24 36 25 37 26 38 84 39 27 40 83 41 28 42
REMARK SMILES IDX 29 43 30 44 77 45 31 46 82 47 76 48 78 49 32 50 81 51 75 52
REMARK SMILES IDX 74 53 33 55 63 56 44 57 62 58 45 59 48 60 61 61 79 62 46 63
REMARK SMILES IDX 47 64 60 66 80 67 49 68 34 69 35 70 43 71 36 72 42 73 37 74
REMARK SMILES IDX 38 75 39 76 40 77 41 78 64 79 65 80 73 81 66 82 72 83 67 84
REMARK SMILES IDX 68 85 69 86 70 87 71 88 50 89 51 90 59 91 52 92 58 93 53 94
REMARK SMILES IDX 54 95 55 96 56 97 57 98
REMARK H PARENT 78 54 48 65
REMARK Flexibility Score: inf
ROOT
ATOM      1  C   UNL A   1      37.642  32.256  31.643  1.00  0.00     0.188 C 
ENDROOT
BRANCH   1   2
ATOM      2  C   UNL A   1      37.353  33.651  32.201  1.00  0.00     0.188 C 
BRANCH   2   3
ATOM      3  O   UNL A   1      36.757  33.700  33.490  1.00  0.00    -0.376 OA
BRANCH   3   4
ATOM      4  C   UNL A   1      37.599  34.097  34.571  1.00  0.00     0.202 C 
BRANCH   4   5
ATOM      5  C   UNL A   1      38.884  34.855  34.201  1.00  0.00     0.261 C 
BRANCH   5   6
ATOM      6  O   UNL A   1      39.704  34.174  33.224  1.00  0.00    -0.460 OA
BRANCH   6   7
ATOM      7  C   UNL A   1      41.008  33.955  33.565  1.00  0.00     0.350 C 
ATOM      8  O   UNL A   1      41.396  33.930  34.732  1.00  0.00    -0.247 OA
BRANCH   7   9
ATOM      9  C   UNL A   1      41.979  33.721  32.353  1.00  0.00     0.209 C 
ATOM     10  C   UNL A   1      41.270  33.198  31.106  1.00  0.00     0.082 C 
ATOM     11  C   UNL A   1      42.669  35.084  32.245  1.00  0.00     0.082 C 
ATOM     12  C   UNL A   1      41.285  34.087  29.868  1.00  0.00     0.124 C 
ATOM     13  C   UNL A   1      43.138  35.491  30.872  1.00  0.00     0.124 C 
ATOM     14  N   UNL A   1      42.159  35.258  29.817  1.00  0.00    -0.342 N 
ATOM     15  C   UNL A   1      42.127  35.964  28.611  1.00  0.00     0.228 C 
ATOM     16  O   UNL A   1      41.338  35.646  27.715  1.00  0.00    -0.274 OA
BRANCH   9  17
ATOM     17  O   UNL A   1      42.788  32.679  32.948  1.00  0.00    -0.475 OA
BRANCH  17  18
ATOM     18  C   UNL A   1      43.437  31.581  32.493  1.00  0.00     0.124 A 
ATOM     19  C   UNL A   1      41.824  29.555  32.813  1.00  0.00     0.048 C 
ATOM     20  C   UNL A   1      43.085  30.227  32.386  1.00  0.00    -0.006 A 
ATOM     21  C   UNL A   1      44.046  29.305  31.891  1.00  0.00     0.046 A 
ATOM     22  C   UNL A   1      45.327  29.696  31.544  1.00  0.00     0.123 A 
ATOM     23  C   UNL A   1      44.762  31.939  32.140  1.00  0.00     0.050 A 
ATOM     24  F   UNL A   1      46.203  28.783  31.108  1.00  0.00    -0.207 F 
ATOM     25  C   UNL A   1      45.701  31.014  31.674  1.00  0.00     0.043 A 
ENDBRANCH  17  18
ENDBRANCH   9  17
BRANCH  15  26
ATOM     26  C   UNL A   1      43.100  37.114  28.403  1.00  0.00     0.107 C 
ATOM     27  C   UNL A   1      43.728  37.107  27.025  1.00  0.00     0.044 C 
ATOM     28  C   UNL A   1      42.390  38.458  28.412  1.00  0.00     0.173 C 
ATOM     29  C   UNL A   1      44.009  38.572  26.751  1.00  0.00     0.161 C 
ATOM     30  O   UNL A   1      43.192  39.352  27.630  1.00  0.00    -0.381 OA
ENDBRANCH  15  26
ENDBRANCH   7   9
ENDBRANCH   6   7
ENDBRANCH   5   6
ENDBRANCH   4   5
ENDBRANCH   3   4
ENDBRANCH   2   3
ENDBRANCH   1   2
BRANCH   1  31
ATOM     31  O   UNL A   1      38.044  31.278  32.596  1.00  0.00    -0.376 OA
BRANCH  31  32
ATOM     32  C   UNL A   1      37.428  29.992  32.456  1.00  0.00     0.202 C 
BRANCH  32  33
ATOM     33  C   UNL A   1      36.611  29.768  31.166  1.00  0.00     0.261 C 
BRANCH  33  34
ATOM     34  O   UNL A   1      37.171  28.795  30.258  1.00  0.00    -0.460 OA
BRANCH  34  35
ATOM     35  C   UNL A   1      37.363  29.180  28.974  1.00  0.00     0.338 C 
ATOM     36  O   UNL A   1      36.528  29.683  28.239  1.00  0.00    -0.246 OA
BRANCH  35  37
ATOM     37  C   UNL A   1      38.824  29.152  28.687  1.00  0.00     0.060 A 
ATOM     38  C   UNL A   1      39.235  29.232  27.349  1.00  0.00     0.016 A 
ATOM     39  C   UNL A   1      39.782  29.133  29.708  1.00  0.00     0.016 A 
ATOM     40  C   UNL A   1      40.596  29.240  27.028  1.00  0.00     0.010 A 
ATOM     41  C   UNL A   1      41.143  29.135  29.385  1.00  0.00     0.010 A 
ATOM     42  C   UNL A   1      41.558  29.151  28.042  1.00  0.00    -0.014 A 
BRANCH  42  43
ATOM     43  C   UNL A   1      42.972  28.856  27.695  1.00  0.00     0.031 A 
ATOM     44  C   UNL A   1      43.995  29.940  27.910  1.00  0.00     0.074 A 
ATOM     45  C   UNL A   1      43.362  27.658  27.225  1.00  0.00     0.049 A 
ATOM     46  N   UNL A   1      45.284  29.924  27.690  1.00  0.00    -0.248 NA
ATOM     47  C   UNL A   1      43.490  31.215  28.445  1.00  0.00     0.031 C 
ATOM     48  C   UNL A   1      42.491  26.504  27.010  1.00  0.00     0.029 A 
ATOM     49  N   UNL A   1      44.607  27.215  26.849  1.00  0.00    -0.354 N 
ATOM     50  C   UNL A   1      45.743  31.184  28.052  1.00  0.00     0.074 A 
ATOM     51  C   UNL A   1      44.590  31.949  28.476  1.00  0.00     0.031 C 
ATOM     52  C   UNL A   1      43.233  25.479  26.553  1.00  0.00     0.029 A 
ATOM     53  C   UNL A   1      44.625  25.914  26.409  1.00  0.00     0.049 A 
ATOM     54  H   UNL A   1      45.414  27.779  26.891  1.00  0.00     0.167 HD
ATOM     55  C   UNL A   1      47.007  31.669  28.039  1.00  0.00     0.031 A 
ATOM     56  C   UNL A   1      45.641  25.163  25.935  1.00  0.00     0.031 A 
ATOM     57  C   UNL A   1      48.155  30.928  27.589  1.00  0.00     0.049 A 
ATOM     58  C   UNL A   1      47.027  25.752  25.835  1.00  0.00     0.074 A 
ATOM     59  C   UNL A   1      49.477  31.335  27.545  1.00  0.00     0.029 A 
ATOM     60  N   UNL A   1      48.116  29.637  27.087  1.00  0.00    -0.354 N 
ATOM     61  N   UNL A   1      47.450  26.938  26.206  1.00  0.00    -0.248 NA
ATOM     62  C   UNL A   1      48.072  24.897  25.252  1.00  0.00     0.031 C 
ATOM     63  C   UNL A   1      50.229  30.312  26.957  1.00  0.00     0.029 A 
ATOM     64  C   UNL A   1      49.386  29.243  26.696  1.00  0.00     0.049 A 
ATOM     65  H   UNL A   1      47.307  29.082  27.019  1.00  0.00     0.167 HD
ATOM     66  C   UNL A   1      48.815  26.959  25.926  1.00  0.00     0.074 A 
ATOM     67  C   UNL A   1      49.147  25.667  25.363  1.00  0.00     0.031 C 
ATOM     68  C   UNL A   1      49.711  27.959  26.127  1.00  0.00     0.031 A 
BRANCH  55  69
ATOM     69  C   UNL A   1      47.192  33.099  28.472  1.00  0.00    -0.014 A 
ATOM     70  C   UNL A   1      47.570  33.424  29.788  1.00  0.00     0.010 A 
ATOM     71  C   UNL A   1      46.958  34.135  27.551  1.00  0.00     0.010 A 
ATOM     72  C   UNL A   1      47.644  34.759  30.192  1.00  0.00     0.020 A 
ATOM     73  C   UNL A   1      47.062  35.471  27.942  1.00  0.00     0.020 A 
ATOM     74  C   UNL A   1      47.377  35.774  29.269  1.00  0.00     0.054 A 
BRANCH  74  75
ATOM     75  S   UNL A   1      47.445  37.498  29.825  1.00  0.00     0.124 S 
ATOM     76  O   UNL A   1      46.124  37.989  29.442  1.00  0.00    -0.237 OA
ATOM     77  O   UNL A   1      47.672  37.364  31.262  1.00  0.00    -0.237 OA
ATOM     78  O   UNL A   1      48.562  38.063  29.071  1.00  0.00    -0.744 OA
ENDBRANCH  74  75
ENDBRANCH  55  69
BRANCH  56  79
ATOM     79  C   UNL A   1      45.389  23.757  25.511  1.00  0.00    -0.014 A 
ATOM     80  C   UNL A   1      45.397  22.716  26.456  1.00  0.00     0.010 A 
ATOM     81  C   UNL A   1      45.130  23.453  24.162  1.00  0.00     0.010 A 
ATOM     82  C   UNL A   1      45.150  21.397  26.059  1.00  0.00     0.020 A 
ATOM     83  C   UNL A   1      44.858  22.141  23.766  1.00  0.00     0.020 A 
ATOM     84  C   UNL A   1      44.874  21.119  24.718  1.00  0.00     0.054 A 
BRANCH  84  85
ATOM     85  S   UNL A   1      44.477  19.413  24.243  1.00  0.00     0.124 S 
ATOM     86  O   UNL A   1      45.564  18.662  24.864  1.00  0.00    -0.237 OA
ATOM     87  O   UNL A   1      43.156  19.222  24.836  1.00  0.00    -0.237 OA
ATOM     88  O   UNL A   1      44.497  19.451  22.783  1.00  0.00    -0.744 OA
ENDBRANCH  84  85
ENDBRANCH  56  79
BRANCH  68  89
ATOM     89  C   UNL A   1      51.152  27.696  25.766  1.00  0.00    -0.014 A 
ATOM     90  C   UNL A   1      52.052  27.145  26.694  1.00  0.00     0.010 A 
ATOM     91  C   UNL A   1      51.593  27.944  24.451  1.00  0.00     0.010 A 
ATOM     92  C   UNL A   1      53.374  26.872  26.323  1.00  0.00     0.020 A 
ATOM     93  C   UNL A   1      52.904  27.646  24.069  1.00  0.00     0.020 A 
ATOM     94  C   UNL A   1      53.791  27.123  25.011  1.00  0.00     0.054 A 
BRANCH  94  95
ATOM     95  S   UNL A   1      55.495  26.715  24.542  1.00  0.00     0.124 S 
ATOM     96  O   UNL A   1      55.478  26.949  23.101  1.00  0.00    -0.237 OA
ATOM     97  O   UNL A   1      56.282  27.665  25.324  1.00  0.00    -0.237 OA
ATOM     98  O   UNL A   1      55.640  25.317  24.944  1.00  0.00    -0.744 OA
ENDBRANCH  94  95
ENDBRANCH  68  89
ENDBRANCH  42  43
ENDBRANCH  35  37
ENDBRANCH  34  35
ENDBRANCH  33  34
ENDBRANCH  32  33
ENDBRANCH  31  32
ENDBRANCH   1  31
TORSDOF 23
ENDMDL
