MODEL 1
REMARK VINA RESULT:      -9.2      0.000      0.000
REMARK SMILES C/C(=N\NC(N)=S)c1nnn(-c2ccc(C(=O)OCCOCCOCCOC(=O)c3ccc(-c4c5nc(c(-c6ccc(S(=O)(=O)[O-])cc6)c6ccc([nH]6)c(-c6ccc(S(=O)(=O)[O-])cc6)c6nc(c(-c7ccc(S(=O)(=O)[O-])cc7)c7ccc4[nH]7)C=C6)C=C5)cc3)cc2)c1C
REMARK SMILES IDX 22 1 21 2 20 3 19 4 18 5 16 6 17 7 15 8 12 9 13 10 91 11
REMARK SMILES IDX 14 12 90 13 11 14 8 15 9 16 92 17 10 18 93 19 2 20 1 21 3 22
REMARK SMILES IDX 4 23 5 25 7 26 6 27 23 30 24 31 25 32 26 33 27 34 28 35
REMARK SMILES IDX 29 36 30 37 31 38 89 39 32 40 88 41 33 42 34 43 35 44 82 45
REMARK SMILES IDX 36 46 87 47 81 48 83 49 37 50 86 51 80 52 79 53 38 55 68 56
REMARK SMILES IDX 49 57 67 58 50 59 53 60 66 61 84 62 51 63 52 64 65 66 85 67
REMARK SMILES IDX 54 68 39 69 40 70 48 71 41 72 47 73 42 74 43 75 44 76 45 77
REMARK SMILES IDX 46 78 69 79 70 80 78 81 71 82 77 83 72 84 73 85 74 86 75 87
REMARK SMILES IDX 76 88 55 89 56 90 64 91 57 92 63 93 58 94 59 95 60 96 61 97
REMARK SMILES IDX 62 98
REMARK H PARENT 4 24 6 28 6 29 83 54 53 65
REMARK Flexibility Score: inf
ROOT
ATOM      1  C   UNL A   1      41.571  19.094  26.503  1.00  0.00     0.188 C 
ENDROOT
BRANCH   1   2
ATOM      2  O   UNL A   1      40.489  19.088  25.579  1.00  0.00    -0.376 OA
BRANCH   2   3
ATOM      3  C   UNL A   1      39.451  20.054  25.686  1.00  0.00     0.202 C 
BRANCH   3   4
ATOM      4  C   UNL A   1      38.126  19.855  24.928  1.00  0.00     0.261 C 
BRANCH   4   5
ATOM      5  O   UNL A   1      36.981  20.476  25.533  1.00  0.00    -0.460 OA
BRANCH   5   6
ATOM      6  C   UNL A   1      35.777  20.046  25.110  1.00  0.00     0.338 C 
ATOM      7  O   UNL A   1      35.532  18.991  24.529  1.00  0.00    -0.246 OA
BRANCH   6   8
ATOM      8  C   UNL A   1      34.712  20.968  25.557  1.00  0.00     0.060 A 
ATOM      9  C   UNL A   1      32.823  22.894  26.204  1.00  0.00     0.067 A 
ATOM     10  C   UNL A   1      32.735  22.247  24.968  1.00  0.00     0.029 A 
ATOM     11  C   UNL A   1      33.752  22.481  27.171  1.00  0.00     0.029 A 
ATOM     12  C   UNL A   1      33.704  21.303  24.637  1.00  0.00     0.018 A 
ATOM     13  C   UNL A   1      34.694  21.505  26.849  1.00  0.00     0.018 A 
BRANCH   9  14
ATOM     14  N   UNL A   1      32.140  24.117  26.366  1.00  0.00    -0.217 N 
ATOM     15  C   UNL A   1      31.516  26.178  26.036  1.00  0.00     0.132 A 
ATOM     16  N   UNL A   1      30.417  25.439  26.378  1.00  0.00    -0.128 NA
ATOM     17  C   UNL A   1      32.631  25.365  26.006  1.00  0.00     0.071 A 
ATOM     18  N   UNL A   1      30.797  24.176  26.516  1.00  0.00    -0.061 NA
ATOM     19  C   UNL A   1      33.995  25.619  25.483  1.00  0.00     0.069 C 
BRANCH  15  20
ATOM     20  C   UNL A   1      31.410  27.537  25.547  1.00  0.00     0.087 C 
ATOM     21  C   UNL A   1      30.531  27.747  24.339  1.00  0.00     0.071 C 
ATOM     22  N   UNL A   1      32.080  28.436  26.208  1.00  0.00    -0.176 NA
BRANCH  22  23
ATOM     23  N   UNL A   1      32.001  29.747  25.842  1.00  0.00    -0.254 N 
ATOM     24  H   UNL A   1      31.794  29.931  24.897  1.00  0.00     0.193 HD
BRANCH  23  25
ATOM     25  C   UNL A   1      32.182  30.842  26.663  1.00  0.00     0.184 C 
ATOM     26  S   UNL A   1      31.443  32.332  26.605  1.00  0.00    -0.040 S 
BRANCH  25  27
ATOM     27  N   UNL A   1      33.100  30.604  27.648  1.00  0.00    -0.375 N 
ATOM     28  H   UNL A   1      33.336  31.317  28.283  1.00  0.00     0.159 HD
ATOM     29  H   UNL A   1      33.525  29.719  27.721  1.00  0.00     0.159 HD
ENDBRANCH  25  27
ENDBRANCH  23  25
ENDBRANCH  22  23
ENDBRANCH  15  20
ENDBRANCH   9  14
ENDBRANCH   6   8
ENDBRANCH   5   6
ENDBRANCH   4   5
ENDBRANCH   3   4
ENDBRANCH   2   3
ENDBRANCH   1   2
BRANCH   1  30
ATOM     30  C   UNL A   1      43.004  18.735  26.043  1.00  0.00     0.188 C 
BRANCH  30  31
ATOM     31  O   UNL A   1      43.492  19.528  24.978  1.00  0.00    -0.376 OA
BRANCH  31  32
ATOM     32  C   UNL A   1      44.336  20.629  25.279  1.00  0.00     0.202 C 
BRANCH  32  33
ATOM     33  C   UNL A   1      44.629  21.683  24.210  1.00  0.00     0.261 C 
BRANCH  33  34
ATOM     34  O   UNL A   1      43.635  22.678  24.037  1.00  0.00    -0.460 OA
BRANCH  34  35
ATOM     35  C   UNL A   1      42.955  23.014  25.143  1.00  0.00     0.338 C 
ATOM     36  O   UNL A   1      41.981  22.422  25.614  1.00  0.00    -0.246 OA
BRANCH  35  37
ATOM     37  C   UNL A   1      43.509  24.257  25.673  1.00  0.00     0.060 A 
ATOM     38  C   UNL A   1      44.114  24.212  26.930  1.00  0.00     0.016 A 
ATOM     39  C   UNL A   1      43.169  25.470  25.051  1.00  0.00     0.016 A 
ATOM     40  C   UNL A   1      44.173  25.375  27.664  1.00  0.00     0.010 A 
ATOM     41  C   UNL A   1      43.210  26.625  25.791  1.00  0.00     0.010 A 
ATOM     42  C   UNL A   1      43.624  26.539  27.118  1.00  0.00    -0.014 A 
BRANCH  42  43
ATOM     43  C   UNL A   1      43.455  27.674  27.997  1.00  0.00     0.031 A 
ATOM     44  C   UNL A   1      44.552  28.653  27.950  1.00  0.00     0.074 A 
ATOM     45  C   UNL A   1      42.327  27.852  28.709  1.00  0.00     0.049 A 
ATOM     46  N   UNL A   1      45.393  28.950  28.882  1.00  0.00    -0.248 NA
ATOM     47  C   UNL A   1      44.829  29.284  26.650  1.00  0.00     0.031 C 
ATOM     48  C   UNL A   1      41.069  27.108  28.582  1.00  0.00     0.029 A 
ATOM     49  N   UNL A   1      42.027  28.825  29.610  1.00  0.00    -0.354 N 
ATOM     50  C   UNL A   1      46.162  29.981  28.359  1.00  0.00     0.074 A 
ATOM     51  C   UNL A   1      45.914  29.999  26.938  1.00  0.00     0.031 C 
ATOM     52  C   UNL A   1      40.086  27.800  29.197  1.00  0.00     0.029 A 
ATOM     53  C   UNL A   1      40.668  28.957  29.857  1.00  0.00     0.049 A 
ATOM     54  H   UNL A   1      42.710  29.383  30.047  1.00  0.00     0.167 HD
ATOM     55  C   UNL A   1      46.700  30.941  29.157  1.00  0.00     0.031 A 
ATOM     56  C   UNL A   1      40.060  29.998  30.475  1.00  0.00     0.031 A 
ATOM     57  C   UNL A   1      46.764  30.533  30.536  1.00  0.00     0.049 A 
ATOM     58  C   UNL A   1      41.092  30.730  31.248  1.00  0.00     0.074 A 
ATOM     59  C   UNL A   1      47.335  29.474  31.212  1.00  0.00     0.029 A 
ATOM     60  N   UNL A   1      45.855  31.095  31.402  1.00  0.00    -0.354 N 
ATOM     61  N   UNL A   1      41.695  30.245  32.298  1.00  0.00    -0.248 NA
ATOM     62  C   UNL A   1      41.749  31.873  30.631  1.00  0.00     0.031 C 
ATOM     63  C   UNL A   1      46.445  29.187  32.287  1.00  0.00     0.029 A 
ATOM     64  C   UNL A   1      45.396  30.106  32.234  1.00  0.00     0.049 A 
ATOM     65  H   UNL A   1      45.583  32.040  31.421  1.00  0.00     0.167 HD
ATOM     66  C   UNL A   1      42.990  30.740  32.230  1.00  0.00     0.074 A 
ATOM     67  C   UNL A   1      42.926  31.828  31.260  1.00  0.00     0.031 C 
ATOM     68  C   UNL A   1      44.042  30.040  32.751  1.00  0.00     0.031 A 
BRANCH  55  69
ATOM     69  C   UNL A   1      46.735  32.392  28.738  1.00  0.00    -0.014 A 
ATOM     70  C   UNL A   1      47.976  33.001  28.478  1.00  0.00     0.010 A 
ATOM     71  C   UNL A   1      45.617  33.246  28.875  1.00  0.00     0.010 A 
ATOM     72  C   UNL A   1      48.099  34.396  28.436  1.00  0.00     0.020 A 
ATOM     73  C   UNL A   1      45.719  34.631  28.781  1.00  0.00     0.020 A 
ATOM     74  C   UNL A   1      46.970  35.199  28.606  1.00  0.00     0.054 A 
BRANCH  74  75
ATOM     75  S   UNL A   1      47.154  36.996  28.688  1.00  0.00     0.124 S 
ATOM     76  O   UNL A   1      48.451  37.188  28.047  1.00  0.00    -0.237 OA
ATOM     77  O   UNL A   1      45.995  37.462  27.933  1.00  0.00    -0.237 OA
ATOM     78  O   UNL A   1      47.112  37.277  30.121  1.00  0.00    -0.744 OA
ENDBRANCH  74  75
ENDBRANCH  55  69
BRANCH  56  79
ATOM     79  C   UNL A   1      38.719  30.561  30.184  1.00  0.00    -0.014 A 
ATOM     80  C   UNL A   1      38.075  31.408  31.105  1.00  0.00     0.010 A 
ATOM     81  C   UNL A   1      38.178  30.478  28.883  1.00  0.00     0.010 A 
ATOM     82  C   UNL A   1      36.968  32.183  30.720  1.00  0.00     0.020 A 
ATOM     83  C   UNL A   1      37.068  31.234  28.498  1.00  0.00     0.020 A 
ATOM     84  C   UNL A   1      36.482  32.104  29.413  1.00  0.00     0.054 A 
BRANCH  84  85
ATOM     85  S   UNL A   1      35.164  33.232  28.876  1.00  0.00     0.124 S 
ATOM     86  O   UNL A   1      34.050  32.837  29.733  1.00  0.00    -0.237 OA
ATOM     87  O   UNL A   1      35.739  34.546  29.150  1.00  0.00    -0.237 OA
ATOM     88  O   UNL A   1      34.997  32.916  27.457  1.00  0.00    -0.744 OA
ENDBRANCH  84  85
ENDBRANCH  56  79
BRANCH  68  89
ATOM     89  C   UNL A   1      43.752  28.933  33.738  1.00  0.00    -0.014 A 
ATOM     90  C   UNL A   1      43.672  27.573  33.386  1.00  0.00     0.010 A 
ATOM     91  C   UNL A   1      43.695  29.277  35.101  1.00  0.00     0.010 A 
ATOM     92  C   UNL A   1      43.511  26.586  34.369  1.00  0.00     0.020 A 
ATOM     93  C   UNL A   1      43.554  28.297  36.088  1.00  0.00     0.020 A 
ATOM     94  C   UNL A   1      43.453  26.956  35.717  1.00  0.00     0.054 A 
BRANCH  94  95
ATOM     95  S   UNL A   1      43.303  25.670  36.988  1.00  0.00     0.124 S 
ATOM     96  O   UNL A   1      42.217  26.174  37.824  1.00  0.00    -0.237 OA
ATOM     97  O   UNL A   1      42.991  24.475  36.207  1.00  0.00    -0.237 OA
ATOM     98  O   UNL A   1      44.618  25.655  37.627  1.00  0.00    -0.744 OA
ENDBRANCH  94  95
ENDBRANCH  68  89
ENDBRANCH  42  43
ENDBRANCH  35  37
ENDBRANCH  34  35
ENDBRANCH  33  34
ENDBRANCH  32  33
ENDBRANCH  31  32
ENDBRANCH  30  31
ENDBRANCH   1  30
TORSDOF 25
ENDMDL
MODEL 2
REMARK VINA RESULT:      -8.6      3.128      8.254
REMARK SMILES C/C(=N\NC(N)=S)c1nnn(-c2ccc(C(=O)OCCOCCOCCOC(=O)c3ccc(-c4c5nc(c(-c6ccc(S(=O)(=O)[O-])cc6)c6ccc([nH]6)c(-c6ccc(S(=O)(=O)[O-])cc6)c6nc(c(-c7ccc(S(=O)(=O)[O-])cc7)c7ccc4[nH]7)C=C6)C=C5)cc3)cc2)c1C
REMARK SMILES IDX 22 1 21 2 20 3 19 4 18 5 16 6 17 7 15 8 12 9 13 10 91 11
REMARK SMILES IDX 14 12 90 13 11 14 8 15 9 16 92 17 10 18 93 19 2 20 1 21 3 22
REMARK SMILES IDX 4 23 5 25 7 26 6 27 23 30 24 31 25 32 26 33 27 34 28 35
REMARK SMILES IDX 29 36 30 37 31 38 89 39 32 40 88 41 33 42 34 43 35 44 82 45
REMARK SMILES IDX 36 46 87 47 81 48 83 49 37 50 86 51 80 52 79 53 38 55 68 56
REMARK SMILES IDX 49 57 67 58 50 59 53 60 66 61 84 62 51 63 52 64 65 66 85 67
REMARK SMILES IDX 54 68 39 69 40 70 48 71 41 72 47 73 42 74 43 75 44 76 45 77
REMARK SMILES IDX 46 78 69 79 70 80 78 81 71 82 77 83 72 84 73 85 74 86 75 87
REMARK SMILES IDX 76 88 55 89 56 90 64 91 57 92 63 93 58 94 59 95 60 96 61 97
REMARK SMILES IDX 62 98
REMARK H PARENT 4 24 6 28 6 29 83 54 53 65
REMARK Flexibility Score: inf
ROOT
ATOM      1  C   UNL A   1      40.367  20.099  26.170  1.00  0.00     0.188 C 
ENDROOT
BRANCH   1   2
ATOM      2  O   UNL A   1      40.511  21.506  26.330  1.00  0.00    -0.376 OA
BRANCH   2   3
ATOM      3  C   UNL A   1      39.361  22.335  26.441  1.00  0.00     0.202 C 
BRANCH   3   4
ATOM      4  C   UNL A   1      38.215  22.212  25.421  1.00  0.00     0.261 C 
BRANCH   4   5
ATOM      5  O   UNL A   1      36.894  22.275  25.980  1.00  0.00    -0.460 OA
BRANCH   5   6
ATOM      6  C   UNL A   1      35.915  21.689  25.263  1.00  0.00     0.338 C 
ATOM      7  O   UNL A   1      35.783  20.489  25.037  1.00  0.00    -0.246 OA
BRANCH   6   8
ATOM      8  C   UNL A   1      34.896  22.685  24.868  1.00  0.00     0.060 A 
ATOM      9  C   UNL A   1      33.171  24.759  24.227  1.00  0.00     0.067 A 
ATOM     10  C   UNL A   1      34.325  24.576  23.459  1.00  0.00     0.029 A 
ATOM     11  C   UNL A   1      32.802  23.830  25.209  1.00  0.00     0.029 A 
ATOM     12  C   UNL A   1      35.202  23.551  23.806  1.00  0.00     0.018 A 
ATOM     13  C   UNL A   1      33.664  22.780  25.524  1.00  0.00     0.018 A 
BRANCH   9  14
ATOM     14  N   UNL A   1      32.524  26.012  24.169  1.00  0.00    -0.217 N 
ATOM     15  C   UNL A   1      31.127  27.573  23.573  1.00  0.00     0.132 A 
ATOM     16  N   UNL A   1      31.339  27.668  24.922  1.00  0.00    -0.128 NA
ATOM     17  C   UNL A   1      31.857  26.520  23.061  1.00  0.00     0.071 A 
ATOM     18  N   UNL A   1      32.141  26.676  25.283  1.00  0.00    -0.061 NA
ATOM     19  C   UNL A   1      31.804  25.867  21.732  1.00  0.00     0.069 C 
BRANCH  15  20
ATOM     20  C   UNL A   1      30.092  28.331  22.900  1.00  0.00     0.087 C 
ATOM     21  C   UNL A   1      28.676  27.845  23.092  1.00  0.00     0.071 C 
ATOM     22  N   UNL A   1      30.493  29.356  22.206  1.00  0.00    -0.176 NA
BRANCH  22  23
ATOM     23  N   UNL A   1      29.579  30.148  21.577  1.00  0.00    -0.254 N 
ATOM     24  H   UNL A   1      29.273  29.852  20.689  1.00  0.00     0.193 HD
BRANCH  23  25
ATOM     25  C   UNL A   1      29.041  31.324  22.059  1.00  0.00     0.184 C 
ATOM     26  S   UNL A   1      28.801  31.801  23.635  1.00  0.00    -0.040 S 
BRANCH  25  27
ATOM     27  N   UNL A   1      28.685  32.181  21.054  1.00  0.00    -0.375 N 
ATOM     28  H   UNL A   1      29.125  33.058  20.977  1.00  0.00     0.159 HD
ATOM     29  H   UNL A   1      27.989  31.921  20.409  1.00  0.00     0.159 HD
ENDBRANCH  25  27
ENDBRANCH  23  25
ENDBRANCH  22  23
ENDBRANCH  15  20
ENDBRANCH   9  14
ENDBRANCH   6   8
ENDBRANCH   5   6
ENDBRANCH   4   5
ENDBRANCH   3   4
ENDBRANCH   2   3
ENDBRANCH   1   2
BRANCH   1  30
ATOM     30  C   UNL A   1      41.161  19.118  27.064  1.00  0.00     0.188 C 
BRANCH  30  31
ATOM     31  O   UNL A   1      42.564  19.169  26.885  1.00  0.00    -0.376 OA
BRANCH  31  32
ATOM     32  C   UNL A   1      43.096  18.927  25.591  1.00  0.00     0.202 C 
BRANCH  32  33
ATOM     33  C   UNL A   1      44.214  19.817  25.046  1.00  0.00     0.261 C 
BRANCH  33  34
ATOM     34  O   UNL A   1      44.201  21.163  25.487  1.00  0.00    -0.460 OA
BRANCH  34  35
ATOM     35  C   UNL A   1      44.661  22.063  24.606  1.00  0.00     0.338 C 
ATOM     36  O   UNL A   1      44.561  22.007  23.377  1.00  0.00    -0.246 OA
BRANCH  35  37
ATOM     37  C   UNL A   1      45.379  23.105  25.334  1.00  0.00     0.060 A 
ATOM     38  C   UNL A   1      45.719  22.849  26.664  1.00  0.00     0.016 A 
ATOM     39  C   UNL A   1      45.442  24.397  24.783  1.00  0.00     0.016 A 
ATOM     40  C   UNL A   1      45.909  23.923  27.504  1.00  0.00     0.010 A 
ATOM     41  C   UNL A   1      45.611  25.466  25.626  1.00  0.00     0.010 A 
ATOM     42  C   UNL A   1      45.748  25.213  26.989  1.00  0.00    -0.014 A 
BRANCH  42  43
ATOM     43  C   UNL A   1      45.686  26.306  27.932  1.00  0.00     0.031 A 
ATOM     44  C   UNL A   1      44.375  26.969  28.015  1.00  0.00     0.074 A 
ATOM     45  C   UNL A   1      46.724  26.602  28.736  1.00  0.00     0.049 A 
ATOM     46  N   UNL A   1      44.071  28.176  27.673  1.00  0.00    -0.248 NA
ATOM     47  C   UNL A   1      43.228  26.135  28.404  1.00  0.00     0.031 C 
ATOM     48  C   UNL A   1      47.940  25.809  28.946  1.00  0.00     0.029 A 
ATOM     49  N   UNL A   1      46.850  27.616  29.633  1.00  0.00    -0.354 N 
ATOM     50  C   UNL A   1      42.737  28.325  28.026  1.00  0.00     0.074 A 
ATOM     51  C   UNL A   1      42.225  27.000  28.271  1.00  0.00     0.031 C 
ATOM     52  C   UNL A   1      48.559  26.243  30.065  1.00  0.00     0.029 A 
ATOM     53  C   UNL A   1      47.853  27.410  30.570  1.00  0.00     0.049 A 
ATOM     54  H   UNL A   1      46.284  28.420  29.620  1.00  0.00     0.167 HD
ATOM     55  C   UNL A   1      42.233  29.532  28.397  1.00  0.00     0.031 A 
ATOM     56  C   UNL A   1      48.025  28.092  31.728  1.00  0.00     0.031 A 
ATOM     57  C   UNL A   1      43.060  30.628  27.965  1.00  0.00     0.049 A 
ATOM     58  C   UNL A   1      47.281  29.370  31.614  1.00  0.00     0.074 A 
ATOM     59  C   UNL A   1      43.541  31.062  26.746  1.00  0.00     0.029 A 
ATOM     60  N   UNL A   1      43.814  31.263  28.923  1.00  0.00    -0.354 N 
ATOM     61  N   UNL A   1      47.614  30.336  30.804  1.00  0.00    -0.248 NA
ATOM     62  C   UNL A   1      45.922  29.436  32.130  1.00  0.00     0.031 C 
ATOM     63  C   UNL A   1      44.831  31.603  27.019  1.00  0.00     0.029 A 
ATOM     64  C   UNL A   1      45.057  31.504  28.393  1.00  0.00     0.049 A 
ATOM     65  H   UNL A   1      43.516  31.502  29.830  1.00  0.00     0.167 HD
ATOM     66  C   UNL A   1      46.410  30.886  30.386  1.00  0.00     0.074 A 
ATOM     67  C   UNL A   1      45.419  30.378  31.328  1.00  0.00     0.031 C 
ATOM     68  C   UNL A   1      46.289  31.470  29.157  1.00  0.00     0.031 A 
BRANCH  55  69
ATOM     69  C   UNL A   1      41.242  29.662  29.530  1.00  0.00    -0.014 A 
ATOM     70  C   UNL A   1      41.630  29.278  30.827  1.00  0.00     0.010 A 
ATOM     71  C   UNL A   1      39.861  29.870  29.309  1.00  0.00     0.010 A 
ATOM     72  C   UNL A   1      40.675  29.041  31.824  1.00  0.00     0.020 A 
ATOM     73  C   UNL A   1      38.910  29.690  30.308  1.00  0.00     0.020 A 
ATOM     74  C   UNL A   1      39.320  29.233  31.549  1.00  0.00     0.054 A 
BRANCH  74  75
ATOM     75  S   UNL A   1      38.083  28.797  32.794  1.00  0.00     0.124 S 
ATOM     76  O   UNL A   1      38.582  29.508  33.966  1.00  0.00    -0.237 OA
ATOM     77  O   UNL A   1      36.853  29.320  32.207  1.00  0.00    -0.237 OA
ATOM     78  O   UNL A   1      38.166  27.339  32.858  1.00  0.00    -0.744 OA
ENDBRANCH  74  75
ENDBRANCH  55  69
BRANCH  56  79
ATOM     79  C   UNL A   1      48.531  27.564  33.019  1.00  0.00    -0.014 A 
ATOM     80  C   UNL A   1      47.673  26.897  33.913  1.00  0.00     0.010 A 
ATOM     81  C   UNL A   1      49.919  27.485  33.262  1.00  0.00     0.010 A 
ATOM     82  C   UNL A   1      48.190  26.134  34.974  1.00  0.00     0.020 A 
ATOM     83  C   UNL A   1      50.439  26.741  34.324  1.00  0.00     0.020 A 
ATOM     84  C   UNL A   1      49.571  26.047  35.162  1.00  0.00     0.054 A 
BRANCH  84  85
ATOM     85  S   UNL A   1      50.235  24.924  36.425  1.00  0.00     0.124 S 
ATOM     86  O   UNL A   1      49.579  25.401  37.639  1.00  0.00    -0.237 OA
ATOM     87  O   UNL A   1      49.805  23.614  35.945  1.00  0.00    -0.237 OA
ATOM     88  O   UNL A   1      51.678  25.158  36.369  1.00  0.00    -0.744 OA
ENDBRANCH  84  85
ENDBRANCH  56  79
BRANCH  68  89
ATOM     89  C   UNL A   1      47.548  31.867  28.421  1.00  0.00    -0.014 A 
ATOM     90  C   UNL A   1      48.320  30.973  27.656  1.00  0.00     0.010 A 
ATOM     91  C   UNL A   1      47.883  33.233  28.395  1.00  0.00     0.010 A 
ATOM     92  C   UNL A   1      49.414  31.430  26.907  1.00  0.00     0.020 A 
ATOM     93  C   UNL A   1      48.961  33.698  27.637  1.00  0.00     0.020 A 
ATOM     94  C   UNL A   1      49.728  32.793  26.903  1.00  0.00     0.054 A 
BRANCH  94  95
ATOM     95  S   UNL A   1      51.110  33.386  25.887  1.00  0.00     0.124 S 
ATOM     96  O   UNL A   1      51.703  32.143  25.401  1.00  0.00    -0.237 OA
ATOM     97  O   UNL A   1      50.444  34.202  24.874  1.00  0.00    -0.237 OA
ATOM     98  O   UNL A   1      51.937  34.139  26.829  1.00  0.00    -0.744 OA
ENDBRANCH  94  95
ENDBRANCH  68  89
ENDBRANCH  42  43
ENDBRANCH  35  37
ENDBRANCH  34  35
ENDBRANCH  33  34
ENDBRANCH  32  33
ENDBRANCH  31  32
ENDBRANCH  30  31
ENDBRANCH   1  30
TORSDOF 25
ENDMDL
MODEL 3
REMARK VINA RESULT:      -8.5      3.453      5.359
REMARK SMILES C/C(=N\NC(N)=S)c1nnn(-c2ccc(C(=O)OCCOCCOCCOC(=O)c3ccc(-c4c5nc(c(-c6ccc(S(=O)(=O)[O-])cc6)c6ccc([nH]6)c(-c6ccc(S(=O)(=O)[O-])cc6)c6nc(c(-c7ccc(S(=O)(=O)[O-])cc7)c7ccc4[nH]7)C=C6)C=C5)cc3)cc2)c1C
REMARK SMILES IDX 22 1 21 2 20 3 19 4 18 5 16 6 17 7 15 8 12 9 13 10 91 11
REMARK SMILES IDX 14 12 90 13 11 14 8 15 9 16 92 17 10 18 93 19 2 20 1 21 3 22
REMARK SMILES IDX 4 23 5 25 7 26 6 27 23 30 24 31 25 32 26 33 27 34 28 35
REMARK SMILES IDX 29 36 30 37 31 38 89 39 32 40 88 41 33 42 34 43 35 44 82 45
REMARK SMILES IDX 36 46 87 47 81 48 83 49 37 50 86 51 80 52 79 53 38 55 68 56
REMARK SMILES IDX 49 57 67 58 50 59 53 60 66 61 84 62 51 63 52 64 65 66 85 67
REMARK SMILES IDX 54 68 39 69 40 70 48 71 41 72 47 73 42 74 43 75 44 76 45 77
REMARK SMILES IDX 46 78 69 79 70 80 78 81 71 82 77 83 72 84 73 85 74 86 75 87
REMARK SMILES IDX 76 88 55 89 56 90 64 91 57 92 63 93 58 94 59 95 60 96 61 97
REMARK SMILES IDX 62 98
REMARK H PARENT 4 24 6 28 6 29 83 54 53 65
REMARK Flexibility Score: inf
ROOT
ATOM      1  C   UNL A   1      41.171  19.546  26.850  1.00  0.00     0.188 C 
ENDROOT
BRANCH   1   2
ATOM      2  O   UNL A   1      40.255  19.675  25.768  1.00  0.00    -0.376 OA
BRANCH   2   3
ATOM      3  C   UNL A   1      39.341  20.763  25.730  1.00  0.00     0.202 C 
BRANCH   3   4
ATOM      4  C   UNL A   1      37.989  20.616  25.008  1.00  0.00     0.261 C 
BRANCH   4   5
ATOM      5  O   UNL A   1      36.841  20.983  25.787  1.00  0.00    -0.460 OA
BRANCH   5   6
ATOM      6  C   UNL A   1      35.646  20.581  25.314  1.00  0.00     0.338 C 
ATOM      7  O   UNL A   1      35.398  19.524  24.739  1.00  0.00    -0.246 OA
BRANCH   6   8
ATOM      8  C   UNL A   1      34.588  21.540  25.695  1.00  0.00     0.060 A 
ATOM      9  C   UNL A   1      32.732  23.532  26.226  1.00  0.00     0.067 A 
ATOM     10  C   UNL A   1      32.699  22.889  24.985  1.00  0.00     0.029 A 
ATOM     11  C   UNL A   1      33.583  23.087  27.248  1.00  0.00     0.029 A 
ATOM     12  C   UNL A   1      33.653  21.911  24.714  1.00  0.00     0.018 A 
ATOM     13  C   UNL A   1      34.508  22.078  26.985  1.00  0.00     0.018 A 
BRANCH   9  14
ATOM     14  N   UNL A   1      32.084  24.779  26.347  1.00  0.00    -0.217 N 
ATOM     15  C   UNL A   1      31.498  26.835  25.930  1.00  0.00     0.132 A 
ATOM     16  N   UNL A   1      30.395  26.143  26.350  1.00  0.00    -0.128 NA
ATOM     17  C   UNL A   1      32.591  25.994  25.904  1.00  0.00     0.071 A 
ATOM     18  N   UNL A   1      30.749  24.880  26.540  1.00  0.00    -0.061 NA
ATOM     19  C   UNL A   1      33.941  26.186  25.322  1.00  0.00     0.069 C 
BRANCH  15  20
ATOM     20  C   UNL A   1      31.406  28.170  25.375  1.00  0.00     0.087 C 
ATOM     21  C   UNL A   1      32.239  29.233  26.048  1.00  0.00     0.071 C 
ATOM     22  N   UNL A   1      30.619  28.309  24.348  1.00  0.00    -0.176 NA
BRANCH  22  23
ATOM     23  N   UNL A   1      30.508  29.524  23.738  1.00  0.00    -0.254 N 
ATOM     24  H   UNL A   1      30.956  30.282  24.177  1.00  0.00     0.193 HD
BRANCH  23  25
ATOM     25  C   UNL A   1      29.831  29.795  22.566  1.00  0.00     0.184 C 
ATOM     26  S   UNL A   1      28.194  29.767  22.269  1.00  0.00    -0.040 S 
BRANCH  25  27
ATOM     27  N   UNL A   1      30.676  30.140  21.548  1.00  0.00    -0.375 N 
ATOM     28  H   UNL A   1      30.361  30.113  20.616  1.00  0.00     0.159 HD
ATOM     29  H   UNL A   1      31.600  30.416  21.747  1.00  0.00     0.159 HD
ENDBRANCH  25  27
ENDBRANCH  23  25
ENDBRANCH  22  23
ENDBRANCH  15  20
ENDBRANCH   9  14
ENDBRANCH   6   8
ENDBRANCH   5   6
ENDBRANCH   4   5
ENDBRANCH   3   4
ENDBRANCH   2   3
ENDBRANCH   1   2
BRANCH   1  30
ATOM     30  C   UNL A   1      42.626  19.086  26.601  1.00  0.00     0.188 C 
BRANCH  30  31
ATOM     31  O   UNL A   1      43.114  19.367  25.302  1.00  0.00    -0.376 OA
BRANCH  31  32
ATOM     32  C   UNL A   1      44.463  19.786  25.156  1.00  0.00     0.202 C 
BRANCH  32  33
ATOM     33  C   UNL A   1      44.878  20.618  23.942  1.00  0.00     0.261 C 
BRANCH  33  34
ATOM     34  O   UNL A   1      44.408  21.954  23.921  1.00  0.00    -0.460 OA
BRANCH  34  35
ATOM     35  C   UNL A   1      43.824  22.379  25.051  1.00  0.00     0.338 C 
ATOM     36  O   UNL A   1      42.615  22.375  25.300  1.00  0.00    -0.246 OA
BRANCH  35  37
ATOM     37  C   UNL A   1      44.852  22.928  25.930  1.00  0.00     0.060 A 
ATOM     38  C   UNL A   1      44.663  22.800  27.308  1.00  0.00     0.016 A 
ATOM     39  C   UNL A   1      45.817  23.794  25.387  1.00  0.00     0.016 A 
ATOM     40  C   UNL A   1      45.288  23.704  28.136  1.00  0.00     0.010 A 
ATOM     41  C   UNL A   1      46.423  24.708  26.212  1.00  0.00     0.010 A 
ATOM     42  C   UNL A   1      46.074  24.707  27.561  1.00  0.00    -0.014 A 
BRANCH  42  43
ATOM     43  C   UNL A   1      46.498  25.795  28.412  1.00  0.00     0.031 A 
ATOM     44  C   UNL A   1      47.865  25.662  28.940  1.00  0.00     0.074 A 
ATOM     45  C   UNL A   1      45.727  26.882  28.604  1.00  0.00     0.049 A 
ATOM     46  N   UNL A   1      48.232  25.492  30.165  1.00  0.00    -0.248 NA
ATOM     47  C   UNL A   1      48.955  25.572  27.956  1.00  0.00     0.031 C 
ATOM     48  C   UNL A   1      44.504  27.242  27.879  1.00  0.00     0.029 A 
ATOM     49  N   UNL A   1      45.949  27.959  29.402  1.00  0.00    -0.354 N 
ATOM     50  C   UNL A   1      49.619  25.510  30.132  1.00  0.00     0.074 A 
ATOM     51  C   UNL A   1      50.000  25.353  28.750  1.00  0.00     0.031 C 
ATOM     52  C   UNL A   1      44.230  28.546  28.102  1.00  0.00     0.029 A 
ATOM     53  C   UNL A   1      45.179  29.066  29.072  1.00  0.00     0.049 A 
ATOM     54  H   UNL A   1      46.595  27.955  30.145  1.00  0.00     0.167 HD
ATOM     55  C   UNL A   1      50.348  25.963  31.186  1.00  0.00     0.031 A 
ATOM     56  C   UNL A   1      45.376  30.338  29.495  1.00  0.00     0.031 A 
ATOM     57  C   UNL A   1      49.590  25.980  32.409  1.00  0.00     0.049 A 
ATOM     58  C   UNL A   1      46.230  30.285  30.707  1.00  0.00     0.074 A 
ATOM     59  C   UNL A   1      48.894  25.035  33.136  1.00  0.00     0.029 A 
ATOM     60  N   UNL A   1      49.173  27.205  32.874  1.00  0.00    -0.354 N 
ATOM     61  N   UNL A   1      45.842  29.790  31.849  1.00  0.00    -0.248 NA
ATOM     62  C   UNL A   1      47.670  30.433  30.555  1.00  0.00     0.031 C 
ATOM     63  C   UNL A   1      47.787  25.732  33.700  1.00  0.00     0.029 A 
ATOM     64  C   UNL A   1      47.882  27.072  33.320  1.00  0.00     0.049 A 
ATOM     65  H   UNL A   1      49.707  28.032  32.886  1.00  0.00     0.167 HD
ATOM     66  C   UNL A   1      46.972  29.190  32.385  1.00  0.00     0.074 A 
ATOM     67  C   UNL A   1      48.085  29.726  31.608  1.00  0.00     0.031 C 
ATOM     68  C   UNL A   1      46.872  28.107  33.213  1.00  0.00     0.031 A 
BRANCH  55  69
ATOM     69  C   UNL A   1      51.588  26.804  30.988  1.00  0.00    -0.014 A 
ATOM     70  C   UNL A   1      52.809  26.363  31.530  1.00  0.00     0.010 A 
ATOM     71  C   UNL A   1      51.530  28.145  30.544  1.00  0.00     0.010 A 
ATOM     72  C   UNL A   1      53.888  27.244  31.687  1.00  0.00     0.020 A 
ATOM     73  C   UNL A   1      52.613  29.013  30.646  1.00  0.00     0.020 A 
ATOM     74  C   UNL A   1      53.773  28.567  31.258  1.00  0.00     0.054 A 
BRANCH  74  75
ATOM     75  S   UNL A   1      55.114  29.734  31.587  1.00  0.00     0.124 S 
ATOM     76  O   UNL A   1      54.420  31.014  31.495  1.00  0.00    -0.237 OA
ATOM     77  O   UNL A   1      55.549  29.339  32.923  1.00  0.00    -0.237 OA
ATOM     78  O   UNL A   1      56.072  29.459  30.518  1.00  0.00    -0.744 OA
ENDBRANCH  74  75
ENDBRANCH  55  69
BRANCH  56  79
ATOM     79  C   UNL A   1      45.127  31.589  28.737  1.00  0.00    -0.014 A 
ATOM     80  C   UNL A   1      44.305  32.602  29.264  1.00  0.00     0.010 A 
ATOM     81  C   UNL A   1      45.909  31.903  27.605  1.00  0.00     0.010 A 
ATOM     82  C   UNL A   1      44.310  33.894  28.712  1.00  0.00     0.020 A 
ATOM     83  C   UNL A   1      45.906  33.182  27.041  1.00  0.00     0.020 A 
ATOM     84  C   UNL A   1      45.124  34.180  27.614  1.00  0.00     0.054 A 
BRANCH  84  85
ATOM     85  S   UNL A   1      45.255  35.889  27.016  1.00  0.00     0.124 S 
ATOM     86  O   UNL A   1      45.574  36.622  28.238  1.00  0.00    -0.237 OA
ATOM     87  O   UNL A   1      46.331  35.801  26.032  1.00  0.00    -0.237 OA
ATOM     88  O   UNL A   1      43.930  36.162  26.459  1.00  0.00    -0.744 OA
ENDBRANCH  84  85
ENDBRANCH  56  79
BRANCH  68  89
ATOM     89  C   UNL A   1      45.537  27.814  33.856  1.00  0.00    -0.014 A 
ATOM     90  C   UNL A   1      44.571  26.958  33.294  1.00  0.00     0.010 A 
ATOM     91  C   UNL A   1      45.312  28.320  35.149  1.00  0.00     0.010 A 
ATOM     92  C   UNL A   1      43.399  26.641  33.996  1.00  0.00     0.020 A 
ATOM     93  C   UNL A   1      44.155  27.993  35.862  1.00  0.00     0.020 A 
ATOM     94  C   UNL A   1      43.199  27.162  35.279  1.00  0.00     0.054 A 
BRANCH  94  95
ATOM     95  S   UNL A   1      41.708  26.702  36.205  1.00  0.00     0.124 S 
ATOM     96  O   UNL A   1      41.046  25.769  35.297  1.00  0.00    -0.237 OA
ATOM     97  O   UNL A   1      42.251  26.111  37.426  1.00  0.00    -0.237 OA
ATOM     98  O   UNL A   1      41.012  27.973  36.400  1.00  0.00    -0.744 OA
ENDBRANCH  94  95
ENDBRANCH  68  89
ENDBRANCH  42  43
ENDBRANCH  35  37
ENDBRANCH  34  35
ENDBRANCH  33  34
ENDBRANCH  32  33
ENDBRANCH  31  32
ENDBRANCH  30  31
ENDBRANCH   1  30
TORSDOF 25
ENDMDL
