MODEL 1
REMARK VINA RESULT:      -8.6      0.000      0.000
REMARK SMILES CCCCN(C)c1ccc([N+](=O)[O-])c(C(=O)OCCOCCOCCOC(=O)c2ccc(-c3c4nc(c(-c5ccc(S(=O)(=O)[O-])cc5)c5ccc([nH]5)c(-c5ccc(S(=O)(=O)[O-])cc5)c5nc(c(-c6ccc(S(=O)(=O)[O-])cc6)c6ccc3[nH]6)C=C5)C=C4)cc2)c1
REMARK SMILES IDX 21 1 20 2 19 3 18 4 17 5 15 6 16 7 14 8 7 9 8 10 89 11 9 12
REMARK SMILES IDX 10 13 5 14 6 15 4 16 3 17 2 18 1 19 11 20 12 21 13 22 22 23
REMARK SMILES IDX 23 24 24 25 25 26 26 27 27 28 28 29 29 30 30 31 88 32 31 33
REMARK SMILES IDX 87 34 32 35 33 36 34 37 81 38 35 39 86 40 80 41 82 42 36 43
REMARK SMILES IDX 85 44 79 45 78 46 37 48 67 49 48 50 66 51 49 52 52 53 65 54
REMARK SMILES IDX 83 55 50 56 51 57 64 59 84 60 53 61 38 62 39 63 47 64 40 65
REMARK SMILES IDX 46 66 41 67 42 68 43 69 44 70 45 71 68 72 69 73 77 74 70 75
REMARK SMILES IDX 76 76 71 77 72 78 73 79 74 80 75 81 54 82 55 83 63 84 56 85
REMARK SMILES IDX 62 86 57 87 58 88 59 89 60 90 61 91
REMARK H PARENT 82 47 52 58
REMARK Flexibility Score: inf
ROOT
ATOM      1  C   UNL A   1      31.826  29.989  25.048  1.00  0.00     0.188 C 
ENDROOT
BRANCH   1   2
ATOM      2  O   UNL A   1      32.071  28.603  24.876  1.00  0.00    -0.376 OA
BRANCH   2   3
ATOM      3  C   UNL A   1      33.161  28.226  24.055  1.00  0.00     0.202 C 
BRANCH   3   4
ATOM      4  C   UNL A   1      32.912  27.226  22.917  1.00  0.00     0.261 C 
BRANCH   4   5
ATOM      5  O   UNL A   1      32.436  25.942  23.334  1.00  0.00    -0.459 OA
BRANCH   5   6
ATOM      6  C   UNL A   1      33.119  25.250  24.274  1.00  0.00     0.345 C 
ATOM      7  O   UNL A   1      34.278  25.404  24.596  1.00  0.00    -0.246 OA
BRANCH   6   8
ATOM      8  C   UNL A   1      32.226  24.197  24.826  1.00  0.00     0.139 A 
ATOM      9  C   UNL A   1      31.905  21.774  25.124  1.00  0.00     0.038 A 
ATOM     10  C   UNL A   1      30.916  22.055  26.073  1.00  0.00     0.033 A 
ATOM     11  C   UNL A   1      32.473  22.865  24.469  1.00  0.00     0.048 A 
ATOM     12  C   UNL A   1      30.551  23.378  26.370  1.00  0.00     0.089 A 
ATOM     13  C   UNL A   1      31.223  24.445  25.752  1.00  0.00     0.284 A 
BRANCH   9  14
ATOM     14  N   UNL A   1      32.370  20.494  24.828  1.00  0.00    -0.375 N 
ATOM     15  C   UNL A   1      33.298  19.864  25.765  1.00  0.00     0.143 C 
BRANCH  14  16
ATOM     16  C   UNL A   1      32.531  20.149  23.397  1.00  0.00     0.116 C 
BRANCH  16  17
ATOM     17  C   UNL A   1      32.166  18.700  23.019  1.00  0.00     0.021 C 
BRANCH  17  18
ATOM     18  C   UNL A   1      33.277  17.661  22.758  1.00  0.00    -0.002 C 
ATOM     19  C   UNL A   1      33.529  16.623  23.841  1.00  0.00     0.004 C 
ENDBRANCH  17  18
ENDBRANCH  16  17
ENDBRANCH  14  16
ENDBRANCH   9  14
BRANCH  13  20
ATOM     20  N   UNL A   1      30.737  25.795  25.982  1.00  0.00     0.063 N 
ATOM     21  O   UNL A   1      29.871  26.221  25.208  1.00  0.00    -0.258 OA
ATOM     22  O   UNL A   1      31.302  26.454  26.864  1.00  0.00    -0.258 OA
ENDBRANCH  13  20
ENDBRANCH   6   8
ENDBRANCH   5   6
ENDBRANCH   4   5
ENDBRANCH   3   4
ENDBRANCH   2   3
ENDBRANCH   1   2
BRANCH   1  23
ATOM     23  C   UNL A   1      31.868  30.401  26.536  1.00  0.00     0.188 C 
BRANCH  23  24
ATOM     24  O   UNL A   1      32.945  29.972  27.361  1.00  0.00    -0.376 OA
BRANCH  24  25
ATOM     25  C   UNL A   1      33.928  30.924  27.742  1.00  0.00     0.202 C 
BRANCH  25  26
ATOM     26  C   UNL A   1      33.735  32.391  27.332  1.00  0.00     0.261 C 
BRANCH  26  27
ATOM     27  O   UNL A   1      32.961  33.190  28.245  1.00  0.00    -0.460 OA
BRANCH  27  28
ATOM     28  C   UNL A   1      33.534  34.361  28.628  1.00  0.00     0.338 C 
ATOM     29  O   UNL A   1      33.137  35.487  28.380  1.00  0.00    -0.246 OA
BRANCH  28  30
ATOM     30  C   UNL A   1      34.630  34.095  29.587  1.00  0.00     0.060 A 
ATOM     31  C   UNL A   1      35.946  34.377  29.187  1.00  0.00     0.016 A 
ATOM     32  C   UNL A   1      34.382  33.531  30.838  1.00  0.00     0.016 A 
ATOM     33  C   UNL A   1      37.019  34.077  30.026  1.00  0.00     0.010 A 
ATOM     34  C   UNL A   1      35.462  33.198  31.665  1.00  0.00     0.010 A 
ATOM     35  C   UNL A   1      36.785  33.442  31.251  1.00  0.00    -0.014 A 
BRANCH  35  36
ATOM     36  C   UNL A   1      37.921  32.848  31.999  1.00  0.00     0.031 A 
ATOM     37  C   UNL A   1      38.604  31.638  31.420  1.00  0.00     0.074 A 
ATOM     38  C   UNL A   1      38.352  33.372  33.161  1.00  0.00     0.049 A 
ATOM     39  N   UNL A   1      39.571  30.911  31.916  1.00  0.00    -0.248 NA
ATOM     40  C   UNL A   1      38.129  31.189  30.099  1.00  0.00     0.031 C 
ATOM     41  C   UNL A   1      37.825  34.578  33.797  1.00  0.00     0.029 A 
ATOM     42  N   UNL A   1      39.336  32.940  34.017  1.00  0.00    -0.354 N 
ATOM     43  C   UNL A   1      39.815  29.915  30.977  1.00  0.00     0.074 A 
ATOM     44  C   UNL A   1      38.878  30.117  29.892  1.00  0.00     0.031 C 
ATOM     45  C   UNL A   1      38.481  34.779  34.955  1.00  0.00     0.029 A 
ATOM     46  C   UNL A   1      39.447  33.700  35.157  1.00  0.00     0.049 A 
ATOM     47  H   UNL A   1      39.907  32.159  33.832  1.00  0.00     0.167 HD
ATOM     48  C   UNL A   1      40.735  28.922  31.010  1.00  0.00     0.031 A 
ATOM     49  C   UNL A   1      40.222  33.530  36.248  1.00  0.00     0.031 A 
ATOM     50  C   UNL A   1      41.649  28.705  32.100  1.00  0.00     0.049 A 
ATOM     51  C   UNL A   1      41.172  32.359  36.309  1.00  0.00     0.074 A 
ATOM     52  C   UNL A   1      42.620  27.727  32.227  1.00  0.00     0.029 A 
ATOM     53  N   UNL A   1      41.697  29.469  33.256  1.00  0.00    -0.354 N 
ATOM     54  N   UNL A   1      41.402  31.433  35.408  1.00  0.00    -0.248 NA
ATOM     55  C   UNL A   1      41.971  32.215  37.535  1.00  0.00     0.031 C 
ATOM     56  C   UNL A   1      43.216  27.864  33.484  1.00  0.00     0.029 A 
ATOM     57  C   UNL A   1      42.661  28.967  34.114  1.00  0.00     0.049 A 
ATOM     58  H   UNL A   1      41.129  30.252  33.440  1.00  0.00     0.167 HD
ATOM     59  C   UNL A   1      42.395  30.617  35.945  1.00  0.00     0.074 A 
ATOM     60  C   UNL A   1      42.726  31.163  37.245  1.00  0.00     0.031 C 
ATOM     61  C   UNL A   1      42.982  29.519  35.407  1.00  0.00     0.031 A 
BRANCH  48  62
ATOM     62  C   UNL A   1      40.761  27.966  29.848  1.00  0.00    -0.014 A 
ATOM     63  C   UNL A   1      41.740  28.066  28.842  1.00  0.00     0.010 A 
ATOM     64  C   UNL A   1      39.800  26.942  29.768  1.00  0.00     0.010 A 
ATOM     65  C   UNL A   1      41.727  27.189  27.755  1.00  0.00     0.020 A 
ATOM     66  C   UNL A   1      39.801  26.045  28.696  1.00  0.00     0.020 A 
ATOM     67  C   UNL A   1      40.754  26.186  27.686  1.00  0.00     0.054 A 
BRANCH  67  68
ATOM     68  S   UNL A   1      40.765  25.057  26.266  1.00  0.00     0.124 S 
ATOM     69  O   UNL A   1      39.379  24.594  26.240  1.00  0.00    -0.237 OA
ATOM     70  O   UNL A   1      41.154  25.932  25.164  1.00  0.00    -0.237 OA
ATOM     71  O   UNL A   1      41.752  24.046  26.634  1.00  0.00    -0.744 OA
ENDBRANCH  67  68
ENDBRANCH  48  62
BRANCH  49  72
ATOM     72  C   UNL A   1      40.119  34.482  37.389  1.00  0.00    -0.014 A 
ATOM     73  C   UNL A   1      40.965  35.601  37.468  1.00  0.00     0.010 A 
ATOM     74  C   UNL A   1      39.173  34.268  38.409  1.00  0.00     0.010 A 
ATOM     75  C   UNL A   1      40.876  36.482  38.552  1.00  0.00     0.020 A 
ATOM     76  C   UNL A   1      39.063  35.161  39.480  1.00  0.00     0.020 A 
ATOM     77  C   UNL A   1      39.924  36.258  39.549  1.00  0.00     0.054 A 
BRANCH  77  78
ATOM     78  S   UNL A   1      39.795  37.441  40.920  1.00  0.00     0.124 S 
ATOM     79  O   UNL A   1      38.544  38.127  40.614  1.00  0.00    -0.237 OA
ATOM     80  O   UNL A   1      39.768  36.568  42.090  1.00  0.00    -0.237 OA
ATOM     81  O   UNL A   1      41.003  38.253  40.786  1.00  0.00    -0.744 OA
ENDBRANCH  77  78
ENDBRANCH  49  72
BRANCH  61  82
ATOM     82  C   UNL A   1      44.078  28.850  36.199  1.00  0.00    -0.014 A 
ATOM     83  C   UNL A   1      45.399  29.331  36.175  1.00  0.00     0.010 A 
ATOM     84  C   UNL A   1      43.763  27.760  37.031  1.00  0.00     0.010 A 
ATOM     85  C   UNL A   1      46.390  28.717  36.947  1.00  0.00     0.020 A 
ATOM     86  C   UNL A   1      44.743  27.161  37.825  1.00  0.00     0.020 A 
ATOM     87  C   UNL A   1      46.055  27.635  37.769  1.00  0.00     0.054 A 
BRANCH  87  88
ATOM     88  S   UNL A   1      47.348  26.884  38.797  1.00  0.00     0.124 S 
ATOM     89  O   UNL A   1      47.864  25.836  37.922  1.00  0.00    -0.237 OA
ATOM     90  O   UNL A   1      48.255  28.004  39.041  1.00  0.00    -0.237 OA
ATOM     91  O   UNL A   1      46.623  26.411  39.975  1.00  0.00    -0.744 OA
ENDBRANCH  87  88
ENDBRANCH  61  82
ENDBRANCH  35  36
ENDBRANCH  28  30
ENDBRANCH  27  28
ENDBRANCH  26  27
ENDBRANCH  25  26
ENDBRANCH  24  25
ENDBRANCH  23  24
ENDBRANCH   1  23
TORSDOF 25
ENDMDL
MODEL 2
REMARK VINA RESULT:      -8.1      3.571      4.262
REMARK SMILES CCCCN(C)c1ccc([N+](=O)[O-])c(C(=O)OCCOCCOCCOC(=O)c2ccc(-c3c4nc(c(-c5ccc(S(=O)(=O)[O-])cc5)c5ccc([nH]5)c(-c5ccc(S(=O)(=O)[O-])cc5)c5nc(c(-c6ccc(S(=O)(=O)[O-])cc6)c6ccc3[nH]6)C=C5)C=C4)cc2)c1
REMARK SMILES IDX 21 1 20 2 19 3 18 4 17 5 15 6 16 7 14 8 7 9 8 10 89 11 9 12
REMARK SMILES IDX 10 13 5 14 6 15 4 16 3 17 2 18 1 19 11 20 12 21 13 22 22 23
REMARK SMILES IDX 23 24 24 25 25 26 26 27 27 28 28 29 29 30 30 31 88 32 31 33
REMARK SMILES IDX 87 34 32 35 33 36 34 37 81 38 35 39 86 40 80 41 82 42 36 43
REMARK SMILES IDX 85 44 79 45 78 46 37 48 67 49 48 50 66 51 49 52 52 53 65 54
REMARK SMILES IDX 83 55 50 56 51 57 64 59 84 60 53 61 38 62 39 63 47 64 40 65
REMARK SMILES IDX 46 66 41 67 42 68 43 69 44 70 45 71 68 72 69 73 77 74 70 75
REMARK SMILES IDX 76 76 71 77 72 78 73 79 74 80 75 81 54 82 55 83 63 84 56 85
REMARK SMILES IDX 62 86 57 87 58 88 59 89 60 90 61 91
REMARK H PARENT 82 47 52 58
REMARK Flexibility Score: inf
ROOT
ATOM      1  C   UNL A   1      31.948  29.981  25.344  1.00  0.00     0.188 C 
ENDROOT
BRANCH   1   2
ATOM      2  O   UNL A   1      32.205  28.591  25.227  1.00  0.00    -0.376 OA
BRANCH   2   3
ATOM      3  C   UNL A   1      33.468  28.198  24.723  1.00  0.00     0.202 C 
BRANCH   3   4
ATOM      4  C   UNL A   1      33.519  27.391  23.418  1.00  0.00     0.261 C 
BRANCH   4   5
ATOM      5  O   UNL A   1      33.087  26.031  23.531  1.00  0.00    -0.459 OA
BRANCH   5   6
ATOM      6  C   UNL A   1      33.600  25.247  24.505  1.00  0.00     0.345 C 
ATOM      7  O   UNL A   1      34.659  25.393  25.080  1.00  0.00    -0.246 OA
BRANCH   6   8
ATOM      8  C   UNL A   1      32.673  24.107  24.731  1.00  0.00     0.139 A 
ATOM      9  C   UNL A   1      32.396  21.665  24.567  1.00  0.00     0.038 A 
ATOM     10  C   UNL A   1      31.267  21.771  25.387  1.00  0.00     0.033 A 
ATOM     11  C   UNL A   1      33.017  22.857  24.198  1.00  0.00     0.048 A 
ATOM     12  C   UNL A   1      30.816  23.020  25.841  1.00  0.00     0.089 A 
ATOM     13  C   UNL A   1      31.535  24.183  25.520  1.00  0.00     0.284 A 
BRANCH   9  14
ATOM     14  N   UNL A   1      32.945  20.459  24.136  1.00  0.00    -0.375 N 
ATOM     15  C   UNL A   1      32.235  19.708  23.103  1.00  0.00     0.143 C 
BRANCH  14  16
ATOM     16  C   UNL A   1      33.701  19.667  25.133  1.00  0.00     0.116 C 
BRANCH  16  17
ATOM     17  C   UNL A   1      34.762  18.710  24.555  1.00  0.00     0.021 C 
BRANCH  17  18
ATOM     18  C   UNL A   1      34.489  17.192  24.496  1.00  0.00    -0.002 C 
ATOM     19  C   UNL A   1      34.126  16.601  23.142  1.00  0.00     0.004 C 
ENDBRANCH  17  18
ENDBRANCH  16  17
ENDBRANCH  14  16
ENDBRANCH   9  14
BRANCH  13  20
ATOM     20  N   UNL A   1      30.972  25.470  25.896  1.00  0.00     0.063 N 
ATOM     21  O   UNL A   1      30.205  26.007  25.087  1.00  0.00    -0.258 OA
ATOM     22  O   UNL A   1      31.387  25.981  26.945  1.00  0.00    -0.258 OA
ENDBRANCH  13  20
ENDBRANCH   6   8
ENDBRANCH   5   6
ENDBRANCH   4   5
ENDBRANCH   3   4
ENDBRANCH   2   3
ENDBRANCH   1   2
BRANCH   1  23
ATOM     23  C   UNL A   1      32.196  30.496  26.778  1.00  0.00     0.188 C 
BRANCH  23  24
ATOM     24  O   UNL A   1      33.356  30.079  27.490  1.00  0.00    -0.376 OA
BRANCH  24  25
ATOM     25  C   UNL A   1      34.341  31.051  27.810  1.00  0.00     0.202 C 
BRANCH  25  26
ATOM     26  C   UNL A   1      33.941  32.533  27.823  1.00  0.00     0.261 C 
BRANCH  26  27
ATOM     27  O   UNL A   1      33.676  33.089  29.124  1.00  0.00    -0.460 OA
BRANCH  27  28
ATOM     28  C   UNL A   1      34.430  34.167  29.464  1.00  0.00     0.338 C 
ATOM     29  O   UNL A   1      34.043  35.313  29.615  1.00  0.00    -0.246 OA
BRANCH  28  30
ATOM     30  C   UNL A   1      35.795  33.730  29.836  1.00  0.00     0.060 A 
ATOM     31  C   UNL A   1      36.846  34.002  28.945  1.00  0.00     0.016 A 
ATOM     32  C   UNL A   1      36.037  33.019  31.011  1.00  0.00     0.016 A 
ATOM     33  C   UNL A   1      38.137  33.547  29.215  1.00  0.00     0.010 A 
ATOM     34  C   UNL A   1      37.326  32.534  31.264  1.00  0.00     0.010 A 
ATOM     35  C   UNL A   1      38.373  32.770  30.354  1.00  0.00    -0.014 A 
BRANCH  35  36
ATOM     36  C   UNL A   1      39.655  32.033  30.488  1.00  0.00     0.031 A 
ATOM     37  C   UNL A   1      39.748  30.649  29.902  1.00  0.00     0.074 A 
ATOM     38  C   UNL A   1      40.722  32.577  31.101  1.00  0.00     0.049 A 
ATOM     39  N   UNL A   1      40.734  29.792  29.946  1.00  0.00    -0.248 NA
ATOM     40  C   UNL A   1      38.566  30.171  29.166  1.00  0.00     0.031 C 
ATOM     41  C   UNL A   1      40.788  33.930  31.651  1.00  0.00     0.029 A 
ATOM     42  N   UNL A   1      41.958  32.042  31.370  1.00  0.00    -0.354 N 
ATOM     43  C   UNL A   1      40.291  28.670  29.255  1.00  0.00     0.074 A 
ATOM     44  C   UNL A   1      38.938  28.947  28.822  1.00  0.00     0.031 C 
ATOM     45  C   UNL A   1      41.999  34.112  32.209  1.00  0.00     0.029 A 
ATOM     46  C   UNL A   1      42.778  32.881  32.086  1.00  0.00     0.049 A 
ATOM     47  H   UNL A   1      42.231  31.142  31.077  1.00  0.00     0.167 HD
ATOM     48  C   UNL A   1      40.947  27.513  29.000  1.00  0.00     0.031 A 
ATOM     49  C   UNL A   1      44.006  32.670  32.604  1.00  0.00     0.031 A 
ATOM     50  C   UNL A   1      42.283  27.227  29.452  1.00  0.00     0.049 A 
ATOM     51  C   UNL A   1      44.682  31.338  32.393  1.00  0.00     0.074 A 
ATOM     52  C   UNL A   1      43.035  26.085  29.244  1.00  0.00     0.029 A 
ATOM     53  N   UNL A   1      43.060  28.085  30.214  1.00  0.00    -0.354 N 
ATOM     54  N   UNL A   1      44.257  30.291  31.725  1.00  0.00    -0.248 NA
ATOM     55  C   UNL A   1      46.008  31.162  33.002  1.00  0.00     0.031 C 
ATOM     56  C   UNL A   1      44.246  26.229  29.928  1.00  0.00     0.029 A 
ATOM     57  C   UNL A   1      44.274  27.487  30.509  1.00  0.00     0.049 A 
ATOM     58  H   UNL A   1      42.790  28.987  30.504  1.00  0.00     0.167 HD
ATOM     59  C   UNL A   1      45.276  29.346  31.807  1.00  0.00     0.074 A 
ATOM     60  C   UNL A   1      46.341  29.948  32.582  1.00  0.00     0.031 C 
ATOM     61  C   UNL A   1      45.328  28.096  31.283  1.00  0.00     0.031 A 
BRANCH  48  62
ATOM     62  C   UNL A   1      40.204  26.453  28.233  1.00  0.00    -0.014 A 
ATOM     63  C   UNL A   1      40.471  26.214  26.872  1.00  0.00     0.010 A 
ATOM     64  C   UNL A   1      39.235  25.673  28.887  1.00  0.00     0.010 A 
ATOM     65  C   UNL A   1      39.747  25.247  26.170  1.00  0.00     0.020 A 
ATOM     66  C   UNL A   1      38.529  24.684  28.196  1.00  0.00     0.020 A 
ATOM     67  C   UNL A   1      38.777  24.491  26.836  1.00  0.00     0.054 A 
BRANCH  67  68
ATOM     68  S   UNL A   1      37.857  23.237  25.902  1.00  0.00     0.124 S 
ATOM     69  O   UNL A   1      36.590  23.191  26.627  1.00  0.00    -0.237 OA
ATOM     70  O   UNL A   1      37.792  23.818  24.563  1.00  0.00    -0.237 OA
ATOM     71  O   UNL A   1      38.685  22.040  26.018  1.00  0.00    -0.744 OA
ENDBRANCH  67  68
ENDBRANCH  48  62
BRANCH  49  72
ATOM     72  C   UNL A   1      44.673  33.741  33.395  1.00  0.00    -0.014 A 
ATOM     73  C   UNL A   1      45.520  34.673  32.770  1.00  0.00     0.010 A 
ATOM     74  C   UNL A   1      44.468  33.831  34.785  1.00  0.00     0.010 A 
ATOM     75  C   UNL A   1      46.159  35.666  33.521  1.00  0.00     0.020 A 
ATOM     76  C   UNL A   1      45.083  34.838  35.534  1.00  0.00     0.020 A 
ATOM     77  C   UNL A   1      45.934  35.744  34.898  1.00  0.00     0.054 A 
BRANCH  77  78
ATOM     78  S   UNL A   1      46.735  37.070  35.843  1.00  0.00     0.124 S 
ATOM     79  O   UNL A   1      46.504  36.647  37.220  1.00  0.00    -0.237 OA
ATOM     80  O   UNL A   1      48.120  36.994  35.383  1.00  0.00    -0.237 OA
ATOM     81  O   UNL A   1      46.015  38.272  35.427  1.00  0.00    -0.744 OA
ENDBRANCH  77  78
ENDBRANCH  49  72
BRANCH  61  82
ATOM     82  C   UNL A   1      46.592  27.300  31.489  1.00  0.00    -0.014 A 
ATOM     83  C   UNL A   1      47.680  27.409  30.605  1.00  0.00     0.010 A 
ATOM     84  C   UNL A   1      46.714  26.477  32.624  1.00  0.00     0.010 A 
ATOM     85  C   UNL A   1      48.856  26.689  30.838  1.00  0.00     0.020 A 
ATOM     86  C   UNL A   1      47.897  25.778  32.876  1.00  0.00     0.020 A 
ATOM     87  C   UNL A   1      48.957  25.878  31.973  1.00  0.00     0.054 A 
BRANCH  87  88
ATOM     88  S   UNL A   1      50.510  24.990  32.279  1.00  0.00     0.124 S 
ATOM     89  O   UNL A   1      51.473  26.083  32.373  1.00  0.00    -0.237 OA
ATOM     90  O   UNL A   1      50.236  24.284  33.529  1.00  0.00    -0.237 OA
ATOM     91  O   UNL A   1      50.655  24.131  31.106  1.00  0.00    -0.744 OA
ENDBRANCH  87  88
ENDBRANCH  61  82
ENDBRANCH  35  36
ENDBRANCH  28  30
ENDBRANCH  27  28
ENDBRANCH  26  27
ENDBRANCH  25  26
ENDBRANCH  24  25
ENDBRANCH  23  24
ENDBRANCH   1  23
TORSDOF 25
ENDMDL
MODEL 3
REMARK VINA RESULT:      -8.0     10.028     15.820
REMARK SMILES CCCCN(C)c1ccc([N+](=O)[O-])c(C(=O)OCCOCCOCCOC(=O)c2ccc(-c3c4nc(c(-c5ccc(S(=O)(=O)[O-])cc5)c5ccc([nH]5)c(-c5ccc(S(=O)(=O)[O-])cc5)c5nc(c(-c6ccc(S(=O)(=O)[O-])cc6)c6ccc3[nH]6)C=C5)C=C4)cc2)c1
REMARK SMILES IDX 21 1 20 2 19 3 18 4 17 5 15 6 16 7 14 8 7 9 8 10 89 11 9 12
REMARK SMILES IDX 10 13 5 14 6 15 4 16 3 17 2 18 1 19 11 20 12 21 13 22 22 23
REMARK SMILES IDX 23 24 24 25 25 26 26 27 27 28 28 29 29 30 30 31 88 32 31 33
REMARK SMILES IDX 87 34 32 35 33 36 34 37 81 38 35 39 86 40 80 41 82 42 36 43
REMARK SMILES IDX 85 44 79 45 78 46 37 48 67 49 48 50 66 51 49 52 52 53 65 54
REMARK SMILES IDX 83 55 50 56 51 57 64 59 84 60 53 61 38 62 39 63 47 64 40 65
REMARK SMILES IDX 46 66 41 67 42 68 43 69 44 70 45 71 68 72 69 73 77 74 70 75
REMARK SMILES IDX 76 76 71 77 72 78 73 79 74 80 75 81 54 82 55 83 63 84 56 85
REMARK SMILES IDX 62 86 57 87 58 88 59 89 60 90 61 91
REMARK H PARENT 82 47 52 58
REMARK Flexibility Score: inf
ROOT
ATOM      1  C   UNL A   1      42.745  40.118  26.112  1.00  0.00     0.188 C 
ENDROOT
BRANCH   1   2
ATOM      2  O   UNL A   1      42.740  41.536  26.149  1.00  0.00    -0.376 OA
BRANCH   2   3
ATOM      3  C   UNL A   1      43.316  42.222  25.054  1.00  0.00     0.202 C 
BRANCH   3   4
ATOM      4  C   UNL A   1      44.239  43.416  25.339  1.00  0.00     0.261 C 
BRANCH   4   5
ATOM      5  O   UNL A   1      44.375  44.346  24.260  1.00  0.00    -0.459 OA
BRANCH   5   6
ATOM      6  C   UNL A   1      45.597  44.582  23.732  1.00  0.00     0.345 C 
ATOM      7  O   UNL A   1      46.457  45.313  24.178  1.00  0.00    -0.246 OA
BRANCH   6   8
ATOM      8  C   UNL A   1      45.709  43.839  22.449  1.00  0.00     0.139 A 
ATOM      9  C   UNL A   1      45.429  43.972  20.007  1.00  0.00     0.038 A 
ATOM     10  C   UNL A   1      46.168  42.790  19.890  1.00  0.00     0.033 A 
ATOM     11  C   UNL A   1      45.154  44.415  21.299  1.00  0.00     0.048 A 
ATOM     12  C   UNL A   1      46.638  42.115  21.027  1.00  0.00     0.089 A 
ATOM     13  C   UNL A   1      46.416  42.655  22.304  1.00  0.00     0.284 A 
BRANCH   9  14
ATOM     14  N   UNL A   1      44.991  44.736  18.926  1.00  0.00    -0.375 N 
ATOM     15  C   UNL A   1      45.801  45.881  18.517  1.00  0.00     0.143 C 
BRANCH  14  16
ATOM     16  C   UNL A   1      43.527  44.853  18.731  1.00  0.00     0.116 C 
BRANCH  16  17
ATOM     17  C   UNL A   1      42.709  43.595  19.082  1.00  0.00     0.021 C 
BRANCH  17  18
ATOM     18  C   UNL A   1      41.167  43.629  19.022  1.00  0.00    -0.002 C 
ATOM     19  C   UNL A   1      40.530  44.455  17.915  1.00  0.00     0.004 C 
ENDBRANCH  17  18
ENDBRANCH  16  17
ENDBRANCH  14  16
ENDBRANCH   9  14
BRANCH  13  20
ATOM     20  N   UNL A   1      46.801  41.868  23.464  1.00  0.00     0.063 N 
ATOM     21  O   UNL A   1      47.466  42.440  24.337  1.00  0.00    -0.258 OA
ATOM     22  O   UNL A   1      46.528  40.661  23.441  1.00  0.00    -0.258 OA
ENDBRANCH  13  20
ENDBRANCH   6   8
ENDBRANCH   5   6
ENDBRANCH   4   5
ENDBRANCH   3   4
ENDBRANCH   2   3
ENDBRANCH   1   2
BRANCH   1  23
ATOM     23  C   UNL A   1      43.996  39.528  26.800  1.00  0.00     0.188 C 
BRANCH  23  24
ATOM     24  O   UNL A   1      45.292  39.975  26.418  1.00  0.00    -0.376 OA
BRANCH  24  25
ATOM     25  C   UNL A   1      46.349  39.028  26.372  1.00  0.00     0.202 C 
BRANCH  25  26
ATOM     26  C   UNL A   1      47.165  38.767  27.647  1.00  0.00     0.261 C 
BRANCH  26  27
ATOM     27  O   UNL A   1      47.813  37.483  27.712  1.00  0.00    -0.460 OA
BRANCH  27  28
ATOM     28  C   UNL A   1      47.706  36.835  28.901  1.00  0.00     0.338 C 
ATOM     29  O   UNL A   1      47.599  37.341  30.005  1.00  0.00    -0.246 OA
BRANCH  28  30
ATOM     30  C   UNL A   1      47.530  35.383  28.669  1.00  0.00     0.060 A 
ATOM     31  C   UNL A   1      46.929  34.971  27.469  1.00  0.00     0.016 A 
ATOM     32  C   UNL A   1      47.897  34.442  29.630  1.00  0.00     0.016 A 
ATOM     33  C   UNL A   1      46.674  33.620  27.234  1.00  0.00     0.010 A 
ATOM     34  C   UNL A   1      47.609  33.089  29.408  1.00  0.00     0.010 A 
ATOM     35  C   UNL A   1      46.971  32.676  28.224  1.00  0.00    -0.014 A 
BRANCH  35  36
ATOM     36  C   UNL A   1      46.428  31.299  28.112  1.00  0.00     0.031 A 
ATOM     37  C   UNL A   1      47.347  30.206  27.633  1.00  0.00     0.074 A 
ATOM     38  C   UNL A   1      45.155  31.012  28.441  1.00  0.00     0.049 A 
ATOM     39  N   UNL A   1      47.088  28.946  27.397  1.00  0.00    -0.248 NA
ATOM     40  C   UNL A   1      48.747  30.590  27.388  1.00  0.00     0.031 C 
ATOM     41  C   UNL A   1      44.183  31.960  28.981  1.00  0.00     0.029 A 
ATOM     42  N   UNL A   1      44.463  29.828  28.355  1.00  0.00    -0.354 N 
ATOM     43  C   UNL A   1      48.287  28.389  26.967  1.00  0.00     0.074 A 
ATOM     44  C   UNL A   1      49.268  29.453  26.952  1.00  0.00     0.031 C 
ATOM     45  C   UNL A   1      43.011  31.323  29.161  1.00  0.00     0.029 A 
ATOM     46  C   UNL A   1      43.142  29.936  28.718  1.00  0.00     0.049 A 
ATOM     47  H   UNL A   1      44.874  28.983  28.060  1.00  0.00     0.167 HD
ATOM     48  C   UNL A   1      48.552  27.108  26.616  1.00  0.00     0.031 A 
ATOM     49  C   UNL A   1      42.148  29.025  28.675  1.00  0.00     0.031 A 
ATOM     50  C   UNL A   1      47.572  26.055  26.607  1.00  0.00     0.049 A 
ATOM     51  C   UNL A   1      42.441  27.627  28.188  1.00  0.00     0.074 A 
ATOM     52  C   UNL A   1      47.742  24.724  26.269  1.00  0.00     0.029 A 
ATOM     53  N   UNL A   1      46.235  26.216  26.937  1.00  0.00    -0.354 N 
ATOM     54  N   UNL A   1      43.582  27.111  27.798  1.00  0.00    -0.248 NA
ATOM     55  C   UNL A   1      41.310  26.689  28.141  1.00  0.00     0.031 C 
ATOM     56  C   UNL A   1      46.497  24.092  26.340  1.00  0.00     0.029 A 
ATOM     57  C   UNL A   1      45.563  25.015  26.784  1.00  0.00     0.049 A 
ATOM     58  H   UNL A   1      45.824  27.059  27.235  1.00  0.00     0.167 HD
ATOM     59  C   UNL A   1      43.313  25.779  27.491  1.00  0.00     0.074 A 
ATOM     60  C   UNL A   1      41.903  25.569  27.748  1.00  0.00     0.031 C 
ATOM     61  C   UNL A   1      44.158  24.817  27.043  1.00  0.00     0.031 A 
BRANCH  48  62
ATOM     62  C   UNL A   1      49.954  26.791  26.170  1.00  0.00    -0.014 A 
ATOM     63  C   UNL A   1      50.923  26.328  27.079  1.00  0.00     0.010 A 
ATOM     64  C   UNL A   1      50.303  26.943  24.816  1.00  0.00     0.010 A 
ATOM     65  C   UNL A   1      52.227  26.070  26.650  1.00  0.00     0.020 A 
ATOM     66  C   UNL A   1      51.599  26.659  24.377  1.00  0.00     0.020 A 
ATOM     67  C   UNL A   1      52.559  26.242  25.302  1.00  0.00     0.054 A 
BRANCH  67  68
ATOM     68  S   UNL A   1      54.258  25.893  24.771  1.00  0.00     0.124 S 
ATOM     69  O   UNL A   1      55.037  26.703  25.704  1.00  0.00    -0.237 OA
ATOM     70  O   UNL A   1      54.362  24.448  24.957  1.00  0.00    -0.237 OA
ATOM     71  O   UNL A   1      54.287  26.342  23.382  1.00  0.00    -0.744 OA
ENDBRANCH  67  68
ENDBRANCH  48  62
BRANCH  49  72
ATOM     72  C   UNL A   1      40.768  29.410  29.085  1.00  0.00    -0.014 A 
ATOM     73  C   UNL A   1      40.440  29.561  30.444  1.00  0.00     0.010 A 
ATOM     74  C   UNL A   1      39.771  29.623  28.115  1.00  0.00     0.010 A 
ATOM     75  C   UNL A   1      39.138  29.905  30.825  1.00  0.00     0.020 A 
ATOM     76  C   UNL A   1      38.477  29.993  28.490  1.00  0.00     0.020 A 
ATOM     77  C   UNL A   1      38.165  30.122  29.845  1.00  0.00     0.054 A 
BRANCH  77  78
ATOM     78  S   UNL A   1      36.497  30.615  30.362  1.00  0.00     0.124 S 
ATOM     79  O   UNL A   1      36.028  29.421  31.058  1.00  0.00    -0.237 OA
ATOM     80  O   UNL A   1      36.757  31.777  31.207  1.00  0.00    -0.237 OA
ATOM     81  O   UNL A   1      35.820  30.911  29.101  1.00  0.00    -0.744 OA
ENDBRANCH  77  78
ENDBRANCH  49  72
BRANCH  61  82
ATOM     82  C   UNL A   1      43.599  23.432  26.838  1.00  0.00    -0.014 A 
ATOM     83  C   UNL A   1      43.687  22.781  25.594  1.00  0.00     0.010 A 
ATOM     84  C   UNL A   1      43.034  22.745  27.929  1.00  0.00     0.010 A 
ATOM     85  C   UNL A   1      43.195  21.482  25.439  1.00  0.00     0.020 A 
ATOM     86  C   UNL A   1      42.567  21.436  27.785  1.00  0.00     0.020 A 
ATOM     87  C   UNL A   1      42.638  20.816  26.536  1.00  0.00     0.054 A 
BRANCH  87  88
ATOM     88  S   UNL A   1      42.050  19.113  26.322  1.00  0.00     0.124 S 
ATOM     89  O   UNL A   1      42.226  18.559  27.661  1.00  0.00    -0.237 OA
ATOM     90  O   UNL A   1      40.665  19.303  25.897  1.00  0.00    -0.237 OA
ATOM     91  O   UNL A   1      42.939  18.566  25.299  1.00  0.00    -0.744 OA
ENDBRANCH  87  88
ENDBRANCH  61  82
ENDBRANCH  35  36
ENDBRANCH  28  30
ENDBRANCH  27  28
ENDBRANCH  26  27
ENDBRANCH  25  26
ENDBRANCH  24  25
ENDBRANCH  23  24
ENDBRANCH   1  23
TORSDOF 25
ENDMDL
