MODEL 1
REMARK VINA RESULT:      -7.9      0.000      0.000
REMARK SMILES Cc1c(CC(=O)OCCOCCOCCOC(=O)c2ccc(-c3c4nc(c(-c5ccc(S(=O)(=O)[O-])cc5)c5ccc([nH]5)c(-c5ccc(S(=O)(=O)[O-])cc5)c5nc(c(-c6ccc(S(=O)(=O)[O-])cc6)c6ccc3[nH]6)C=C5)C=C4)cc2)cc(-c2ccc(S(C)(=O)=O)cc2)n1-c1ccccc1
REMARK SMILES IDX 11 1 10 2 9 3 8 4 7 5 5 6 6 7 4 8 3 9 1 10 2 11 91 12 79 13
REMARK SMILES IDX 80 14 92 15 93 16 97 17 94 18 96 19 95 20 81 21 82 22 90 23
REMARK SMILES IDX 83 24 89 25 84 26 85 27 86 28 87 29 88 30 12 31 13 32 14 33
REMARK SMILES IDX 15 34 16 35 17 36 18 37 19 38 20 39 78 40 21 41 77 42 22 43
REMARK SMILES IDX 23 44 24 45 71 46 25 47 76 48 70 49 72 50 26 51 75 52 69 53
REMARK SMILES IDX 68 54 27 56 57 57 38 58 56 59 39 60 42 61 55 62 73 63 40 64
REMARK SMILES IDX 41 65 54 67 74 68 43 69 28 70 29 71 37 72 30 73 36 74 31 75
REMARK SMILES IDX 32 76 33 77 34 78 35 79 58 80 59 81 67 82 60 83 66 84 61 85
REMARK SMILES IDX 62 86 63 87 64 88 65 89 44 90 45 91 53 92 46 93 52 94 47 95
REMARK SMILES IDX 48 96 49 97 50 98 51 99
REMARK H PARENT 72 55 42 66
REMARK Flexibility Score: inf
ROOT
ATOM      1  C   UNL A   1      49.770  20.684  33.596  1.00  0.00     0.188 C 
ENDROOT
BRANCH   1   2
ATOM      2  O   UNL A   1      51.166  20.435  33.511  1.00  0.00    -0.376 OA
BRANCH   2   3
ATOM      3  C   UNL A   1      52.027  21.425  32.973  1.00  0.00     0.202 C 
BRANCH   3   4
ATOM      4  C   UNL A   1      51.720  22.896  33.278  1.00  0.00     0.261 C 
BRANCH   4   5
ATOM      5  O   UNL A   1      51.238  23.646  32.146  1.00  0.00    -0.463 OA
BRANCH   5   6
ATOM      6  C   UNL A   1      50.945  24.950  32.386  1.00  0.00     0.310 C 
ATOM      7  O   UNL A   1      50.652  25.390  33.498  1.00  0.00    -0.252 OA
BRANCH   6   8
ATOM      8  C   UNL A   1      51.030  25.886  31.197  1.00  0.00     0.160 C 
BRANCH   8   9
ATOM      9  C   UNL A   1      49.944  25.892  30.155  1.00  0.00    -0.015 A 
ATOM     10  C   UNL A   1      50.636  27.879  28.578  1.00  0.00     0.065 C 
ATOM     11  C   UNL A   1      49.813  26.718  29.038  1.00  0.00     0.024 A 
ATOM     12  N   UNL A   1      48.658  26.347  28.361  1.00  0.00    -0.314 N 
ATOM     13  C   UNL A   1      48.705  25.191  30.259  1.00  0.00     0.033 A 
ATOM     14  C   UNL A   1      47.885  25.569  29.209  1.00  0.00     0.053 A 
BRANCH  12  15
ATOM     15  C   UNL A   1      48.331  26.667  27.021  1.00  0.00     0.046 A 
ATOM     16  C   UNL A   1      47.438  27.703  26.738  1.00  0.00     0.026 A 
ATOM     17  C   UNL A   1      48.800  25.827  26.004  1.00  0.00     0.026 A 
ATOM     18  C   UNL A   1      47.020  27.904  25.422  1.00  0.00     0.002 A 
ATOM     19  C   UNL A   1      48.360  26.023  24.695  1.00  0.00     0.002 A 
ATOM     20  C   UNL A   1      47.472  27.060  24.405  1.00  0.00     0.000 A 
ENDBRANCH  12  15
BRANCH  14  21
ATOM     21  C   UNL A   1      46.492  25.205  28.957  1.00  0.00    -0.001 A 
ATOM     22  C   UNL A   1      46.157  24.262  27.977  1.00  0.00     0.011 A 
ATOM     23  C   UNL A   1      45.476  25.832  29.689  1.00  0.00     0.011 A 
ATOM     24  C   UNL A   1      44.820  23.942  27.735  1.00  0.00     0.021 A 
ATOM     25  C   UNL A   1      44.136  25.523  29.450  1.00  0.00     0.021 A 
ATOM     26  C   UNL A   1      43.816  24.575  28.473  1.00  0.00     0.067 A 
BRANCH  26  27
ATOM     27  S   UNL A   1      42.120  24.118  28.213  1.00  0.00     0.175 S 
ATOM     28  C   UNL A   1      42.006  23.785  26.477  1.00  0.00     0.163 C 
ATOM     29  O   UNL A   1      41.912  22.861  28.929  1.00  0.00    -0.224 OA
ATOM     30  O   UNL A   1      41.296  25.267  28.497  1.00  0.00    -0.224 OA
ENDBRANCH  26  27
ENDBRANCH  14  21
ENDBRANCH   8   9
ENDBRANCH   6   8
ENDBRANCH   5   6
ENDBRANCH   4   5
ENDBRANCH   3   4
ENDBRANCH   2   3
ENDBRANCH   1   2
BRANCH   1  31
ATOM     31  C   UNL A   1      49.015  20.543  34.923  1.00  0.00     0.188 C 
BRANCH  31  32
ATOM     32  O   UNL A   1      48.115  21.543  35.332  1.00  0.00    -0.376 OA
BRANCH  32  33
ATOM     33  C   UNL A   1      48.222  22.850  34.777  1.00  0.00     0.202 C 
BRANCH  33  34
ATOM     34  C   UNL A   1      47.236  23.978  35.209  1.00  0.00     0.261 C 
BRANCH  34  35
ATOM     35  O   UNL A   1      46.226  24.474  34.245  1.00  0.00    -0.460 OA
BRANCH  35  36
ATOM     36  C   UNL A   1      44.912  24.088  34.465  1.00  0.00     0.338 C 
ATOM     37  O   UNL A   1      44.633  22.981  34.911  1.00  0.00    -0.246 OA
BRANCH  36  38
ATOM     38  C   UNL A   1      43.798  25.133  34.166  1.00  0.00     0.060 A 
ATOM     39  C   UNL A   1      44.049  26.221  33.328  1.00  0.00     0.016 A 
ATOM     40  C   UNL A   1      42.605  25.275  34.909  1.00  0.00     0.016 A 
ATOM     41  C   UNL A   1      43.107  27.328  33.177  1.00  0.00     0.010 A 
ATOM     42  C   UNL A   1      41.672  26.434  34.790  1.00  0.00     0.010 A 
ATOM     43  C   UNL A   1      41.859  27.510  33.891  1.00  0.00    -0.014 A 
BRANCH  43  44
ATOM     44  C   UNL A   1      41.212  29.063  33.974  1.00  0.00     0.031 A 
ATOM     45  C   UNL A   1      40.017  28.909  33.095  1.00  0.00     0.074 A 
ATOM     46  C   UNL A   1      41.405  30.392  34.437  1.00  0.00     0.049 A 
ATOM     47  N   UNL A   1      40.182  28.509  31.866  1.00  0.00    -0.248 NA
ATOM     48  C   UNL A   1      38.648  28.798  33.595  1.00  0.00     0.031 C 
ATOM     49  C   UNL A   1      42.571  30.948  35.155  1.00  0.00     0.029 A 
ATOM     50  N   UNL A   1      40.602  31.612  34.381  1.00  0.00    -0.354 N 
ATOM     51  C   UNL A   1      38.929  28.370  31.326  1.00  0.00     0.074 A 
ATOM     52  C   UNL A   1      38.044  28.346  32.488  1.00  0.00     0.031 C 
ATOM     53  C   UNL A   1      42.368  32.235  35.589  1.00  0.00     0.029 A 
ATOM     54  C   UNL A   1      41.066  32.765  35.168  1.00  0.00     0.049 A 
ATOM     55  H   UNL A   1      39.783  31.661  33.837  1.00  0.00     0.167 HD
ATOM     56  C   UNL A   1      38.729  29.021  30.143  1.00  0.00     0.031 A 
ATOM     57  C   UNL A   1      40.528  34.054  35.397  1.00  0.00     0.031 A 
ATOM     58  C   UNL A   1      38.142  30.321  30.351  1.00  0.00     0.049 A 
ATOM     59  C   UNL A   1      39.719  34.356  34.210  1.00  0.00     0.074 A 
ATOM     60  C   UNL A   1      37.083  30.749  31.126  1.00  0.00     0.029 A 
ATOM     61  N   UNL A   1      38.938  31.426  30.103  1.00  0.00    -0.354 N 
ATOM     62  N   UNL A   1      40.262  34.668  33.074  1.00  0.00    -0.248 NA
ATOM     63  C   UNL A   1      38.263  34.430  34.253  1.00  0.00     0.031 C 
ATOM     64  C   UNL A   1      37.550  31.929  31.734  1.00  0.00     0.029 A 
ATOM     65  C   UNL A   1      38.643  32.410  31.024  1.00  0.00     0.049 A 
ATOM     66  H   UNL A   1      39.608  31.497  29.385  1.00  0.00     0.167 HD
ATOM     67  C   UNL A   1      39.263  34.399  32.186  1.00  0.00     0.074 A 
ATOM     68  C   UNL A   1      38.030  34.538  32.943  1.00  0.00     0.031 C 
ATOM     69  C   UNL A   1      39.556  33.515  31.198  1.00  0.00     0.031 A 
BRANCH  56  70
ATOM     70  C   UNL A   1      39.767  28.772  29.081  1.00  0.00    -0.014 A 
ATOM     71  C   UNL A   1      41.122  28.812  29.433  1.00  0.00     0.010 A 
ATOM     72  C   UNL A   1      39.428  28.525  27.731  1.00  0.00     0.010 A 
ATOM     73  C   UNL A   1      42.109  28.652  28.452  1.00  0.00     0.020 A 
ATOM     74  C   UNL A   1      40.406  28.388  26.746  1.00  0.00     0.020 A 
ATOM     75  C   UNL A   1      41.745  28.456  27.114  1.00  0.00     0.054 A 
BRANCH  75  76
ATOM     76  S   UNL A   1      43.051  28.320  25.868  1.00  0.00     0.124 S 
ATOM     77  O   UNL A   1      43.887  29.484  26.163  1.00  0.00    -0.237 OA
ATOM     78  O   UNL A   1      43.651  27.030  26.192  1.00  0.00    -0.237 OA
ATOM     79  O   UNL A   1      42.338  28.392  24.596  1.00  0.00    -0.744 OA
ENDBRANCH  75  76
ENDBRANCH  56  70
BRANCH  57  80
ATOM     80  C   UNL A   1      40.571  35.404  36.263  1.00  0.00    -0.014 A 
ATOM     81  C   UNL A   1      39.515  35.714  37.206  1.00  0.00     0.010 A 
ATOM     82  C   UNL A   1      41.758  36.117  36.524  1.00  0.00     0.010 A 
ATOM     83  C   UNL A   1      39.663  36.553  38.355  1.00  0.00     0.020 A 
ATOM     84  C   UNL A   1      41.910  36.985  37.667  1.00  0.00     0.020 A 
ATOM     85  C   UNL A   1      40.881  37.169  38.599  1.00  0.00     0.054 A 
BRANCH  85  86
ATOM     86  S   UNL A   1      41.151  38.075  40.187  1.00  0.00     0.124 S 
ATOM     87  O   UNL A   1      39.833  38.626  40.487  1.00  0.00    -0.237 OA
ATOM     88  O   UNL A   1      41.606  37.019  41.091  1.00  0.00    -0.237 OA
ATOM     89  O   UNL A   1      42.173  39.064  39.849  1.00  0.00    -0.744 OA
ENDBRANCH  85  86
ENDBRANCH  57  80
BRANCH  69  90
ATOM     90  C   UNL A   1      40.907  33.662  30.518  1.00  0.00    -0.014 A 
ATOM     91  C   UNL A   1      41.251  34.687  29.603  1.00  0.00     0.010 A 
ATOM     92  C   UNL A   1      41.856  32.651  30.737  1.00  0.00     0.010 A 
ATOM     93  C   UNL A   1      42.453  34.655  28.879  1.00  0.00     0.020 A 
ATOM     94  C   UNL A   1      43.076  32.632  30.047  1.00  0.00     0.020 A 
ATOM     95  C   UNL A   1      43.354  33.615  29.096  1.00  0.00     0.054 A 
BRANCH  95  96
ATOM     96  S   UNL A   1      44.867  33.535  28.095  1.00  0.00     0.124 S 
ATOM     97  O   UNL A   1      45.039  32.096  27.905  1.00  0.00    -0.237 OA
ATOM     98  O   UNL A   1      44.501  34.280  26.895  1.00  0.00    -0.237 OA
ATOM     99  O   UNL A   1      45.877  34.163  28.943  1.00  0.00    -0.744 OA
ENDBRANCH  95  96
ENDBRANCH  69  90
ENDBRANCH  43  44
ENDBRANCH  36  38
ENDBRANCH  35  36
ENDBRANCH  34  35
ENDBRANCH  33  34
ENDBRANCH  32  33
ENDBRANCH  31  32
ENDBRANCH   1  31
TORSDOF 24
ENDMDL
MODEL 2
REMARK VINA RESULT:      -7.4      9.046     16.780
REMARK SMILES Cc1c(CC(=O)OCCOCCOCCOC(=O)c2ccc(-c3c4nc(c(-c5ccc(S(=O)(=O)[O-])cc5)c5ccc([nH]5)c(-c5ccc(S(=O)(=O)[O-])cc5)c5nc(c(-c6ccc(S(=O)(=O)[O-])cc6)c6ccc3[nH]6)C=C5)C=C4)cc2)cc(-c2ccc(S(C)(=O)=O)cc2)n1-c1ccccc1
REMARK SMILES IDX 11 1 10 2 9 3 8 4 7 5 5 6 6 7 4 8 3 9 1 10 2 11 91 12 79 13
REMARK SMILES IDX 80 14 92 15 93 16 97 17 94 18 96 19 95 20 81 21 82 22 90 23
REMARK SMILES IDX 83 24 89 25 84 26 85 27 86 28 87 29 88 30 12 31 13 32 14 33
REMARK SMILES IDX 15 34 16 35 17 36 18 37 19 38 20 39 78 40 21 41 77 42 22 43
REMARK SMILES IDX 23 44 24 45 71 46 25 47 76 48 70 49 72 50 26 51 75 52 69 53
REMARK SMILES IDX 68 54 27 56 57 57 38 58 56 59 39 60 42 61 55 62 73 63 40 64
REMARK SMILES IDX 41 65 54 67 74 68 43 69 28 70 29 71 37 72 30 73 36 74 31 75
REMARK SMILES IDX 32 76 33 77 34 78 35 79 58 80 59 81 67 82 60 83 66 84 61 85
REMARK SMILES IDX 62 86 63 87 64 88 65 89 44 90 45 91 53 92 46 93 52 94 47 95
REMARK SMILES IDX 48 96 49 97 50 98 51 99
REMARK H PARENT 72 55 42 66
REMARK Flexibility Score: inf
ROOT
ATOM      1  C   UNL A   1      45.825  42.936  27.675  1.00  0.00     0.188 C 
ENDROOT
BRANCH   1   2
ATOM      2  O   UNL A   1      45.965  43.560  26.406  1.00  0.00    -0.376 OA
BRANCH   2   3
ATOM      3  C   UNL A   1      44.839  43.679  25.553  1.00  0.00     0.202 C 
BRANCH   3   4
ATOM      4  C   UNL A   1      44.834  42.883  24.243  1.00  0.00     0.261 C 
BRANCH   4   5
ATOM      5  O   UNL A   1      44.058  43.486  23.188  1.00  0.00    -0.463 OA
BRANCH   5   6
ATOM      6  C   UNL A   1      43.231  42.646  22.513  1.00  0.00     0.310 C 
ATOM      7  O   UNL A   1      42.269  42.075  23.027  1.00  0.00    -0.252 OA
BRANCH   6   8
ATOM      8  C   UNL A   1      43.527  42.459  21.038  1.00  0.00     0.160 C 
BRANCH   8   9
ATOM      9  C   UNL A   1      43.995  43.620  20.203  1.00  0.00    -0.015 A 
ATOM     10  C   UNL A   1      41.825  44.339  18.904  1.00  0.00     0.065 C 
ATOM     11  C   UNL A   1      43.254  44.423  19.335  1.00  0.00     0.024 A 
ATOM     12  N   UNL A   1      44.110  45.376  18.795  1.00  0.00    -0.314 N 
ATOM     13  C   UNL A   1      45.360  43.964  19.971  1.00  0.00     0.033 A 
ATOM     14  C   UNL A   1      45.416  44.968  19.019  1.00  0.00     0.053 A 
BRANCH  12  15
ATOM     15  C   UNL A   1      43.728  46.582  18.158  1.00  0.00     0.046 A 
ATOM     16  C   UNL A   1      43.906  47.809  18.801  1.00  0.00     0.026 A 
ATOM     17  C   UNL A   1      43.035  46.501  16.944  1.00  0.00     0.026 A 
ATOM     18  C   UNL A   1      43.391  48.966  18.215  1.00  0.00     0.002 A 
ATOM     19  C   UNL A   1      42.506  47.661  16.378  1.00  0.00     0.002 A 
ATOM     20  C   UNL A   1      42.684  48.891  17.013  1.00  0.00     0.000 A 
ENDBRANCH  12  15
BRANCH  14  21
ATOM     21  C   UNL A   1      46.588  45.564  18.383  1.00  0.00    -0.001 A 
ATOM     22  C   UNL A   1      47.701  45.953  19.139  1.00  0.00     0.011 A 
ATOM     23  C   UNL A   1      46.586  45.776  16.998  1.00  0.00     0.011 A 
ATOM     24  C   UNL A   1      48.805  46.541  18.518  1.00  0.00     0.021 A 
ATOM     25  C   UNL A   1      47.682  46.368  16.370  1.00  0.00     0.021 A 
ATOM     26  C   UNL A   1      48.788  46.746  17.135  1.00  0.00     0.067 A 
BRANCH  26  27
ATOM     27  S   UNL A   1      50.219  47.430  16.336  1.00  0.00     0.175 S 
ATOM     28  C   UNL A   1      50.812  48.666  17.459  1.00  0.00     0.163 C 
ATOM     29  O   UNL A   1      51.214  46.361  16.274  1.00  0.00    -0.224 OA
ATOM     30  O   UNL A   1      49.786  48.097  15.134  1.00  0.00    -0.224 OA
ENDBRANCH  26  27
ENDBRANCH  14  21
ENDBRANCH   8   9
ENDBRANCH   6   8
ENDBRANCH   5   6
ENDBRANCH   4   5
ENDBRANCH   3   4
ENDBRANCH   2   3
ENDBRANCH   1   2
BRANCH   1  31
ATOM     31  C   UNL A   1      46.187  41.461  27.882  1.00  0.00     0.188 C 
BRANCH  31  32
ATOM     32  O   UNL A   1      45.173  40.489  27.956  1.00  0.00    -0.376 OA
BRANCH  32  33
ATOM     33  C   UNL A   1      45.238  39.345  27.109  1.00  0.00     0.202 C 
BRANCH  33  34
ATOM     34  C   UNL A   1      44.171  38.214  27.223  1.00  0.00     0.261 C 
BRANCH  34  35
ATOM     35  O   UNL A   1      44.502  36.968  27.952  1.00  0.00    -0.460 OA
BRANCH  35  36
ATOM     36  C   UNL A   1      43.435  36.230  28.442  1.00  0.00     0.338 C 
ATOM     37  O   UNL A   1      42.550  36.747  29.114  1.00  0.00    -0.246 OA
BRANCH  36  38
ATOM     38  C   UNL A   1      43.377  34.720  28.069  1.00  0.00     0.060 A 
ATOM     39  C   UNL A   1      43.600  33.738  29.035  1.00  0.00     0.016 A 
ATOM     40  C   UNL A   1      43.418  34.213  26.751  1.00  0.00     0.016 A 
ATOM     41  C   UNL A   1      43.754  32.325  28.697  1.00  0.00     0.010 A 
ATOM     42  C   UNL A   1      43.627  32.775  26.407  1.00  0.00     0.010 A 
ATOM     43  C   UNL A   1      43.775  31.747  27.368  1.00  0.00    -0.014 A 
BRANCH  43  44
ATOM     44  C   UNL A   1      44.485  30.232  27.172  1.00  0.00     0.031 A 
ATOM     45  C   UNL A   1      43.301  29.427  26.754  1.00  0.00     0.074 A 
ATOM     46  C   UNL A   1      45.664  29.457  27.341  1.00  0.00     0.049 A 
ATOM     47  N   UNL A   1      42.257  29.386  27.531  1.00  0.00    -0.248 NA
ATOM     48  C   UNL A   1      43.058  28.993  25.379  1.00  0.00     0.031 C 
ATOM     49  C   UNL A   1      46.955  29.875  27.925  1.00  0.00     0.029 A 
ATOM     50  N   UNL A   1      46.019  28.073  27.035  1.00  0.00    -0.354 N 
ATOM     51  C   UNL A   1      41.300  28.661  26.866  1.00  0.00     0.074 A 
ATOM     52  C   UNL A   1      41.769  28.642  25.483  1.00  0.00     0.031 C 
ATOM     53  C   UNL A   1      47.934  28.921  27.799  1.00  0.00     0.029 A 
ATOM     54  C   UNL A   1      47.433  27.691  27.175  1.00  0.00     0.049 A 
ATOM     55  H   UNL A   1      45.340  27.422  26.747  1.00  0.00     0.167 HD
ATOM     56  C   UNL A   1      40.757  27.627  27.573  1.00  0.00     0.031 A 
ATOM     57  C   UNL A   1      48.136  26.489  26.916  1.00  0.00     0.031 A 
ATOM     58  C   UNL A   1      41.432  26.385  27.291  1.00  0.00     0.049 A 
ATOM     59  C   UNL A   1      47.148  25.415  27.081  1.00  0.00     0.074 A 
ATOM     60  C   UNL A   1      41.820  25.785  26.110  1.00  0.00     0.029 A 
ATOM     61  N   UNL A   1      42.209  25.840  28.298  1.00  0.00    -0.354 N 
ATOM     62  N   UNL A   1      46.732  25.044  28.252  1.00  0.00    -0.248 NA
ATOM     63  C   UNL A   1      46.653  24.629  25.958  1.00  0.00     0.031 C 
ATOM     64  C   UNL A   1      43.123  25.319  26.366  1.00  0.00     0.029 A 
ATOM     65  C   UNL A   1      43.323  25.249  27.740  1.00  0.00     0.049 A 
ATOM     66  H   UNL A   1      42.000  25.871  29.260  1.00  0.00     0.167 HD
ATOM     67  C   UNL A   1      45.551  24.426  27.962  1.00  0.00     0.074 A 
ATOM     68  C   UNL A   1      45.690  23.957  26.593  1.00  0.00     0.031 C 
ATOM     69  C   UNL A   1      44.447  24.915  28.582  1.00  0.00     0.031 A 
BRANCH  56  70
ATOM     70  C   UNL A   1      40.260  27.974  28.952  1.00  0.00    -0.014 A 
ATOM     71  C   UNL A   1      38.884  28.142  29.155  1.00  0.00     0.010 A 
ATOM     72  C   UNL A   1      41.132  28.165  30.048  1.00  0.00     0.010 A 
ATOM     73  C   UNL A   1      38.401  28.532  30.410  1.00  0.00     0.020 A 
ATOM     74  C   UNL A   1      40.659  28.576  31.293  1.00  0.00     0.020 A 
ATOM     75  C   UNL A   1      39.292  28.760  31.466  1.00  0.00     0.054 A 
BRANCH  75  76
ATOM     76  S   UNL A   1      38.632  29.327  33.055  1.00  0.00     0.124 S 
ATOM     77  O   UNL A   1      39.710  28.981  33.982  1.00  0.00    -0.237 OA
ATOM     78  O   UNL A   1      38.455  30.756  32.819  1.00  0.00    -0.237 OA
ATOM     79  O   UNL A   1      37.409  28.550  33.230  1.00  0.00    -0.744 OA
ENDBRANCH  75  76
ENDBRANCH  56  70
BRANCH  57  80
ATOM     80  C   UNL A   1      49.555  25.766  26.731  1.00  0.00    -0.014 A 
ATOM     81  C   UNL A   1      50.300  25.898  25.495  1.00  0.00     0.010 A 
ATOM     82  C   UNL A   1      50.366  25.367  27.812  1.00  0.00     0.010 A 
ATOM     83  C   UNL A   1      51.719  25.764  25.374  1.00  0.00     0.020 A 
ATOM     84  C   UNL A   1      51.796  25.205  27.696  1.00  0.00     0.020 A 
ATOM     85  C   UNL A   1      52.473  25.442  26.493  1.00  0.00     0.054 A 
BRANCH  85  86
ATOM     86  S   UNL A   1      54.318  25.481  26.401  1.00  0.00     0.124 S 
ATOM     87  O   UNL A   1      54.663  24.110  26.037  1.00  0.00    -0.237 OA
ATOM     88  O   UNL A   1      54.572  26.483  25.367  1.00  0.00    -0.237 OA
ATOM     89  O   UNL A   1      54.721  25.884  27.747  1.00  0.00    -0.744 OA
ENDBRANCH  85  86
ENDBRANCH  57  80
BRANCH  69  90
ATOM     90  C   UNL A   1      44.575  25.247  30.060  1.00  0.00    -0.014 A 
ATOM     91  C   UNL A   1      44.532  24.303  31.114  1.00  0.00     0.010 A 
ATOM     92  C   UNL A   1      44.643  26.605  30.414  1.00  0.00     0.010 A 
ATOM     93  C   UNL A   1      44.476  24.703  32.458  1.00  0.00     0.020 A 
ATOM     94  C   UNL A   1      44.627  27.011  31.756  1.00  0.00     0.020 A 
ATOM     95  C   UNL A   1      44.508  26.060  32.770  1.00  0.00     0.054 A 
BRANCH  95  96
ATOM     96  S   UNL A   1      44.349  26.571  34.505  1.00  0.00     0.124 S 
ATOM     97  O   UNL A   1      43.100  27.330  34.494  1.00  0.00    -0.237 OA
ATOM     98  O   UNL A   1      44.295  25.296  35.214  1.00  0.00    -0.237 OA
ATOM     99  O   UNL A   1      45.547  27.373  34.742  1.00  0.00    -0.744 OA
ENDBRANCH  95  96
ENDBRANCH  69  90
ENDBRANCH  43  44
ENDBRANCH  36  38
ENDBRANCH  35  36
ENDBRANCH  34  35
ENDBRANCH  33  34
ENDBRANCH  32  33
ENDBRANCH  31  32
ENDBRANCH   1  31
TORSDOF 24
ENDMDL
MODEL 3
REMARK VINA RESULT:      -7.2      1.472      2.871
REMARK SMILES Cc1c(CC(=O)OCCOCCOCCOC(=O)c2ccc(-c3c4nc(c(-c5ccc(S(=O)(=O)[O-])cc5)c5ccc([nH]5)c(-c5ccc(S(=O)(=O)[O-])cc5)c5nc(c(-c6ccc(S(=O)(=O)[O-])cc6)c6ccc3[nH]6)C=C5)C=C4)cc2)cc(-c2ccc(S(C)(=O)=O)cc2)n1-c1ccccc1
REMARK SMILES IDX 11 1 10 2 9 3 8 4 7 5 5 6 6 7 4 8 3 9 1 10 2 11 91 12 79 13
REMARK SMILES IDX 80 14 92 15 93 16 97 17 94 18 96 19 95 20 81 21 82 22 90 23
REMARK SMILES IDX 83 24 89 25 84 26 85 27 86 28 87 29 88 30 12 31 13 32 14 33
REMARK SMILES IDX 15 34 16 35 17 36 18 37 19 38 20 39 78 40 21 41 77 42 22 43
REMARK SMILES IDX 23 44 24 45 71 46 25 47 76 48 70 49 72 50 26 51 75 52 69 53
REMARK SMILES IDX 68 54 27 56 57 57 38 58 56 59 39 60 42 61 55 62 73 63 40 64
REMARK SMILES IDX 41 65 54 67 74 68 43 69 28 70 29 71 37 72 30 73 36 74 31 75
REMARK SMILES IDX 32 76 33 77 34 78 35 79 58 80 59 81 67 82 60 83 66 84 61 85
REMARK SMILES IDX 62 86 63 87 64 88 65 89 44 90 45 91 53 92 46 93 52 94 47 95
REMARK SMILES IDX 48 96 49 97 50 98 51 99
REMARK H PARENT 72 55 42 66
REMARK Flexibility Score: inf
ROOT
ATOM      1  C   UNL A   1      49.665  20.906  33.801  1.00  0.00     0.188 C 
ENDROOT
BRANCH   1   2
ATOM      2  O   UNL A   1      50.929  20.300  34.031  1.00  0.00    -0.376 OA
BRANCH   2   3
ATOM      3  C   UNL A   1      52.097  21.102  34.070  1.00  0.00     0.202 C 
BRANCH   3   4
ATOM      4  C   UNL A   1      51.974  22.583  33.694  1.00  0.00     0.261 C 
BRANCH   4   5
ATOM      5  O   UNL A   1      52.891  23.010  32.667  1.00  0.00    -0.463 OA
BRANCH   5   6
ATOM      6  C   UNL A   1      53.045  24.353  32.538  1.00  0.00     0.310 C 
ATOM      7  O   UNL A   1      54.027  24.881  32.018  1.00  0.00    -0.252 OA
BRANCH   6   8
ATOM      8  C   UNL A   1      51.901  25.209  33.045  1.00  0.00     0.160 C 
BRANCH   8   9
ATOM      9  C   UNL A   1      50.813  25.657  32.107  1.00  0.00    -0.015 A 
ATOM     10  C   UNL A   1      48.644  25.496  33.583  1.00  0.00     0.065 C 
ATOM     11  C   UNL A   1      49.449  25.806  32.363  1.00  0.00     0.024 A 
ATOM     12  N   UNL A   1      48.839  26.254  31.197  1.00  0.00    -0.314 N 
ATOM     13  C   UNL A   1      50.954  25.789  30.693  1.00  0.00     0.033 A 
ATOM     14  C   UNL A   1      49.710  26.045  30.139  1.00  0.00     0.053 A 
BRANCH  12  15
ATOM     15  C   UNL A   1      47.564  26.861  31.097  1.00  0.00     0.046 A 
ATOM     16  C   UNL A   1      46.450  26.109  30.716  1.00  0.00     0.026 A 
ATOM     17  C   UNL A   1      47.477  28.251  31.240  1.00  0.00     0.026 A 
ATOM     18  C   UNL A   1      45.236  26.757  30.484  1.00  0.00     0.002 A 
ATOM     19  C   UNL A   1      46.264  28.892  30.986  1.00  0.00     0.002 A 
ATOM     20  C   UNL A   1      45.146  28.146  30.609  1.00  0.00     0.000 A 
ENDBRANCH  12  15
BRANCH  14  21
ATOM     21  C   UNL A   1      49.338  26.146  28.730  1.00  0.00    -0.001 A 
ATOM     22  C   UNL A   1      49.549  27.328  28.009  1.00  0.00     0.011 A 
ATOM     23  C   UNL A   1      48.734  25.051  28.099  1.00  0.00     0.011 A 
ATOM     24  C   UNL A   1      49.168  27.414  26.669  1.00  0.00     0.021 A 
ATOM     25  C   UNL A   1      48.343  25.130  26.761  1.00  0.00     0.021 A 
ATOM     26  C   UNL A   1      48.566  26.314  26.052  1.00  0.00     0.067 A 
BRANCH  26  27
ATOM     27  S   UNL A   1      48.144  26.400  24.330  1.00  0.00     0.175 S 
ATOM     28  C   UNL A   1      46.924  27.681  24.230  1.00  0.00     0.163 C 
ATOM     29  O   UNL A   1      49.342  26.860  23.629  1.00  0.00    -0.224 OA
ATOM     30  O   UNL A   1      47.511  25.159  23.959  1.00  0.00    -0.224 OA
ENDBRANCH  26  27
ENDBRANCH  14  21
ENDBRANCH   8   9
ENDBRANCH   6   8
ENDBRANCH   5   6
ENDBRANCH   4   5
ENDBRANCH   3   4
ENDBRANCH   2   3
ENDBRANCH   1   2
BRANCH   1  31
ATOM     31  C   UNL A   1      48.375  20.295  34.360  1.00  0.00     0.188 C 
BRANCH  31  32
ATOM     32  O   UNL A   1      47.395  21.122  34.939  1.00  0.00    -0.376 OA
BRANCH  32  33
ATOM     33  C   UNL A   1      47.758  22.422  35.395  1.00  0.00     0.202 C 
BRANCH  33  34
ATOM     34  C   UNL A   1      46.680  23.387  35.975  1.00  0.00     0.261 C 
BRANCH  34  35
ATOM     35  O   UNL A   1      45.813  24.155  35.050  1.00  0.00    -0.460 OA
BRANCH  35  36
ATOM     36  C   UNL A   1      44.463  23.835  35.052  1.00  0.00     0.338 C 
ATOM     37  O   UNL A   1      44.061  22.742  35.434  1.00  0.00    -0.246 OA
BRANCH  36  38
ATOM     38  C   UNL A   1      43.465  24.937  34.591  1.00  0.00     0.060 A 
ATOM     39  C   UNL A   1      43.918  26.070  33.914  1.00  0.00     0.016 A 
ATOM     40  C   UNL A   1      42.138  25.070  35.059  1.00  0.00     0.016 A 
ATOM     41  C   UNL A   1      43.056  27.218  33.640  1.00  0.00     0.010 A 
ATOM     42  C   UNL A   1      41.278  26.267  34.821  1.00  0.00     0.010 A 
ATOM     43  C   UNL A   1      41.683  27.395  34.069  1.00  0.00    -0.014 A 
BRANCH  43  44
ATOM     44  C   UNL A   1      41.063  28.960  34.122  1.00  0.00     0.031 A 
ATOM     45  C   UNL A   1      39.959  28.851  33.125  1.00  0.00     0.074 A 
ATOM     46  C   UNL A   1      41.237  30.275  34.631  1.00  0.00     0.049 A 
ATOM     47  N   UNL A   1      40.238  28.472  31.911  1.00  0.00    -0.248 NA
ATOM     48  C   UNL A   1      38.545  28.761  33.484  1.00  0.00     0.031 C 
ATOM     49  C   UNL A   1      42.336  30.790  35.473  1.00  0.00     0.029 A 
ATOM     50  N   UNL A   1      40.469  31.514  34.522  1.00  0.00    -0.354 N 
ATOM     51  C   UNL A   1      39.042  28.372  31.245  1.00  0.00     0.074 A 
ATOM     52  C   UNL A   1      38.045  28.345  32.313  1.00  0.00     0.031 C 
ATOM     53  C   UNL A   1      42.119  32.072  35.913  1.00  0.00     0.029 A 
ATOM     54  C   UNL A   1      40.876  32.640  35.377  1.00  0.00     0.049 A 
ATOM     55  H   UNL A   1      39.709  31.593  33.901  1.00  0.00     0.167 HD
ATOM     56  C   UNL A   1      38.975  29.051  30.063  1.00  0.00     0.031 A 
ATOM     57  C   UNL A   1      40.345  33.937  35.579  1.00  0.00     0.031 A 
ATOM     58  C   UNL A   1      38.397  30.360  30.241  1.00  0.00     0.049 A 
ATOM     59  C   UNL A   1      39.665  34.280  34.324  1.00  0.00     0.074 A 
ATOM     60  C   UNL A   1      37.275  30.797  30.915  1.00  0.00     0.029 A 
ATOM     61  N   UNL A   1      39.236  31.451  30.097  1.00  0.00    -0.354 N 
ATOM     62  N   UNL A   1      40.325  34.602  33.255  1.00  0.00    -0.248 NA
ATOM     63  C   UNL A   1      38.214  34.387  34.224  1.00  0.00     0.031 C 
ATOM     64  C   UNL A   1      37.703  31.954  31.593  1.00  0.00     0.029 A 
ATOM     65  C   UNL A   1      38.872  32.423  31.005  1.00  0.00     0.049 A 
ATOM     66  H   UNL A   1      39.976  31.521  29.451  1.00  0.00     0.167 HD
ATOM     67  C   UNL A   1      39.414  34.374  32.267  1.00  0.00     0.074 A 
ATOM     68  C   UNL A   1      38.116  34.526  32.900  1.00  0.00     0.031 C 
ATOM     69  C   UNL A   1      39.786  33.503  31.294  1.00  0.00     0.031 A 
BRANCH  56  70
ATOM     70  C   UNL A   1      40.108  28.799  29.104  1.00  0.00    -0.014 A 
ATOM     71  C   UNL A   1      41.426  28.890  29.571  1.00  0.00     0.010 A 
ATOM     72  C   UNL A   1      39.896  28.499  27.739  1.00  0.00     0.010 A 
ATOM     73  C   UNL A   1      42.499  28.728  28.686  1.00  0.00     0.020 A 
ATOM     74  C   UNL A   1      40.959  28.361  26.848  1.00  0.00     0.020 A 
ATOM     75  C   UNL A   1      42.258  28.479  27.329  1.00  0.00     0.054 A 
BRANCH  75  76
ATOM     76  S   UNL A   1      43.672  28.343  26.205  1.00  0.00     0.124 S 
ATOM     77  O   UNL A   1      44.433  27.240  26.793  1.00  0.00    -0.237 OA
ATOM     78  O   UNL A   1      43.024  28.038  24.933  1.00  0.00    -0.237 OA
ATOM     79  O   UNL A   1      44.325  29.645  26.295  1.00  0.00    -0.744 OA
ENDBRANCH  75  76
ENDBRANCH  56  70
BRANCH  57  80
ATOM     80  C   UNL A   1      40.330  35.267  36.474  1.00  0.00    -0.014 A 
ATOM     81  C   UNL A   1      39.281  35.493  37.449  1.00  0.00     0.010 A 
ATOM     82  C   UNL A   1      41.478  36.045  36.724  1.00  0.00     0.010 A 
ATOM     83  C   UNL A   1      39.408  36.315  38.613  1.00  0.00     0.020 A 
ATOM     84  C   UNL A   1      41.607  36.896  37.883  1.00  0.00     0.020 A 
ATOM     85  C   UNL A   1      40.593  36.998  38.842  1.00  0.00     0.054 A 
BRANCH  85  86
ATOM     86  S   UNL A   1      40.849  37.883  40.444  1.00  0.00     0.124 S 
ATOM     87  O   UNL A   1      41.918  37.121  41.081  1.00  0.00    -0.237 OA
ATOM     88  O   UNL A   1      41.215  39.233  40.016  1.00  0.00    -0.237 OA
ATOM     89  O   UNL A   1      39.546  37.789  41.101  1.00  0.00    -0.744 OA
ENDBRANCH  85  86
ENDBRANCH  57  80
BRANCH  69  90
ATOM     90  C   UNL A   1      41.201  33.633  30.754  1.00  0.00    -0.014 A 
ATOM     91  C   UNL A   1      42.307  32.855  31.173  1.00  0.00     0.010 A 
ATOM     92  C   UNL A   1      41.452  34.669  29.840  1.00  0.00     0.010 A 
ATOM     93  C   UNL A   1      43.615  33.153  30.762  1.00  0.00     0.020 A 
ATOM     94  C   UNL A   1      42.751  34.949  29.393  1.00  0.00     0.020 A 
ATOM     95  C   UNL A   1      43.830  34.212  29.883  1.00  0.00     0.054 A 
BRANCH  95  96
ATOM     96  S   UNL A   1      45.533  34.644  29.422  1.00  0.00     0.124 S 
ATOM     97  O   UNL A   1      46.069  35.176  30.674  1.00  0.00    -0.237 OA
ATOM     98  O   UNL A   1      46.090  33.362  29.003  1.00  0.00    -0.237 OA
ATOM     99  O   UNL A   1      45.365  35.635  28.362  1.00  0.00    -0.744 OA
ENDBRANCH  95  96
ENDBRANCH  69  90
ENDBRANCH  43  44
ENDBRANCH  36  38
ENDBRANCH  35  36
ENDBRANCH  34  35
ENDBRANCH  33  34
ENDBRANCH  32  33
ENDBRANCH  31  32
ENDBRANCH   1  31
TORSDOF 24
ENDMDL
