MODEL 1
REMARK VINA RESULT:     -11.3      0.000      0.000
REMARK SMILES Cc1cc(C(=O)OCCOCCOCCOC(=O)c2ccc(-c3c4nc(c(-c5ccc(S(=O)(=O)[O-])cc5)c5ccc([nH]5)c(-c5ccc(S(=O)(=O)[O-])cc5)c5nc(c(-c6ccc(S(=O)(=O)[O-])cc6)c6ccc3[nH]6)C=C5)C=C4)cc2)c([N+](=O)[O-])cc1[N+](=O)[O-]
REMARK SMILES IDX 12 1 11 2 10 3 9 4 8 5 7 6 5 7 6 8 4 9 1 10 2 11 3 12 84 13
REMARK SMILES IDX 83 14 79 15 85 16 86 17 87 18 80 19 81 20 82 21 13 22 14 23
REMARK SMILES IDX 15 24 16 25 17 26 18 27 19 28 20 29 78 30 21 31 77 32 22 33
REMARK SMILES IDX 23 34 24 35 71 36 25 37 76 38 70 39 72 40 26 41 75 42 69 43
REMARK SMILES IDX 68 44 27 46 57 47 38 48 56 49 39 50 42 51 55 52 73 53 40 54
REMARK SMILES IDX 41 55 54 57 74 58 43 59 28 60 29 61 37 62 30 63 36 64 31 65
REMARK SMILES IDX 32 66 33 67 34 68 35 69 58 70 59 71 67 72 60 73 66 74 61 75
REMARK SMILES IDX 62 76 63 77 64 78 65 79 44 80 45 81 53 82 46 83 52 84 47 85
REMARK SMILES IDX 48 86 49 87 50 88 51 89
REMARK H PARENT 72 45 42 56
REMARK Flexibility Score: inf
ROOT
ATOM      1  C   UNL A   1      31.416  29.309  25.209  1.00  0.00     0.188 C 
ENDROOT
BRANCH   1   2
ATOM      2  C   UNL A   1      31.771  28.919  23.770  1.00  0.00     0.188 C 
BRANCH   2   3
ATOM      3  O   UNL A   1      33.062  29.192  23.164  1.00  0.00    -0.376 OA
BRANCH   3   4
ATOM      4  C   UNL A   1      33.871  28.220  22.441  1.00  0.00     0.202 C 
BRANCH   4   5
ATOM      5  C   UNL A   1      33.467  26.579  22.359  1.00  0.00     0.261 C 
BRANCH   5   6
ATOM      6  O   UNL A   1      34.236  25.291  23.123  1.00  0.00    -0.459 OA
BRANCH   6   7
ATOM      7  C   UNL A   1      34.170  23.871  23.095  1.00  0.00     0.345 C 
ATOM      8  O   UNL A   1      34.382  23.095  22.164  1.00  0.00    -0.246 OA
BRANCH   7   9
ATOM      9  C   UNL A   1      33.830  22.889  24.171  1.00  0.00     0.138 A 
ATOM     10  C   UNL A   1      35.493  19.403  24.788  1.00  0.00     0.052 C 
ATOM     11  C   UNL A   1      34.405  20.456  24.742  1.00  0.00     0.028 A 
ATOM     12  C   UNL A   1      34.737  21.769  24.316  1.00  0.00     0.033 A 
ATOM     13  C   UNL A   1      33.058  20.227  24.997  1.00  0.00     0.279 A 
ATOM     14  C   UNL A   1      32.108  21.252  24.799  1.00  0.00     0.172 A 
ATOM     15  C   UNL A   1      32.489  22.555  24.367  1.00  0.00     0.290 A 
BRANCH  13  16
ATOM     16  N   UNL A   1      32.562  18.894  25.345  1.00  0.00     0.063 N 
ATOM     17  O   UNL A   1      32.121  18.197  24.420  1.00  0.00    -0.258 OA
ATOM     18  O   UNL A   1      32.574  18.566  26.538  1.00  0.00    -0.258 OA
ENDBRANCH  13  16
BRANCH  15  19
ATOM     19  N   UNL A   1      31.421  23.465  23.934  1.00  0.00     0.063 N 
ATOM     20  O   UNL A   1      31.198  24.487  24.591  1.00  0.00    -0.258 OA
ATOM     21  O   UNL A   1      30.767  23.133  22.936  1.00  0.00    -0.258 OA
ENDBRANCH  15  19
ENDBRANCH   7   9
ENDBRANCH   6   7
ENDBRANCH   5   6
ENDBRANCH   4   5
ENDBRANCH   3   4
ENDBRANCH   2   3
ENDBRANCH   1   2
BRANCH   1  22
ATOM     22  O   UNL A   1      32.354  30.239  25.719  1.00  0.00    -0.376 OA
BRANCH  22  23
ATOM     23  C   UNL A   1      32.051  30.810  26.981  1.00  0.00     0.202 C 
BRANCH  23  24
ATOM     24  C   UNL A   1      33.233  31.555  27.641  1.00  0.00     0.261 C 
BRANCH  24  25
ATOM     25  O   UNL A   1      34.372  30.692  27.914  1.00  0.00    -0.460 OA
BRANCH  25  26
ATOM     26  C   UNL A   1      35.643  31.240  27.891  1.00  0.00     0.338 C 
ATOM     27  O   UNL A   1      35.817  32.453  27.863  1.00  0.00    -0.246 OA
BRANCH  26  28
ATOM     28  C   UNL A   1      36.706  30.229  28.228  1.00  0.00     0.060 A 
ATOM     29  C   UNL A   1      36.991  29.543  29.419  1.00  0.00     0.016 A 
ATOM     30  C   UNL A   1      37.582  29.970  27.237  1.00  0.00     0.016 A 
ATOM     31  C   UNL A   1      38.204  28.699  29.589  1.00  0.00     0.010 A 
ATOM     32  C   UNL A   1      38.771  29.306  27.549  1.00  0.00     0.010 A 
ATOM     33  C   UNL A   1      39.169  28.510  28.591  1.00  0.00    -0.014 A 
BRANCH  33  34
ATOM     34  C   UNL A   1      40.614  27.862  28.552  1.00  0.00     0.031 A 
ATOM     35  C   UNL A   1      41.227  26.365  28.281  1.00  0.00     0.074 A 
ATOM     36  C   UNL A   1      41.593  28.769  28.767  1.00  0.00     0.049 A 
ATOM     37  N   UNL A   1      42.213  25.826  28.991  1.00  0.00    -0.248 NA
ATOM     38  C   UNL A   1      40.852  25.329  27.267  1.00  0.00     0.031 C 
ATOM     39  C   UNL A   1      43.032  28.601  28.623  1.00  0.00     0.029 A 
ATOM     40  N   UNL A   1      41.450  30.014  29.374  1.00  0.00    -0.354 N 
ATOM     41  C   UNL A   1      42.501  24.571  28.415  1.00  0.00     0.074 A 
ATOM     42  C   UNL A   1      41.332  24.198  27.755  1.00  0.00     0.031 C 
ATOM     43  C   UNL A   1      43.642  29.542  29.363  1.00  0.00     0.029 A 
ATOM     44  C   UNL A   1      42.615  30.265  30.096  1.00  0.00     0.049 A 
ATOM     45  H   UNL A   1      40.669  30.609  29.304  1.00  0.00     0.167 HD
ATOM     46  C   UNL A   1      43.730  24.008  28.206  1.00  0.00     0.031 A 
ATOM     47  C   UNL A   1      42.535  30.425  31.448  1.00  0.00     0.031 A 
ATOM     48  C   UNL A   1      44.706  24.724  28.982  1.00  0.00     0.049 A 
ATOM     49  C   UNL A   1      43.270  29.334  32.198  1.00  0.00     0.074 A 
ATOM     50  C   UNL A   1      45.661  25.673  28.681  1.00  0.00     0.029 A 
ATOM     51  N   UNL A   1      44.485  24.787  30.346  1.00  0.00    -0.354 N 
ATOM     52  N   UNL A   1      43.827  28.298  31.627  1.00  0.00    -0.248 NA
ATOM     53  C   UNL A   1      43.442  29.316  33.647  1.00  0.00     0.031 C 
ATOM     54  C   UNL A   1      45.855  26.449  29.864  1.00  0.00     0.029 A 
ATOM     55  C   UNL A   1      45.084  25.908  30.882  1.00  0.00     0.049 A 
ATOM     56  H   UNL A   1      43.974  24.124  30.863  1.00  0.00     0.167 HD
ATOM     57  C   UNL A   1      44.323  27.451  32.579  1.00  0.00     0.074 A 
ATOM     58  C   UNL A   1      44.107  28.161  33.826  1.00  0.00     0.031 C 
ATOM     59  C   UNL A   1      44.830  26.217  32.283  1.00  0.00     0.031 A 
BRANCH  46  60
ATOM     60  C   UNL A   1      44.034  22.904  27.145  1.00  0.00    -0.014 A 
ATOM     61  C   UNL A   1      43.079  21.919  26.823  1.00  0.00     0.010 A 
ATOM     62  C   UNL A   1      45.276  22.729  26.474  1.00  0.00     0.010 A 
ATOM     63  C   UNL A   1      43.345  20.867  25.899  1.00  0.00     0.020 A 
ATOM     64  C   UNL A   1      45.542  21.730  25.521  1.00  0.00     0.020 A 
ATOM     65  C   UNL A   1      44.578  20.784  25.247  1.00  0.00     0.054 A 
BRANCH  65  66
ATOM     66  S   UNL A   1      44.949  19.433  24.089  1.00  0.00     0.124 S 
ATOM     67  O   UNL A   1      44.146  18.335  24.622  1.00  0.00    -0.237 OA
ATOM     68  O   UNL A   1      44.510  19.973  22.807  1.00  0.00    -0.237 OA
ATOM     69  O   UNL A   1      46.395  19.249  24.216  1.00  0.00    -0.744 OA
ENDBRANCH  65  66
ENDBRANCH  46  60
BRANCH  47  70
ATOM     70  C   UNL A   1      41.324  31.213  31.869  1.00  0.00    -0.014 A 
ATOM     71  C   UNL A   1      41.372  32.606  31.607  1.00  0.00     0.010 A 
ATOM     72  C   UNL A   1      40.062  30.640  32.106  1.00  0.00     0.010 A 
ATOM     73  C   UNL A   1      40.209  33.356  31.400  1.00  0.00     0.020 A 
ATOM     74  C   UNL A   1      38.882  31.405  31.932  1.00  0.00     0.020 A 
ATOM     75  C   UNL A   1      38.969  32.735  31.505  1.00  0.00     0.054 A 
BRANCH  75  76
ATOM     76  S   UNL A   1      37.517  33.648  30.885  1.00  0.00     0.124 S 
ATOM     77  O   UNL A   1      37.412  34.756  31.828  1.00  0.00    -0.237 OA
ATOM     78  O   UNL A   1      37.947  34.014  29.534  1.00  0.00    -0.237 OA
ATOM     79  O   UNL A   1      36.443  32.661  30.955  1.00  0.00    -0.744 OA
ENDBRANCH  75  76
ENDBRANCH  47  70
BRANCH  59  80
ATOM     80  C   UNL A   1      45.110  25.146  33.310  1.00  0.00    -0.014 A 
ATOM     81  C   UNL A   1      44.104  24.410  33.954  1.00  0.00     0.010 A 
ATOM     82  C   UNL A   1      46.448  24.737  33.529  1.00  0.00     0.010 A 
ATOM     83  C   UNL A   1      44.417  23.380  34.849  1.00  0.00     0.020 A 
ATOM     84  C   UNL A   1      46.769  23.669  34.369  1.00  0.00     0.020 A 
ATOM     85  C   UNL A   1      45.749  23.023  35.058  1.00  0.00     0.054 A 
BRANCH  85  86
ATOM     86  S   UNL A   1      46.160  21.682  36.200  1.00  0.00     0.124 S 
ATOM     87  O   UNL A   1      45.595  22.177  37.453  1.00  0.00    -0.237 OA
ATOM     88  O   UNL A   1      45.478  20.526  35.622  1.00  0.00    -0.237 OA
ATOM     89  O   UNL A   1      47.617  21.629  36.144  1.00  0.00    -0.744 OA
ENDBRANCH  85  86
ENDBRANCH  59  80
ENDBRANCH  33  34
ENDBRANCH  26  28
ENDBRANCH  25  26
ENDBRANCH  24  25
ENDBRANCH  23  24
ENDBRANCH  22  23
ENDBRANCH   1  22
TORSDOF 22
ENDMDL
MODEL 2
REMARK VINA RESULT:     -11.2      1.904      2.663
REMARK SMILES Cc1cc(C(=O)OCCOCCOCCOC(=O)c2ccc(-c3c4nc(c(-c5ccc(S(=O)(=O)[O-])cc5)c5ccc([nH]5)c(-c5ccc(S(=O)(=O)[O-])cc5)c5nc(c(-c6ccc(S(=O)(=O)[O-])cc6)c6ccc3[nH]6)C=C5)C=C4)cc2)c([N+](=O)[O-])cc1[N+](=O)[O-]
REMARK SMILES IDX 12 1 11 2 10 3 9 4 8 5 7 6 5 7 6 8 4 9 1 10 2 11 3 12 84 13
REMARK SMILES IDX 83 14 79 15 85 16 86 17 87 18 80 19 81 20 82 21 13 22 14 23
REMARK SMILES IDX 15 24 16 25 17 26 18 27 19 28 20 29 78 30 21 31 77 32 22 33
REMARK SMILES IDX 23 34 24 35 71 36 25 37 76 38 70 39 72 40 26 41 75 42 69 43
REMARK SMILES IDX 68 44 27 46 57 47 38 48 56 49 39 50 42 51 55 52 73 53 40 54
REMARK SMILES IDX 41 55 54 57 74 58 43 59 28 60 29 61 37 62 30 63 36 64 31 65
REMARK SMILES IDX 32 66 33 67 34 68 35 69 58 70 59 71 67 72 60 73 66 74 61 75
REMARK SMILES IDX 62 76 63 77 64 78 65 79 44 80 45 81 53 82 46 83 52 84 47 85
REMARK SMILES IDX 48 86 49 87 50 88 51 89
REMARK H PARENT 72 45 42 56
REMARK Flexibility Score: inf
ROOT
ATOM      1  C   UNL A   1      32.239  28.983  23.081  1.00  0.00     0.188 C 
ENDROOT
BRANCH   1   2
ATOM      2  C   UNL A   1      30.822  29.332  22.611  1.00  0.00     0.188 C 
BRANCH   2   3
ATOM      3  O   UNL A   1      29.816  28.335  22.298  1.00  0.00    -0.376 OA
BRANCH   3   4
ATOM      4  C   UNL A   1      29.024  27.604  23.278  1.00  0.00     0.202 C 
BRANCH   4   5
ATOM      5  C   UNL A   1      29.655  26.320  24.182  1.00  0.00     0.261 C 
BRANCH   5   6
ATOM      6  O   UNL A   1      30.358  24.903  23.605  1.00  0.00    -0.459 OA
BRANCH   6   7
ATOM      7  C   UNL A   1      31.091  23.809  24.141  1.00  0.00     0.345 C 
ATOM      8  O   UNL A   1      30.827  23.082  25.097  1.00  0.00    -0.246 OA
BRANCH   7   9
ATOM      9  C   UNL A   1      32.392  23.205  23.714  1.00  0.00     0.138 A 
ATOM     10  C   UNL A   1      33.879  19.772  24.852  1.00  0.00     0.052 C 
ATOM     11  C   UNL A   1      33.859  21.221  24.412  1.00  0.00     0.028 A 
ATOM     12  C   UNL A   1      32.612  21.830  24.110  1.00  0.00     0.033 A 
ATOM     13  C   UNL A   1      34.966  22.058  24.363  1.00  0.00     0.279 A 
ATOM     14  C   UNL A   1      34.815  23.429  24.061  1.00  0.00     0.172 A 
ATOM     15  C   UNL A   1      33.541  23.996  23.768  1.00  0.00     0.290 A 
BRANCH  13  16
ATOM     16  N   UNL A   1      36.298  21.587  24.748  1.00  0.00     0.063 N 
ATOM     17  O   UNL A   1      37.195  21.674  23.896  1.00  0.00    -0.258 OA
ATOM     18  O   UNL A   1      36.435  21.097  25.876  1.00  0.00    -0.258 OA
ENDBRANCH  13  16
BRANCH  15  19
ATOM     19  N   UNL A   1      33.443  25.461  23.733  1.00  0.00     0.063 N 
ATOM     20  O   UNL A   1      33.379  26.034  22.641  1.00  0.00    -0.258 OA
ATOM     21  O   UNL A   1      33.466  26.054  24.820  1.00  0.00    -0.258 OA
ENDBRANCH  15  19
ENDBRANCH   7   9
ENDBRANCH   6   7
ENDBRANCH   5   6
ENDBRANCH   4   5
ENDBRANCH   3   4
ENDBRANCH   2   3
ENDBRANCH   1   2
BRANCH   1  22
ATOM     22  O   UNL A   1      32.338  29.098  24.489  1.00  0.00    -0.376 OA
BRANCH  22  23
ATOM     23  C   UNL A   1      31.424  29.983  25.113  1.00  0.00     0.202 C 
BRANCH  23  24
ATOM     24  C   UNL A   1      31.887  30.506  26.492  1.00  0.00     0.261 C 
BRANCH  24  25
ATOM     25  O   UNL A   1      33.294  30.250  26.757  1.00  0.00    -0.460 OA
BRANCH  25  26
ATOM     26  C   UNL A   1      33.975  31.096  27.614  1.00  0.00     0.338 C 
ATOM     27  O   UNL A   1      33.461  32.123  28.043  1.00  0.00    -0.246 OA
BRANCH  26  28
ATOM     28  C   UNL A   1      35.216  30.457  28.181  1.00  0.00     0.060 A 
ATOM     29  C   UNL A   1      35.647  30.280  29.505  1.00  0.00     0.016 A 
ATOM     30  C   UNL A   1      36.105  30.028  27.265  1.00  0.00     0.016 A 
ATOM     31  C   UNL A   1      36.999  29.765  29.847  1.00  0.00     0.010 A 
ATOM     32  C   UNL A   1      37.403  29.723  27.682  1.00  0.00     0.010 A 
ATOM     33  C   UNL A   1      37.964  29.412  28.894  1.00  0.00    -0.014 A 
BRANCH  33  34
ATOM     34  C   UNL A   1      39.503  29.045  28.955  1.00  0.00     0.031 A 
ATOM     35  C   UNL A   1      40.404  27.698  28.703  1.00  0.00     0.074 A 
ATOM     36  C   UNL A   1      40.276  30.110  29.264  1.00  0.00     0.049 A 
ATOM     37  N   UNL A   1      41.419  27.327  29.477  1.00  0.00    -0.248 NA
ATOM     38  C   UNL A   1      40.305  26.645  27.643  1.00  0.00     0.031 C 
ATOM     39  C   UNL A   1      41.728  30.217  29.229  1.00  0.00     0.029 A 
ATOM     40  N   UNL A   1      39.858  31.286  29.882  1.00  0.00    -0.354 N 
ATOM     41  C   UNL A   1      41.979  26.168  28.901  1.00  0.00     0.074 A 
ATOM     42  C   UNL A   1      40.952  25.607  28.144  1.00  0.00     0.031 C 
ATOM     43  C   UNL A   1      42.095  31.229  30.033  1.00  0.00     0.029 A 
ATOM     44  C   UNL A   1      40.900  31.724  30.698  1.00  0.00     0.049 A 
ATOM     45  H   UNL A   1      38.987  31.728  29.763  1.00  0.00     0.167 HD
ATOM     46  C   UNL A   1      43.304  25.850  28.777  1.00  0.00     0.031 A 
ATOM     47  C   UNL A   1      40.692  31.820  32.042  1.00  0.00     0.031 A 
ATOM     48  C   UNL A   1      44.068  26.708  29.641  1.00  0.00     0.049 A 
ATOM     49  C   UNL A   1      41.562  30.860  32.826  1.00  0.00     0.074 A 
ATOM     50  C   UNL A   1      44.848  27.827  29.435  1.00  0.00     0.029 A 
ATOM     51  N   UNL A   1      43.741  26.682  30.985  1.00  0.00    -0.354 N 
ATOM     52  N   UNL A   1      42.344  29.964  32.280  1.00  0.00    -0.248 NA
ATOM     53  C   UNL A   1      41.628  30.824  34.284  1.00  0.00     0.031 C 
ATOM     54  C   UNL A   1      44.806  28.585  30.645  1.00  0.00     0.029 A 
ATOM     55  C   UNL A   1      44.077  27.876  31.588  1.00  0.00     0.049 A 
ATOM     56  H   UNL A   1      43.326  25.919  31.447  1.00  0.00     0.167 HD
ATOM     57  C   UNL A   1      42.919  29.192  33.250  1.00  0.00     0.074 A 
ATOM     58  C   UNL A   1      42.483  29.807  34.491  1.00  0.00     0.031 C 
ATOM     59  C   UNL A   1      43.669  28.085  32.971  1.00  0.00     0.031 A 
BRANCH  46  60
ATOM     60  C   UNL A   1      43.886  24.858  27.722  1.00  0.00    -0.014 A 
ATOM     61  C   UNL A   1      44.830  23.877  28.085  1.00  0.00     0.010 A 
ATOM     62  C   UNL A   1      43.602  24.881  26.329  1.00  0.00     0.010 A 
ATOM     63  C   UNL A   1      45.419  22.992  27.137  1.00  0.00     0.020 A 
ATOM     64  C   UNL A   1      44.132  23.985  25.384  1.00  0.00     0.020 A 
ATOM     65  C   UNL A   1      45.059  23.048  25.788  1.00  0.00     0.054 A 
BRANCH  65  66
ATOM     66  S   UNL A   1      45.822  21.950  24.557  1.00  0.00     0.124 S 
ATOM     67  O   UNL A   1      44.689  21.605  23.702  1.00  0.00    -0.237 OA
ATOM     68  O   UNL A   1      46.839  22.801  23.947  1.00  0.00    -0.237 OA
ATOM     69  O   UNL A   1      46.346  20.840  25.353  1.00  0.00    -0.744 OA
ENDBRANCH  65  66
ENDBRANCH  46  60
BRANCH  47  70
ATOM     70  C   UNL A   1      39.328  32.355  32.383  1.00  0.00    -0.014 A 
ATOM     71  C   UNL A   1      39.070  33.690  31.980  1.00  0.00     0.010 A 
ATOM     72  C   UNL A   1      38.221  31.540  32.679  1.00  0.00     0.010 A 
ATOM     73  C   UNL A   1      37.774  34.136  31.700  1.00  0.00     0.020 A 
ATOM     74  C   UNL A   1      36.904  32.001  32.430  1.00  0.00     0.020 A 
ATOM     75  C   UNL A   1      36.702  33.267  31.869  1.00  0.00     0.054 A 
BRANCH  75  76
ATOM     76  S   UNL A   1      35.095  33.765  31.162  1.00  0.00     0.124 S 
ATOM     77  O   UNL A   1      34.239  32.630  31.488  1.00  0.00    -0.237 OA
ATOM     78  O   UNL A   1      34.812  34.997  31.901  1.00  0.00    -0.237 OA
ATOM     79  O   UNL A   1      35.391  33.940  29.743  1.00  0.00    -0.744 OA
ENDBRANCH  75  76
ENDBRANCH  47  70
BRANCH  59  80
ATOM     80  C   UNL A   1      44.069  27.050  33.995  1.00  0.00    -0.014 A 
ATOM     81  C   UNL A   1      43.146  26.266  34.703  1.00  0.00     0.010 A 
ATOM     82  C   UNL A   1      45.440  26.727  34.146  1.00  0.00     0.010 A 
ATOM     83  C   UNL A   1      43.569  25.271  35.593  1.00  0.00     0.020 A 
ATOM     84  C   UNL A   1      45.870  25.694  34.981  1.00  0.00     0.020 A 
ATOM     85  C   UNL A   1      44.930  24.999  35.734  1.00  0.00     0.054 A 
BRANCH  85  86
ATOM     86  S   UNL A   1      45.483  23.705  36.869  1.00  0.00     0.124 S 
ATOM     87  O   UNL A   1      44.768  24.059  38.093  1.00  0.00    -0.237 OA
ATOM     88  O   UNL A   1      45.037  22.474  36.221  1.00  0.00    -0.237 OA
ATOM     89  O   UNL A   1      46.931  23.890  36.909  1.00  0.00    -0.744 OA
ENDBRANCH  85  86
ENDBRANCH  59  80
ENDBRANCH  33  34
ENDBRANCH  26  28
ENDBRANCH  25  26
ENDBRANCH  24  25
ENDBRANCH  23  24
ENDBRANCH  22  23
ENDBRANCH   1  22
TORSDOF 22
ENDMDL
MODEL 3
REMARK VINA RESULT:     -11.2      3.462      5.133
REMARK SMILES Cc1cc(C(=O)OCCOCCOCCOC(=O)c2ccc(-c3c4nc(c(-c5ccc(S(=O)(=O)[O-])cc5)c5ccc([nH]5)c(-c5ccc(S(=O)(=O)[O-])cc5)c5nc(c(-c6ccc(S(=O)(=O)[O-])cc6)c6ccc3[nH]6)C=C5)C=C4)cc2)c([N+](=O)[O-])cc1[N+](=O)[O-]
REMARK SMILES IDX 12 1 11 2 10 3 9 4 8 5 7 6 5 7 6 8 4 9 1 10 2 11 3 12 84 13
REMARK SMILES IDX 83 14 79 15 85 16 86 17 87 18 80 19 81 20 82 21 13 22 14 23
REMARK SMILES IDX 15 24 16 25 17 26 18 27 19 28 20 29 78 30 21 31 77 32 22 33
REMARK SMILES IDX 23 34 24 35 71 36 25 37 76 38 70 39 72 40 26 41 75 42 69 43
REMARK SMILES IDX 68 44 27 46 57 47 38 48 56 49 39 50 42 51 55 52 73 53 40 54
REMARK SMILES IDX 41 55 54 57 74 58 43 59 28 60 29 61 37 62 30 63 36 64 31 65
REMARK SMILES IDX 32 66 33 67 34 68 35 69 58 70 59 71 67 72 60 73 66 74 61 75
REMARK SMILES IDX 62 76 63 77 64 78 65 79 44 80 45 81 53 82 46 83 52 84 47 85
REMARK SMILES IDX 48 86 49 87 50 88 51 89
REMARK H PARENT 72 45 42 56
REMARK Flexibility Score: inf
ROOT
ATOM      1  C   UNL A   1      30.076  28.093  23.217  1.00  0.00     0.188 C 
ENDROOT
BRANCH   1   2
ATOM      2  C   UNL A   1      30.903  27.581  22.032  1.00  0.00     0.188 C 
BRANCH   2   3
ATOM      3  O   UNL A   1      31.626  26.322  22.047  1.00  0.00    -0.376 OA
BRANCH   3   4
ATOM      4  C   UNL A   1      32.964  26.129  22.590  1.00  0.00     0.202 C 
BRANCH   4   5
ATOM      5  C   UNL A   1      33.276  25.092  23.890  1.00  0.00     0.261 C 
BRANCH   5   6
ATOM      6  O   UNL A   1      32.215  24.006  24.619  1.00  0.00    -0.459 OA
BRANCH   6   7
ATOM      7  C   UNL A   1      32.134  22.601  24.818  1.00  0.00     0.345 C 
ATOM      8  O   UNL A   1      31.276  21.940  25.402  1.00  0.00    -0.246 OA
BRANCH   7   9
ATOM      9  C   UNL A   1      33.050  21.500  24.385  1.00  0.00     0.138 A 
ATOM     10  C   UNL A   1      32.059  18.209  22.521  1.00  0.00     0.052 C 
ATOM     11  C   UNL A   1      32.819  19.118  23.463  1.00  0.00     0.028 A 
ATOM     12  C   UNL A   1      32.467  20.493  23.523  1.00  0.00     0.033 A 
ATOM     13  C   UNL A   1      33.792  18.705  24.364  1.00  0.00     0.279 A 
ATOM     14  C   UNL A   1      34.347  19.617  25.287  1.00  0.00     0.172 A 
ATOM     15  C   UNL A   1      33.960  20.989  25.312  1.00  0.00     0.290 A 
BRANCH  13  16
ATOM     16  N   UNL A   1      34.178  17.298  24.480  1.00  0.00     0.063 N 
ATOM     17  O   UNL A   1      34.921  16.842  23.598  1.00  0.00    -0.258 OA
ATOM     18  O   UNL A   1      33.708  16.644  25.420  1.00  0.00    -0.258 OA
ENDBRANCH  13  16
BRANCH  15  19
ATOM     19  N   UNL A   1      34.382  21.792  26.466  1.00  0.00     0.063 N 
ATOM     20  O   UNL A   1      34.027  21.451  27.599  1.00  0.00    -0.258 OA
ATOM     21  O   UNL A   1      35.054  22.806  26.233  1.00  0.00    -0.258 OA
ENDBRANCH  15  19
ENDBRANCH   7   9
ENDBRANCH   6   7
ENDBRANCH   5   6
ENDBRANCH   4   5
ENDBRANCH   3   4
ENDBRANCH   2   3
ENDBRANCH   1   2
BRANCH   1  22
ATOM     22  O   UNL A   1      30.643  29.279  23.743  1.00  0.00    -0.376 OA
BRANCH  22  23
ATOM     23  C   UNL A   1      31.845  29.128  24.479  1.00  0.00     0.202 C 
BRANCH  23  24
ATOM     24  C   UNL A   1      31.670  28.427  25.846  1.00  0.00     0.261 C 
BRANCH  24  25
ATOM     25  O   UNL A   1      31.788  29.337  26.974  1.00  0.00    -0.460 OA
BRANCH  25  26
ATOM     26  C   UNL A   1      32.105  30.661  26.732  1.00  0.00     0.338 C 
ATOM     27  O   UNL A   1      31.283  31.442  26.265  1.00  0.00    -0.246 OA
BRANCH  26  28
ATOM     28  C   UNL A   1      33.396  31.069  27.391  1.00  0.00     0.060 A 
ATOM     29  C   UNL A   1      33.950  32.334  27.643  1.00  0.00     0.016 A 
ATOM     30  C   UNL A   1      34.198  30.050  27.755  1.00  0.00     0.016 A 
ATOM     31  C   UNL A   1      35.331  32.516  28.165  1.00  0.00     0.010 A 
ATOM     32  C   UNL A   1      35.531  30.325  28.070  1.00  0.00     0.010 A 
ATOM     33  C   UNL A   1      36.203  31.458  28.449  1.00  0.00    -0.014 A 
BRANCH  33  34
ATOM     34  C   UNL A   1      37.743  31.352  28.803  1.00  0.00     0.031 A 
ATOM     35  C   UNL A   1      38.920  30.225  28.616  1.00  0.00     0.074 A 
ATOM     36  C   UNL A   1      38.220  32.479  29.377  1.00  0.00     0.049 A 
ATOM     37  N   UNL A   1      39.819  29.928  29.549  1.00  0.00    -0.248 NA
ATOM     38  C   UNL A   1      39.235  29.329  27.459  1.00  0.00     0.031 C 
ATOM     39  C   UNL A   1      39.602  32.834  29.667  1.00  0.00     0.029 A 
ATOM     40  N   UNL A   1      37.470  33.469  30.006  1.00  0.00    -0.354 N 
ATOM     41  C   UNL A   1      40.694  28.972  28.993  1.00  0.00     0.074 A 
ATOM     42  C   UNL A   1      39.962  28.356  27.980  1.00  0.00     0.031 C 
ATOM     43  C   UNL A   1      39.603  33.772  30.629  1.00  0.00     0.029 A 
ATOM     44  C   UNL A   1      38.230  33.960  31.068  1.00  0.00     0.049 A 
ATOM     45  H   UNL A   1      36.569  33.770  29.748  1.00  0.00     0.167 HD
ATOM     46  C   UNL A   1      42.054  28.903  29.126  1.00  0.00     0.031 A 
ATOM     47  C   UNL A   1      37.751  33.832  32.338  1.00  0.00     0.031 A 
ATOM     48  C   UNL A   1      42.456  29.750  30.217  1.00  0.00     0.049 A 
ATOM     49  C   UNL A   1      38.624  32.933  33.190  1.00  0.00     0.074 A 
ATOM     50  C   UNL A   1      43.028  31.002  30.297  1.00  0.00     0.029 A 
ATOM     51  N   UNL A   1      41.886  29.482  31.449  1.00  0.00    -0.354 N 
ATOM     52  N   UNL A   1      39.655  32.268  32.738  1.00  0.00    -0.248 NA
ATOM     53  C   UNL A   1      38.412  32.706  34.616  1.00  0.00     0.031 C 
ATOM     54  C   UNL A   1      42.607  31.566  31.540  1.00  0.00     0.029 A 
ATOM     55  C   UNL A   1      41.862  30.620  32.228  1.00  0.00     0.049 A 
ATOM     56  H   UNL A   1      41.547  28.603  31.731  1.00  0.00     0.167 HD
ATOM     57  C   UNL A   1      40.170  31.477  33.726  1.00  0.00     0.074 A 
ATOM     58  C   UNL A   1      39.392  31.830  34.899  1.00  0.00     0.031 C 
ATOM     59  C   UNL A   1      41.161  30.562  33.504  1.00  0.00     0.031 A 
BRANCH  46  60
ATOM     60  C   UNL A   1      43.011  28.181  28.127  1.00  0.00    -0.014 A 
ATOM     61  C   UNL A   1      44.031  27.323  28.583  1.00  0.00     0.010 A 
ATOM     62  C   UNL A   1      43.010  28.358  26.715  1.00  0.00     0.010 A 
ATOM     63  C   UNL A   1      44.954  26.691  27.700  1.00  0.00     0.020 A 
ATOM     64  C   UNL A   1      43.877  27.705  25.822  1.00  0.00     0.020 A 
ATOM     65  C   UNL A   1      44.864  26.882  26.319  1.00  0.00     0.054 A 
BRANCH  65  66
ATOM     66  S   UNL A   1      46.050  26.110  25.177  1.00  0.00     0.124 S 
ATOM     67  O   UNL A   1      46.340  27.197  24.245  1.00  0.00    -0.237 OA
ATOM     68  O   UNL A   1      47.147  25.723  26.058  1.00  0.00    -0.237 OA
ATOM     69  O   UNL A   1      45.303  24.993  24.598  1.00  0.00    -0.744 OA
ENDBRANCH  65  66
ENDBRANCH  46  60
BRANCH  47  70
ATOM     70  C   UNL A   1      36.269  34.075  32.429  1.00  0.00    -0.014 A 
ATOM     71  C   UNL A   1      35.856  35.009  33.413  1.00  0.00     0.010 A 
ATOM     72  C   UNL A   1      35.364  33.777  31.395  1.00  0.00     0.010 A 
ATOM     73  C   UNL A   1      34.680  35.754  33.272  1.00  0.00     0.020 A 
ATOM     74  C   UNL A   1      34.154  34.504  31.269  1.00  0.00     0.020 A 
ATOM     75  C   UNL A   1      33.865  35.538  32.166  1.00  0.00     0.054 A 
BRANCH  75  76
ATOM     76  S   UNL A   1      32.550  36.760  31.841  1.00  0.00     0.124 S 
ATOM     77  O   UNL A   1      32.483  36.775  30.384  1.00  0.00    -0.237 OA
ATOM     78  O   UNL A   1      31.401  36.151  32.515  1.00  0.00    -0.237 OA
ATOM     79  O   UNL A   1      33.063  37.981  32.457  1.00  0.00    -0.744 OA
ENDBRANCH  75  76
ENDBRANCH  47  70
BRANCH  59  80
ATOM     80  C   UNL A   1      41.550  29.477  34.480  1.00  0.00    -0.014 A 
ATOM     81  C   UNL A   1      41.435  28.108  34.199  1.00  0.00     0.010 A 
ATOM     82  C   UNL A   1      42.212  29.837  35.679  1.00  0.00     0.010 A 
ATOM     83  C   UNL A   1      41.872  27.140  35.112  1.00  0.00     0.020 A 
ATOM     84  C   UNL A   1      42.710  28.880  36.566  1.00  0.00     0.020 A 
ATOM     85  C   UNL A   1      42.498  27.533  36.294  1.00  0.00     0.054 A 
BRANCH  85  86
ATOM     86  S   UNL A   1      43.080  26.289  37.470  1.00  0.00     0.124 S 
ATOM     87  O   UNL A   1      43.636  25.275  36.577  1.00  0.00    -0.237 OA
ATOM     88  O   UNL A   1      44.060  27.016  38.274  1.00  0.00    -0.237 OA
ATOM     89  O   UNL A   1      41.864  25.904  38.181  1.00  0.00    -0.744 OA
ENDBRANCH  85  86
ENDBRANCH  59  80
ENDBRANCH  33  34
ENDBRANCH  26  28
ENDBRANCH  25  26
ENDBRANCH  24  25
ENDBRANCH  23  24
ENDBRANCH  22  23
ENDBRANCH   1  22
TORSDOF 22
ENDMDL
