MODEL 1
REMARK VINA RESULT:     -11.1      0.000      0.000
REMARK SMILES CC1(C)[C@H](O)CC[C@]2(C)[C@@H]1CC[C@]1(C)Oc3oc(C(=O)OCCOCCOCCOC(=O)c4ccc(-c5c6nc(c(-c7ccc(S(=O)(=O)[O-])cc7)c7ccc([nH]7)c(-c7ccc(S(=O)(=O)[O-])cc7)c7nc(c(-c8ccc(S(=O)(=O)[O-])cc8)c8ccc5[nH]8)C=C7)C=C6)cc4)cc(=O)c3C[C@H]21
REMARK SMILES IDX 26 1 25 2 24 3 23 4 22 5 21 6 19 7 20 8 18 9 1 10 2 11 3 12
REMARK SMILES IDX 4 13 10 14 6 15 8 16 11 17 7 18 9 19 98 20 12 21 13 22 97 23
REMARK SMILES IDX 14 24 15 25 96 26 16 27 94 28 17 29 93 30 95 31 5 32 27 34
REMARK SMILES IDX 28 35 29 36 30 37 31 38 32 39 33 40 34 41 92 42 35 43 91 44
REMARK SMILES IDX 36 45 37 46 38 47 85 48 39 49 90 50 84 51 86 52 40 53 89 54
REMARK SMILES IDX 83 55 82 56 41 58 71 59 52 60 70 61 53 62 56 63 69 64 87 65
REMARK SMILES IDX 54 66 55 67 68 69 88 70 57 71 42 72 43 73 51 74 44 75 50 76
REMARK SMILES IDX 45 77 46 78 47 79 48 80 49 81 72 82 73 83 81 84 74 85 80 86
REMARK SMILES IDX 75 87 76 88 77 89 78 90 79 91 58 92 59 93 67 94 60 95 66 96
REMARK SMILES IDX 61 97 62 98 63 99 64 100 65 101
REMARK H PARENT 5 33 86 57 56 68
REMARK Flexibility Score: inf
ROOT
ATOM      1  C   UNL A   1      36.817  33.735  31.211  1.00  0.00     0.188 C 
ENDROOT
BRANCH   1   2
ATOM      2  C   UNL A   1      35.974  33.498  29.940  1.00  0.00     0.188 C 
BRANCH   2   3
ATOM      3  O   UNL A   1      34.576  33.329  30.040  1.00  0.00    -0.376 OA
BRANCH   3   4
ATOM      4  C   UNL A   1      33.689  34.259  29.446  1.00  0.00     0.202 C 
BRANCH   4   5
ATOM      5  C   UNL A   1      33.057  34.046  28.062  1.00  0.00     0.261 C 
BRANCH   5   6
ATOM      6  O   UNL A   1      33.272  32.758  27.478  1.00  0.00    -0.457 OA
BRANCH   6   7
ATOM      7  C   UNL A   1      32.163  32.103  27.026  1.00  0.00     0.374 C 
ATOM      8  O   UNL A   1      31.056  32.587  26.863  1.00  0.00    -0.242 OA
BRANCH   7   9
ATOM      9  C   UNL A   1      32.527  30.714  26.639  1.00  0.00     0.219 A 
ATOM     10  C   UNL A   1      34.531  22.445  23.965  1.00  0.00     0.014 C 
ATOM     11  C   UNL A   1      32.988  22.412  24.206  1.00  0.00    -0.006 C 
ATOM     12  C   UNL A   1      32.391  21.668  22.990  1.00  0.00     0.014 C 
ATOM     13  C   UNL A   1      32.777  21.567  25.494  1.00  0.00     0.120 C 
ATOM     14  C   UNL A   1      32.478  23.914  24.347  1.00  0.00     0.004 C 
ATOM     15  C   UNL A   1      33.170  22.280  26.799  1.00  0.00     0.033 C 
ATOM     16  C   UNL A   1      31.996  24.350  25.780  1.00  0.00    -0.022 C 
ATOM     17  C   UNL A   1      31.574  24.482  23.232  1.00  0.00     0.009 C 
ATOM     18  C   UNL A   1      33.068  23.813  26.764  1.00  0.00     0.010 C 
ATOM     19  C   UNL A   1      30.627  23.806  26.270  1.00  0.00     0.012 C 
ATOM     20  C   UNL A   1      31.884  25.925  25.814  1.00  0.00     0.044 C 
ATOM     21  C   UNL A   1      31.454  26.025  23.303  1.00  0.00     0.049 C 
ATOM     22  C   UNL A   1      30.998  26.556  24.683  1.00  0.00     0.113 C 
ATOM     23  C   UNL A   1      33.261  26.625  25.801  1.00  0.00     0.055 C 
ATOM     24  C   UNL A   1      29.485  26.275  24.812  1.00  0.00     0.057 C 
ATOM     25  O   UNL A   1      31.033  28.016  24.702  1.00  0.00    -0.458 OA
ATOM     26  C   UNL A   1      33.053  28.085  25.944  1.00  0.00     0.081 A 
ATOM     27  C   UNL A   1      31.952  28.690  25.484  1.00  0.00     0.292 A 
ATOM     28  C   UNL A   1      34.047  28.856  26.714  1.00  0.00     0.192 A 
ATOM     29  O   UNL A   1      31.666  30.018  25.796  1.00  0.00    -0.418 OA
ATOM     30  C   UNL A   1      33.686  30.222  27.087  1.00  0.00     0.107 A 
ATOM     31  O   UNL A   1      35.125  28.385  27.057  1.00  0.00    -0.289 OA
BRANCH  13  32
ATOM     32  O   UNL A   1      31.448  21.054  25.601  1.00  0.00    -0.393 OA
ATOM     33  H   UNL A   1      30.928  21.626  26.188  1.00  0.00     0.210 HD
ENDBRANCH  13  32
ENDBRANCH   7   9
ENDBRANCH   6   7
ENDBRANCH   5   6
ENDBRANCH   4   5
ENDBRANCH   3   4
ENDBRANCH   2   3
ENDBRANCH   1   2
BRANCH   1  34
ATOM     34  O   UNL A   1      36.185  33.906  32.460  1.00  0.00    -0.376 OA
BRANCH  34  35
ATOM     35  C   UNL A   1      36.357  32.925  33.468  1.00  0.00     0.202 C 
BRANCH  35  36
ATOM     36  C   UNL A   1      37.333  31.739  33.363  1.00  0.00     0.261 C 
BRANCH  36  37
ATOM     37  O   UNL A   1      37.019  30.716  32.410  1.00  0.00    -0.460 OA
BRANCH  37  38
ATOM     38  C   UNL A   1      37.573  29.502  32.647  1.00  0.00     0.338 C 
ATOM     39  O   UNL A   1      37.065  28.559  33.240  1.00  0.00    -0.246 OA
BRANCH  38  40
ATOM     40  C   UNL A   1      38.853  29.411  31.926  1.00  0.00     0.060 A 
ATOM     41  C   UNL A   1      38.878  29.623  30.539  1.00  0.00     0.016 A 
ATOM     42  C   UNL A   1      40.020  29.090  32.618  1.00  0.00     0.016 A 
ATOM     43  C   UNL A   1      40.080  29.531  29.841  1.00  0.00     0.010 A 
ATOM     44  C   UNL A   1      41.215  28.953  31.909  1.00  0.00     0.010 A 
ATOM     45  C   UNL A   1      41.246  29.154  30.517  1.00  0.00    -0.014 A 
BRANCH  45  46
ATOM     46  C   UNL A   1      42.446  28.769  29.743  1.00  0.00     0.031 A 
ATOM     47  C   UNL A   1      43.538  29.789  29.580  1.00  0.00     0.074 A 
ATOM     48  C   UNL A   1      42.572  27.544  29.206  1.00  0.00     0.049 A 
ATOM     49  N   UNL A   1      44.656  29.700  28.910  1.00  0.00    -0.248 NA
ATOM     50  C   UNL A   1      43.347  31.078  30.267  1.00  0.00     0.031 C 
ATOM     51  C   UNL A   1      41.610  26.453  29.347  1.00  0.00     0.029 A 
ATOM     52  N   UNL A   1      43.570  27.016  28.425  1.00  0.00    -0.354 N 
ATOM     53  C   UNL A   1      45.299  30.917  29.093  1.00  0.00     0.074 A 
ATOM     54  C   UNL A   1      44.442  31.737  29.920  1.00  0.00     0.031 C 
ATOM     55  C   UNL A   1      42.061  25.384  28.666  1.00  0.00     0.029 A 
ATOM     56  C   UNL A   1      43.328  25.726  28.017  1.00  0.00     0.049 A 
ATOM     57  H   UNL A   1      44.383  27.514  28.182  1.00  0.00     0.167 HD
ATOM     58  C   UNL A   1      46.501  31.315  28.617  1.00  0.00     0.031 A 
ATOM     59  C   UNL A   1      44.036  24.921  27.200  1.00  0.00     0.031 A 
ATOM     60  C   UNL A   1      47.342  30.508  27.779  1.00  0.00     0.049 A 
ATOM     61  C   UNL A   1      45.327  25.418  26.604  1.00  0.00     0.074 A 
ATOM     62  C   UNL A   1      48.579  30.825  27.251  1.00  0.00     0.029 A 
ATOM     63  N   UNL A   1      47.031  29.230  27.342  1.00  0.00    -0.354 N 
ATOM     64  N   UNL A   1      45.925  26.573  26.786  1.00  0.00    -0.248 NA
ATOM     65  C   UNL A   1      46.040  24.510  25.694  1.00  0.00     0.031 C 
ATOM     66  C   UNL A   1      48.993  29.761  26.448  1.00  0.00     0.029 A 
ATOM     67  C   UNL A   1      48.043  28.756  26.527  1.00  0.00     0.049 A 
ATOM     68  H   UNL A   1      46.213  28.735  27.576  1.00  0.00     0.167 HD
ATOM     69  C   UNL A   1      47.093  26.518  26.034  1.00  0.00     0.074 A 
ATOM     70  C   UNL A   1      47.121  25.220  25.393  1.00  0.00     0.031 C 
ATOM     71  C   UNL A   1      48.058  27.460  25.895  1.00  0.00     0.031 A 
BRANCH  58  72
ATOM     72  C   UNL A   1      46.972  32.696  28.970  1.00  0.00    -0.014 A 
ATOM     73  C   UNL A   1      47.915  32.895  29.994  1.00  0.00     0.010 A 
ATOM     74  C   UNL A   1      46.527  33.797  28.218  1.00  0.00     0.010 A 
ATOM     75  C   UNL A   1      48.399  34.176  30.264  1.00  0.00     0.020 A 
ATOM     76  C   UNL A   1      47.023  35.077  28.472  1.00  0.00     0.020 A 
ATOM     77  C   UNL A   1      47.957  35.258  29.494  1.00  0.00     0.054 A 
BRANCH  77  78
ATOM     78  S   UNL A   1      48.637  36.901  29.846  1.00  0.00     0.124 S 
ATOM     79  O   UNL A   1      48.732  36.887  31.305  1.00  0.00    -0.237 OA
ATOM     80  O   UNL A   1      49.910  36.872  29.134  1.00  0.00    -0.237 OA
ATOM     81  O   UNL A   1      47.637  37.817  29.302  1.00  0.00    -0.744 OA
ENDBRANCH  77  78
ENDBRANCH  58  72
BRANCH  59  82
ATOM     82  C   UNL A   1      43.526  23.556  26.897  1.00  0.00    -0.014 A 
ATOM     83  C   UNL A   1      43.416  23.114  25.568  1.00  0.00     0.010 A 
ATOM     84  C   UNL A   1      43.195  22.673  27.943  1.00  0.00     0.010 A 
ATOM     85  C   UNL A   1      42.994  21.810  25.289  1.00  0.00     0.020 A 
ATOM     86  C   UNL A   1      42.793  21.363  27.668  1.00  0.00     0.020 A 
ATOM     87  C   UNL A   1      42.700  20.938  26.341  1.00  0.00     0.054 A 
BRANCH  87  88
ATOM     88  S   UNL A   1      42.222  19.232  25.949  1.00  0.00     0.124 S 
ATOM     89  O   UNL A   1      42.981  18.970  24.729  1.00  0.00    -0.237 OA
ATOM     90  O   UNL A   1      42.666  18.509  27.137  1.00  0.00    -0.237 OA
ATOM     91  O   UNL A   1      40.773  19.310  25.776  1.00  0.00    -0.744 OA
ENDBRANCH  87  88
ENDBRANCH  59  82
BRANCH  71  92
ATOM     92  C   UNL A   1      49.255  27.140  25.040  1.00  0.00    -0.014 A 
ATOM     93  C   UNL A   1      49.280  27.475  23.676  1.00  0.00     0.010 A 
ATOM     94  C   UNL A   1      50.419  26.631  25.646  1.00  0.00     0.010 A 
ATOM     95  C   UNL A   1      50.452  27.308  22.932  1.00  0.00     0.020 A 
ATOM     96  C   UNL A   1      51.598  26.484  24.911  1.00  0.00     0.020 A 
ATOM     97  C   UNL A   1      51.607  26.827  23.559  1.00  0.00     0.054 A 
BRANCH  97  98
ATOM     98  S   UNL A   1      53.128  26.689  22.581  1.00  0.00     0.124 S 
ATOM     99  O   UNL A   1      53.544  28.083  22.455  1.00  0.00    -0.237 OA
ATOM    100  O   UNL A   1      53.973  25.856  23.432  1.00  0.00    -0.237 OA
ATOM    101  O   UNL A   1      52.689  26.060  21.337  1.00  0.00    -0.744 OA
ENDBRANCH  97  98
ENDBRANCH  71  92
ENDBRANCH  45  46
ENDBRANCH  38  40
ENDBRANCH  37  38
ENDBRANCH  36  37
ENDBRANCH  35  36
ENDBRANCH  34  35
ENDBRANCH   1  34
TORSDOF 21
ENDMDL
MODEL 2
REMARK VINA RESULT:     -10.3      5.814     14.517
REMARK SMILES CC1(C)[C@H](O)CC[C@]2(C)[C@@H]1CC[C@]1(C)Oc3oc(C(=O)OCCOCCOCCOC(=O)c4ccc(-c5c6nc(c(-c7ccc(S(=O)(=O)[O-])cc7)c7ccc([nH]7)c(-c7ccc(S(=O)(=O)[O-])cc7)c7nc(c(-c8ccc(S(=O)(=O)[O-])cc8)c8ccc5[nH]8)C=C7)C=C6)cc4)cc(=O)c3C[C@H]21
REMARK SMILES IDX 26 1 25 2 24 3 23 4 22 5 21 6 19 7 20 8 18 9 1 10 2 11 3 12
REMARK SMILES IDX 4 13 10 14 6 15 8 16 11 17 7 18 9 19 98 20 12 21 13 22 97 23
REMARK SMILES IDX 14 24 15 25 96 26 16 27 94 28 17 29 93 30 95 31 5 32 27 34
REMARK SMILES IDX 28 35 29 36 30 37 31 38 32 39 33 40 34 41 92 42 35 43 91 44
REMARK SMILES IDX 36 45 37 46 38 47 85 48 39 49 90 50 84 51 86 52 40 53 89 54
REMARK SMILES IDX 83 55 82 56 41 58 71 59 52 60 70 61 53 62 56 63 69 64 87 65
REMARK SMILES IDX 54 66 55 67 68 69 88 70 57 71 42 72 43 73 51 74 44 75 50 76
REMARK SMILES IDX 45 77 46 78 47 79 48 80 49 81 72 82 73 83 81 84 74 85 80 86
REMARK SMILES IDX 75 87 76 88 77 89 78 90 79 91 58 92 59 93 67 94 60 95 66 96
REMARK SMILES IDX 61 97 62 98 63 99 64 100 65 101
REMARK H PARENT 5 33 86 57 56 68
REMARK Flexibility Score: inf
ROOT
ATOM      1  C   UNL A   1      41.733  24.220  28.019  1.00  0.00     0.188 C 
ENDROOT
BRANCH   1   2
ATOM      2  C   UNL A   1      42.252  23.007  28.820  1.00  0.00     0.188 C 
BRANCH   2   3
ATOM      3  O   UNL A   1      42.881  21.935  28.151  1.00  0.00    -0.376 OA
BRANCH   3   4
ATOM      4  C   UNL A   1      42.124  21.009  27.395  1.00  0.00     0.202 C 
BRANCH   4   5
ATOM      5  C   UNL A   1      42.463  20.638  25.943  1.00  0.00     0.261 C 
BRANCH   5   6
ATOM      6  O   UNL A   1      43.236  21.604  25.225  1.00  0.00    -0.457 OA
BRANCH   6   7
ATOM      7  C   UNL A   1      44.544  21.289  24.999  1.00  0.00     0.374 C 
ATOM      8  O   UNL A   1      44.962  20.256  24.505  1.00  0.00    -0.242 OA
BRANCH   7   9
ATOM      9  C   UNL A   1      45.404  22.454  25.337  1.00  0.00     0.219 A 
ATOM     10  C   UNL A   1      50.681  29.249  27.690  1.00  0.00     0.014 C 
ATOM     11  C   UNL A   1      49.508  29.294  28.719  1.00  0.00    -0.006 C 
ATOM     12  C   UNL A   1      50.170  29.509  30.098  1.00  0.00     0.014 C 
ATOM     13  C   UNL A   1      48.660  30.542  28.342  1.00  0.00     0.120 C 
ATOM     14  C   UNL A   1      48.699  27.926  28.607  1.00  0.00     0.004 C 
ATOM     15  C   UNL A   1      47.808  30.378  27.072  1.00  0.00     0.033 C 
ATOM     16  C   UNL A   1      47.253  28.025  27.996  1.00  0.00    -0.022 C 
ATOM     17  C   UNL A   1      48.763  26.946  29.798  1.00  0.00     0.009 C 
ATOM     18  C   UNL A   1      47.385  28.936  26.749  1.00  0.00     0.010 C 
ATOM     19  C   UNL A   1      46.142  28.644  28.887  1.00  0.00     0.012 C 
ATOM     20  C   UNL A   1      46.763  26.568  27.628  1.00  0.00     0.044 C 
ATOM     21  C   UNL A   1      48.250  25.533  29.422  1.00  0.00     0.049 C 
ATOM     22  C   UNL A   1      46.834  25.525  28.798  1.00  0.00     0.113 C 
ATOM     23  C   UNL A   1      47.499  25.980  26.405  1.00  0.00     0.055 C 
ATOM     24  C   UNL A   1      45.821  25.761  29.940  1.00  0.00     0.057 C 
ATOM     25  O   UNL A   1      46.480  24.178  28.359  1.00  0.00    -0.458 OA
ATOM     26  C   UNL A   1      46.899  24.666  26.075  1.00  0.00     0.081 A 
ATOM     27  C   UNL A   1      46.356  23.883  27.015  1.00  0.00     0.292 A 
ATOM     28  C   UNL A   1      46.808  24.281  24.655  1.00  0.00     0.192 A 
ATOM     29  O   UNL A   1      45.616  22.749  26.680  1.00  0.00    -0.418 OA
ATOM     30  C   UNL A   1      45.965  23.131  24.331  1.00  0.00     0.107 A 
ATOM     31  O   UNL A   1      47.385  24.895  23.767  1.00  0.00    -0.289 OA
BRANCH  13  32
ATOM     32  O   UNL A   1      47.841  30.994  29.422  1.00  0.00    -0.393 OA
ATOM     33  H   UNL A   1      48.332  30.913  30.255  1.00  0.00     0.210 HD
ENDBRANCH  13  32
ENDBRANCH   7   9
ENDBRANCH   6   7
ENDBRANCH   5   6
ENDBRANCH   4   5
ENDBRANCH   3   4
ENDBRANCH   2   3
ENDBRANCH   1   2
BRANCH   1  34
ATOM     34  O   UNL A   1      41.247  24.049  26.706  1.00  0.00    -0.376 OA
BRANCH  34  35
ATOM     35  C   UNL A   1      41.613  24.978  25.701  1.00  0.00     0.202 C 
BRANCH  35  36
ATOM     36  C   UNL A   1      43.053  25.181  25.195  1.00  0.00     0.261 C 
BRANCH  36  37
ATOM     37  O   UNL A   1      43.761  26.327  25.683  1.00  0.00    -0.460 OA
BRANCH  37  38
ATOM     38  C   UNL A   1      43.101  27.507  25.594  1.00  0.00     0.338 C 
ATOM     39  O   UNL A   1      42.568  27.986  24.601  1.00  0.00    -0.246 OA
BRANCH  38  40
ATOM     40  C   UNL A   1      42.964  28.081  26.943  1.00  0.00     0.060 A 
ATOM     41  C   UNL A   1      42.668  27.236  28.024  1.00  0.00     0.016 A 
ATOM     42  C   UNL A   1      43.101  29.455  27.132  1.00  0.00     0.016 A 
ATOM     43  C   UNL A   1      42.526  27.764  29.305  1.00  0.00     0.010 A 
ATOM     44  C   UNL A   1      42.912  29.989  28.409  1.00  0.00     0.010 A 
ATOM     45  C   UNL A   1      42.606  29.149  29.495  1.00  0.00    -0.014 A 
BRANCH  45  46
ATOM     46  C   UNL A   1      42.167  29.736  30.779  1.00  0.00     0.031 A 
ATOM     47  C   UNL A   1      40.894  30.534  30.792  1.00  0.00     0.074 A 
ATOM     48  C   UNL A   1      42.872  29.559  31.910  1.00  0.00     0.049 A 
ATOM     49  N   UNL A   1      40.335  31.180  31.780  1.00  0.00    -0.248 NA
ATOM     50  C   UNL A   1      40.149  30.611  29.522  1.00  0.00     0.031 C 
ATOM     51  C   UNL A   1      44.087  28.757  32.035  1.00  0.00     0.029 A 
ATOM     52  N   UNL A   1      42.660  30.052  33.173  1.00  0.00    -0.354 N 
ATOM     53  C   UNL A   1      39.177  31.738  31.255  1.00  0.00     0.074 A 
ATOM     54  C   UNL A   1      39.120  31.375  29.856  1.00  0.00     0.031 C 
ATOM     55  C   UNL A   1      44.520  28.820  33.307  1.00  0.00     0.029 A 
ATOM     56  C   UNL A   1      43.631  29.691  34.077  1.00  0.00     0.049 A 
ATOM     57  H   UNL A   1      41.886  30.612  33.410  1.00  0.00     0.167 HD
ATOM     58  C   UNL A   1      38.242  32.486  31.884  1.00  0.00     0.031 A 
ATOM     59  C   UNL A   1      43.793  30.037  35.369  1.00  0.00     0.031 A 
ATOM     60  C   UNL A   1      38.310  32.863  33.267  1.00  0.00     0.049 A 
ATOM     61  C   UNL A   1      42.789  30.948  36.026  1.00  0.00     0.074 A 
ATOM     62  C   UNL A   1      37.406  33.617  33.992  1.00  0.00     0.029 A 
ATOM     63  N   UNL A   1      39.339  32.524  34.130  1.00  0.00    -0.354 N 
ATOM     64  N   UNL A   1      41.697  31.469  35.517  1.00  0.00    -0.248 NA
ATOM     65  C   UNL A   1      43.034  31.318  37.428  1.00  0.00     0.031 C 
ATOM     66  C   UNL A   1      37.915  33.781  35.282  1.00  0.00     0.029 A 
ATOM     67  C   UNL A   1      39.106  33.077  35.376  1.00  0.00     0.049 A 
ATOM     68  H   UNL A   1      40.120  31.973  33.892  1.00  0.00     0.167 HD
ATOM     69  C   UNL A   1      41.114  32.208  36.541  1.00  0.00     0.074 A 
ATOM     70  C   UNL A   1      41.972  32.068  37.700  1.00  0.00     0.031 C 
ATOM     71  C   UNL A   1      39.968  32.930  36.522  1.00  0.00     0.031 A 
BRANCH  58  72
ATOM     72  C   UNL A   1      37.071  32.967  31.076  1.00  0.00    -0.014 A 
ATOM     73  C   UNL A   1      35.802  32.380  31.226  1.00  0.00     0.010 A 
ATOM     74  C   UNL A   1      37.225  34.070  30.217  1.00  0.00     0.010 A 
ATOM     75  C   UNL A   1      34.707  32.885  30.522  1.00  0.00     0.020 A 
ATOM     76  C   UNL A   1      36.128  34.591  29.528  1.00  0.00     0.020 A 
ATOM     77  C   UNL A   1      34.876  33.994  29.686  1.00  0.00     0.054 A 
BRANCH  77  78
ATOM     78  S   UNL A   1      33.423  34.648  28.819  1.00  0.00     0.124 S 
ATOM     79  O   UNL A   1      33.968  35.836  28.163  1.00  0.00    -0.237 OA
ATOM     80  O   UNL A   1      33.069  33.547  27.929  1.00  0.00    -0.237 OA
ATOM     81  O   UNL A   1      32.469  34.917  29.891  1.00  0.00    -0.744 OA
ENDBRANCH  77  78
ENDBRANCH  58  72
BRANCH  59  82
ATOM     82  C   UNL A   1      44.965  29.516  36.124  1.00  0.00    -0.014 A 
ATOM     83  C   UNL A   1      44.880  28.300  36.822  1.00  0.00     0.010 A 
ATOM     84  C   UNL A   1      46.188  30.213  36.108  1.00  0.00     0.010 A 
ATOM     85  C   UNL A   1      46.000  27.782  37.481  1.00  0.00     0.020 A 
ATOM     86  C   UNL A   1      47.315  29.689  36.748  1.00  0.00     0.020 A 
ATOM     87  C   UNL A   1      47.215  28.472  37.427  1.00  0.00     0.054 A 
BRANCH  87  88
ATOM     88  S   UNL A   1      48.667  27.742  38.233  1.00  0.00     0.124 S 
ATOM     89  O   UNL A   1      48.798  26.465  37.537  1.00  0.00    -0.237 OA
ATOM     90  O   UNL A   1      49.704  28.729  37.946  1.00  0.00    -0.237 OA
ATOM     91  O   UNL A   1      48.272  27.649  39.637  1.00  0.00    -0.744 OA
ENDBRANCH  87  88
ENDBRANCH  59  82
BRANCH  71  92
ATOM     92  C   UNL A   1      39.533  33.619  37.787  1.00  0.00    -0.014 A 
ATOM     93  C   UNL A   1      38.802  32.932  38.771  1.00  0.00     0.010 A 
ATOM     94  C   UNL A   1      39.989  34.924  38.053  1.00  0.00     0.010 A 
ATOM     95  C   UNL A   1      38.536  33.540  40.002  1.00  0.00     0.020 A 
ATOM     96  C   UNL A   1      39.743  35.526  39.290  1.00  0.00     0.020 A 
ATOM     97  C   UNL A   1      39.021  34.827  40.258  1.00  0.00     0.054 A 
BRANCH  97  98
ATOM     98  S   UNL A   1      38.717  35.558  41.890  1.00  0.00     0.124 S 
ATOM     99  O   UNL A   1      37.316  35.222  42.124  1.00  0.00    -0.237 OA
ATOM    100  O   UNL A   1      39.681  34.856  42.732  1.00  0.00    -0.237 OA
ATOM    101  O   UNL A   1      38.987  36.981  41.691  1.00  0.00    -0.744 OA
ENDBRANCH  97  98
ENDBRANCH  71  92
ENDBRANCH  45  46
ENDBRANCH  38  40
ENDBRANCH  37  38
ENDBRANCH  36  37
ENDBRANCH  35  36
ENDBRANCH  34  35
ENDBRANCH   1  34
TORSDOF 21
ENDMDL
MODEL 3
REMARK VINA RESULT:      -9.9      4.880     11.399
REMARK SMILES CC1(C)[C@H](O)CC[C@]2(C)[C@@H]1CC[C@]1(C)Oc3oc(C(=O)OCCOCCOCCOC(=O)c4ccc(-c5c6nc(c(-c7ccc(S(=O)(=O)[O-])cc7)c7ccc([nH]7)c(-c7ccc(S(=O)(=O)[O-])cc7)c7nc(c(-c8ccc(S(=O)(=O)[O-])cc8)c8ccc5[nH]8)C=C7)C=C6)cc4)cc(=O)c3C[C@H]21
REMARK SMILES IDX 26 1 25 2 24 3 23 4 22 5 21 6 19 7 20 8 18 9 1 10 2 11 3 12
REMARK SMILES IDX 4 13 10 14 6 15 8 16 11 17 7 18 9 19 98 20 12 21 13 22 97 23
REMARK SMILES IDX 14 24 15 25 96 26 16 27 94 28 17 29 93 30 95 31 5 32 27 34
REMARK SMILES IDX 28 35 29 36 30 37 31 38 32 39 33 40 34 41 92 42 35 43 91 44
REMARK SMILES IDX 36 45 37 46 38 47 85 48 39 49 90 50 84 51 86 52 40 53 89 54
REMARK SMILES IDX 83 55 82 56 41 58 71 59 52 60 70 61 53 62 56 63 69 64 87 65
REMARK SMILES IDX 54 66 55 67 68 69 88 70 57 71 42 72 43 73 51 74 44 75 50 76
REMARK SMILES IDX 45 77 46 78 47 79 48 80 49 81 72 82 73 83 81 84 74 85 80 86
REMARK SMILES IDX 75 87 76 88 77 89 78 90 79 91 58 92 59 93 67 94 60 95 66 96
REMARK SMILES IDX 61 97 62 98 63 99 64 100 65 101
REMARK H PARENT 5 33 86 57 56 68
REMARK Flexibility Score: inf
ROOT
ATOM      1  C   UNL A   1      35.438  23.383  24.928  1.00  0.00     0.188 C 
ENDROOT
BRANCH   1   2
ATOM      2  C   UNL A   1      34.823  24.767  25.230  1.00  0.00     0.188 C 
BRANCH   2   3
ATOM      3  O   UNL A   1      33.712  25.223  24.490  1.00  0.00    -0.376 OA
BRANCH   3   4
ATOM      4  C   UNL A   1      32.484  25.513  25.131  1.00  0.00     0.202 C 
BRANCH   4   5
ATOM      5  C   UNL A   1      32.047  26.939  25.497  1.00  0.00     0.261 C 
BRANCH   5   6
ATOM      6  O   UNL A   1      32.958  27.669  26.326  1.00  0.00    -0.457 OA
BRANCH   6   7
ATOM      7  C   UNL A   1      33.467  28.821  25.801  1.00  0.00     0.374 C 
ATOM      8  O   UNL A   1      33.211  29.289  24.706  1.00  0.00    -0.242 OA
BRANCH   7   9
ATOM      9  C   UNL A   1      34.306  29.505  26.820  1.00  0.00     0.219 A 
ATOM     10  C   UNL A   1      39.660  33.500  32.731  1.00  0.00     0.014 C 
ATOM     11  C   UNL A   1      39.867  31.974  32.989  1.00  0.00    -0.006 C 
ATOM     12  C   UNL A   1      41.393  31.777  33.127  1.00  0.00     0.014 C 
ATOM     13  C   UNL A   1      39.172  31.675  34.348  1.00  0.00     0.120 C 
ATOM     14  C   UNL A   1      39.230  31.175  31.766  1.00  0.00     0.004 C 
ATOM     15  C   UNL A   1      37.635  31.663  34.293  1.00  0.00     0.033 C 
ATOM     16  C   UNL A   1      37.929  30.349  32.083  1.00  0.00    -0.022 C 
ATOM     17  C   UNL A   1      40.183  30.419  30.817  1.00  0.00     0.009 C 
ATOM     18  C   UNL A   1      37.032  31.286  32.931  1.00  0.00     0.010 C 
ATOM     19  C   UNL A   1      38.096  29.035  32.894  1.00  0.00     0.012 C 
ATOM     20  C   UNL A   1      37.250  29.941  30.716  1.00  0.00     0.044 C 
ATOM     21  C   UNL A   1      39.488  30.003  29.496  1.00  0.00     0.049 C 
ATOM     22  C   UNL A   1      38.186  29.193  29.702  1.00  0.00     0.113 C 
ATOM     23  C   UNL A   1      36.601  31.138  29.987  1.00  0.00     0.055 C 
ATOM     24  C   UNL A   1      38.588  27.763  30.125  1.00  0.00     0.057 C 
ATOM     25  O   UNL A   1      37.531  28.951  28.420  1.00  0.00    -0.458 OA
ATOM     26  C   UNL A   1      35.902  30.639  28.780  1.00  0.00     0.081 A 
ATOM     27  C   UNL A   1      36.326  29.556  28.117  1.00  0.00     0.292 A 
ATOM     28  C   UNL A   1      34.647  31.300  28.381  1.00  0.00     0.192 A 
ATOM     29  O   UNL A   1      35.558  28.972  27.110  1.00  0.00    -0.418 OA
ATOM     30  C   UNL A   1      33.829  30.624  27.374  1.00  0.00     0.107 A 
ATOM     31  O   UNL A   1      34.273  32.358  28.873  1.00  0.00    -0.289 OA
BRANCH  13  32
ATOM     32  O   UNL A   1      39.647  30.470  34.951  1.00  0.00    -0.393 OA
ATOM     33  H   UNL A   1      39.714  30.593  35.910  1.00  0.00     0.210 HD
ENDBRANCH  13  32
ENDBRANCH   7   9
ENDBRANCH   6   7
ENDBRANCH   5   6
ENDBRANCH   4   5
ENDBRANCH   3   4
ENDBRANCH   2   3
ENDBRANCH   1   2
BRANCH   1  34
ATOM     34  O   UNL A   1      36.237  22.735  25.892  1.00  0.00    -0.376 OA
BRANCH  34  35
ATOM     35  C   UNL A   1      37.569  22.377  25.567  1.00  0.00     0.202 C 
BRANCH  35  36
ATOM     36  C   UNL A   1      38.817  23.050  26.169  1.00  0.00     0.261 C 
BRANCH  36  37
ATOM     37  O   UNL A   1      39.771  22.198  26.814  1.00  0.00    -0.460 OA
BRANCH  37  38
ATOM     38  C   UNL A   1      41.061  22.370  26.435  1.00  0.00     0.338 C 
ATOM     39  O   UNL A   1      41.644  21.815  25.512  1.00  0.00    -0.246 OA
BRANCH  38  40
ATOM     40  C   UNL A   1      41.644  23.477  27.210  1.00  0.00     0.060 A 
ATOM     41  C   UNL A   1      43.036  23.661  27.208  1.00  0.00     0.016 A 
ATOM     42  C   UNL A   1      40.818  24.314  27.959  1.00  0.00     0.016 A 
ATOM     43  C   UNL A   1      43.604  24.699  27.943  1.00  0.00     0.010 A 
ATOM     44  C   UNL A   1      41.393  25.325  28.732  1.00  0.00     0.010 A 
ATOM     45  C   UNL A   1      42.787  25.509  28.742  1.00  0.00    -0.014 A 
BRANCH  45  46
ATOM     46  C   UNL A   1      43.405  26.407  29.741  1.00  0.00     0.031 A 
ATOM     47  C   UNL A   1      43.996  25.788  30.977  1.00  0.00     0.074 A 
ATOM     48  C   UNL A   1      43.451  27.737  29.557  1.00  0.00     0.049 A 
ATOM     49  N   UNL A   1      44.546  26.369  32.009  1.00  0.00    -0.248 NA
ATOM     50  C   UNL A   1      43.966  24.316  31.058  1.00  0.00     0.031 C 
ATOM     51  C   UNL A   1      42.968  28.447  28.375  1.00  0.00     0.029 A 
ATOM     52  N   UNL A   1      43.931  28.730  30.375  1.00  0.00    -0.354 N 
ATOM     53  C   UNL A   1      44.927  25.340  32.859  1.00  0.00     0.074 A 
ATOM     54  C   UNL A   1      44.529  24.097  32.236  1.00  0.00     0.031 C 
ATOM     55  C   UNL A   1      43.167  29.766  28.547  1.00  0.00     0.029 A 
ATOM     56  C   UNL A   1      43.765  29.995  29.864  1.00  0.00     0.049 A 
ATOM     57  H   UNL A   1      44.355  28.553  31.245  1.00  0.00     0.167 HD
ATOM     58  C   UNL A   1      45.556  25.423  34.053  1.00  0.00     0.031 A 
ATOM     59  C   UNL A   1      44.044  31.198  30.403  1.00  0.00     0.031 A 
ATOM     60  C   UNL A   1      45.932  26.658  34.681  1.00  0.00     0.049 A 
ATOM     61  C   UNL A   1      44.659  31.272  31.776  1.00  0.00     0.074 A 
ATOM     62  C   UNL A   1      46.577  26.841  35.890  1.00  0.00     0.029 A 
ATOM     63  N   UNL A   1      45.691  27.918  34.156  1.00  0.00    -0.354 N 
ATOM     64  N   UNL A   1      45.015  30.289  32.570  1.00  0.00    -0.248 NA
ATOM     65  C   UNL A   1      44.913  32.612  32.328  1.00  0.00     0.031 C 
ATOM     66  C   UNL A   1      46.678  28.214  36.124  1.00  0.00     0.029 A 
ATOM     67  C   UNL A   1      46.152  28.885  35.031  1.00  0.00     0.049 A 
ATOM     68  H   UNL A   1      45.258  28.097  33.290  1.00  0.00     0.167 HD
ATOM     69  C   UNL A   1      45.555  30.891  33.702  1.00  0.00     0.074 A 
ATOM     70  C   UNL A   1      45.480  32.323  33.493  1.00  0.00     0.031 C 
ATOM     71  C   UNL A   1      46.072  30.307  34.810  1.00  0.00     0.031 A 
BRANCH  58  72
ATOM     72  C   UNL A   1      45.859  24.142  34.776  1.00  0.00    -0.014 A 
ATOM     73  C   UNL A   1      44.951  23.606  35.705  1.00  0.00     0.010 A 
ATOM     74  C   UNL A   1      47.029  23.428  34.463  1.00  0.00     0.010 A 
ATOM     75  C   UNL A   1      45.213  22.378  36.316  1.00  0.00     0.020 A 
ATOM     76  C   UNL A   1      47.284  22.190  35.056  1.00  0.00     0.020 A 
ATOM     77  C   UNL A   1      46.373  21.674  35.979  1.00  0.00     0.054 A 
BRANCH  77  78
ATOM     78  S   UNL A   1      46.661  20.063  36.762  1.00  0.00     0.124 S 
ATOM     79  O   UNL A   1      45.974  20.219  38.043  1.00  0.00    -0.237 OA
ATOM     80  O   UNL A   1      46.032  19.142  35.821  1.00  0.00    -0.237 OA
ATOM     81  O   UNL A   1      48.116  19.972  36.848  1.00  0.00    -0.744 OA
ENDBRANCH  77  78
ENDBRANCH  58  72
BRANCH  59  82
ATOM     82  C   UNL A   1      43.735  32.434  29.633  1.00  0.00    -0.014 A 
ATOM     83  C   UNL A   1      42.608  33.210  29.952  1.00  0.00     0.010 A 
ATOM     84  C   UNL A   1      44.597  32.866  28.608  1.00  0.00     0.010 A 
ATOM     85  C   UNL A   1      42.353  34.402  29.266  1.00  0.00     0.020 A 
ATOM     86  C   UNL A   1      44.356  34.067  27.935  1.00  0.00     0.020 A 
ATOM     87  C   UNL A   1      43.237  34.831  28.273  1.00  0.00     0.054 A 
BRANCH  87  88
ATOM     88  S   UNL A   1      42.917  36.416  27.450  1.00  0.00     0.124 S 
ATOM     89  O   UNL A   1      42.802  36.020  26.049  1.00  0.00    -0.237 OA
ATOM     90  O   UNL A   1      41.677  36.848  28.088  1.00  0.00    -0.237 OA
ATOM     91  O   UNL A   1      44.094  37.219  27.776  1.00  0.00    -0.744 OA
ENDBRANCH  87  88
ENDBRANCH  59  82
BRANCH  71  92
ATOM     92  C   UNL A   1      46.629  31.191  35.894  1.00  0.00    -0.014 A 
ATOM     93  C   UNL A   1      45.787  31.784  36.849  1.00  0.00     0.010 A 
ATOM     94  C   UNL A   1      48.025  31.306  36.039  1.00  0.00     0.010 A 
ATOM     95  C   UNL A   1      46.332  32.477  37.933  1.00  0.00     0.020 A 
ATOM     96  C   UNL A   1      48.573  31.980  37.134  1.00  0.00     0.020 A 
ATOM     97  C   UNL A   1      47.722  32.558  38.076  1.00  0.00     0.054 A 
BRANCH  97  98
ATOM     98  S   UNL A   1      48.395  33.405  39.531  1.00  0.00     0.124 S 
ATOM     99  O   UNL A   1      48.165  34.810  39.206  1.00  0.00    -0.237 OA
ATOM    100  O   UNL A   1      47.576  32.868  40.614  1.00  0.00    -0.237 OA
ATOM    101  O   UNL A   1      49.799  32.998  39.554  1.00  0.00    -0.744 OA
ENDBRANCH  97  98
ENDBRANCH  71  92
ENDBRANCH  45  46
ENDBRANCH  38  40
ENDBRANCH  37  38
ENDBRANCH  36  37
ENDBRANCH  35  36
ENDBRANCH  34  35
ENDBRANCH   1  34
TORSDOF 21
ENDMDL
