MODEL 1
REMARK VINA RESULT:      -8.8      0.000      0.000
REMARK SMILES O=C(Cn1cccc1C(=O)OCCOCCOCCOC(=O)c1ccc(-c2c3nc(c(-c4ccc(S(=O)(=O)[O-])cc4)c4ccc([nH]4)c(-c4ccc(S(=O)(=O)[O-])cc4)c4nc(c(-c5ccc(S(=O)(=O)[O-])cc5)c5ccc2[nH]5)C=C4)C=C3)cc1)Nc1ccc(CCO)cc1
REMARK SMILES IDX 14 1 13 2 12 3 11 4 9 5 10 6 8 7 4 8 5 9 6 10 7 11 3 12 2 13
REMARK SMILES IDX 1 14 83 15 84 17 85 18 92 19 86 20 91 21 87 22 88 23 89 24
REMARK SMILES IDX 90 25 15 27 16 28 17 29 18 30 19 31 20 32 21 33 22 34 23 35
REMARK SMILES IDX 24 36 82 37 25 38 81 39 26 40 27 41 28 42 75 43 29 44 80 45
REMARK SMILES IDX 74 46 76 47 30 48 79 49 73 50 72 51 31 53 61 54 42 55 60 56
REMARK SMILES IDX 43 57 46 58 59 59 77 60 44 61 45 62 58 64 78 65 47 66 32 67
REMARK SMILES IDX 33 68 41 69 34 70 40 71 35 72 36 73 37 74 38 75 39 76 62 77
REMARK SMILES IDX 63 78 71 79 64 80 70 81 65 82 66 83 67 84 68 85 69 86 48 87
REMARK SMILES IDX 49 88 57 89 50 90 56 91 51 92 52 93 53 94 54 95 55 96
REMARK H PARENT 83 16 90 26 76 52 46 63
REMARK Flexibility Score: inf
ROOT
ATOM      1  O   UNL A   1      33.418  36.040  30.137  1.00  0.00    -0.376 OA
ENDROOT
BRANCH   1   2
ATOM      2  C   UNL A   1      32.955  35.193  29.096  1.00  0.00     0.202 C 
BRANCH   2   3
ATOM      3  C   UNL A   1      33.966  34.400  28.245  1.00  0.00     0.261 C 
BRANCH   3   4
ATOM      4  O   UNL A   1      35.133  33.936  28.947  1.00  0.00    -0.459 OA
BRANCH   4   5
ATOM      5  C   UNL A   1      35.041  32.722  29.554  1.00  0.00     0.355 C 
ATOM      6  O   UNL A   1      34.380  32.489  30.558  1.00  0.00    -0.244 OA
BRANCH   5   7
ATOM      7  C   UNL A   1      35.692  31.704  28.744  1.00  0.00     0.128 A 
ATOM      8  N   UNL A   1      35.117  30.739  27.919  1.00  0.00    -0.333 N 
ATOM      9  C   UNL A   1      36.086  29.833  27.554  1.00  0.00     0.087 A 
ATOM     10  C   UNL A   1      37.304  30.287  28.002  1.00  0.00     0.020 A 
ATOM     11  C   UNL A   1      37.062  31.466  28.731  1.00  0.00     0.035 A 
BRANCH   8  12
ATOM     12  C   UNL A   1      33.691  30.691  27.574  1.00  0.00     0.222 C 
BRANCH  12  13
ATOM     13  C   UNL A   1      33.195  29.572  26.671  1.00  0.00     0.244 C 
ATOM     14  O   UNL A   1      33.223  29.725  25.449  1.00  0.00    -0.273 OA
ATOM     15  N   UNL A   1      32.803  28.403  27.304  1.00  0.00    -0.325 N 
ATOM     16  H   UNL A   1      32.867  28.379  28.286  1.00  0.00     0.169 HD
BRANCH  15  17
ATOM     17  C   UNL A   1      32.319  27.242  26.660  1.00  0.00     0.041 A 
ATOM     18  C   UNL A   1      33.263  26.321  26.194  1.00  0.00     0.026 A 
ATOM     19  C   UNL A   1      30.964  26.965  26.484  1.00  0.00     0.026 A 
ATOM     20  C   UNL A   1      32.852  25.116  25.616  1.00  0.00     0.006 A 
ATOM     21  C   UNL A   1      30.553  25.781  25.859  1.00  0.00     0.006 A 
ATOM     22  C   UNL A   1      31.493  24.837  25.429  1.00  0.00    -0.046 A 
BRANCH  22  23
ATOM     23  C   UNL A   1      31.044  23.530  24.814  1.00  0.00     0.063 C 
BRANCH  23  24
ATOM     24  C   UNL A   1      31.359  22.303  25.672  1.00  0.00     0.161 C 
BRANCH  24  25
ATOM     25  O   UNL A   1      31.214  22.574  27.063  1.00  0.00    -0.396 OA
ATOM     26  H   UNL A   1      30.468  22.066  27.416  1.00  0.00     0.210 HD
ENDBRANCH  24  25
ENDBRANCH  23  24
ENDBRANCH  22  23
ENDBRANCH  15  17
ENDBRANCH  12  13
ENDBRANCH   8  12
ENDBRANCH   5   7
ENDBRANCH   4   5
ENDBRANCH   3   4
ENDBRANCH   2   3
ENDBRANCH   1   2
BRANCH   1  27
ATOM     27  C   UNL A   1      33.078  35.763  31.490  1.00  0.00     0.188 C 
BRANCH  27  28
ATOM     28  C   UNL A   1      33.528  36.698  32.633  1.00  0.00     0.188 C 
BRANCH  28  29
ATOM     29  O   UNL A   1      34.512  36.161  33.501  1.00  0.00    -0.376 OA
BRANCH  29  30
ATOM     30  C   UNL A   1      35.205  35.001  33.058  1.00  0.00     0.202 C 
BRANCH  30  31
ATOM     31  C   UNL A   1      35.080  33.747  33.929  1.00  0.00     0.261 C 
BRANCH  31  32
ATOM     32  O   UNL A   1      36.236  33.403  34.686  1.00  0.00    -0.460 OA
BRANCH  32  33
ATOM     33  C   UNL A   1      37.383  33.891  34.178  1.00  0.00     0.338 C 
ATOM     34  O   UNL A   1      37.822  35.025  34.274  1.00  0.00    -0.246 OA
BRANCH  33  35
ATOM     35  C   UNL A   1      38.025  32.869  33.367  1.00  0.00     0.060 A 
ATOM     36  C   UNL A   1      39.019  32.104  33.980  1.00  0.00     0.016 A 
ATOM     37  C   UNL A   1      37.905  33.002  31.980  1.00  0.00     0.016 A 
ATOM     38  C   UNL A   1      40.028  31.612  33.185  1.00  0.00     0.010 A 
ATOM     39  C   UNL A   1      38.942  32.559  31.195  1.00  0.00     0.010 A 
ATOM     40  C   UNL A   1      40.018  31.918  31.815  1.00  0.00    -0.014 A 
BRANCH  40  41
ATOM     41  C   UNL A   1      41.160  31.475  31.016  1.00  0.00     0.031 A 
ATOM     42  C   UNL A   1      41.986  32.684  30.575  1.00  0.00     0.074 A 
ATOM     43  C   UNL A   1      41.190  30.134  30.731  1.00  0.00     0.049 A 
ATOM     44  N   UNL A   1      42.650  32.852  29.479  1.00  0.00    -0.248 NA
ATOM     45  C   UNL A   1      41.993  33.929  31.399  1.00  0.00     0.031 C 
ATOM     46  C   UNL A   1      40.264  29.115  31.296  1.00  0.00     0.029 A 
ATOM     47  N   UNL A   1      41.969  29.348  29.912  1.00  0.00    -0.354 N 
ATOM     48  C   UNL A   1      43.265  34.119  29.538  1.00  0.00     0.074 A 
ATOM     49  C   UNL A   1      42.751  34.775  30.698  1.00  0.00     0.031 C 
ATOM     50  C   UNL A   1      40.477  27.899  30.743  1.00  0.00     0.029 A 
ATOM     51  C   UNL A   1      41.560  27.991  29.784  1.00  0.00     0.049 A 
ATOM     52  H   UNL A   1      42.760  29.702  29.445  1.00  0.00     0.167 HD
ATOM     53  C   UNL A   1      44.239  34.502  28.666  1.00  0.00     0.031 A 
ATOM     54  C   UNL A   1      42.027  27.034  28.921  1.00  0.00     0.031 A 
ATOM     55  C   UNL A   1      44.470  33.467  27.716  1.00  0.00     0.049 A 
ATOM     56  C   UNL A   1      43.141  27.676  28.207  1.00  0.00     0.074 A 
ATOM     57  C   UNL A   1      43.733  33.029  26.647  1.00  0.00     0.029 A 
ATOM     58  N   UNL A   1      45.368  32.492  28.086  1.00  0.00    -0.354 N 
ATOM     59  N   UNL A   1      44.303  27.949  28.716  1.00  0.00    -0.248 NA
ATOM     60  C   UNL A   1      42.916  28.130  26.827  1.00  0.00     0.031 C 
ATOM     61  C   UNL A   1      43.859  31.627  26.728  1.00  0.00     0.029 A 
ATOM     62  C   UNL A   1      44.838  31.295  27.673  1.00  0.00     0.049 A 
ATOM     63  H   UNL A   1      46.223  32.627  28.554  1.00  0.00     0.167 HD
ATOM     64  C   UNL A   1      44.768  28.924  27.870  1.00  0.00     0.074 A 
ATOM     65  C   UNL A   1      44.075  28.745  26.611  1.00  0.00     0.031 C 
ATOM     66  C   UNL A   1      45.223  30.097  28.381  1.00  0.00     0.031 A 
BRANCH  53  67
ATOM     67  C   UNL A   1      45.193  35.656  28.670  1.00  0.00    -0.014 A 
ATOM     68  C   UNL A   1      45.101  36.558  27.581  1.00  0.00     0.010 A 
ATOM     69  C   UNL A   1      46.347  35.701  29.463  1.00  0.00     0.010 A 
ATOM     70  C   UNL A   1      46.170  37.370  27.209  1.00  0.00     0.020 A 
ATOM     71  C   UNL A   1      47.417  36.544  29.115  1.00  0.00     0.020 A 
ATOM     72  C   UNL A   1      47.338  37.331  27.961  1.00  0.00     0.054 A 
BRANCH  72  73
ATOM     73  S   UNL A   1      48.769  38.262  27.350  1.00  0.00     0.124 S 
ATOM     74  O   UNL A   1      48.134  39.380  26.655  1.00  0.00    -0.237 OA
ATOM     75  O   UNL A   1      49.469  38.611  28.585  1.00  0.00    -0.237 OA
ATOM     76  O   UNL A   1      49.465  37.304  26.496  1.00  0.00    -0.744 OA
ENDBRANCH  72  73
ENDBRANCH  53  67
BRANCH  54  77
ATOM     77  C   UNL A   1      41.652  25.652  28.421  1.00  0.00    -0.014 A 
ATOM     78  C   UNL A   1      40.600  25.322  27.559  1.00  0.00     0.010 A 
ATOM     79  C   UNL A   1      42.523  24.572  28.757  1.00  0.00     0.010 A 
ATOM     80  C   UNL A   1      40.530  24.041  26.949  1.00  0.00     0.020 A 
ATOM     81  C   UNL A   1      42.503  23.329  28.124  1.00  0.00     0.020 A 
ATOM     82  C   UNL A   1      41.516  23.075  27.191  1.00  0.00     0.054 A 
BRANCH  82  83
ATOM     83  S   UNL A   1      41.618  21.554  26.202  1.00  0.00     0.124 S 
ATOM     84  O   UNL A   1      42.336  20.647  27.090  1.00  0.00    -0.237 OA
ATOM     85  O   UNL A   1      40.214  21.227  25.964  1.00  0.00    -0.237 OA
ATOM     86  O   UNL A   1      42.355  21.973  25.009  1.00  0.00    -0.744 OA
ENDBRANCH  82  83
ENDBRANCH  54  77
BRANCH  66  87
ATOM     87  C   UNL A   1      45.727  30.036  29.819  1.00  0.00    -0.014 A 
ATOM     88  C   UNL A   1      44.937  30.578  30.850  1.00  0.00     0.010 A 
ATOM     89  C   UNL A   1      46.994  29.535  30.180  1.00  0.00     0.010 A 
ATOM     90  C   UNL A   1      45.385  30.613  32.179  1.00  0.00     0.020 A 
ATOM     91  C   UNL A   1      47.457  29.569  31.510  1.00  0.00     0.020 A 
ATOM     92  C   UNL A   1      46.643  30.104  32.506  1.00  0.00     0.054 A 
BRANCH  92  93
ATOM     93  S   UNL A   1      47.180  30.154  34.243  1.00  0.00     0.124 S 
ATOM     94  O   UNL A   1      48.124  29.041  34.323  1.00  0.00    -0.237 OA
ATOM     95  O   UNL A   1      47.773  31.483  34.350  1.00  0.00    -0.237 OA
ATOM     96  O   UNL A   1      45.942  29.965  34.999  1.00  0.00    -0.744 OA
ENDBRANCH  92  93
ENDBRANCH  66  87
ENDBRANCH  40  41
ENDBRANCH  33  35
ENDBRANCH  32  33
ENDBRANCH  31  32
ENDBRANCH  30  31
ENDBRANCH  29  30
ENDBRANCH  28  29
ENDBRANCH  27  28
ENDBRANCH   1  27
TORSDOF 26
ENDMDL
MODEL 2
REMARK VINA RESULT:      -8.0      1.704      2.144
REMARK SMILES O=C(Cn1cccc1C(=O)OCCOCCOCCOC(=O)c1ccc(-c2c3nc(c(-c4ccc(S(=O)(=O)[O-])cc4)c4ccc([nH]4)c(-c4ccc(S(=O)(=O)[O-])cc4)c4nc(c(-c5ccc(S(=O)(=O)[O-])cc5)c5ccc2[nH]5)C=C4)C=C3)cc1)Nc1ccc(CCO)cc1
REMARK SMILES IDX 14 1 13 2 12 3 11 4 9 5 10 6 8 7 4 8 5 9 6 10 7 11 3 12 2 13
REMARK SMILES IDX 1 14 83 15 84 17 85 18 92 19 86 20 91 21 87 22 88 23 89 24
REMARK SMILES IDX 90 25 15 27 16 28 17 29 18 30 19 31 20 32 21 33 22 34 23 35
REMARK SMILES IDX 24 36 82 37 25 38 81 39 26 40 27 41 28 42 75 43 29 44 80 45
REMARK SMILES IDX 74 46 76 47 30 48 79 49 73 50 72 51 31 53 61 54 42 55 60 56
REMARK SMILES IDX 43 57 46 58 59 59 77 60 44 61 45 62 58 64 78 65 47 66 32 67
REMARK SMILES IDX 33 68 41 69 34 70 40 71 35 72 36 73 37 74 38 75 39 76 62 77
REMARK SMILES IDX 63 78 71 79 64 80 70 81 65 82 66 83 67 84 68 85 69 86 48 87
REMARK SMILES IDX 49 88 57 89 50 90 56 91 51 92 52 93 53 94 54 95 55 96
REMARK H PARENT 83 16 90 26 76 52 46 63
REMARK Flexibility Score: inf
ROOT
ATOM      1  O   UNL A   1      33.209  36.481  30.474  1.00  0.00    -0.376 OA
ENDROOT
BRANCH   1   2
ATOM      2  C   UNL A   1      32.942  35.614  29.382  1.00  0.00     0.202 C 
BRANCH   2   3
ATOM      3  C   UNL A   1      34.110  34.948  28.628  1.00  0.00     0.261 C 
BRANCH   3   4
ATOM      4  O   UNL A   1      35.130  34.368  29.459  1.00  0.00    -0.459 OA
BRANCH   4   5
ATOM      5  C   UNL A   1      34.930  33.087  29.873  1.00  0.00     0.355 C 
ATOM      6  O   UNL A   1      34.117  32.743  30.721  1.00  0.00    -0.244 OA
BRANCH   5   7
ATOM      7  C   UNL A   1      35.688  32.167  29.039  1.00  0.00     0.128 A 
ATOM      8  N   UNL A   1      35.236  31.330  28.020  1.00  0.00    -0.333 N 
ATOM      9  C   UNL A   1      36.244  30.455  27.685  1.00  0.00     0.087 A 
ATOM     10  C   UNL A   1      37.385  30.817  28.361  1.00  0.00     0.020 A 
ATOM     11  C   UNL A   1      37.044  31.899  29.195  1.00  0.00     0.035 A 
BRANCH   8  12
ATOM     12  C   UNL A   1      33.877  31.361  27.469  1.00  0.00     0.222 C 
BRANCH  12  13
ATOM     13  C   UNL A   1      33.310  30.093  26.849  1.00  0.00     0.244 C 
ATOM     14  O   UNL A   1      32.481  29.431  27.477  1.00  0.00    -0.273 OA
ATOM     15  N   UNL A   1      33.724  29.804  25.558  1.00  0.00    -0.325 N 
ATOM     16  H   UNL A   1      34.355  30.432  25.137  1.00  0.00     0.169 HD
BRANCH  15  17
ATOM     17  C   UNL A   1      33.318  28.687  24.795  1.00  0.00     0.041 A 
ATOM     18  C   UNL A   1      32.890  28.921  23.485  1.00  0.00     0.026 A 
ATOM     19  C   UNL A   1      33.338  27.377  25.273  1.00  0.00     0.026 A 
ATOM     20  C   UNL A   1      32.547  27.853  22.649  1.00  0.00     0.006 A 
ATOM     21  C   UNL A   1      32.946  26.312  24.453  1.00  0.00     0.006 A 
ATOM     22  C   UNL A   1      32.557  26.538  23.126  1.00  0.00    -0.046 A 
BRANCH  22  23
ATOM     23  C   UNL A   1      32.197  25.379  22.224  1.00  0.00     0.063 C 
BRANCH  23  24
ATOM     24  C   UNL A   1      32.837  25.454  20.836  1.00  0.00     0.161 C 
BRANCH  24  25
ATOM     25  O   UNL A   1      32.957  24.168  20.235  1.00  0.00    -0.396 OA
ATOM     26  H   UNL A   1      32.409  23.532  20.720  1.00  0.00     0.210 HD
ENDBRANCH  24  25
ENDBRANCH  23  24
ENDBRANCH  22  23
ENDBRANCH  15  17
ENDBRANCH  12  13
ENDBRANCH   8  12
ENDBRANCH   5   7
ENDBRANCH   4   5
ENDBRANCH   3   4
ENDBRANCH   2   3
ENDBRANCH   1   2
BRANCH   1  27
ATOM     27  C   UNL A   1      33.125  35.997  31.809  1.00  0.00     0.188 C 
BRANCH  27  28
ATOM     28  C   UNL A   1      33.729  36.793  32.985  1.00  0.00     0.188 C 
BRANCH  28  29
ATOM     29  O   UNL A   1      34.606  36.061  33.825  1.00  0.00    -0.376 OA
BRANCH  29  30
ATOM     30  C   UNL A   1      35.319  34.982  33.234  1.00  0.00     0.202 C 
BRANCH  30  31
ATOM     31  C   UNL A   1      35.186  33.614  33.911  1.00  0.00     0.261 C 
BRANCH  31  32
ATOM     32  O   UNL A   1      36.256  33.249  34.778  1.00  0.00    -0.460 OA
BRANCH  32  33
ATOM     33  C   UNL A   1      37.440  33.790  34.438  1.00  0.00     0.338 C 
ATOM     34  O   UNL A   1      37.851  34.910  34.692  1.00  0.00    -0.246 OA
BRANCH  33  35
ATOM     35  C   UNL A   1      38.172  32.860  33.596  1.00  0.00     0.060 A 
ATOM     36  C   UNL A   1      39.181  32.110  34.205  1.00  0.00     0.016 A 
ATOM     37  C   UNL A   1      38.106  33.077  32.216  1.00  0.00     0.016 A 
ATOM     38  C   UNL A   1      40.249  31.726  33.429  1.00  0.00     0.010 A 
ATOM     39  C   UNL A   1      39.199  32.741  31.454  1.00  0.00     0.010 A 
ATOM     40  C   UNL A   1      40.282  32.119  32.082  1.00  0.00    -0.014 A 
BRANCH  40  41
ATOM     41  C   UNL A   1      41.481  31.791  31.311  1.00  0.00     0.031 A 
ATOM     42  C   UNL A   1      42.284  33.062  31.034  1.00  0.00     0.074 A 
ATOM     43  C   UNL A   1      41.575  30.486  30.904  1.00  0.00     0.049 A 
ATOM     44  N   UNL A   1      42.999  33.356  29.999  1.00  0.00    -0.248 NA
ATOM     45  C   UNL A   1      42.201  34.222  31.970  1.00  0.00     0.031 C 
ATOM     46  C   UNL A   1      40.658  29.389  31.317  1.00  0.00     0.029 A 
ATOM     47  N   UNL A   1      42.425  29.806  30.060  1.00  0.00    -0.354 N 
ATOM     48  C   UNL A   1      43.564  34.630  30.211  1.00  0.00     0.074 A 
ATOM     49  C   UNL A   1      42.965  35.155  31.397  1.00  0.00     0.031 C 
ATOM     50  C   UNL A   1      40.945  28.238  30.665  1.00  0.00     0.029 A 
ATOM     51  C   UNL A   1      42.073  28.456  29.782  1.00  0.00     0.049 A 
ATOM     52  H   UNL A   1      43.227  30.228  29.675  1.00  0.00     0.167 HD
ATOM     53  C   UNL A   1      44.568  35.125  29.436  1.00  0.00     0.031 A 
ATOM     54  C   UNL A   1      42.621  27.601  28.861  1.00  0.00     0.031 A 
ATOM     55  C   UNL A   1      44.888  34.194  28.408  1.00  0.00     0.049 A 
ATOM     56  C   UNL A   1      43.748  28.343  28.275  1.00  0.00     0.074 A 
ATOM     57  C   UNL A   1      44.226  33.837  27.262  1.00  0.00     0.029 A 
ATOM     58  N   UNL A   1      45.800  33.216  28.735  1.00  0.00    -0.354 N 
ATOM     59  N   UNL A   1      44.869  28.603  28.873  1.00  0.00    -0.248 NA
ATOM     60  C   UNL A   1      43.581  28.920  26.933  1.00  0.00     0.031 C 
ATOM     61  C   UNL A   1      44.399  32.439  27.218  1.00  0.00     0.029 A 
ATOM     62  C   UNL A   1      45.337  32.048  28.181  1.00  0.00     0.049 A 
ATOM     63  H   UNL A   1      46.623  33.333  29.262  1.00  0.00     0.167 HD
ATOM     64  C   UNL A   1      45.344  29.669  28.150  1.00  0.00     0.074 A 
ATOM     65  C   UNL A   1      44.727  29.589  26.843  1.00  0.00     0.031 C 
ATOM     66  C   UNL A   1      45.727  30.801  28.795  1.00  0.00     0.031 A 
BRANCH  53  67
ATOM     67  C   UNL A   1      45.478  36.302  29.603  1.00  0.00    -0.014 A 
ATOM     68  C   UNL A   1      46.870  36.039  29.555  1.00  0.00     0.010 A 
ATOM     69  C   UNL A   1      45.061  37.533  30.127  1.00  0.00     0.010 A 
ATOM     70  C   UNL A   1      47.799  36.899  30.136  1.00  0.00     0.020 A 
ATOM     71  C   UNL A   1      45.998  38.423  30.683  1.00  0.00     0.020 A 
ATOM     72  C   UNL A   1      47.351  38.073  30.729  1.00  0.00     0.054 A 
BRANCH  72  73
ATOM     73  S   UNL A   1      48.559  39.081  31.629  1.00  0.00     0.124 S 
ATOM     74  O   UNL A   1      48.904  40.102  30.642  1.00  0.00    -0.237 OA
ATOM     75  O   UNL A   1      47.784  39.556  32.774  1.00  0.00    -0.237 OA
ATOM     76  O   UNL A   1      49.623  38.135  31.955  1.00  0.00    -0.744 OA
ENDBRANCH  72  73
ENDBRANCH  53  67
BRANCH  54  77
ATOM     77  C   UNL A   1      42.325  26.262  28.213  1.00  0.00    -0.014 A 
ATOM     78  C   UNL A   1      42.937  25.035  28.490  1.00  0.00     0.010 A 
ATOM     79  C   UNL A   1      41.226  26.201  27.304  1.00  0.00     0.010 A 
ATOM     80  C   UNL A   1      42.378  23.817  28.019  1.00  0.00     0.020 A 
ATOM     81  C   UNL A   1      40.630  25.012  26.881  1.00  0.00     0.020 A 
ATOM     82  C   UNL A   1      41.195  23.812  27.268  1.00  0.00     0.054 A 
BRANCH  82  83
ATOM     83  S   UNL A   1      40.300  22.271  26.915  1.00  0.00     0.124 S 
ATOM     84  O   UNL A   1      38.937  22.740  26.691  1.00  0.00    -0.237 OA
ATOM     85  O   UNL A   1      40.994  21.756  25.736  1.00  0.00    -0.237 OA
ATOM     86  O   UNL A   1      40.496  21.478  28.129  1.00  0.00    -0.744 OA
ENDBRANCH  82  83
ENDBRANCH  54  77
BRANCH  66  87
ATOM     87  C   UNL A   1      46.155  30.618  30.247  1.00  0.00    -0.014 A 
ATOM     88  C   UNL A   1      47.481  30.243  30.532  1.00  0.00     0.010 A 
ATOM     89  C   UNL A   1      45.269  30.720  31.339  1.00  0.00     0.010 A 
ATOM     90  C   UNL A   1      47.908  29.990  31.845  1.00  0.00     0.020 A 
ATOM     91  C   UNL A   1      45.684  30.465  32.660  1.00  0.00     0.020 A 
ATOM     92  C   UNL A   1      47.008  30.106  32.906  1.00  0.00     0.054 A 
BRANCH  92  93
ATOM     93  S   UNL A   1      47.605  29.786  34.594  1.00  0.00     0.124 S 
ATOM     94  O   UNL A   1      46.818  28.624  35.003  1.00  0.00    -0.237 OA
ATOM     95  O   UNL A   1      49.027  29.532  34.381  1.00  0.00    -0.237 OA
ATOM     96  O   UNL A   1      47.297  31.020  35.316  1.00  0.00    -0.744 OA
ENDBRANCH  92  93
ENDBRANCH  66  87
ENDBRANCH  40  41
ENDBRANCH  33  35
ENDBRANCH  32  33
ENDBRANCH  31  32
ENDBRANCH  30  31
ENDBRANCH  29  30
ENDBRANCH  28  29
ENDBRANCH  27  28
ENDBRANCH   1  27
TORSDOF 26
ENDMDL
MODEL 3
REMARK VINA RESULT:      -7.9      6.331     13.022
REMARK SMILES O=C(Cn1cccc1C(=O)OCCOCCOCCOC(=O)c1ccc(-c2c3nc(c(-c4ccc(S(=O)(=O)[O-])cc4)c4ccc([nH]4)c(-c4ccc(S(=O)(=O)[O-])cc4)c4nc(c(-c5ccc(S(=O)(=O)[O-])cc5)c5ccc2[nH]5)C=C4)C=C3)cc1)Nc1ccc(CCO)cc1
REMARK SMILES IDX 14 1 13 2 12 3 11 4 9 5 10 6 8 7 4 8 5 9 6 10 7 11 3 12 2 13
REMARK SMILES IDX 1 14 83 15 84 17 85 18 92 19 86 20 91 21 87 22 88 23 89 24
REMARK SMILES IDX 90 25 15 27 16 28 17 29 18 30 19 31 20 32 21 33 22 34 23 35
REMARK SMILES IDX 24 36 82 37 25 38 81 39 26 40 27 41 28 42 75 43 29 44 80 45
REMARK SMILES IDX 74 46 76 47 30 48 79 49 73 50 72 51 31 53 61 54 42 55 60 56
REMARK SMILES IDX 43 57 46 58 59 59 77 60 44 61 45 62 58 64 78 65 47 66 32 67
REMARK SMILES IDX 33 68 41 69 34 70 40 71 35 72 36 73 37 74 38 75 39 76 62 77
REMARK SMILES IDX 63 78 71 79 64 80 70 81 65 82 66 83 67 84 68 85 69 86 48 87
REMARK SMILES IDX 49 88 57 89 50 90 56 91 51 92 52 93 53 94 54 95 55 96
REMARK H PARENT 83 16 90 26 76 52 46 63
REMARK Flexibility Score: inf
ROOT
ATOM      1  O   UNL A   1      47.958  25.340  25.197  1.00  0.00    -0.376 OA
ENDROOT
BRANCH   1   2
ATOM      2  C   UNL A   1      47.183  24.756  24.162  1.00  0.00     0.202 C 
BRANCH   2   3
ATOM      3  C   UNL A   1      46.569  23.356  24.361  1.00  0.00     0.261 C 
BRANCH   3   4
ATOM      4  O   UNL A   1      45.227  23.340  24.881  1.00  0.00    -0.459 OA
BRANCH   4   5
ATOM      5  C   UNL A   1      45.012  22.601  26.003  1.00  0.00     0.355 C 
ATOM      6  O   UNL A   1      45.287  22.959  27.141  1.00  0.00    -0.244 OA
BRANCH   5   7
ATOM      7  C   UNL A   1      44.245  21.408  25.679  1.00  0.00     0.128 A 
ATOM      8  N   UNL A   1      42.930  21.092  26.014  1.00  0.00    -0.333 N 
ATOM      9  C   UNL A   1      42.706  19.765  25.726  1.00  0.00     0.087 A 
ATOM     10  C   UNL A   1      43.804  19.265  25.067  1.00  0.00     0.020 A 
ATOM     11  C   UNL A   1      44.761  20.297  25.021  1.00  0.00     0.035 A 
BRANCH   8  12
ATOM     12  C   UNL A   1      41.989  22.030  26.637  1.00  0.00     0.222 C 
BRANCH  12  13
ATOM     13  C   UNL A   1      40.518  21.647  26.714  1.00  0.00     0.244 C 
ATOM     14  O   UNL A   1      40.107  21.021  27.692  1.00  0.00    -0.273 OA
ATOM     15  N   UNL A   1      39.712  22.106  25.683  1.00  0.00    -0.325 N 
ATOM     16  H   UNL A   1      40.144  22.638  24.976  1.00  0.00     0.169 HD
BRANCH  15  17
ATOM     17  C   UNL A   1      38.324  21.875  25.561  1.00  0.00     0.041 A 
ATOM     18  C   UNL A   1      37.460  22.893  25.975  1.00  0.00     0.026 A 
ATOM     19  C   UNL A   1      37.780  20.702  25.038  1.00  0.00     0.026 A 
ATOM     20  C   UNL A   1      36.078  22.762  25.812  1.00  0.00     0.006 A 
ATOM     21  C   UNL A   1      36.392  20.549  24.921  1.00  0.00     0.006 A 
ATOM     22  C   UNL A   1      35.526  21.584  25.296  1.00  0.00    -0.046 A 
BRANCH  22  23
ATOM     23  C   UNL A   1      34.032  21.441  25.107  1.00  0.00     0.063 C 
BRANCH  23  24
ATOM     24  C   UNL A   1      33.203  22.124  26.196  1.00  0.00     0.161 C 
BRANCH  24  25
ATOM     25  O   UNL A   1      32.181  22.952  25.648  1.00  0.00    -0.396 OA
ATOM     26  H   UNL A   1      32.581  23.612  25.062  1.00  0.00     0.210 HD
ENDBRANCH  24  25
ENDBRANCH  23  24
ENDBRANCH  22  23
ENDBRANCH  15  17
ENDBRANCH  12  13
ENDBRANCH   8  12
ENDBRANCH   5   7
ENDBRANCH   4   5
ENDBRANCH   3   4
ENDBRANCH   2   3
ENDBRANCH   1   2
BRANCH   1  27
ATOM     27  C   UNL A   1      48.679  26.544  24.960  1.00  0.00     0.188 C 
BRANCH  27  28
ATOM     28  C   UNL A   1      49.338  27.320  26.120  1.00  0.00     0.188 C 
BRANCH  28  29
ATOM     29  O   UNL A   1      50.694  27.679  25.913  1.00  0.00    -0.376 OA
BRANCH  29  30
ATOM     30  C   UNL A   1      51.571  27.567  27.027  1.00  0.00     0.202 C 
BRANCH  30  31
ATOM     31  C   UNL A   1      51.855  26.153  27.543  1.00  0.00     0.261 C 
BRANCH  31  32
ATOM     32  O   UNL A   1      51.109  25.752  28.688  1.00  0.00    -0.460 OA
BRANCH  32  33
ATOM     33  C   UNL A   1      51.423  26.432  29.806  1.00  0.00     0.338 C 
ATOM     34  O   UNL A   1      52.531  26.627  30.276  1.00  0.00    -0.246 OA
BRANCH  33  35
ATOM     35  C   UNL A   1      50.203  26.843  30.480  1.00  0.00     0.060 A 
ATOM     36  C   UNL A   1      50.340  27.436  31.736  1.00  0.00     0.016 A 
ATOM     37  C   UNL A   1      49.012  26.260  30.033  1.00  0.00     0.016 A 
ATOM     38  C   UNL A   1      49.312  27.275  32.635  1.00  0.00     0.010 A 
ATOM     39  C   UNL A   1      48.010  26.052  30.950  1.00  0.00     0.010 A 
ATOM     40  C   UNL A   1      48.196  26.513  32.256  1.00  0.00    -0.014 A 
BRANCH  40  41
ATOM     41  C   UNL A   1      47.170  26.266  33.269  1.00  0.00     0.031 A 
ATOM     42  C   UNL A   1      47.394  24.898  33.913  1.00  0.00     0.074 A 
ATOM     43  C   UNL A   1      46.184  27.216  33.346  1.00  0.00     0.049 A 
ATOM     44  N   UNL A   1      46.516  24.061  34.359  1.00  0.00    -0.248 NA
ATOM     45  C   UNL A   1      48.766  24.312  33.974  1.00  0.00     0.031 C 
ATOM     46  C   UNL A   1      46.179  28.510  32.611  1.00  0.00     0.029 A 
ATOM     47  N   UNL A   1      44.989  27.300  34.024  1.00  0.00    -0.354 N 
ATOM     48  C   UNL A   1      47.205  22.948  34.880  1.00  0.00     0.074 A 
ATOM     49  C   UNL A   1      48.581  23.114  34.532  1.00  0.00     0.031 C 
ATOM     50  C   UNL A   1      45.023  29.183  32.812  1.00  0.00     0.029 A 
ATOM     51  C   UNL A   1      44.170  28.418  33.699  1.00  0.00     0.049 A 
ATOM     52  H   UNL A   1      44.718  26.630  34.692  1.00  0.00     0.167 HD
ATOM     53  C   UNL A   1      46.598  22.007  35.654  1.00  0.00     0.031 A 
ATOM     54  C   UNL A   1      42.876  28.669  34.076  1.00  0.00     0.031 A 
ATOM     55  C   UNL A   1      45.214  22.312  35.790  1.00  0.00     0.049 A 
ATOM     56  C   UNL A   1      42.528  27.575  34.997  1.00  0.00     0.074 A 
ATOM     57  C   UNL A   1      44.168  22.214  34.910  1.00  0.00     0.029 A 
ATOM     58  N   UNL A   1      44.880  23.176  36.808  1.00  0.00    -0.354 N 
ATOM     59  N   UNL A   1      42.976  27.440  36.206  1.00  0.00    -0.248 NA
ATOM     60  C   UNL A   1      41.669  26.491  34.499  1.00  0.00     0.031 C 
ATOM     61  C   UNL A   1      43.439  23.397  35.151  1.00  0.00     0.029 A 
ATOM     62  C   UNL A   1      43.928  24.026  36.302  1.00  0.00     0.049 A 
ATOM     63  H   UNL A   1      45.250  23.181  37.720  1.00  0.00     0.167 HD
ATOM     64  C   UNL A   1      42.775  26.103  36.443  1.00  0.00     0.074 A 
ATOM     65  C   UNL A   1      41.712  25.682  35.554  1.00  0.00     0.031 C 
ATOM     66  C   UNL A   1      43.802  25.338  36.893  1.00  0.00     0.031 A 
BRANCH  53  67
ATOM     67  C   UNL A   1      47.144  20.904  36.508  1.00  0.00    -0.014 A 
ATOM     68  C   UNL A   1      46.216  19.930  36.954  1.00  0.00     0.010 A 
ATOM     69  C   UNL A   1      48.389  20.966  37.148  1.00  0.00     0.010 A 
ATOM     70  C   UNL A   1      46.459  19.150  38.082  1.00  0.00     0.020 A 
ATOM     71  C   UNL A   1      48.655  20.155  38.266  1.00  0.00     0.020 A 
ATOM     72  C   UNL A   1      47.667  19.294  38.754  1.00  0.00     0.054 A 
BRANCH  72  73
ATOM     73  S   UNL A   1      47.880  18.397  40.314  1.00  0.00     0.124 S 
ATOM     74  O   UNL A   1      49.316  18.126  40.320  1.00  0.00    -0.237 OA
ATOM     75  O   UNL A   1      47.425  19.372  41.303  1.00  0.00    -0.237 OA
ATOM     76  O   UNL A   1      47.019  17.227  40.160  1.00  0.00    -0.744 OA
ENDBRANCH  72  73
ENDBRANCH  53  67
BRANCH  54  77
ATOM     77  C   UNL A   1      41.733  29.601  33.721  1.00  0.00    -0.014 A 
ATOM     78  C   UNL A   1      41.081  29.706  32.488  1.00  0.00     0.010 A 
ATOM     79  C   UNL A   1      41.167  30.378  34.776  1.00  0.00     0.010 A 
ATOM     80  C   UNL A   1      39.852  30.410  32.368  1.00  0.00     0.020 A 
ATOM     81  C   UNL A   1      39.933  31.025  34.691  1.00  0.00     0.020 A 
ATOM     82  C   UNL A   1      39.259  31.013  33.486  1.00  0.00     0.054 A 
BRANCH  82  83
ATOM     83  S   UNL A   1      37.558  31.651  33.429  1.00  0.00     0.124 S 
ATOM     84  O   UNL A   1      36.806  30.502  32.937  1.00  0.00    -0.237 OA
ATOM     85  O   UNL A   1      37.306  32.025  34.819  1.00  0.00    -0.237 OA
ATOM     86  O   UNL A   1      37.649  32.780  32.503  1.00  0.00    -0.744 OA
ENDBRANCH  82  83
ENDBRANCH  54  77
BRANCH  66  87
ATOM     87  C   UNL A   1      44.897  26.085  37.646  1.00  0.00    -0.014 A 
ATOM     88  C   UNL A   1      46.061  26.476  36.959  1.00  0.00     0.010 A 
ATOM     89  C   UNL A   1      44.855  26.342  39.031  1.00  0.00     0.010 A 
ATOM     90  C   UNL A   1      47.131  27.101  37.619  1.00  0.00     0.020 A 
ATOM     91  C   UNL A   1      45.923  26.964  39.706  1.00  0.00     0.020 A 
ATOM     92  C   UNL A   1      47.057  27.347  38.991  1.00  0.00     0.054 A 
BRANCH  92  93
ATOM     93  S   UNL A   1      48.456  28.173  39.806  1.00  0.00     0.124 S 
ATOM     94  O   UNL A   1      47.828  29.335  40.433  1.00  0.00    -0.237 OA
ATOM     95  O   UNL A   1      48.932  27.147  40.730  1.00  0.00    -0.237 OA
ATOM     96  O   UNL A   1      49.368  28.487  38.706  1.00  0.00    -0.744 OA
ENDBRANCH  92  93
ENDBRANCH  66  87
ENDBRANCH  40  41
ENDBRANCH  33  35
ENDBRANCH  32  33
ENDBRANCH  31  32
ENDBRANCH  30  31
ENDBRANCH  29  30
ENDBRANCH  28  29
ENDBRANCH  27  28
ENDBRANCH   1  27
TORSDOF 26
ENDMDL
