MODEL 1
REMARK VINA RESULT:     -10.3      0.000      0.000
REMARK SMILES Nc1nccc(N2CCC[C@@](Cc3ccc(F)cc3F)(C(=O)OCCOCCOCCOC(=O)c3ccc(-c4c5nc(c(-c6ccc(S(=O)(=O)[O-])cc6)c6ccc([nH]6)c(-c6ccc(S(=O)(=O)[O-])cc6)c6nc(c(-c7ccc(S(=O)(=O)[O-])cc7)c7ccc4[nH]7)C=C6)C=C5)cc3)C2)n1
REMARK SMILES IDX 28 1 27 2 26 3 25 4 24 5 23 6 21 7 22 8 11 9 7 10 8 11 95 12
REMARK SMILES IDX 9 13 10 14 6 15 2 16 3 17 96 18 4 19 5 20 1 21 12 24 13 25
REMARK SMILES IDX 14 26 19 27 15 28 18 29 20 30 16 31 17 32 29 33 30 34 31 35
REMARK SMILES IDX 32 36 33 37 34 38 35 39 36 40 94 41 37 42 93 43 38 44 39 45
REMARK SMILES IDX 40 46 87 47 41 48 92 49 86 50 88 51 42 52 91 53 85 54 84 55
REMARK SMILES IDX 43 57 73 58 54 59 72 60 55 61 58 62 71 63 89 64 56 65 57 66
REMARK SMILES IDX 70 68 90 69 59 70 44 71 45 72 53 73 46 74 52 75 47 76 48 77
REMARK SMILES IDX 49 78 50 79 51 80 74 81 75 82 83 83 76 84 82 85 77 86 78 87
REMARK SMILES IDX 79 88 80 89 81 90 60 91 61 92 69 93 62 94 68 95 63 96 64 97
REMARK SMILES IDX 65 98 66 99 67 100
REMARK H PARENT 1 22 1 23 88 56 58 67
REMARK Flexibility Score: inf
ROOT
ATOM      1  C   UNL A   1      33.921  33.899  29.273  1.00  0.00     0.188 C 
ENDROOT
BRANCH   1   2
ATOM      2  C   UNL A   1      33.818  33.463  27.810  1.00  0.00     0.188 C 
BRANCH   2   3
ATOM      3  O   UNL A   1      34.313  32.184  27.449  1.00  0.00    -0.376 OA
BRANCH   3   4
ATOM      4  C   UNL A   1      33.440  31.061  27.510  1.00  0.00     0.202 C 
BRANCH   4   5
ATOM      5  C   UNL A   1      33.686  29.875  26.565  1.00  0.00     0.261 C 
BRANCH   5   6
ATOM      6  O   UNL A   1      32.820  29.782  25.405  1.00  0.00    -0.463 OA
BRANCH   6   7
ATOM      7  C   UNL A   1      33.118  28.777  24.541  1.00  0.00     0.314 C 
ATOM      8  O   UNL A   1      33.908  28.918  23.610  1.00  0.00    -0.252 OA
BRANCH   7   9
ATOM      9  C   UNL A   1      32.329  27.470  24.728  1.00  0.00     0.090 C 
ATOM     10  N   UNL A   1      32.869  25.126  25.196  1.00  0.00    -0.355 N 
ATOM     11  C   UNL A   1      31.991  24.946  26.335  1.00  0.00     0.118 C 
ATOM     12  C   UNL A   1      33.456  26.446  25.027  1.00  0.00     0.137 C 
ATOM     13  C   UNL A   1      30.814  25.912  26.159  1.00  0.00     0.023 C 
ATOM     14  C   UNL A   1      31.278  27.359  25.875  1.00  0.00     0.023 C 
BRANCH  10  15
ATOM     15  C   UNL A   1      33.681  24.070  24.802  1.00  0.00     0.134 A 
ATOM     16  C   UNL A   1      34.052  21.826  24.543  1.00  0.00     0.221 A 
ATOM     17  N   UNL A   1      35.373  21.983  24.410  1.00  0.00    -0.222 NA
ATOM     18  N   UNL A   1      33.183  22.825  24.749  1.00  0.00    -0.196 NA
ATOM     19  C   UNL A   1      35.834  23.240  24.465  1.00  0.00     0.119 A 
ATOM     20  C   UNL A   1      35.025  24.330  24.640  1.00  0.00     0.067 A 
BRANCH  16  21
ATOM     21  N   UNL A   1      33.572  20.553  24.487  1.00  0.00    -0.368 N 
ATOM     22  H   UNL A   1      32.600  20.392  24.471  1.00  0.00     0.159 HD
ATOM     23  H   UNL A   1      34.196  19.792  24.462  1.00  0.00     0.159 HD
ENDBRANCH  16  21
ENDBRANCH  10  15
BRANCH   9  24
ATOM     24  C   UNL A   1      31.672  27.169  23.339  1.00  0.00     0.059 C 
BRANCH  24  25
ATOM     25  C   UNL A   1      30.433  28.005  23.067  1.00  0.00    -0.011 A 
ATOM     26  C   UNL A   1      30.546  29.354  22.697  1.00  0.00     0.010 A 
ATOM     27  C   UNL A   1      29.153  27.480  23.283  1.00  0.00     0.129 A 
ATOM     28  C   UNL A   1      29.416  30.170  22.656  1.00  0.00     0.040 A 
ATOM     29  C   UNL A   1      28.020  28.282  23.225  1.00  0.00     0.078 A 
ATOM     30  F   UNL A   1      29.001  26.187  23.599  1.00  0.00    -0.207 F 
ATOM     31  C   UNL A   1      28.166  29.629  22.933  1.00  0.00     0.126 A 
ATOM     32  F   UNL A   1      27.088  30.423  22.923  1.00  0.00    -0.207 F 
ENDBRANCH  24  25
ENDBRANCH   9  24
ENDBRANCH   7   9
ENDBRANCH   6   7
ENDBRANCH   5   6
ENDBRANCH   4   5
ENDBRANCH   3   4
ENDBRANCH   2   3
ENDBRANCH   1   2
BRANCH   1  33
ATOM     33  O   UNL A   1      35.195  34.343  29.687  1.00  0.00    -0.376 OA
BRANCH  33  34
ATOM     34  C   UNL A   1      36.171  33.361  30.006  1.00  0.00     0.202 C 
BRANCH  34  35
ATOM     35  C   UNL A   1      35.719  32.271  30.991  1.00  0.00     0.261 C 
BRANCH  35  36
ATOM     36  O   UNL A   1      36.786  31.545  31.627  1.00  0.00    -0.460 OA
BRANCH  36  37
ATOM     37  C   UNL A   1      36.956  30.250  31.261  1.00  0.00     0.338 C 
ATOM     38  O   UNL A   1      36.089  29.398  31.168  1.00  0.00    -0.246 OA
BRANCH  37  39
ATOM     39  C   UNL A   1      38.326  30.129  30.704  1.00  0.00     0.060 A 
ATOM     40  C   UNL A   1      38.493  30.193  29.312  1.00  0.00     0.016 A 
ATOM     41  C   UNL A   1      39.438  30.049  31.544  1.00  0.00     0.016 A 
ATOM     42  C   UNL A   1      39.775  30.148  28.757  1.00  0.00     0.010 A 
ATOM     43  C   UNL A   1      40.717  29.981  30.987  1.00  0.00     0.010 A 
ATOM     44  C   UNL A   1      40.890  29.999  29.590  1.00  0.00    -0.014 A 
BRANCH  44  45
ATOM     45  C   UNL A   1      42.205  29.629  29.013  1.00  0.00     0.031 A 
ATOM     46  C   UNL A   1      42.379  28.219  28.514  1.00  0.00     0.074 A 
ATOM     47  C   UNL A   1      43.223  30.504  28.930  1.00  0.00     0.049 A 
ATOM     48  N   UNL A   1      43.438  27.640  28.011  1.00  0.00    -0.248 NA
ATOM     49  C   UNL A   1      41.196  27.346  28.599  1.00  0.00     0.031 C 
ATOM     50  C   UNL A   1      43.177  31.908  29.333  1.00  0.00     0.029 A 
ATOM     51  N   UNL A   1      44.509  30.326  28.480  1.00  0.00    -0.354 N 
ATOM     52  C   UNL A   1      43.053  26.334  27.730  1.00  0.00     0.074 A 
ATOM     53  C   UNL A   1      41.673  26.198  28.142  1.00  0.00     0.031 C 
ATOM     54  C   UNL A   1      44.385  32.463  29.119  1.00  0.00     0.029 A 
ATOM     55  C   UNL A   1      45.296  31.447  28.591  1.00  0.00     0.049 A 
ATOM     56  H   UNL A   1      44.836  29.474  28.111  1.00  0.00     0.167 HD
ATOM     57  C   UNL A   1      43.778  25.335  27.177  1.00  0.00     0.031 A 
ATOM     58  C   UNL A   1      46.605  31.626  28.315  1.00  0.00     0.031 A 
ATOM     59  C   UNL A   1      45.155  25.458  26.784  1.00  0.00     0.049 A 
ATOM     60  C   UNL A   1      47.417  30.471  27.780  1.00  0.00     0.074 A 
ATOM     61  C   UNL A   1      45.968  24.508  26.193  1.00  0.00     0.029 A 
ATOM     62  N   UNL A   1      45.927  26.597  26.956  1.00  0.00    -0.354 N 
ATOM     63  N   UNL A   1      47.031  29.252  27.487  1.00  0.00    -0.248 NA
ATOM     64  C   UNL A   1      48.847  30.721  27.539  1.00  0.00     0.031 C 
ATOM     65  C   UNL A   1      47.251  25.051  26.065  1.00  0.00     0.029 A 
ATOM     66  C   UNL A   1      47.218  26.361  26.516  1.00  0.00     0.049 A 
ATOM     67  H   UNL A   1      45.605  27.446  27.335  1.00  0.00     0.167 HD
ATOM     68  C   UNL A   1      48.160  28.602  26.993  1.00  0.00     0.074 A 
ATOM     69  C   UNL A   1      49.242  29.565  27.021  1.00  0.00     0.031 C 
ATOM     70  C   UNL A   1      48.288  27.326  26.551  1.00  0.00     0.031 A 
BRANCH  57  71
ATOM     71  C   UNL A   1      43.101  24.000  27.014  1.00  0.00    -0.014 A 
ATOM     72  C   UNL A   1      42.564  23.597  25.778  1.00  0.00     0.010 A 
ATOM     73  C   UNL A   1      43.013  23.131  28.117  1.00  0.00     0.010 A 
ATOM     74  C   UNL A   1      41.913  22.366  25.659  1.00  0.00     0.020 A 
ATOM     75  C   UNL A   1      42.388  21.887  27.994  1.00  0.00     0.020 A 
ATOM     76  C   UNL A   1      41.826  21.522  26.770  1.00  0.00     0.054 A 
BRANCH  76  77
ATOM     77  S   UNL A   1      40.985  19.925  26.585  1.00  0.00     0.124 S 
ATOM     78  O   UNL A   1      41.896  19.209  25.695  1.00  0.00    -0.237 OA
ATOM     79  O   UNL A   1      40.929  19.431  27.958  1.00  0.00    -0.237 OA
ATOM     80  O   UNL A   1      39.694  20.279  26.001  1.00  0.00    -0.744 OA
ENDBRANCH  76  77
ENDBRANCH  57  71
BRANCH  58  81
ATOM     81  C   UNL A   1      47.244  32.951  28.546  1.00  0.00    -0.014 A 
ATOM     82  C   UNL A   1      47.366  33.878  27.496  1.00  0.00     0.010 A 
ATOM     83  C   UNL A   1      47.751  33.286  29.814  1.00  0.00     0.010 A 
ATOM     84  C   UNL A   1      47.996  35.108  27.706  1.00  0.00     0.020 A 
ATOM     85  C   UNL A   1      48.359  34.526  30.035  1.00  0.00     0.020 A 
ATOM     86  C   UNL A   1      48.488  35.426  28.975  1.00  0.00     0.054 A 
BRANCH  86  87
ATOM     87  S   UNL A   1      49.261  37.046  29.234  1.00  0.00     0.124 S 
ATOM     88  O   UNL A   1      48.600  37.864  28.224  1.00  0.00    -0.237 OA
ATOM     89  O   UNL A   1      48.909  37.344  30.620  1.00  0.00    -0.237 OA
ATOM     90  O   UNL A   1      50.680  36.789  29.001  1.00  0.00    -0.744 OA
ENDBRANCH  86  87
ENDBRANCH  58  81
BRANCH  70  91
ATOM     91  C   UNL A   1      49.634  26.899  26.023  1.00  0.00    -0.014 A 
ATOM     92  C   UNL A   1      50.089  27.310  24.757  1.00  0.00     0.010 A 
ATOM     93  C   UNL A   1      50.482  26.121  26.833  1.00  0.00     0.010 A 
ATOM     94  C   UNL A   1      51.351  26.920  24.298  1.00  0.00     0.020 A 
ATOM     95  C   UNL A   1      51.756  25.755  26.392  1.00  0.00     0.020 A 
ATOM     96  C   UNL A   1      52.176  26.144  25.119  1.00  0.00     0.054 A 
BRANCH  96  97
ATOM     97  S   UNL A   1      53.825  25.683  24.517  1.00  0.00     0.124 S 
ATOM     98  O   UNL A   1      54.698  26.419  25.427  1.00  0.00    -0.237 OA
ATOM     99  O   UNL A   1      53.831  24.230  24.677  1.00  0.00    -0.237 OA
ATOM    100  O   UNL A   1      53.832  26.150  23.132  1.00  0.00    -0.744 OA
ENDBRANCH  96  97
ENDBRANCH  70  91
ENDBRANCH  44  45
ENDBRANCH  37  39
ENDBRANCH  36  37
ENDBRANCH  35  36
ENDBRANCH  34  35
ENDBRANCH  33  34
ENDBRANCH   1  33
TORSDOF 24
ENDMDL
MODEL 2
REMARK VINA RESULT:     -10.1      6.601     11.682
REMARK SMILES Nc1nccc(N2CCC[C@@](Cc3ccc(F)cc3F)(C(=O)OCCOCCOCCOC(=O)c3ccc(-c4c5nc(c(-c6ccc(S(=O)(=O)[O-])cc6)c6ccc([nH]6)c(-c6ccc(S(=O)(=O)[O-])cc6)c6nc(c(-c7ccc(S(=O)(=O)[O-])cc7)c7ccc4[nH]7)C=C6)C=C5)cc3)C2)n1
REMARK SMILES IDX 28 1 27 2 26 3 25 4 24 5 23 6 21 7 22 8 11 9 7 10 8 11 95 12
REMARK SMILES IDX 9 13 10 14 6 15 2 16 3 17 96 18 4 19 5 20 1 21 12 24 13 25
REMARK SMILES IDX 14 26 19 27 15 28 18 29 20 30 16 31 17 32 29 33 30 34 31 35
REMARK SMILES IDX 32 36 33 37 34 38 35 39 36 40 94 41 37 42 93 43 38 44 39 45
REMARK SMILES IDX 40 46 87 47 41 48 92 49 86 50 88 51 42 52 91 53 85 54 84 55
REMARK SMILES IDX 43 57 73 58 54 59 72 60 55 61 58 62 71 63 89 64 56 65 57 66
REMARK SMILES IDX 70 68 90 69 59 70 44 71 45 72 53 73 46 74 52 75 47 76 48 77
REMARK SMILES IDX 49 78 50 79 51 80 74 81 75 82 83 83 76 84 82 85 77 86 78 87
REMARK SMILES IDX 79 88 80 89 81 90 60 91 61 92 69 93 62 94 68 95 63 96 64 97
REMARK SMILES IDX 65 98 66 99 67 100
REMARK H PARENT 1 22 1 23 88 56 58 67
REMARK Flexibility Score: inf
ROOT
ATOM      1  C   UNL A   1      35.217  21.877  26.164  1.00  0.00     0.188 C 
ENDROOT
BRANCH   1   2
ATOM      2  C   UNL A   1      34.260  20.875  25.517  1.00  0.00     0.188 C 
BRANCH   2   3
ATOM      3  O   UNL A   1      32.874  20.985  25.797  1.00  0.00    -0.376 OA
BRANCH   3   4
ATOM      4  C   UNL A   1      32.147  22.091  25.275  1.00  0.00     0.202 C 
BRANCH   4   5
ATOM      5  C   UNL A   1      31.712  23.214  26.230  1.00  0.00     0.261 C 
BRANCH   5   6
ATOM      6  O   UNL A   1      31.808  24.569  25.722  1.00  0.00    -0.463 OA
BRANCH   6   7
ATOM      7  C   UNL A   1      32.951  25.228  26.044  1.00  0.00     0.314 C 
ATOM      8  O   UNL A   1      33.847  24.711  26.709  1.00  0.00    -0.252 OA
BRANCH   7   9
ATOM      9  C   UNL A   1      33.022  26.704  25.619  1.00  0.00     0.090 C 
ATOM     10  N   UNL A   1      31.459  28.373  24.739  1.00  0.00    -0.355 N 
ATOM     11  C   UNL A   1      31.713  29.414  25.715  1.00  0.00     0.118 C 
ATOM     12  C   UNL A   1      31.556  27.000  25.209  1.00  0.00     0.137 C 
ATOM     13  C   UNL A   1      33.154  29.236  26.205  1.00  0.00     0.023 C 
ATOM     14  C   UNL A   1      33.447  27.788  26.658  1.00  0.00     0.023 C 
BRANCH  10  15
ATOM     15  C   UNL A   1      30.496  28.590  23.762  1.00  0.00     0.134 A 
ATOM     16  C   UNL A   1      29.519  29.931  22.184  1.00  0.00     0.221 A 
ATOM     17  N   UNL A   1      28.406  29.192  22.136  1.00  0.00    -0.222 NA
ATOM     18  N   UNL A   1      30.568  29.678  22.978  1.00  0.00    -0.196 NA
ATOM     19  C   UNL A   1      28.369  28.113  22.930  1.00  0.00     0.119 A 
ATOM     20  C   UNL A   1      29.401  27.751  23.753  1.00  0.00     0.067 A 
BRANCH  16  21
ATOM     21  N   UNL A   1      29.567  31.030  21.380  1.00  0.00    -0.368 N 
ATOM     22  H   UNL A   1      29.724  31.920  21.771  1.00  0.00     0.159 HD
ATOM     23  H   UNL A   1      29.446  30.934  20.408  1.00  0.00     0.159 HD
ENDBRANCH  16  21
ENDBRANCH  10  15
BRANCH   9  24
ATOM     24  C   UNL A   1      33.959  26.740  24.364  1.00  0.00     0.059 C 
BRANCH  24  25
ATOM     25  C   UNL A   1      33.718  25.589  23.403  1.00  0.00    -0.011 A 
ATOM     26  C   UNL A   1      32.624  25.607  22.523  1.00  0.00     0.010 A 
ATOM     27  C   UNL A   1      34.517  24.439  23.447  1.00  0.00     0.129 A 
ATOM     28  C   UNL A   1      32.286  24.465  21.797  1.00  0.00     0.040 A 
ATOM     29  C   UNL A   1      34.197  23.304  22.712  1.00  0.00     0.078 A 
ATOM     30  F   UNL A   1      35.593  24.398  24.245  1.00  0.00    -0.207 F 
ATOM     31  C   UNL A   1      33.067  23.321  21.910  1.00  0.00     0.126 A 
ATOM     32  F   UNL A   1      32.721  22.218  21.235  1.00  0.00    -0.207 F 
ENDBRANCH  24  25
ENDBRANCH   9  24
ENDBRANCH   7   9
ENDBRANCH   6   7
ENDBRANCH   5   6
ENDBRANCH   4   5
ENDBRANCH   3   4
ENDBRANCH   2   3
ENDBRANCH   1   2
BRANCH   1  33
ATOM     33  O   UNL A   1      36.418  22.114  25.460  1.00  0.00    -0.376 OA
BRANCH  33  34
ATOM     34  C   UNL A   1      37.581  22.424  26.214  1.00  0.00     0.202 C 
BRANCH  34  35
ATOM     35  C   UNL A   1      38.200  23.804  25.943  1.00  0.00     0.261 C 
BRANCH  35  36
ATOM     36  O   UNL A   1      38.573  24.545  27.119  1.00  0.00    -0.460 OA
BRANCH  36  37
ATOM     37  C   UNL A   1      39.693  25.307  27.040  1.00  0.00     0.338 C 
ATOM     38  O   UNL A   1      40.485  25.346  26.115  1.00  0.00    -0.246 OA
BRANCH  37  39
ATOM     39  C   UNL A   1      39.622  26.302  28.139  1.00  0.00     0.060 A 
ATOM     40  C   UNL A   1      40.247  27.547  27.960  1.00  0.00     0.016 A 
ATOM     41  C   UNL A   1      38.871  26.051  29.289  1.00  0.00     0.016 A 
ATOM     42  C   UNL A   1      40.145  28.531  28.946  1.00  0.00     0.010 A 
ATOM     43  C   UNL A   1      38.790  27.027  30.284  1.00  0.00     0.010 A 
ATOM     44  C   UNL A   1      39.451  28.260  30.131  1.00  0.00    -0.014 A 
BRANCH  44  45
ATOM     45  C   UNL A   1      39.604  29.156  31.303  1.00  0.00     0.031 A 
ATOM     46  C   UNL A   1      40.777  28.919  32.218  1.00  0.00     0.074 A 
ATOM     47  C   UNL A   1      38.737  30.151  31.563  1.00  0.00     0.049 A 
ATOM     48  N   UNL A   1      41.105  29.532  33.325  1.00  0.00    -0.248 NA
ATOM     49  C   UNL A   1      41.701  27.841  31.828  1.00  0.00     0.031 C 
ATOM     50  C   UNL A   1      37.587  30.518  30.739  1.00  0.00     0.029 A 
ATOM     51  N   UNL A   1      38.692  31.034  32.615  1.00  0.00    -0.354 N 
ATOM     52  C   UNL A   1      42.265  28.908  33.769  1.00  0.00     0.074 A 
ATOM     53  C   UNL A   1      42.569  27.853  32.827  1.00  0.00     0.031 C 
ATOM     54  C   UNL A   1      36.944  31.547  31.321  1.00  0.00     0.029 A 
ATOM     55  C   UNL A   1      37.620  31.892  32.573  1.00  0.00     0.049 A 
ATOM     56  H   UNL A   1      39.367  31.051  33.332  1.00  0.00     0.167 HD
ATOM     57  C   UNL A   1      43.014  29.184  34.861  1.00  0.00     0.031 A 
ATOM     58  C   UNL A   1      37.221  32.835  33.453  1.00  0.00     0.031 A 
ATOM     59  C   UNL A   1      42.706  30.219  35.811  1.00  0.00     0.049 A 
ATOM     60  C   UNL A   1      38.025  33.068  34.709  1.00  0.00     0.074 A 
ATOM     61  C   UNL A   1      43.418  30.591  36.937  1.00  0.00     0.029 A 
ATOM     62  N   UNL A   1      41.587  31.034  35.755  1.00  0.00    -0.354 N 
ATOM     63  N   UNL A   1      39.139  32.494  35.098  1.00  0.00    -0.248 NA
ATOM     64  C   UNL A   1      37.514  34.081  35.645  1.00  0.00     0.031 C 
ATOM     65  C   UNL A   1      42.696  31.590  37.597  1.00  0.00     0.029 A 
ATOM     66  C   UNL A   1      41.569  31.884  36.847  1.00  0.00     0.049 A 
ATOM     67  H   UNL A   1      40.905  31.012  35.046  1.00  0.00     0.167 HD
ATOM     68  C   UNL A   1      39.480  33.101  36.305  1.00  0.00     0.074 A 
ATOM     69  C   UNL A   1      38.458  34.091  36.578  1.00  0.00     0.031 C 
ATOM     70  C   UNL A   1      40.545  32.865  37.111  1.00  0.00     0.031 A 
BRANCH  57  71
ATOM     71  C   UNL A   1      44.217  28.315  35.110  1.00  0.00    -0.014 A 
ATOM     72  C   UNL A   1      45.440  28.551  34.454  1.00  0.00     0.010 A 
ATOM     73  C   UNL A   1      44.124  27.252  36.026  1.00  0.00     0.010 A 
ATOM     74  C   UNL A   1      46.534  27.711  34.680  1.00  0.00     0.020 A 
ATOM     75  C   UNL A   1      45.225  26.429  36.276  1.00  0.00     0.020 A 
ATOM     76  C   UNL A   1      46.417  26.653  35.586  1.00  0.00     0.054 A 
BRANCH  76  77
ATOM     77  S   UNL A   1      47.856  25.585  35.867  1.00  0.00     0.124 S 
ATOM     78  O   UNL A   1      47.661  25.180  37.257  1.00  0.00    -0.237 OA
ATOM     79  O   UNL A   1      47.673  24.531  34.873  1.00  0.00    -0.237 OA
ATOM     80  O   UNL A   1      48.995  26.469  35.631  1.00  0.00    -0.744 OA
ENDBRANCH  76  77
ENDBRANCH  57  71
BRANCH  58  81
ATOM     81  C   UNL A   1      35.991  33.632  33.189  1.00  0.00    -0.014 A 
ATOM     82  C   UNL A   1      34.719  33.050  33.332  1.00  0.00     0.010 A 
ATOM     83  C   UNL A   1      36.085  34.973  32.775  1.00  0.00     0.010 A 
ATOM     84  C   UNL A   1      33.566  33.789  33.052  1.00  0.00     0.020 A 
ATOM     85  C   UNL A   1      34.934  35.723  32.519  1.00  0.00     0.020 A 
ATOM     86  C   UNL A   1      33.680  35.123  32.649  1.00  0.00     0.054 A 
BRANCH  86  87
ATOM     87  S   UNL A   1      32.169  36.076  32.334  1.00  0.00     0.124 S 
ATOM     88  O   UNL A   1      32.344  36.474  30.942  1.00  0.00    -0.237 OA
ATOM     89  O   UNL A   1      31.119  35.091  32.584  1.00  0.00    -0.237 OA
ATOM     90  O   UNL A   1      32.240  37.161  33.310  1.00  0.00    -0.744 OA
ENDBRANCH  86  87
ENDBRANCH  58  81
BRANCH  70  91
ATOM     91  C   UNL A   1      40.690  33.713  38.348  1.00  0.00    -0.014 A 
ATOM     92  C   UNL A   1      40.290  33.243  39.612  1.00  0.00     0.010 A 
ATOM     93  C   UNL A   1      41.292  34.982  38.252  1.00  0.00     0.010 A 
ATOM     94  C   UNL A   1      40.457  34.039  40.749  1.00  0.00     0.020 A 
ATOM     95  C   UNL A   1      41.488  35.769  39.390  1.00  0.00     0.020 A 
ATOM     96  C   UNL A   1      41.055  35.298  40.630  1.00  0.00     0.054 A 
BRANCH  96  97
ATOM     97  S   UNL A   1      41.295  36.298  42.126  1.00  0.00     0.124 S 
ATOM     98  O   UNL A   1      42.592  35.825  42.603  1.00  0.00    -0.237 OA
ATOM     99  O   UNL A   1      41.276  37.663  41.606  1.00  0.00    -0.237 OA
ATOM    100  O   UNL A   1      40.154  35.943  42.967  1.00  0.00    -0.744 OA
ENDBRANCH  96  97
ENDBRANCH  70  91
ENDBRANCH  44  45
ENDBRANCH  37  39
ENDBRANCH  36  37
ENDBRANCH  35  36
ENDBRANCH  34  35
ENDBRANCH  33  34
ENDBRANCH   1  33
TORSDOF 24
ENDMDL
MODEL 3
REMARK VINA RESULT:      -9.3      1.854      8.076
REMARK SMILES Nc1nccc(N2CCC[C@@](Cc3ccc(F)cc3F)(C(=O)OCCOCCOCCOC(=O)c3ccc(-c4c5nc(c(-c6ccc(S(=O)(=O)[O-])cc6)c6ccc([nH]6)c(-c6ccc(S(=O)(=O)[O-])cc6)c6nc(c(-c7ccc(S(=O)(=O)[O-])cc7)c7ccc4[nH]7)C=C6)C=C5)cc3)C2)n1
REMARK SMILES IDX 28 1 27 2 26 3 25 4 24 5 23 6 21 7 22 8 11 9 7 10 8 11 95 12
REMARK SMILES IDX 9 13 10 14 6 15 2 16 3 17 96 18 4 19 5 20 1 21 12 24 13 25
REMARK SMILES IDX 14 26 19 27 15 28 18 29 20 30 16 31 17 32 29 33 30 34 31 35
REMARK SMILES IDX 32 36 33 37 34 38 35 39 36 40 94 41 37 42 93 43 38 44 39 45
REMARK SMILES IDX 40 46 87 47 41 48 92 49 86 50 88 51 42 52 91 53 85 54 84 55
REMARK SMILES IDX 43 57 73 58 54 59 72 60 55 61 58 62 71 63 89 64 56 65 57 66
REMARK SMILES IDX 70 68 90 69 59 70 44 71 45 72 53 73 46 74 52 75 47 76 48 77
REMARK SMILES IDX 49 78 50 79 51 80 74 81 75 82 83 83 76 84 82 85 77 86 78 87
REMARK SMILES IDX 79 88 80 89 81 90 60 91 61 92 69 93 62 94 68 95 63 96 64 97
REMARK SMILES IDX 65 98 66 99 67 100
REMARK H PARENT 1 22 1 23 88 56 58 67
REMARK Flexibility Score: inf
ROOT
ATOM      1  C   UNL A   1      32.505  33.380  27.358  1.00  0.00     0.188 C 
ENDROOT
BRANCH   1   2
ATOM      2  C   UNL A   1      32.348  31.867  27.209  1.00  0.00     0.188 C 
BRANCH   2   3
ATOM      3  O   UNL A   1      33.503  31.090  26.937  1.00  0.00    -0.376 OA
BRANCH   3   4
ATOM      4  C   UNL A   1      33.556  29.743  27.393  1.00  0.00     0.202 C 
BRANCH   4   5
ATOM      5  C   UNL A   1      33.762  28.618  26.367  1.00  0.00     0.261 C 
BRANCH   5   6
ATOM      6  O   UNL A   1      32.877  28.620  25.218  1.00  0.00    -0.463 OA
BRANCH   6   7
ATOM      7  C   UNL A   1      32.890  27.482  24.477  1.00  0.00     0.314 C 
ATOM      8  O   UNL A   1      33.723  27.275  23.597  1.00  0.00    -0.252 OA
BRANCH   7   9
ATOM      9  C   UNL A   1      31.732  26.500  24.727  1.00  0.00     0.090 C 
ATOM     10  N   UNL A   1      31.514  24.131  25.314  1.00  0.00    -0.355 N 
ATOM     11  C   UNL A   1      30.638  24.292  26.459  1.00  0.00     0.118 C 
ATOM     12  C   UNL A   1      32.484  25.189  25.080  1.00  0.00     0.137 C 
ATOM     13  C   UNL A   1      29.824  25.570  26.231  1.00  0.00     0.023 C 
ATOM     14  C   UNL A   1      30.714  26.782  25.875  1.00  0.00     0.023 C 
BRANCH  10  15
ATOM     15  C   UNL A   1      31.947  22.856  24.977  1.00  0.00     0.134 A 
ATOM     16  C   UNL A   1      32.871  20.843  25.556  1.00  0.00     0.221 A 
ATOM     17  N   UNL A   1      33.152  20.521  24.289  1.00  0.00    -0.222 NA
ATOM     18  N   UNL A   1      32.289  21.986  25.941  1.00  0.00    -0.196 NA
ATOM     19  C   UNL A   1      32.794  21.411  23.353  1.00  0.00     0.119 A 
ATOM     20  C   UNL A   1      32.166  22.592  23.641  1.00  0.00     0.067 A 
BRANCH  16  21
ATOM     21  N   UNL A   1      33.229  19.944  26.515  1.00  0.00    -0.368 N 
ATOM     22  H   UNL A   1      33.527  19.042  26.259  1.00  0.00     0.159 HD
ATOM     23  H   UNL A   1      33.190  20.198  27.466  1.00  0.00     0.159 HD
ENDBRANCH  16  21
ENDBRANCH  10  15
BRANCH   9  24
ATOM     24  C   UNL A   1      30.995  26.354  23.353  1.00  0.00     0.059 C 
BRANCH  24  25
ATOM     25  C   UNL A   1      30.054  27.506  23.051  1.00  0.00    -0.011 A 
ATOM     26  C   UNL A   1      30.555  28.752  22.639  1.00  0.00     0.010 A 
ATOM     27  C   UNL A   1      28.677  27.386  23.279  1.00  0.00     0.129 A 
ATOM     28  C   UNL A   1      29.712  29.861  22.568  1.00  0.00     0.040 A 
ATOM     29  C   UNL A   1      27.828  28.482  23.191  1.00  0.00     0.078 A 
ATOM     30  F   UNL A   1      28.155  26.205  23.635  1.00  0.00    -0.207 F 
ATOM     31  C   UNL A   1      28.361  29.718  22.858  1.00  0.00     0.126 A 
ATOM     32  F   UNL A   1      27.562  30.792  22.819  1.00  0.00    -0.207 F 
ENDBRANCH  24  25
ENDBRANCH   9  24
ENDBRANCH   7   9
ENDBRANCH   6   7
ENDBRANCH   5   6
ENDBRANCH   4   5
ENDBRANCH   3   4
ENDBRANCH   2   3
ENDBRANCH   1   2
BRANCH   1  33
ATOM     33  O   UNL A   1      32.515  33.864  28.684  1.00  0.00    -0.376 OA
BRANCH  33  34
ATOM     34  C   UNL A   1      33.459  34.871  29.019  1.00  0.00     0.202 C 
BRANCH  34  35
ATOM     35  C   UNL A   1      34.894  34.381  29.266  1.00  0.00     0.261 C 
BRANCH  35  36
ATOM     36  O   UNL A   1      35.256  34.234  30.651  1.00  0.00    -0.460 OA
BRANCH  36  37
ATOM     37  C   UNL A   1      35.201  32.984  31.175  1.00  0.00     0.338 C 
ATOM     38  O   UNL A   1      34.220  32.429  31.640  1.00  0.00    -0.246 OA
BRANCH  37  39
ATOM     39  C   UNL A   1      36.467  32.301  30.809  1.00  0.00     0.060 A 
ATOM     40  C   UNL A   1      37.313  31.855  31.837  1.00  0.00     0.016 A 
ATOM     41  C   UNL A   1      36.770  32.018  29.475  1.00  0.00     0.016 A 
ATOM     42  C   UNL A   1      38.479  31.151  31.529  1.00  0.00     0.010 A 
ATOM     43  C   UNL A   1      37.948  31.334  29.168  1.00  0.00     0.010 A 
ATOM     44  C   UNL A   1      38.824  30.924  30.191  1.00  0.00    -0.014 A 
BRANCH  44  45
ATOM     45  C   UNL A   1      40.193  30.473  29.842  1.00  0.00     0.031 A 
ATOM     46  C   UNL A   1      41.310  31.478  29.951  1.00  0.00     0.074 A 
ATOM     47  C   UNL A   1      40.453  29.217  29.437  1.00  0.00     0.049 A 
ATOM     48  N   UNL A   1      42.578  31.346  29.662  1.00  0.00    -0.248 NA
ATOM     49  C   UNL A   1      40.940  32.814  30.449  1.00  0.00     0.031 C 
ATOM     50  C   UNL A   1      39.477  28.135  29.331  1.00  0.00     0.029 A 
ATOM     51  N   UNL A   1      41.634  28.646  29.030  1.00  0.00    -0.354 N 
ATOM     52  C   UNL A   1      43.155  32.581  29.934  1.00  0.00     0.074 A 
ATOM     53  C   UNL A   1      42.095  33.457  30.384  1.00  0.00     0.031 C 
ATOM     54  C   UNL A   1      40.098  27.030  28.878  1.00  0.00     0.029 A 
ATOM     55  C   UNL A   1      41.509  27.335  28.636  1.00  0.00     0.049 A 
ATOM     56  H   UNL A   1      42.491  29.130  29.020  1.00  0.00     0.167 HD
ATOM     57  C   UNL A   1      44.449  32.958  29.822  1.00  0.00     0.031 A 
ATOM     58  C   UNL A   1      42.424  26.486  28.124  1.00  0.00     0.031 A 
ATOM     59  C   UNL A   1      45.503  32.098  29.356  1.00  0.00     0.049 A 
ATOM     60  C   UNL A   1      43.845  26.955  27.925  1.00  0.00     0.074 A 
ATOM     61  C   UNL A   1      46.851  32.381  29.231  1.00  0.00     0.029 A 
ATOM     62  N   UNL A   1      45.325  30.792  28.926  1.00  0.00    -0.354 N 
ATOM     63  N   UNL A   1      44.384  28.115  28.219  1.00  0.00    -0.248 NA
ATOM     64  C   UNL A   1      44.783  25.994  27.325  1.00  0.00     0.031 C 
ATOM     65  C   UNL A   1      47.479  31.267  28.663  1.00  0.00     0.029 A 
ATOM     66  C   UNL A   1      46.533  30.269  28.498  1.00  0.00     0.049 A 
ATOM     67  H   UNL A   1      44.467  30.310  28.923  1.00  0.00     0.167 HD
ATOM     68  C   UNL A   1      45.729  28.010  27.873  1.00  0.00     0.074 A 
ATOM     69  C   UNL A   1      45.924  26.671  27.355  1.00  0.00     0.031 C 
ATOM     70  C   UNL A   1      46.715  28.935  27.981  1.00  0.00     0.031 A 
BRANCH  57  71
ATOM     71  C   UNL A   1      44.785  34.384  30.164  1.00  0.00    -0.014 A 
ATOM     72  C   UNL A   1      45.160  34.756  31.468  1.00  0.00     0.010 A 
ATOM     73  C   UNL A   1      44.734  35.366  29.158  1.00  0.00     0.010 A 
ATOM     74  C   UNL A   1      45.438  36.093  31.768  1.00  0.00     0.020 A 
ATOM     75  C   UNL A   1      45.040  36.699  29.448  1.00  0.00     0.020 A 
ATOM     76  C   UNL A   1      45.370  37.055  30.756  1.00  0.00     0.054 A 
BRANCH  76  77
ATOM     77  S   UNL A   1      45.746  38.781  31.171  1.00  0.00     0.124 S 
ATOM     78  O   UNL A   1      44.447  39.267  31.632  1.00  0.00    -0.237 OA
ATOM     79  O   UNL A   1      46.769  38.647  32.204  1.00  0.00    -0.237 OA
ATOM     80  O   UNL A   1      46.210  39.348  29.908  1.00  0.00    -0.744 OA
ENDBRANCH  76  77
ENDBRANCH  57  71
BRANCH  58  81
ATOM     81  C   UNL A   1      42.031  25.100  27.748  1.00  0.00    -0.014 A 
ATOM     82  C   UNL A   1      40.816  24.858  27.082  1.00  0.00     0.010 A 
ATOM     83  C   UNL A   1      42.861  24.011  28.069  1.00  0.00     0.010 A 
ATOM     84  C   UNL A   1      40.432  23.553  26.760  1.00  0.00     0.020 A 
ATOM     85  C   UNL A   1      42.493  22.707  27.725  1.00  0.00     0.020 A 
ATOM     86  C   UNL A   1      41.274  22.485  27.081  1.00  0.00     0.054 A 
BRANCH  86  87
ATOM     87  S   UNL A   1      40.776  20.804  26.612  1.00  0.00     0.124 S 
ATOM     88  O   UNL A   1      39.515  21.043  25.919  1.00  0.00    -0.237 OA
ATOM     89  O   UNL A   1      41.889  20.370  25.772  1.00  0.00    -0.237 OA
ATOM     90  O   UNL A   1      40.665  20.111  27.894  1.00  0.00    -0.744 OA
ENDBRANCH  86  87
ENDBRANCH  58  81
BRANCH  70  91
ATOM     91  C   UNL A   1      48.107  28.529  27.567  1.00  0.00    -0.014 A 
ATOM     92  C   UNL A   1      48.432  28.292  26.219  1.00  0.00     0.010 A 
ATOM     93  C   UNL A   1      49.120  28.440  28.540  1.00  0.00     0.010 A 
ATOM     94  C   UNL A   1      49.736  27.940  25.858  1.00  0.00     0.020 A 
ATOM     95  C   UNL A   1      50.431  28.117  28.179  1.00  0.00     0.020 A 
ATOM     96  C   UNL A   1      50.727  27.854  26.841  1.00  0.00     0.054 A 
BRANCH  96  97
ATOM     97  S   UNL A   1      52.420  27.432  26.342  1.00  0.00     0.124 S 
ATOM     98  O   UNL A   1      52.800  26.450  27.354  1.00  0.00    -0.237 OA
ATOM     99  O   UNL A   1      52.236  26.904  24.992  1.00  0.00    -0.237 OA
ATOM    100  O   UNL A   1      53.131  28.707  26.413  1.00  0.00    -0.744 OA
ENDBRANCH  96  97
ENDBRANCH  70  91
ENDBRANCH  44  45
ENDBRANCH  37  39
ENDBRANCH  36  37
ENDBRANCH  35  36
ENDBRANCH  34  35
ENDBRANCH  33  34
ENDBRANCH   1  33
TORSDOF 24
ENDMDL
