MODEL 1
REMARK VINA RESULT:      -9.5      0.000      0.000
REMARK SMILES COc1ccc(-c2ccc(CCC(=O)OCCOCCOCCOC(=O)c3ccc(-c4c5nc(c(-c6ccc(S(=O)(=O)[O-])cc6)c6ccc([nH]6)c(-c6ccc(S(=O)(=O)[O-])cc6)c6nc(c(-c7ccc(S(=O)(=O)[O-])cc7)c7ccc4[nH]7)C=C6)C=C5)cc3)n2-c2ccc(C(C)=O)cc2)cc1
REMARK SMILES IDX 19 1 18 2 17 3 16 4 15 5 13 6 14 7 12 8 11 9 10 10 7 11 8 12
REMARK SMILES IDX 87 13 9 14 6 15 3 16 4 17 98 18 5 19 97 20 2 21 1 22 88 23
REMARK SMILES IDX 89 24 96 25 90 26 95 27 91 28 92 29 93 30 94 31 20 32 21 33
REMARK SMILES IDX 22 34 23 35 24 36 25 37 26 38 27 39 28 40 86 41 29 42 85 43
REMARK SMILES IDX 30 44 31 45 32 46 79 47 33 48 84 49 78 50 80 51 34 52 83 53
REMARK SMILES IDX 77 54 76 55 35 57 65 58 46 59 64 60 47 61 50 62 63 63 81 64
REMARK SMILES IDX 48 65 49 66 62 68 82 69 51 70 36 71 37 72 45 73 38 74 44 75
REMARK SMILES IDX 39 76 40 77 41 78 42 79 43 80 66 81 67 82 75 83 68 84 74 85
REMARK SMILES IDX 69 86 70 87 71 88 72 89 73 90 52 91 53 92 61 93 54 94 60 95
REMARK SMILES IDX 55 96 56 97 57 98 58 99 59 100
REMARK H PARENT 80 56 50 67
REMARK Flexibility Score: inf
ROOT
ATOM      1  C   UNL A   1      47.224  41.641  29.646  1.00  0.00     0.188 C 
ENDROOT
BRANCH   1   2
ATOM      2  O   UNL A   1      45.953  41.066  29.974  1.00  0.00    -0.376 OA
BRANCH   2   3
ATOM      3  C   UNL A   1      44.844  41.963  30.057  1.00  0.00     0.202 C 
BRANCH   3   4
ATOM      4  C   UNL A   1      43.614  41.558  29.235  1.00  0.00     0.261 C 
BRANCH   4   5
ATOM      5  O   UNL A   1      43.897  40.528  28.269  1.00  0.00    -0.463 OA
BRANCH   5   6
ATOM      6  C   UNL A   1      43.186  40.527  27.119  1.00  0.00     0.306 C 
ATOM      7  O   UNL A   1      41.998  40.229  27.038  1.00  0.00    -0.252 OA
BRANCH   6   8
ATOM      8  C   UNL A   1      43.992  40.903  25.887  1.00  0.00     0.129 C 
BRANCH   8   9
ATOM      9  C   UNL A   1      43.897  42.329  25.336  1.00  0.00     0.066 C 
BRANCH   9  10
ATOM     10  C   UNL A   1      43.125  42.426  24.047  1.00  0.00     0.024 A 
ATOM     11  C   UNL A   1      42.518  43.005  21.947  1.00  0.00     0.053 A 
ATOM     12  C   UNL A   1      41.463  42.327  22.522  1.00  0.00     0.029 A 
ATOM     13  N   UNL A   1      43.572  43.011  22.863  1.00  0.00    -0.314 N 
ATOM     14  C   UNL A   1      41.829  42.005  23.829  1.00  0.00     0.024 A 
BRANCH  11  15
ATOM     15  C   UNL A   1      42.520  43.545  20.591  1.00  0.00    -0.001 A 
ATOM     16  C   UNL A   1      42.384  44.389  17.921  1.00  0.00     0.118 A 
ATOM     17  C   UNL A   1      43.610  44.039  18.492  1.00  0.00     0.047 A 
ATOM     18  C   UNL A   1      41.220  44.296  18.682  1.00  0.00     0.047 A 
ATOM     19  C   UNL A   1      43.683  43.621  19.824  1.00  0.00     0.014 A 
ATOM     20  C   UNL A   1      41.290  43.878  20.009  1.00  0.00     0.014 A 
BRANCH  16  21
ATOM     21  O   UNL A   1      42.434  44.772  16.609  1.00  0.00    -0.497 OA
ATOM     22  C   UNL A   1      42.287  46.167  16.373  1.00  0.00     0.278 C 
ENDBRANCH  16  21
ENDBRANCH  11  15
BRANCH  13  23
ATOM     23  C   UNL A   1      44.849  43.586  22.648  1.00  0.00     0.046 A 
ATOM     24  C   UNL A   1      45.054  44.945  22.903  1.00  0.00     0.027 A 
ATOM     25  C   UNL A   1      45.900  42.783  22.201  1.00  0.00     0.027 A 
ATOM     26  C   UNL A   1      46.323  45.509  22.702  1.00  0.00     0.014 A 
ATOM     27  C   UNL A   1      47.154  43.358  21.978  1.00  0.00     0.014 A 
ATOM     28  C   UNL A   1      47.381  44.722  22.229  1.00  0.00     0.017 A 
BRANCH  28  29
ATOM     29  C   UNL A   1      48.755  45.251  21.957  1.00  0.00     0.159 C 
ATOM     30  C   UNL A   1      49.641  44.633  20.906  1.00  0.00     0.093 C 
ATOM     31  O   UNL A   1      49.160  46.224  22.599  1.00  0.00    -0.295 OA
ENDBRANCH  28  29
ENDBRANCH  13  23
ENDBRANCH   9  10
ENDBRANCH   8   9
ENDBRANCH   6   8
ENDBRANCH   5   6
ENDBRANCH   4   5
ENDBRANCH   3   4
ENDBRANCH   2   3
ENDBRANCH   1   2
BRANCH   1  32
ATOM     32  C   UNL A   1      48.411  40.673  29.747  1.00  0.00     0.188 C 
BRANCH  32  33
ATOM     33  O   UNL A   1      47.933  39.354  29.985  1.00  0.00    -0.376 OA
BRANCH  33  34
ATOM     34  C   UNL A   1      48.277  38.654  31.176  1.00  0.00     0.202 C 
BRANCH  34  35
ATOM     35  C   UNL A   1      47.368  37.521  31.631  1.00  0.00     0.261 C 
BRANCH  35  36
ATOM     36  O   UNL A   1      46.795  36.775  30.566  1.00  0.00    -0.460 OA
BRANCH  36  37
ATOM     37  C   UNL A   1      46.876  35.441  30.608  1.00  0.00     0.338 C 
ATOM     38  O   UNL A   1      47.887  34.734  30.680  1.00  0.00    -0.246 OA
BRANCH  37  39
ATOM     39  C   UNL A   1      45.525  34.904  30.583  1.00  0.00     0.060 A 
ATOM     40  C   UNL A   1      45.138  34.062  31.630  1.00  0.00     0.016 A 
ATOM     41  C   UNL A   1      44.738  35.094  29.438  1.00  0.00     0.016 A 
ATOM     42  C   UNL A   1      44.034  33.263  31.450  1.00  0.00     0.010 A 
ATOM     43  C   UNL A   1      43.672  34.259  29.234  1.00  0.00     0.010 A 
ATOM     44  C   UNL A   1      43.374  33.313  30.218  1.00  0.00    -0.014 A 
BRANCH  44  45
ATOM     45  C   UNL A   1      42.356  32.311  29.924  1.00  0.00     0.031 A 
ATOM     46  C   UNL A   1      42.932  31.135  29.157  1.00  0.00     0.074 A 
ATOM     47  C   UNL A   1      41.107  32.631  30.379  1.00  0.00     0.049 A 
ATOM     48  N   UNL A   1      42.323  30.298  28.383  1.00  0.00    -0.248 NA
ATOM     49  C   UNL A   1      44.402  30.886  29.176  1.00  0.00     0.031 C 
ATOM     50  C   UNL A   1      40.769  33.874  31.120  1.00  0.00     0.029 A 
ATOM     51  N   UNL A   1      39.882  32.011  30.325  1.00  0.00    -0.354 N 
ATOM     52  C   UNL A   1      43.267  29.332  27.990  1.00  0.00     0.074 A 
ATOM     53  C   UNL A   1      44.548  29.803  28.414  1.00  0.00     0.031 C 
ATOM     54  C   UNL A   1      39.445  33.948  31.364  1.00  0.00     0.029 A 
ATOM     55  C   UNL A   1      38.800  32.758  30.851  1.00  0.00     0.049 A 
ATOM     56  H   UNL A   1      39.764  31.110  29.946  1.00  0.00     0.167 HD
ATOM     57  C   UNL A   1      42.910  28.129  27.463  1.00  0.00     0.031 A 
ATOM     58  C   UNL A   1      37.468  32.456  30.842  1.00  0.00     0.031 A 
ATOM     59  C   UNL A   1      41.495  28.058  27.302  1.00  0.00     0.049 A 
ATOM     60  C   UNL A   1      37.369  31.088  30.304  1.00  0.00     0.074 A 
ATOM     61  C   UNL A   1      40.625  28.691  26.453  1.00  0.00     0.029 A 
ATOM     62  N   UNL A   1      40.790  27.532  28.360  1.00  0.00    -0.354 N 
ATOM     63  N   UNL A   1      37.739  30.010  30.926  1.00  0.00    -0.248 NA
ATOM     64  C   UNL A   1      36.896  30.906  28.927  1.00  0.00     0.031 C 
ATOM     65  C   UNL A   1      39.488  28.929  27.259  1.00  0.00     0.029 A 
ATOM     66  C   UNL A   1      39.650  28.288  28.492  1.00  0.00     0.049 A 
ATOM     67  H   UNL A   1      41.051  26.762  28.915  1.00  0.00     0.167 HD
ATOM     68  C   UNL A   1      37.909  29.117  29.897  1.00  0.00     0.074 A 
ATOM     69  C   UNL A   1      37.099  29.598  28.798  1.00  0.00     0.031 C 
ATOM     70  C   UNL A   1      39.063  28.406  29.808  1.00  0.00     0.031 A 
BRANCH  57  71
ATOM     71  C   UNL A   1      43.700  26.864  27.317  1.00  0.00    -0.014 A 
ATOM     72  C   UNL A   1      44.824  26.916  26.460  1.00  0.00     0.010 A 
ATOM     73  C   UNL A   1      43.209  25.602  27.682  1.00  0.00     0.010 A 
ATOM     74  C   UNL A   1      45.337  25.766  25.863  1.00  0.00     0.020 A 
ATOM     75  C   UNL A   1      43.749  24.437  27.119  1.00  0.00     0.020 A 
ATOM     76  C   UNL A   1      44.767  24.535  26.167  1.00  0.00     0.054 A 
BRANCH  76  77
ATOM     77  S   UNL A   1      45.309  23.084  25.228  1.00  0.00     0.124 S 
ATOM     78  O   UNL A   1      46.297  22.493  26.126  1.00  0.00    -0.237 OA
ATOM     79  O   UNL A   1      44.071  22.324  25.074  1.00  0.00    -0.237 OA
ATOM     80  O   UNL A   1      45.838  23.655  23.993  1.00  0.00    -0.744 OA
ENDBRANCH  76  77
ENDBRANCH  57  71
BRANCH  58  81
ATOM     81  C   UNL A   1      36.166  33.172  31.099  1.00  0.00    -0.014 A 
ATOM     82  C   UNL A   1      35.654  33.539  32.350  1.00  0.00     0.010 A 
ATOM     83  C   UNL A   1      35.452  33.664  29.970  1.00  0.00     0.010 A 
ATOM     84  C   UNL A   1      34.589  34.464  32.459  1.00  0.00     0.020 A 
ATOM     85  C   UNL A   1      34.439  34.617  30.063  1.00  0.00     0.020 A 
ATOM     86  C   UNL A   1      34.027  35.037  31.315  1.00  0.00     0.054 A 
BRANCH  86  87
ATOM     87  S   UNL A   1      32.875  36.435  31.432  1.00  0.00     0.124 S 
ATOM     88  O   UNL A   1      32.638  36.763  30.031  1.00  0.00    -0.237 OA
ATOM     89  O   UNL A   1      31.738  35.864  32.150  1.00  0.00    -0.237 OA
ATOM     90  O   UNL A   1      33.634  37.430  32.189  1.00  0.00    -0.744 OA
ENDBRANCH  86  87
ENDBRANCH  58  81
BRANCH  70  91
ATOM     91  C   UNL A   1      39.812  28.209  31.120  1.00  0.00    -0.014 A 
ATOM     92  C   UNL A   1      39.197  27.526  32.186  1.00  0.00     0.010 A 
ATOM     93  C   UNL A   1      41.087  28.760  31.361  1.00  0.00     0.010 A 
ATOM     94  C   UNL A   1      39.822  27.405  33.438  1.00  0.00     0.020 A 
ATOM     95  C   UNL A   1      41.724  28.644  32.610  1.00  0.00     0.020 A 
ATOM     96  C   UNL A   1      41.083  27.966  33.644  1.00  0.00     0.054 A 
BRANCH  96  97
ATOM     97  S   UNL A   1      41.854  27.814  35.285  1.00  0.00     0.124 S 
ATOM     98  O   UNL A   1      43.207  28.315  35.055  1.00  0.00    -0.237 OA
ATOM     99  O   UNL A   1      41.006  28.666  36.112  1.00  0.00    -0.237 OA
ATOM    100  O   UNL A   1      41.773  26.383  35.581  1.00  0.00    -0.744 OA
ENDBRANCH  96  97
ENDBRANCH  70  91
ENDBRANCH  44  45
ENDBRANCH  37  39
ENDBRANCH  36  37
ENDBRANCH  35  36
ENDBRANCH  34  35
ENDBRANCH  33  34
ENDBRANCH  32  33
ENDBRANCH   1  32
TORSDOF 26
ENDMDL
MODEL 2
REMARK VINA RESULT:      -8.8      8.438     16.113
REMARK SMILES COc1ccc(-c2ccc(CCC(=O)OCCOCCOCCOC(=O)c3ccc(-c4c5nc(c(-c6ccc(S(=O)(=O)[O-])cc6)c6ccc([nH]6)c(-c6ccc(S(=O)(=O)[O-])cc6)c6nc(c(-c7ccc(S(=O)(=O)[O-])cc7)c7ccc4[nH]7)C=C6)C=C5)cc3)n2-c2ccc(C(C)=O)cc2)cc1
REMARK SMILES IDX 19 1 18 2 17 3 16 4 15 5 13 6 14 7 12 8 11 9 10 10 7 11 8 12
REMARK SMILES IDX 87 13 9 14 6 15 3 16 4 17 98 18 5 19 97 20 2 21 1 22 88 23
REMARK SMILES IDX 89 24 96 25 90 26 95 27 91 28 92 29 93 30 94 31 20 32 21 33
REMARK SMILES IDX 22 34 23 35 24 36 25 37 26 38 27 39 28 40 86 41 29 42 85 43
REMARK SMILES IDX 30 44 31 45 32 46 79 47 33 48 84 49 78 50 80 51 34 52 83 53
REMARK SMILES IDX 77 54 76 55 35 57 65 58 46 59 64 60 47 61 50 62 63 63 81 64
REMARK SMILES IDX 48 65 49 66 62 68 82 69 51 70 36 71 37 72 45 73 38 74 44 75
REMARK SMILES IDX 39 76 40 77 41 78 42 79 43 80 66 81 67 82 75 83 68 84 74 85
REMARK SMILES IDX 69 86 70 87 71 88 72 89 73 90 52 91 53 92 61 93 54 94 60 95
REMARK SMILES IDX 55 96 56 97 57 98 58 99 59 100
REMARK H PARENT 80 56 50 67
REMARK Flexibility Score: inf
ROOT
ATOM      1  C   UNL A   1      34.142  29.295  26.914  1.00  0.00     0.188 C 
ENDROOT
BRANCH   1   2
ATOM      2  O   UNL A   1      33.397  29.415  25.696  1.00  0.00    -0.376 OA
BRANCH   2   3
ATOM      3  C   UNL A   1      31.973  29.429  25.812  1.00  0.00     0.202 C 
BRANCH   3   4
ATOM      4  C   UNL A   1      31.244  28.328  25.032  1.00  0.00     0.261 C 
BRANCH   4   5
ATOM      5  O   UNL A   1      32.136  27.495  24.267  1.00  0.00    -0.463 OA
BRANCH   5   6
ATOM      6  C   UNL A   1      32.245  27.736  22.942  1.00  0.00     0.306 C 
ATOM      7  O   UNL A   1      31.717  28.681  22.362  1.00  0.00    -0.252 OA
BRANCH   6   8
ATOM      8  C   UNL A   1      33.067  26.706  22.185  1.00  0.00     0.129 C 
BRANCH   8   9
ATOM      9  C   UNL A   1      33.860  25.657  22.970  1.00  0.00     0.066 C 
BRANCH   9  10
ATOM     10  C   UNL A   1      33.109  24.370  23.184  1.00  0.00     0.024 A 
ATOM     11  C   UNL A   1      32.638  22.220  23.703  1.00  0.00     0.053 A 
ATOM     12  C   UNL A   1      31.525  22.763  23.095  1.00  0.00     0.029 A 
ATOM     13  N   UNL A   1      33.596  23.229  23.820  1.00  0.00    -0.314 N 
ATOM     14  C   UNL A   1      31.833  24.077  22.744  1.00  0.00     0.024 A 
BRANCH  11  15
ATOM     15  C   UNL A   1      32.733  20.847  24.190  1.00  0.00    -0.001 A 
ATOM     16  C   UNL A   1      32.680  18.184  25.064  1.00  0.00     0.118 A 
ATOM     17  C   UNL A   1      32.927  19.221  25.967  1.00  0.00     0.047 A 
ATOM     18  C   UNL A   1      32.438  18.481  23.724  1.00  0.00     0.047 A 
ATOM     19  C   UNL A   1      32.959  20.550  25.535  1.00  0.00     0.014 A 
ATOM     20  C   UNL A   1      32.467  19.806  23.291  1.00  0.00     0.014 A 
BRANCH  16  21
ATOM     21  O   UNL A   1      32.663  16.927  25.602  1.00  0.00    -0.497 OA
ATOM     22  C   UNL A   1      33.785  16.111  25.288  1.00  0.00     0.278 C 
ENDBRANCH  16  21
ENDBRANCH  11  15
BRANCH  13  23
ATOM     23  C   UNL A   1      34.875  23.088  24.414  1.00  0.00     0.046 A 
ATOM     24  C   UNL A   1      35.103  23.583  25.702  1.00  0.00     0.027 A 
ATOM     25  C   UNL A   1      35.892  22.438  23.715  1.00  0.00     0.027 A 
ATOM     26  C   UNL A   1      36.366  23.432  26.293  1.00  0.00     0.014 A 
ATOM     27  C   UNL A   1      37.155  22.314  24.301  1.00  0.00     0.014 A 
ATOM     28  C   UNL A   1      37.405  22.804  25.594  1.00  0.00     0.017 A 
BRANCH  28  29
ATOM     29  C   UNL A   1      38.789  22.630  26.140  1.00  0.00     0.159 C 
ATOM     30  C   UNL A   1      39.463  23.720  26.933  1.00  0.00     0.093 C 
ATOM     31  O   UNL A   1      39.380  21.565  25.947  1.00  0.00    -0.295 OA
ENDBRANCH  28  29
ENDBRANCH  13  23
ENDBRANCH   9  10
ENDBRANCH   8   9
ENDBRANCH   6   8
ENDBRANCH   5   6
ENDBRANCH   4   5
ENDBRANCH   3   4
ENDBRANCH   2   3
ENDBRANCH   1   2
BRANCH   1  32
ATOM     32  C   UNL A   1      34.383  30.618  27.653  1.00  0.00     0.188 C 
BRANCH  32  33
ATOM     33  O   UNL A   1      35.781  30.878  27.725  1.00  0.00    -0.376 OA
BRANCH  33  34
ATOM     34  C   UNL A   1      36.704  29.837  28.028  1.00  0.00     0.202 C 
BRANCH  34  35
ATOM     35  C   UNL A   1      38.177  30.198  28.156  1.00  0.00     0.261 C 
BRANCH  35  36
ATOM     36  O   UNL A   1      38.466  31.073  29.238  1.00  0.00    -0.460 OA
BRANCH  36  37
ATOM     37  C   UNL A   1      39.003  30.557  30.348  1.00  0.00     0.338 C 
ATOM     38  O   UNL A   1      38.425  30.124  31.351  1.00  0.00    -0.246 OA
BRANCH  37  39
ATOM     39  C   UNL A   1      40.448  30.549  30.192  1.00  0.00     0.060 A 
ATOM     40  C   UNL A   1      40.997  29.692  29.233  1.00  0.00     0.016 A 
ATOM     41  C   UNL A   1      41.236  31.247  31.119  1.00  0.00     0.016 A 
ATOM     42  C   UNL A   1      42.336  29.393  29.316  1.00  0.00     0.010 A 
ATOM     43  C   UNL A   1      42.557  30.907  31.238  1.00  0.00     0.010 A 
ATOM     44  C   UNL A   1      43.072  29.939  30.373  1.00  0.00    -0.014 A 
BRANCH  44  45
ATOM     45  C   UNL A   1      44.424  29.449  30.615  1.00  0.00     0.031 A 
ATOM     46  C   UNL A   1      44.444  28.354  31.666  1.00  0.00     0.074 A 
ATOM     47  C   UNL A   1      45.387  30.070  29.869  1.00  0.00     0.049 A 
ATOM     48  N   UNL A   1      45.421  27.981  32.426  1.00  0.00    -0.248 NA
ATOM     49  C   UNL A   1      43.192  27.612  31.987  1.00  0.00     0.031 C 
ATOM     50  C   UNL A   1      45.126  31.149  28.880  1.00  0.00     0.029 A 
ATOM     51  N   UNL A   1      46.752  29.945  29.774  1.00  0.00    -0.354 N 
ATOM     52  C   UNL A   1      44.976  26.864  33.157  1.00  0.00     0.074 A 
ATOM     53  C   UNL A   1      43.569  26.749  32.931  1.00  0.00     0.031 C 
ATOM     54  C   UNL A   1      46.279  31.621  28.363  1.00  0.00     0.029 A 
ATOM     55  C   UNL A   1      47.389  30.880  28.923  1.00  0.00     0.049 A 
ATOM     56  H   UNL A   1      47.252  29.253  30.264  1.00  0.00     0.167 HD
ATOM     57  C   UNL A   1      45.830  26.015  33.790  1.00  0.00     0.031 A 
ATOM     58  C   UNL A   1      48.724  31.071  28.710  1.00  0.00     0.031 A 
ATOM     59  C   UNL A   1      47.173  26.479  33.670  1.00  0.00     0.049 A 
ATOM     60  C   UNL A   1      49.407  29.985  29.434  1.00  0.00     0.074 A 
ATOM     61  C   UNL A   1      47.836  27.551  34.208  1.00  0.00     0.029 A 
ATOM     62  N   UNL A   1      47.884  26.005  32.592  1.00  0.00    -0.354 N 
ATOM     63  N   UNL A   1      49.401  28.734  29.087  1.00  0.00    -0.248 NA
ATOM     64  C   UNL A   1      50.085  30.298  30.697  1.00  0.00     0.031 C 
ATOM     65  C   UNL A   1      48.682  27.980  33.160  1.00  0.00     0.029 A 
ATOM     66  C   UNL A   1      48.622  27.059  32.108  1.00  0.00     0.049 A 
ATOM     67  H   UNL A   1      47.868  25.087  32.236  1.00  0.00     0.167 HD
ATOM     68  C   UNL A   1      49.718  28.097  30.261  1.00  0.00     0.074 A 
ATOM     69  C   UNL A   1      50.416  29.067  31.078  1.00  0.00     0.031 C 
ATOM     70  C   UNL A   1      48.945  27.070  30.699  1.00  0.00     0.031 A 
BRANCH  57  71
ATOM     71  C   UNL A   1      45.609  24.623  34.300  1.00  0.00    -0.014 A 
ATOM     72  C   UNL A   1      46.333  24.250  35.457  1.00  0.00     0.010 A 
ATOM     73  C   UNL A   1      45.028  23.603  33.532  1.00  0.00     0.010 A 
ATOM     74  C   UNL A   1      46.604  22.915  35.747  1.00  0.00     0.020 A 
ATOM     75  C   UNL A   1      45.260  22.256  33.843  1.00  0.00     0.020 A 
ATOM     76  C   UNL A   1      46.097  21.926  34.911  1.00  0.00     0.054 A 
BRANCH  76  77
ATOM     77  S   UNL A   1      46.630  20.216  35.185  1.00  0.00     0.124 S 
ATOM     78  O   UNL A   1      47.194  20.287  36.529  1.00  0.00    -0.237 OA
ATOM     79  O   UNL A   1      45.379  19.471  35.069  1.00  0.00    -0.237 OA
ATOM     80  O   UNL A   1      47.588  19.981  34.108  1.00  0.00    -0.744 OA
ENDBRANCH  76  77
ENDBRANCH  57  71
BRANCH  58  81
ATOM     81  C   UNL A   1      49.610  32.117  28.079  1.00  0.00    -0.014 A 
ATOM     82  C   UNL A   1      50.128  33.255  28.709  1.00  0.00     0.010 A 
ATOM     83  C   UNL A   1      50.098  31.860  26.767  1.00  0.00     0.010 A 
ATOM     84  C   UNL A   1      51.180  33.997  28.124  1.00  0.00     0.020 A 
ATOM     85  C   UNL A   1      51.170  32.550  26.202  1.00  0.00     0.020 A 
ATOM     86  C   UNL A   1      51.729  33.605  26.900  1.00  0.00     0.054 A 
BRANCH  86  87
ATOM     87  S   UNL A   1      53.260  34.353  26.273  1.00  0.00     0.124 S 
ATOM     88  O   UNL A   1      53.693  33.386  25.272  1.00  0.00    -0.237 OA
ATOM     89  O   UNL A   1      52.808  35.642  25.756  1.00  0.00    -0.237 OA
ATOM     90  O   UNL A   1      54.102  34.439  27.467  1.00  0.00    -0.744 OA
ENDBRANCH  86  87
ENDBRANCH  58  81
BRANCH  70  91
ATOM     91  C   UNL A   1      48.168  26.331  29.617  1.00  0.00    -0.014 A 
ATOM     92  C   UNL A   1      46.764  26.414  29.578  1.00  0.00     0.010 A 
ATOM     93  C   UNL A   1      48.786  25.478  28.681  1.00  0.00     0.010 A 
ATOM     94  C   UNL A   1      46.010  25.674  28.652  1.00  0.00     0.020 A 
ATOM     95  C   UNL A   1      48.043  24.733  27.748  1.00  0.00     0.020 A 
ATOM     96  C   UNL A   1      46.654  24.836  27.740  1.00  0.00     0.054 A 
BRANCH  96  97
ATOM     97  S   UNL A   1      45.648  23.872  26.571  1.00  0.00     0.124 S 
ATOM     98  O   UNL A   1      44.501  23.472  27.383  1.00  0.00    -0.237 OA
ATOM     99  O   UNL A   1      45.360  24.847  25.523  1.00  0.00    -0.237 OA
ATOM    100  O   UNL A   1      46.529  22.774  26.172  1.00  0.00    -0.744 OA
ENDBRANCH  96  97
ENDBRANCH  70  91
ENDBRANCH  44  45
ENDBRANCH  37  39
ENDBRANCH  36  37
ENDBRANCH  35  36
ENDBRANCH  34  35
ENDBRANCH  33  34
ENDBRANCH  32  33
ENDBRANCH   1  32
TORSDOF 26
ENDMDL
MODEL 3
REMARK VINA RESULT:      -8.8      3.305      8.740
REMARK SMILES COc1ccc(-c2ccc(CCC(=O)OCCOCCOCCOC(=O)c3ccc(-c4c5nc(c(-c6ccc(S(=O)(=O)[O-])cc6)c6ccc([nH]6)c(-c6ccc(S(=O)(=O)[O-])cc6)c6nc(c(-c7ccc(S(=O)(=O)[O-])cc7)c7ccc4[nH]7)C=C6)C=C5)cc3)n2-c2ccc(C(C)=O)cc2)cc1
REMARK SMILES IDX 19 1 18 2 17 3 16 4 15 5 13 6 14 7 12 8 11 9 10 10 7 11 8 12
REMARK SMILES IDX 87 13 9 14 6 15 3 16 4 17 98 18 5 19 97 20 2 21 1 22 88 23
REMARK SMILES IDX 89 24 96 25 90 26 95 27 91 28 92 29 93 30 94 31 20 32 21 33
REMARK SMILES IDX 22 34 23 35 24 36 25 37 26 38 27 39 28 40 86 41 29 42 85 43
REMARK SMILES IDX 30 44 31 45 32 46 79 47 33 48 84 49 78 50 80 51 34 52 83 53
REMARK SMILES IDX 77 54 76 55 35 57 65 58 46 59 64 60 47 61 50 62 63 63 81 64
REMARK SMILES IDX 48 65 49 66 62 68 82 69 51 70 36 71 37 72 45 73 38 74 44 75
REMARK SMILES IDX 39 76 40 77 41 78 42 79 43 80 66 81 67 82 75 83 68 84 74 85
REMARK SMILES IDX 69 86 70 87 71 88 72 89 73 90 52 91 53 92 61 93 54 94 60 95
REMARK SMILES IDX 55 96 56 97 57 98 58 99 59 100
REMARK H PARENT 80 56 50 67
REMARK Flexibility Score: inf
ROOT
ATOM      1  C   UNL A   1      46.698  42.789  25.699  1.00  0.00     0.188 C 
ENDROOT
BRANCH   1   2
ATOM      2  O   UNL A   1      46.123  43.154  24.439  1.00  0.00    -0.376 OA
BRANCH   2   3
ATOM      3  C   UNL A   1      45.221  42.216  23.848  1.00  0.00     0.202 C 
BRANCH   3   4
ATOM      4  C   UNL A   1      43.789  42.726  23.644  1.00  0.00     0.261 C 
BRANCH   4   5
ATOM      5  O   UNL A   1      43.191  42.251  22.422  1.00  0.00    -0.463 OA
BRANCH   5   6
ATOM      6  C   UNL A   1      42.121  42.920  21.941  1.00  0.00     0.306 C 
ATOM      7  O   UNL A   1      41.283  43.484  22.640  1.00  0.00    -0.252 OA
BRANCH   6   8
ATOM      8  C   UNL A   1      42.001  42.900  20.426  1.00  0.00     0.129 C 
BRANCH   8   9
ATOM      9  C   UNL A   1      43.198  43.331  19.575  1.00  0.00     0.066 C 
BRANCH   9  10
ATOM     10  C   UNL A   1      42.992  44.641  18.863  1.00  0.00     0.024 A 
ATOM     11  C   UNL A   1      43.261  46.781  18.183  1.00  0.00     0.053 A 
ATOM     12  C   UNL A   1      42.053  46.329  17.694  1.00  0.00     0.029 A 
ATOM     13  N   UNL A   1      43.875  45.720  18.851  1.00  0.00    -0.314 N 
ATOM     14  C   UNL A   1      41.875  45.022  18.146  1.00  0.00     0.024 A 
BRANCH  11  15
ATOM     15  C   UNL A   1      43.802  48.119  17.961  1.00  0.00    -0.001 A 
ATOM     16  C   UNL A   1      45.061  50.595  17.585  1.00  0.00     0.118 A 
ATOM     17  C   UNL A   1      44.118  50.427  18.602  1.00  0.00     0.047 A 
ATOM     18  C   UNL A   1      45.390  49.516  16.767  1.00  0.00     0.047 A 
ATOM     19  C   UNL A   1      43.485  49.195  18.790  1.00  0.00     0.014 A 
ATOM     20  C   UNL A   1      44.762  48.286  16.954  1.00  0.00     0.014 A 
BRANCH  16  21
ATOM     21  O   UNL A   1      45.622  51.839  17.502  1.00  0.00    -0.497 OA
ATOM     22  C   UNL A   1      47.009  51.864  17.183  1.00  0.00     0.278 C 
ENDBRANCH  16  21
ENDBRANCH  11  15
BRANCH  13  23
ATOM     23  C   UNL A   1      45.146  45.762  19.476  1.00  0.00     0.046 A 
ATOM     24  C   UNL A   1      46.241  45.134  18.873  1.00  0.00     0.027 A 
ATOM     25  C   UNL A   1      45.299  46.448  20.681  1.00  0.00     0.027 A 
ATOM     26  C   UNL A   1      47.501  45.188  19.487  1.00  0.00     0.014 A 
ATOM     27  C   UNL A   1      46.552  46.475  21.300  1.00  0.00     0.014 A 
ATOM     28  C   UNL A   1      47.665  45.851  20.710  1.00  0.00     0.017 A 
BRANCH  28  29
ATOM     29  C   UNL A   1      48.967  45.928  21.447  1.00  0.00     0.159 C 
ATOM     30  C   UNL A   1      49.389  44.849  22.411  1.00  0.00     0.093 C 
ATOM     31  O   UNL A   1      49.713  46.889  21.245  1.00  0.00    -0.295 OA
ENDBRANCH  28  29
ENDBRANCH  13  23
ENDBRANCH   9  10
ENDBRANCH   8   9
ENDBRANCH   6   8
ENDBRANCH   5   6
ENDBRANCH   4   5
ENDBRANCH   3   4
ENDBRANCH   2   3
ENDBRANCH   1   2
BRANCH   1  32
ATOM     32  C   UNL A   1      46.698  41.283  25.992  1.00  0.00     0.188 C 
BRANCH  32  33
ATOM     33  O   UNL A   1      46.369  41.062  27.359  1.00  0.00    -0.376 OA
BRANCH  33  34
ATOM     34  C   UNL A   1      47.296  40.443  28.245  1.00  0.00     0.202 C 
BRANCH  34  35
ATOM     35  C   UNL A   1      47.117  38.963  28.554  1.00  0.00     0.261 C 
BRANCH  35  36
ATOM     36  O   UNL A   1      45.761  38.541  28.595  1.00  0.00    -0.460 OA
BRANCH  36  37
ATOM     37  C   UNL A   1      45.420  37.432  27.929  1.00  0.00     0.338 C 
ATOM     38  O   UNL A   1      45.695  37.119  26.766  1.00  0.00    -0.246 OA
BRANCH  37  39
ATOM     39  C   UNL A   1      44.656  36.581  28.826  1.00  0.00     0.060 A 
ATOM     40  C   UNL A   1      45.347  35.926  29.851  1.00  0.00     0.016 A 
ATOM     41  C   UNL A   1      43.315  36.304  28.525  1.00  0.00     0.016 A 
ATOM     42  C   UNL A   1      44.742  34.856  30.466  1.00  0.00     0.010 A 
ATOM     43  C   UNL A   1      42.733  35.204  29.095  1.00  0.00     0.010 A 
ATOM     44  C   UNL A   1      43.479  34.460  30.012  1.00  0.00    -0.014 A 
BRANCH  44  45
ATOM     45  C   UNL A   1      42.928  33.195  30.483  1.00  0.00     0.031 A 
ATOM     46  C   UNL A   1      42.356  33.318  31.884  1.00  0.00     0.074 A 
ATOM     47  C   UNL A   1      43.045  32.166  29.590  1.00  0.00     0.049 A 
ATOM     48  N   UNL A   1      42.176  32.392  32.768  1.00  0.00    -0.248 NA
ATOM     49  C   UNL A   1      42.004  34.662  32.425  1.00  0.00     0.031 C 
ATOM     50  C   UNL A   1      43.663  32.281  28.243  1.00  0.00     0.029 A 
ATOM     51  N   UNL A   1      42.687  30.839  29.607  1.00  0.00    -0.354 N 
ATOM     52  C   UNL A   1      41.527  32.986  33.865  1.00  0.00     0.074 A 
ATOM     53  C   UNL A   1      41.546  34.399  33.648  1.00  0.00     0.031 C 
ATOM     54  C   UNL A   1      43.708  31.083  27.626  1.00  0.00     0.029 A 
ATOM     55  C   UNL A   1      43.094  30.087  28.479  1.00  0.00     0.049 A 
ATOM     56  H   UNL A   1      42.181  30.440  30.352  1.00  0.00     0.167 HD
ATOM     57  C   UNL A   1      40.883  32.258  34.819  1.00  0.00     0.031 A 
ATOM     58  C   UNL A   1      42.979  28.744  28.261  1.00  0.00     0.031 A 
ATOM     59  C   UNL A   1      41.051  30.863  34.576  1.00  0.00     0.049 A 
ATOM     60  C   UNL A   1      42.184  28.219  29.384  1.00  0.00     0.074 A 
ATOM     61  C   UNL A   1      42.135  30.029  34.667  1.00  0.00     0.029 A 
ATOM     62  N   UNL A   1      40.083  30.261  33.806  1.00  0.00    -0.354 N 
ATOM     63  N   UNL A   1      40.915  28.428  29.566  1.00  0.00    -0.248 NA
ATOM     64  C   UNL A   1      42.870  27.470  30.443  1.00  0.00     0.031 C 
ATOM     65  C   UNL A   1      41.974  29.153  33.569  1.00  0.00     0.029 A 
ATOM     66  C   UNL A   1      40.730  29.381  32.971  1.00  0.00     0.049 A 
ATOM     67  H   UNL A   1      39.113  30.428  33.845  1.00  0.00     0.167 HD
ATOM     68  C   UNL A   1      40.762  28.184  30.908  1.00  0.00     0.074 A 
ATOM     69  C   UNL A   1      41.860  27.324  31.296  1.00  0.00     0.031 C 
ATOM     70  C   UNL A   1      40.126  29.095  31.689  1.00  0.00     0.031 A 
BRANCH  57  71
ATOM     71  C   UNL A   1      39.863  32.679  35.832  1.00  0.00    -0.014 A 
ATOM     72  C   UNL A   1      40.315  32.810  37.167  1.00  0.00     0.010 A 
ATOM     73  C   UNL A   1      38.480  32.608  35.610  1.00  0.00     0.010 A 
ATOM     74  C   UNL A   1      39.437  32.712  38.244  1.00  0.00     0.020 A 
ATOM     75  C   UNL A   1      37.586  32.554  36.689  1.00  0.00     0.020 A 
ATOM     76  C   UNL A   1      38.079  32.543  37.996  1.00  0.00     0.054 A 
BRANCH  76  77
ATOM     77  S   UNL A   1      36.986  32.212  39.403  1.00  0.00     0.124 S 
ATOM     78  O   UNL A   1      35.673  32.527  38.847  1.00  0.00    -0.237 OA
ATOM     79  O   UNL A   1      37.230  30.796  39.667  1.00  0.00    -0.237 OA
ATOM     80  O   UNL A   1      37.472  33.123  40.434  1.00  0.00    -0.744 OA
ENDBRANCH  76  77
ENDBRANCH  57  71
BRANCH  58  81
ATOM     81  C   UNL A   1      43.537  27.723  27.300  1.00  0.00    -0.014 A 
ATOM     82  C   UNL A   1      44.708  27.850  26.543  1.00  0.00     0.010 A 
ATOM     83  C   UNL A   1      42.911  26.445  27.262  1.00  0.00     0.010 A 
ATOM     84  C   UNL A   1      45.296  26.728  25.915  1.00  0.00     0.020 A 
ATOM     85  C   UNL A   1      43.507  25.320  26.694  1.00  0.00     0.020 A 
ATOM     86  C   UNL A   1      44.719  25.460  26.042  1.00  0.00     0.054 A 
BRANCH  86  87
ATOM     87  S   UNL A   1      45.600  23.968  25.504  1.00  0.00     0.124 S 
ATOM     88  O   UNL A   1      46.518  24.492  24.499  1.00  0.00    -0.237 OA
ATOM     89  O   UNL A   1      46.217  23.488  26.737  1.00  0.00    -0.237 OA
ATOM     90  O   UNL A   1      44.528  23.115  24.989  1.00  0.00    -0.744 OA
ENDBRANCH  86  87
ENDBRANCH  58  81
BRANCH  70  91
ATOM     91  C   UNL A   1      39.143  30.004  30.962  1.00  0.00    -0.014 A 
ATOM     92  C   UNL A   1      39.251  31.402  31.089  1.00  0.00     0.010 A 
ATOM     93  C   UNL A   1      38.052  29.510  30.219  1.00  0.00     0.010 A 
ATOM     94  C   UNL A   1      38.309  32.266  30.508  1.00  0.00     0.020 A 
ATOM     95  C   UNL A   1      37.102  30.365  29.632  1.00  0.00     0.020 A 
ATOM     96  C   UNL A   1      37.238  31.743  29.782  1.00  0.00     0.054 A 
BRANCH  96  97
ATOM     97  S   UNL A   1      36.020  32.888  29.064  1.00  0.00     0.124 S 
ATOM     98  O   UNL A   1      34.766  32.451  29.672  1.00  0.00    -0.237 OA
ATOM     99  O   UNL A   1      36.509  34.190  29.510  1.00  0.00    -0.237 OA
ATOM    100  O   UNL A   1      36.120  32.649  27.624  1.00  0.00    -0.744 OA
ENDBRANCH  96  97
ENDBRANCH  70  91
ENDBRANCH  44  45
ENDBRANCH  37  39
ENDBRANCH  36  37
ENDBRANCH  35  36
ENDBRANCH  34  35
ENDBRANCH  33  34
ENDBRANCH  32  33
ENDBRANCH   1  32
TORSDOF 26
ENDMDL
