MODEL 1
REMARK VINA RESULT:      -9.9      0.000      0.000
REMARK SMILES CC(C)(C)C(=O)C[N@H+]1CCCC[C@H]1C(=O)OCCOCCOCCOC(=O)c1ccc(-c2c3nc(c(-c4ccc(S(=O)(=O)[O-])cc4)c4ccc([nH]4)c(-c4ccc(S(=O)(=O)[O-])cc4)c4nc(c(-c5ccc(S(=O)(=O)[O-])cc5)c5ccc2[nH]5)C=C4)C=C3)cc1
REMARK SMILES IDX 20 1 19 2 18 3 17 4 16 5 14 6 15 7 13 8 8 9 9 10 10 12 12 13
REMARK SMILES IDX 11 14 7 15 5 16 6 17 2 18 1 19 3 20 4 21 21 22 22 23 23 24
REMARK SMILES IDX 24 25 25 26 26 27 27 28 28 29 29 30 87 31 30 32 86 33 31 34
REMARK SMILES IDX 32 35 33 36 80 37 34 38 85 39 79 40 81 41 35 42 84 43 78 44
REMARK SMILES IDX 77 45 36 47 66 48 47 49 65 50 48 51 51 52 64 53 82 54 49 55
REMARK SMILES IDX 50 56 63 58 83 59 52 60 37 61 38 62 46 63 39 64 45 65 40 66
REMARK SMILES IDX 41 67 42 68 43 69 44 70 67 71 68 72 76 73 69 74 75 75 70 76
REMARK SMILES IDX 71 77 72 78 73 79 74 80 53 81 54 82 62 83 55 84 61 85 56 86
REMARK SMILES IDX 57 87 58 88 59 89 60 90
REMARK H PARENT 8 11 81 46 51 57
REMARK Flexibility Score: inf
ROOT
ATOM      1  C   UNL A   1      40.475  21.020  26.478  1.00  0.00     0.188 C 
ENDROOT
BRANCH   1   2
ATOM      2  O   UNL A   1      39.836  22.275  26.459  1.00  0.00    -0.376 OA
BRANCH   2   3
ATOM      3  C   UNL A   1      38.476  22.363  26.099  1.00  0.00     0.202 C 
BRANCH   3   4
ATOM      4  C   UNL A   1      37.663  23.660  26.251  1.00  0.00     0.261 C 
BRANCH   4   5
ATOM      5  O   UNL A   1      36.505  23.851  25.431  1.00  0.00    -0.459 OA
BRANCH   5   6
ATOM      6  C   UNL A   1      35.536  22.896  25.499  1.00  0.00     0.365 C 
ATOM      7  O   UNL A   1      34.975  22.583  26.541  1.00  0.00    -0.245 OA
BRANCH   6   8
ATOM      8  C   UNL A   1      35.302  22.256  24.099  1.00  0.00     0.295 C 
ATOM      9  N   UNL A   1      34.092  21.388  24.106  1.00  0.00    -0.317 N 
ATOM     10  C   UNL A   1      32.861  22.179  24.141  1.00  0.00     0.263 C 
ATOM     11  H   UNL A   1      34.039  20.873  23.226  1.00  0.00     0.349 HD
ATOM     12  C   UNL A   1      32.741  23.308  23.119  1.00  0.00     0.062 C 
ATOM     13  C   UNL A   1      35.206  23.298  22.967  1.00  0.00     0.078 C 
ATOM     14  C   UNL A   1      33.977  24.183  23.090  1.00  0.00     0.013 C 
BRANCH   9  15
ATOM     15  C   UNL A   1      34.203  20.358  25.173  1.00  0.00     0.340 C 
BRANCH  15  16
ATOM     16  C   UNL A   1      33.103  19.290  25.192  1.00  0.00     0.192 C 
ATOM     17  O   UNL A   1      32.034  19.535  25.765  1.00  0.00    -0.293 OA
BRANCH  16  18
ATOM     18  C   UNL A   1      33.331  17.904  24.499  1.00  0.00     0.026 C 
ATOM     19  C   UNL A   1      32.740  18.003  23.079  1.00  0.00     0.019 C 
ATOM     20  C   UNL A   1      32.570  16.774  25.215  1.00  0.00     0.019 C 
ATOM     21  C   UNL A   1      34.809  17.518  24.355  1.00  0.00     0.019 C 
ENDBRANCH  16  18
ENDBRANCH  15  16
ENDBRANCH   9  15
ENDBRANCH   6   8
ENDBRANCH   5   6
ENDBRANCH   4   5
ENDBRANCH   3   4
ENDBRANCH   2   3
ENDBRANCH   1   2
BRANCH   1  22
ATOM     22  C   UNL A   1      42.007  21.121  26.302  1.00  0.00     0.188 C 
BRANCH  22  23
ATOM     23  O   UNL A   1      42.548  21.785  25.169  1.00  0.00    -0.376 OA
BRANCH  23  24
ATOM     24  C   UNL A   1      43.408  22.892  25.376  1.00  0.00     0.202 C 
BRANCH  24  25
ATOM     25  C   UNL A   1      43.117  23.853  26.540  1.00  0.00     0.261 C 
BRANCH  25  26
ATOM     26  O   UNL A   1      41.837  24.521  26.515  1.00  0.00    -0.460 OA
BRANCH  26  27
ATOM     27  C   UNL A   1      41.839  25.812  26.102  1.00  0.00     0.338 C 
ATOM     28  O   UNL A   1      42.040  26.211  24.958  1.00  0.00    -0.246 OA
BRANCH  27  29
ATOM     29  C   UNL A   1      41.376  26.716  27.183  1.00  0.00     0.060 A 
ATOM     30  C   UNL A   1      42.100  27.893  27.438  1.00  0.00     0.016 A 
ATOM     31  C   UNL A   1      40.284  26.387  27.986  1.00  0.00     0.016 A 
ATOM     32  C   UNL A   1      41.757  28.722  28.512  1.00  0.00     0.010 A 
ATOM     33  C   UNL A   1      39.958  27.207  29.079  1.00  0.00     0.010 A 
ATOM     34  C   UNL A   1      40.710  28.361  29.369  1.00  0.00    -0.014 A 
BRANCH  34  35
ATOM     35  C   UNL A   1      40.522  29.069  30.667  1.00  0.00     0.031 A 
ATOM     36  C   UNL A   1      39.418  30.095  30.773  1.00  0.00     0.074 A 
ATOM     37  C   UNL A   1      41.300  28.818  31.738  1.00  0.00     0.049 A 
ATOM     38  N   UNL A   1      39.121  30.897  31.763  1.00  0.00    -0.248 NA
ATOM     39  C   UNL A   1      38.533  30.230  29.604  1.00  0.00     0.031 C 
ATOM     40  C   UNL A   1      42.355  27.809  31.804  1.00  0.00     0.029 A 
ATOM     41  N   UNL A   1      41.324  29.408  32.981  1.00  0.00    -0.354 N 
ATOM     42  C   UNL A   1      38.034  31.649  31.328  1.00  0.00     0.074 A 
ATOM     43  C   UNL A   1      37.730  31.214  29.983  1.00  0.00     0.031 C 
ATOM     44  C   UNL A   1      42.933  27.860  33.019  1.00  0.00     0.029 A 
ATOM     45  C   UNL A   1      42.319  28.932  33.802  1.00  0.00     0.049 A 
ATOM     46  H   UNL A   1      40.687  30.106  33.256  1.00  0.00     0.167 HD
ATOM     47  C   UNL A   1      37.353  32.618  31.985  1.00  0.00     0.031 A 
ATOM     48  C   UNL A   1      42.711  29.333  35.032  1.00  0.00     0.031 A 
ATOM     49  C   UNL A   1      37.652  33.054  33.324  1.00  0.00     0.049 A 
ATOM     50  C   UNL A   1      41.991  30.479  35.706  1.00  0.00     0.074 A 
ATOM     51  C   UNL A   1      36.997  34.011  34.079  1.00  0.00     0.029 A 
ATOM     52  N   UNL A   1      38.693  32.574  34.102  1.00  0.00    -0.354 N 
ATOM     53  N   UNL A   1      40.948  31.160  35.291  1.00  0.00    -0.248 NA
ATOM     54  C   UNL A   1      42.500  30.906  37.018  1.00  0.00     0.031 C 
ATOM     55  C   UNL A   1      37.686  34.162  35.286  1.00  0.00     0.029 A 
ATOM     56  C   UNL A   1      38.721  33.243  35.315  1.00  0.00     0.049 A 
ATOM     57  H   UNL A   1      39.319  31.863  33.834  1.00  0.00     0.167 HD
ATOM     58  C   UNL A   1      40.656  32.066  36.309  1.00  0.00     0.074 A 
ATOM     59  C   UNL A   1      41.620  31.838  37.363  1.00  0.00     0.031 C 
ATOM     60  C   UNL A   1      39.674  33.000  36.368  1.00  0.00     0.031 A 
BRANCH  47  61
ATOM     61  C   UNL A   1      36.239  33.319  31.254  1.00  0.00    -0.014 A 
ATOM     62  C   UNL A   1      35.077  33.748  31.918  1.00  0.00     0.010 A 
ATOM     63  C   UNL A   1      36.396  33.620  29.887  1.00  0.00     0.010 A 
ATOM     64  C   UNL A   1      34.085  34.449  31.225  1.00  0.00     0.020 A 
ATOM     65  C   UNL A   1      35.421  34.345  29.199  1.00  0.00     0.020 A 
ATOM     66  C   UNL A   1      34.267  34.747  29.871  1.00  0.00     0.054 A 
BRANCH  66  67
ATOM     67  S   UNL A   1      32.988  35.706  29.011  1.00  0.00     0.124 S 
ATOM     68  O   UNL A   1      33.776  36.761  28.378  1.00  0.00    -0.237 OA
ATOM     69  O   UNL A   1      32.411  34.721  28.100  1.00  0.00    -0.237 OA
ATOM     70  O   UNL A   1      32.104  36.149  30.086  1.00  0.00    -0.744 OA
ENDBRANCH  66  67
ENDBRANCH  47  61
BRANCH  48  71
ATOM     71  C   UNL A   1      43.870  28.684  35.712  1.00  0.00    -0.014 A 
ATOM     72  C   UNL A   1      43.667  27.693  36.690  1.00  0.00     0.010 A 
ATOM     73  C   UNL A   1      45.185  29.099  35.431  1.00  0.00     0.010 A 
ATOM     74  C   UNL A   1      44.750  27.158  37.398  1.00  0.00     0.020 A 
ATOM     75  C   UNL A   1      46.273  28.542  36.110  1.00  0.00     0.020 A 
ATOM     76  C   UNL A   1      46.047  27.588  37.104  1.00  0.00     0.054 A 
BRANCH  76  77
ATOM     77  S   UNL A   1      47.438  26.870  38.022  1.00  0.00     0.124 S 
ATOM     78  O   UNL A   1      47.497  25.518  37.476  1.00  0.00    -0.237 OA
ATOM     79  O   UNL A   1      48.544  27.750  37.655  1.00  0.00    -0.237 OA
ATOM     80  O   UNL A   1      47.012  26.964  39.416  1.00  0.00    -0.744 OA
ENDBRANCH  76  77
ENDBRANCH  48  71
BRANCH  60  81
ATOM     81  C   UNL A   1      39.545  33.812  37.632  1.00  0.00    -0.014 A 
ATOM     82  C   UNL A   1      38.650  33.450  38.654  1.00  0.00     0.010 A 
ATOM     83  C   UNL A   1      40.385  34.926  37.824  1.00  0.00     0.010 A 
ATOM     84  C   UNL A   1      38.575  34.205  39.830  1.00  0.00     0.020 A 
ATOM     85  C   UNL A   1      40.337  35.663  39.011  1.00  0.00     0.020 A 
ATOM     86  C   UNL A   1      39.420  35.307  40.001  1.00  0.00     0.054 A 
BRANCH  86  87
ATOM     87  S   UNL A   1      39.334  36.243  41.552  1.00  0.00     0.124 S 
ATOM     88  O   UNL A   1      40.585  35.870  42.204  1.00  0.00    -0.237 OA
ATOM     89  O   UNL A   1      39.255  37.626  41.087  1.00  0.00    -0.237 OA
ATOM     90  O   UNL A   1      38.122  35.740  42.195  1.00  0.00    -0.744 OA
ENDBRANCH  86  87
ENDBRANCH  60  81
ENDBRANCH  34  35
ENDBRANCH  27  29
ENDBRANCH  26  27
ENDBRANCH  25  26
ENDBRANCH  24  25
ENDBRANCH  23  24
ENDBRANCH  22  23
ENDBRANCH   1  22
TORSDOF 23
ENDMDL
MODEL 2
REMARK VINA RESULT:      -9.6      6.654     11.391
REMARK SMILES CC(C)(C)C(=O)C[N@H+]1CCCC[C@H]1C(=O)OCCOCCOCCOC(=O)c1ccc(-c2c3nc(c(-c4ccc(S(=O)(=O)[O-])cc4)c4ccc([nH]4)c(-c4ccc(S(=O)(=O)[O-])cc4)c4nc(c(-c5ccc(S(=O)(=O)[O-])cc5)c5ccc2[nH]5)C=C4)C=C3)cc1
REMARK SMILES IDX 20 1 19 2 18 3 17 4 16 5 14 6 15 7 13 8 8 9 9 10 10 12 12 13
REMARK SMILES IDX 11 14 7 15 5 16 6 17 2 18 1 19 3 20 4 21 21 22 22 23 23 24
REMARK SMILES IDX 24 25 25 26 26 27 27 28 28 29 29 30 87 31 30 32 86 33 31 34
REMARK SMILES IDX 32 35 33 36 80 37 34 38 85 39 79 40 81 41 35 42 84 43 78 44
REMARK SMILES IDX 77 45 36 47 66 48 47 49 65 50 48 51 51 52 64 53 82 54 49 55
REMARK SMILES IDX 50 56 63 58 83 59 52 60 37 61 38 62 46 63 39 64 45 65 40 66
REMARK SMILES IDX 41 67 42 68 43 69 44 70 67 71 68 72 76 73 69 74 75 75 70 76
REMARK SMILES IDX 71 77 72 78 73 79 74 80 53 81 54 82 62 83 55 84 61 85 56 86
REMARK SMILES IDX 57 87 58 88 59 89 60 90
REMARK H PARENT 8 11 81 46 51 57
REMARK Flexibility Score: inf
ROOT
ATOM      1  C   UNL A   1      39.809  21.819  26.369  1.00  0.00     0.188 C 
ENDROOT
BRANCH   1   2
ATOM      2  O   UNL A   1      38.889  22.879  26.481  1.00  0.00    -0.376 OA
BRANCH   2   3
ATOM      3  C   UNL A   1      37.775  22.933  25.618  1.00  0.00     0.202 C 
BRANCH   3   4
ATOM      4  C   UNL A   1      36.631  21.907  25.680  1.00  0.00     0.261 C 
BRANCH   4   5
ATOM      5  O   UNL A   1      35.455  22.227  26.432  1.00  0.00    -0.459 OA
BRANCH   5   6
ATOM      6  C   UNL A   1      34.390  22.711  25.735  1.00  0.00     0.365 C 
ATOM      7  O   UNL A   1      33.508  23.390  26.244  1.00  0.00    -0.245 OA
BRANCH   6   8
ATOM      8  C   UNL A   1      34.447  22.236  24.253  1.00  0.00     0.295 C 
ATOM      9  N   UNL A   1      33.268  21.388  23.920  1.00  0.00    -0.317 N 
ATOM     10  C   UNL A   1      32.048  22.186  23.797  1.00  0.00     0.263 C 
ATOM     11  H   UNL A   1      33.397  20.976  22.995  1.00  0.00     0.349 HD
ATOM     12  C   UNL A   1      32.124  23.425  22.906  1.00  0.00     0.062 C 
ATOM     13  C   UNL A   1      34.570  23.399  23.250  1.00  0.00     0.078 C 
ATOM     14  C   UNL A   1      33.332  24.280  23.224  1.00  0.00     0.013 C 
BRANCH   9  15
ATOM     15  C   UNL A   1      33.173  20.243  24.864  1.00  0.00     0.340 C 
BRANCH  15  16
ATOM     16  C   UNL A   1      33.967  18.988  24.481  1.00  0.00     0.192 C 
ATOM     17  O   UNL A   1      35.195  18.981  24.636  1.00  0.00    -0.293 OA
BRANCH  16  18
ATOM     18  C   UNL A   1      33.235  17.734  23.897  1.00  0.00     0.026 C 
ATOM     19  C   UNL A   1      34.318  16.800  23.325  1.00  0.00     0.019 C 
ATOM     20  C   UNL A   1      32.310  18.106  22.724  1.00  0.00     0.019 C 
ATOM     21  C   UNL A   1      32.444  16.934  24.941  1.00  0.00     0.019 C 
ENDBRANCH  16  18
ENDBRANCH  15  16
ENDBRANCH   9  15
ENDBRANCH   6   8
ENDBRANCH   5   6
ENDBRANCH   4   5
ENDBRANCH   3   4
ENDBRANCH   2   3
ENDBRANCH   1   2
BRANCH   1  22
ATOM     22  C   UNL A   1      41.264  22.250  26.666  1.00  0.00     0.188 C 
BRANCH  22  23
ATOM     23  O   UNL A   1      42.155  21.344  27.299  1.00  0.00    -0.376 OA
BRANCH  23  24
ATOM     24  C   UNL A   1      41.860  19.959  27.258  1.00  0.00     0.202 C 
BRANCH  24  25
ATOM     25  C   UNL A   1      42.436  19.108  26.115  1.00  0.00     0.261 C 
BRANCH  25  26
ATOM     26  O   UNL A   1      42.941  19.830  24.971  1.00  0.00    -0.460 OA
BRANCH  26  27
ATOM     27  C   UNL A   1      44.288  19.859  24.824  1.00  0.00     0.338 C 
ATOM     28  O   UNL A   1      45.000  18.936  24.439  1.00  0.00    -0.246 OA
BRANCH  27  29
ATOM     29  C   UNL A   1      44.813  21.235  25.010  1.00  0.00     0.060 A 
ATOM     30  C   UNL A   1      45.379  21.581  26.249  1.00  0.00     0.016 A 
ATOM     31  C   UNL A   1      44.693  22.199  24.010  1.00  0.00     0.016 A 
ATOM     32  C   UNL A   1      45.794  22.894  26.500  1.00  0.00     0.010 A 
ATOM     33  C   UNL A   1      45.085  23.522  24.274  1.00  0.00     0.010 A 
ATOM     34  C   UNL A   1      45.608  23.886  25.530  1.00  0.00    -0.014 A 
BRANCH  34  35
ATOM     35  C   UNL A   1      45.772  25.324  25.883  1.00  0.00     0.031 A 
ATOM     36  C   UNL A   1      47.154  25.929  25.808  1.00  0.00     0.074 A 
ATOM     37  C   UNL A   1      44.731  26.092  26.258  1.00  0.00     0.049 A 
ATOM     38  N   UNL A   1      47.557  27.126  26.150  1.00  0.00    -0.248 NA
ATOM     39  C   UNL A   1      48.221  25.065  25.275  1.00  0.00     0.031 C 
ATOM     40  C   UNL A   1      43.334  25.664  26.309  1.00  0.00     0.029 A 
ATOM     41  N   UNL A   1      44.695  27.401  26.680  1.00  0.00    -0.354 N 
ATOM     42  C   UNL A   1      48.926  27.151  25.900  1.00  0.00     0.074 A 
ATOM     43  C   UNL A   1      49.286  25.848  25.386  1.00  0.00     0.031 C 
ATOM     44  C   UNL A   1      42.580  26.687  26.751  1.00  0.00     0.029 A 
ATOM     45  C   UNL A   1      43.442  27.829  27.056  1.00  0.00     0.049 A 
ATOM     46  H   UNL A   1      45.491  27.978  26.711  1.00  0.00     0.167 HD
ATOM     47  C   UNL A   1      49.806  28.163  26.085  1.00  0.00     0.031 A 
ATOM     48  C   UNL A   1      43.041  28.994  27.610  1.00  0.00     0.031 A 
ATOM     49  C   UNL A   1      49.452  29.462  26.596  1.00  0.00     0.049 A 
ATOM     50  C   UNL A   1      44.061  30.075  27.891  1.00  0.00     0.074 A 
ATOM     51  C   UNL A   1      50.275  30.558  26.792  1.00  0.00     0.029 A 
ATOM     52  N   UNL A   1      48.182  29.838  27.002  1.00  0.00    -0.354 N 
ATOM     53  N   UNL A   1      45.345  30.091  27.623  1.00  0.00    -0.248 NA
ATOM     54  C   UNL A   1      43.571  31.298  28.547  1.00  0.00     0.031 C 
ATOM     55  C   UNL A   1      49.517  31.573  27.384  1.00  0.00     0.029 A 
ATOM     56  C   UNL A   1      48.207  31.136  27.483  1.00  0.00     0.049 A 
ATOM     57  H   UNL A   1      47.381  29.267  26.955  1.00  0.00     0.167 HD
ATOM     58  C   UNL A   1      45.805  31.339  28.040  1.00  0.00     0.074 A 
ATOM     59  C   UNL A   1      44.662  32.053  28.566  1.00  0.00     0.031 C 
ATOM     60  C   UNL A   1      47.061  31.848  27.990  1.00  0.00     0.031 A 
BRANCH  47  61
ATOM     61  C   UNL A   1      51.257  27.903  25.781  1.00  0.00    -0.014 A 
ATOM     62  C   UNL A   1      51.826  28.256  24.544  1.00  0.00     0.010 A 
ATOM     63  C   UNL A   1      52.085  27.364  26.785  1.00  0.00     0.010 A 
ATOM     64  C   UNL A   1      53.190  28.057  24.312  1.00  0.00     0.020 A 
ATOM     65  C   UNL A   1      53.453  27.191  26.567  1.00  0.00     0.020 A 
ATOM     66  C   UNL A   1      53.996  27.530  25.327  1.00  0.00     0.054 A 
BRANCH  66  67
ATOM     67  S   UNL A   1      55.773  27.335  25.016  1.00  0.00     0.124 S 
ATOM     68  O   UNL A   1      56.064  28.501  24.185  1.00  0.00    -0.237 OA
ATOM     69  O   UNL A   1      56.337  27.367  26.363  1.00  0.00    -0.237 OA
ATOM     70  O   UNL A   1      55.867  26.046  24.336  1.00  0.00    -0.744 OA
ENDBRANCH  66  67
ENDBRANCH  47  61
BRANCH  48  71
ATOM     71  C   UNL A   1      41.612  29.209  27.983  1.00  0.00    -0.014 A 
ATOM     72  C   UNL A   1      41.231  29.326  29.333  1.00  0.00     0.010 A 
ATOM     73  C   UNL A   1      40.612  29.232  26.993  1.00  0.00     0.010 A 
ATOM     74  C   UNL A   1      39.880  29.426  29.686  1.00  0.00     0.020 A 
ATOM     75  C   UNL A   1      39.264  29.367  27.338  1.00  0.00     0.020 A 
ATOM     76  C   UNL A   1      38.905  29.443  28.685  1.00  0.00     0.054 A 
BRANCH  76  77
ATOM     77  S   UNL A   1      37.160  29.590  29.164  1.00  0.00     0.124 S 
ATOM     78  O   UNL A   1      37.011  31.032  29.331  1.00  0.00    -0.237 OA
ATOM     79  O   UNL A   1      36.469  29.010  28.015  1.00  0.00    -0.237 OA
ATOM     80  O   UNL A   1      37.076  28.804  30.393  1.00  0.00    -0.744 OA
ENDBRANCH  76  77
ENDBRANCH  48  71
BRANCH  60  81
ATOM     81  C   UNL A   1      47.268  33.267  28.457  1.00  0.00    -0.014 A 
ATOM     82  C   UNL A   1      47.172  34.358  27.575  1.00  0.00     0.010 A 
ATOM     83  C   UNL A   1      47.501  33.515  29.824  1.00  0.00     0.010 A 
ATOM     84  C   UNL A   1      47.338  35.665  28.044  1.00  0.00     0.020 A 
ATOM     85  C   UNL A   1      47.634  34.822  30.303  1.00  0.00     0.020 A 
ATOM     86  C   UNL A   1      47.567  35.889  29.406  1.00  0.00     0.054 A 
BRANCH  86  87
ATOM     87  S   UNL A   1      47.734  37.596  29.996  1.00  0.00     0.124 S 
ATOM     88  O   UNL A   1      46.360  37.929  30.359  1.00  0.00    -0.237 OA
ATOM     89  O   UNL A   1      48.664  37.458  31.114  1.00  0.00    -0.237 OA
ATOM     90  O   UNL A   1      48.265  38.314  28.839  1.00  0.00    -0.744 OA
ENDBRANCH  86  87
ENDBRANCH  60  81
ENDBRANCH  34  35
ENDBRANCH  27  29
ENDBRANCH  26  27
ENDBRANCH  25  26
ENDBRANCH  24  25
ENDBRANCH  23  24
ENDBRANCH  22  23
ENDBRANCH   1  22
TORSDOF 23
ENDMDL
MODEL 3
REMARK VINA RESULT:      -9.5      2.908      9.596
REMARK SMILES CC(C)(C)C(=O)C[N@H+]1CCCC[C@H]1C(=O)OCCOCCOCCOC(=O)c1ccc(-c2c3nc(c(-c4ccc(S(=O)(=O)[O-])cc4)c4ccc([nH]4)c(-c4ccc(S(=O)(=O)[O-])cc4)c4nc(c(-c5ccc(S(=O)(=O)[O-])cc5)c5ccc2[nH]5)C=C4)C=C3)cc1
REMARK SMILES IDX 20 1 19 2 18 3 17 4 16 5 14 6 15 7 13 8 8 9 9 10 10 12 12 13
REMARK SMILES IDX 11 14 7 15 5 16 6 17 2 18 1 19 3 20 4 21 21 22 22 23 23 24
REMARK SMILES IDX 24 25 25 26 26 27 27 28 28 29 29 30 87 31 30 32 86 33 31 34
REMARK SMILES IDX 32 35 33 36 80 37 34 38 85 39 79 40 81 41 35 42 84 43 78 44
REMARK SMILES IDX 77 45 36 47 66 48 47 49 65 50 48 51 51 52 64 53 82 54 49 55
REMARK SMILES IDX 50 56 63 58 83 59 52 60 37 61 38 62 46 63 39 64 45 65 40 66
REMARK SMILES IDX 41 67 42 68 43 69 44 70 67 71 68 72 76 73 69 74 75 75 70 76
REMARK SMILES IDX 71 77 72 78 73 79 74 80 53 81 54 82 62 83 55 84 61 85 56 86
REMARK SMILES IDX 57 87 58 88 59 89 60 90
REMARK H PARENT 8 11 81 46 51 57
REMARK Flexibility Score: inf
ROOT
ATOM      1  C   UNL A   1      35.357  32.566  28.729  1.00  0.00     0.188 C 
ENDROOT
BRANCH   1   2
ATOM      2  O   UNL A   1      34.711  31.401  28.272  1.00  0.00    -0.376 OA
BRANCH   2   3
ATOM      3  C   UNL A   1      35.477  30.316  27.797  1.00  0.00     0.202 C 
BRANCH   3   4
ATOM      4  C   UNL A   1      34.850  29.128  27.048  1.00  0.00     0.261 C 
BRANCH   4   5
ATOM      5  O   UNL A   1      33.637  28.555  27.552  1.00  0.00    -0.459 OA
BRANCH   5   6
ATOM      6  C   UNL A   1      32.534  28.649  26.760  1.00  0.00     0.365 C 
ATOM      7  O   UNL A   1      31.451  29.051  27.162  1.00  0.00    -0.245 OA
BRANCH   6   8
ATOM      8  C   UNL A   1      32.850  28.135  25.323  1.00  0.00     0.295 C 
ATOM      9  N   UNL A   1      32.195  26.821  25.072  1.00  0.00    -0.317 N 
ATOM     10  C   UNL A   1      30.751  26.965  24.889  1.00  0.00     0.263 C 
ATOM     11  H   UNL A   1      32.528  26.440  24.186  1.00  0.00     0.349 HD
ATOM     12  C   UNL A   1      30.287  28.028  23.894  1.00  0.00     0.062 C 
ATOM     13  C   UNL A   1      32.466  29.144  24.223  1.00  0.00     0.078 C 
ATOM     14  C   UNL A   1      30.965  29.361  24.129  1.00  0.00     0.013 C 
BRANCH   9  15
ATOM     15  C   UNL A   1      32.598  25.838  26.113  1.00  0.00     0.340 C 
BRANCH  15  16
ATOM     16  C   UNL A   1      31.833  24.509  26.112  1.00  0.00     0.192 C 
ATOM     17  O   UNL A   1      30.812  24.400  26.802  1.00  0.00    -0.293 OA
BRANCH  16  18
ATOM     18  C   UNL A   1      32.339  23.303  25.252  1.00  0.00     0.026 C 
ATOM     19  C   UNL A   1      33.854  23.169  25.502  1.00  0.00     0.019 C 
ATOM     20  C   UNL A   1      32.164  23.561  23.744  1.00  0.00     0.019 C 
ATOM     21  C   UNL A   1      31.693  21.961  25.622  1.00  0.00     0.019 C 
ENDBRANCH  16  18
ENDBRANCH  15  16
ENDBRANCH   9  15
ENDBRANCH   6   8
ENDBRANCH   5   6
ENDBRANCH   4   5
ENDBRANCH   3   4
ENDBRANCH   2   3
ENDBRANCH   1   2
BRANCH   1  22
ATOM     22  C   UNL A   1      34.878  33.845  28.004  1.00  0.00     0.188 C 
BRANCH  22  23
ATOM     23  O   UNL A   1      33.623  34.419  28.335  1.00  0.00    -0.376 OA
BRANCH  23  24
ATOM     24  C   UNL A   1      33.556  35.814  28.578  1.00  0.00     0.202 C 
BRANCH  24  25
ATOM     25  C   UNL A   1      32.705  36.325  29.752  1.00  0.00     0.261 C 
BRANCH  25  26
ATOM     26  O   UNL A   1      32.299  35.340  30.726  1.00  0.00    -0.460 OA
BRANCH  26  27
ATOM     27  C   UNL A   1      32.854  35.447  31.958  1.00  0.00     0.338 C 
ATOM     28  O   UNL A   1      32.344  35.970  32.945  1.00  0.00    -0.246 OA
BRANCH  27  29
ATOM     29  C   UNL A   1      34.118  34.674  32.040  1.00  0.00     0.060 A 
ATOM     30  C   UNL A   1      34.073  33.350  32.508  1.00  0.00     0.016 A 
ATOM     31  C   UNL A   1      35.346  35.256  31.727  1.00  0.00     0.016 A 
ATOM     32  C   UNL A   1      35.252  32.620  32.694  1.00  0.00     0.010 A 
ATOM     33  C   UNL A   1      36.530  34.531  31.940  1.00  0.00     0.010 A 
ATOM     34  C   UNL A   1      36.494  33.221  32.455  1.00  0.00    -0.014 A 
BRANCH  34  35
ATOM     35  C   UNL A   1      37.749  32.566  32.920  1.00  0.00     0.031 A 
ATOM     36  C   UNL A   1      38.220  32.835  34.330  1.00  0.00     0.074 A 
ATOM     37  C   UNL A   1      38.464  31.745  32.126  1.00  0.00     0.049 A 
ATOM     38  N   UNL A   1      39.320  32.453  34.925  1.00  0.00    -0.248 NA
ATOM     39  C   UNL A   1      37.328  33.643  35.177  1.00  0.00     0.031 C 
ATOM     40  C   UNL A   1      38.096  31.339  30.771  1.00  0.00     0.029 A 
ATOM     41  N   UNL A   1      39.665  31.111  32.350  1.00  0.00    -0.354 N 
ATOM     42  C   UNL A   1      39.266  32.994  36.206  1.00  0.00     0.074 A 
ATOM     43  C   UNL A   1      38.029  33.738  36.298  1.00  0.00     0.031 C 
ATOM     44  C   UNL A   1      39.057  30.536  30.279  1.00  0.00     0.029 A 
ATOM     45  C   UNL A   1      40.130  30.404  31.265  1.00  0.00     0.049 A 
ATOM     46  H   UNL A   1      40.146  31.159  33.207  1.00  0.00     0.167 HD
ATOM     47  C   UNL A   1      40.165  32.888  37.213  1.00  0.00     0.031 A 
ATOM     48  C   UNL A   1      41.298  29.751  31.077  1.00  0.00     0.031 A 
ATOM     49  C   UNL A   1      41.397  32.148  37.127  1.00  0.00     0.049 A 
ATOM     50  C   UNL A   1      42.324  29.725  32.187  1.00  0.00     0.074 A 
ATOM     51  C   UNL A   1      42.356  31.964  38.107  1.00  0.00     0.029 A 
ATOM     52  N   UNL A   1      41.846  31.483  35.997  1.00  0.00    -0.354 N 
ATOM     53  N   UNL A   1      42.243  30.219  33.400  1.00  0.00    -0.248 NA
ATOM     54  C   UNL A   1      43.598  29.047  31.902  1.00  0.00     0.031 C 
ATOM     55  C   UNL A   1      43.419  31.248  37.550  1.00  0.00     0.029 A 
ATOM     56  C   UNL A   1      43.087  30.920  36.246  1.00  0.00     0.049 A 
ATOM     57  H   UNL A   1      41.357  31.420  35.145  1.00  0.00     0.167 HD
ATOM     58  C   UNL A   1      43.438  29.876  34.031  1.00  0.00     0.074 A 
ATOM     59  C   UNL A   1      44.217  29.122  33.073  1.00  0.00     0.031 C 
ATOM     60  C   UNL A   1      43.851  30.155  35.292  1.00  0.00     0.031 A 
BRANCH  47  61
ATOM     61  C   UNL A   1      39.882  33.627  38.494  1.00  0.00    -0.014 A 
ATOM     62  C   UNL A   1      39.096  33.061  39.514  1.00  0.00     0.010 A 
ATOM     63  C   UNL A   1      40.481  34.883  38.710  1.00  0.00     0.010 A 
ATOM     64  C   UNL A   1      38.900  33.746  40.717  1.00  0.00     0.020 A 
ATOM     65  C   UNL A   1      40.312  35.557  39.921  1.00  0.00     0.020 A 
ATOM     66  C   UNL A   1      39.514  34.988  40.914  1.00  0.00     0.054 A 
BRANCH  66  67
ATOM     67  S   UNL A   1      39.287  35.828  42.507  1.00  0.00     0.124 S 
ATOM     68  O   UNL A   1      39.409  37.234  42.127  1.00  0.00    -0.237 OA
ATOM     69  O   UNL A   1      37.949  35.399  42.904  1.00  0.00    -0.237 OA
ATOM     70  O   UNL A   1      40.375  35.309  43.332  1.00  0.00    -0.744 OA
ENDBRANCH  66  67
ENDBRANCH  47  61
BRANCH  48  71
ATOM     71  C   UNL A   1      41.601  29.092  29.772  1.00  0.00    -0.014 A 
ATOM     72  C   UNL A   1      42.205  29.813  28.726  1.00  0.00     0.010 A 
ATOM     73  C   UNL A   1      41.227  27.754  29.546  1.00  0.00     0.010 A 
ATOM     74  C   UNL A   1      42.396  29.222  27.471  1.00  0.00     0.020 A 
ATOM     75  C   UNL A   1      41.448  27.148  28.305  1.00  0.00     0.020 A 
ATOM     76  C   UNL A   1      42.014  27.893  27.269  1.00  0.00     0.054 A 
BRANCH  76  77
ATOM     77  S   UNL A   1      42.285  27.141  25.639  1.00  0.00     0.124 S 
ATOM     78  O   UNL A   1      42.280  28.307  24.762  1.00  0.00    -0.237 OA
ATOM     79  O   UNL A   1      43.577  26.481  25.809  1.00  0.00    -0.237 OA
ATOM     80  O   UNL A   1      41.148  26.237  25.487  1.00  0.00    -0.744 OA
ENDBRANCH  76  77
ENDBRANCH  48  71
BRANCH  60  81
ATOM     81  C   UNL A   1      45.179  29.600  35.742  1.00  0.00    -0.014 A 
ATOM     82  C   UNL A   1      46.386  30.272  35.484  1.00  0.00     0.010 A 
ATOM     83  C   UNL A   1      45.208  28.410  36.495  1.00  0.00     0.010 A 
ATOM     84  C   UNL A   1      47.600  29.747  35.942  1.00  0.00     0.020 A 
ATOM     85  C   UNL A   1      46.415  27.900  36.983  1.00  0.00     0.020 A 
ATOM     86  C   UNL A   1      47.606  28.565  36.689  1.00  0.00     0.054 A 
BRANCH  86  87
ATOM     87  S   UNL A   1      49.189  27.930  37.309  1.00  0.00     0.124 S 
ATOM     88  O   UNL A   1      48.901  26.510  37.481  1.00  0.00    -0.237 OA
ATOM     89  O   UNL A   1      50.111  28.257  36.224  1.00  0.00    -0.237 OA
ATOM     90  O   UNL A   1      49.403  28.677  38.546  1.00  0.00    -0.744 OA
ENDBRANCH  86  87
ENDBRANCH  60  81
ENDBRANCH  34  35
ENDBRANCH  27  29
ENDBRANCH  26  27
ENDBRANCH  25  26
ENDBRANCH  24  25
ENDBRANCH  23  24
ENDBRANCH  22  23
ENDBRANCH   1  22
TORSDOF 23
ENDMDL
