MODEL 1
REMARK VINA RESULT:      -8.1      0.000      0.000
REMARK SMILES O=C(/C=C/C(=O)OCCOCCOCCOC(=O)c1ccc(-c2c3nc(c(-c4ccc(S(=O)(=O)[O-])cc4)c4ccc([nH]4)c(-c4ccc(S(=O)(=O)[O-])cc4)c4nc(c(-c5ccc(S(=O)(=O)[O-])cc5)c5ccc2[nH]5)C=C4)C=C3)cc1)NCc1ccc(-c2cccs2)s1
REMARK SMILES IDX 11 1 10 2 9 3 8 4 7 5 5 6 6 7 4 8 3 9 2 10 1 11 79 12 80 14
REMARK SMILES IDX 81 15 82 16 90 17 83 18 84 19 85 20 86 21 89 22 87 23 88 24
REMARK SMILES IDX 12 25 13 26 14 27 15 28 16 29 17 30 18 31 19 32 20 33 78 34
REMARK SMILES IDX 21 35 77 36 22 37 23 38 24 39 71 40 25 41 76 42 70 43 72 44
REMARK SMILES IDX 26 45 75 46 69 47 68 48 27 50 57 51 38 52 56 53 39 54 42 55
REMARK SMILES IDX 55 56 73 57 40 58 41 59 54 61 74 62 43 63 28 64 29 65 37 66
REMARK SMILES IDX 30 67 36 68 31 69 32 70 33 71 34 72 35 73 58 74 59 75 67 76
REMARK SMILES IDX 60 77 66 78 61 79 62 80 63 81 64 82 65 83 44 84 45 85 53 86
REMARK SMILES IDX 46 87 52 88 47 89 48 90 49 91 50 92 51 93
REMARK H PARENT 79 13 72 49 42 60
REMARK Flexibility Score: inf
ROOT
ATOM      1  C   UNL A   1      46.160  21.650  24.329  1.00  0.00     0.188 C 
ENDROOT
BRANCH   1   2
ATOM      2  O   UNL A   1      46.168  20.754  25.432  1.00  0.00    -0.376 OA
BRANCH   2   3
ATOM      3  C   UNL A   1      45.770  19.402  25.251  1.00  0.00     0.202 C 
BRANCH   3   4
ATOM      4  C   UNL A   1      44.283  19.013  25.300  1.00  0.00     0.261 C 
BRANCH   4   5
ATOM      5  O   UNL A   1      43.420  19.979  25.921  1.00  0.00    -0.460 OA
BRANCH   5   6
ATOM      6  C   UNL A   1      42.093  19.710  25.853  1.00  0.00     0.331 C 
ATOM      7  O   UNL A   1      41.576  18.604  25.836  1.00  0.00    -0.247 OA
BRANCH   6   8
ATOM      8  C   UNL A   1      41.270  20.933  25.933  1.00  0.00     0.099 C 
ATOM      9  C   UNL A   1      40.709  21.393  27.059  1.00  0.00     0.078 C 
BRANCH   9  10
ATOM     10  C   UNL A   1      39.898  22.633  27.131  1.00  0.00     0.244 C 
ATOM     11  O   UNL A   1      40.198  23.500  27.943  1.00  0.00    -0.270 OA
ATOM     12  N   UNL A   1      38.821  22.700  26.288  1.00  0.00    -0.348 N 
ATOM     13  H   UNL A   1      38.552  21.896  25.788  1.00  0.00     0.164 HD
BRANCH  12  14
ATOM     14  C   UNL A   1      38.068  23.924  26.113  1.00  0.00     0.163 C 
BRANCH  14  15
ATOM     15  C   UNL A   1      36.884  23.645  25.234  1.00  0.00     0.024 A 
ATOM     16  C   UNL A   1      36.856  23.052  23.986  1.00  0.00     0.018 A 
ATOM     17  S   UNL A   1      35.301  24.043  25.763  1.00  0.00    -0.138 S 
ATOM     18  C   UNL A   1      35.531  22.944  23.463  1.00  0.00     0.022 A 
ATOM     19  C   UNL A   1      34.585  23.468  24.321  1.00  0.00     0.045 A 
BRANCH  19  20
ATOM     20  C   UNL A   1      33.164  23.553  24.135  1.00  0.00     0.044 A 
ATOM     21  C   UNL A   1      32.491  23.730  22.942  1.00  0.00     0.021 A 
ATOM     22  S   UNL A   1      32.084  23.482  25.461  1.00  0.00    -0.143 S 
ATOM     23  C   UNL A   1      31.081  23.842  23.124  1.00  0.00     0.012 A 
ATOM     24  C   UNL A   1      30.726  23.742  24.450  1.00  0.00     0.065 A 
ENDBRANCH  19  20
ENDBRANCH  14  15
ENDBRANCH  12  14
ENDBRANCH   9  10
ENDBRANCH   6   8
ENDBRANCH   5   6
ENDBRANCH   4   5
ENDBRANCH   3   4
ENDBRANCH   2   3
ENDBRANCH   1   2
BRANCH   1  25
ATOM     25  C   UNL A   1      46.341  23.163  24.570  1.00  0.00     0.188 C 
BRANCH  25  26
ATOM     26  O   UNL A   1      45.182  23.934  24.359  1.00  0.00    -0.376 OA
BRANCH  26  27
ATOM     27  C   UNL A   1      43.945  23.507  24.901  1.00  0.00     0.202 C 
BRANCH  27  28
ATOM     28  C   UNL A   1      42.753  24.430  25.234  1.00  0.00     0.261 C 
BRANCH  28  29
ATOM     29  O   UNL A   1      43.019  25.719  25.793  1.00  0.00    -0.460 OA
BRANCH  29  30
ATOM     30  C   UNL A   1      43.035  25.801  27.142  1.00  0.00     0.338 C 
ATOM     31  O   UNL A   1      42.928  24.875  27.939  1.00  0.00    -0.246 OA
BRANCH  30  32
ATOM     32  C   UNL A   1      43.382  27.181  27.519  1.00  0.00     0.060 A 
ATOM     33  C   UNL A   1      44.367  27.391  28.493  1.00  0.00     0.016 A 
ATOM     34  C   UNL A   1      42.728  28.263  26.925  1.00  0.00     0.016 A 
ATOM     35  C   UNL A   1      44.687  28.690  28.892  1.00  0.00     0.010 A 
ATOM     36  C   UNL A   1      43.037  29.561  27.340  1.00  0.00     0.010 A 
ATOM     37  C   UNL A   1      43.999  29.780  28.342  1.00  0.00    -0.014 A 
BRANCH  37  38
ATOM     38  C   UNL A   1      44.164  31.132  28.929  1.00  0.00     0.031 A 
ATOM     39  C   UNL A   1      45.289  32.000  28.435  1.00  0.00     0.074 A 
ATOM     40  C   UNL A   1      43.327  31.585  29.880  1.00  0.00     0.049 A 
ATOM     41  N   UNL A   1      45.653  33.191  28.833  1.00  0.00    -0.248 NA
ATOM     42  C   UNL A   1      46.113  31.449  27.347  1.00  0.00     0.031 C 
ATOM     43  C   UNL A   1      42.173  30.860  30.410  1.00  0.00     0.029 A 
ATOM     44  N   UNL A   1      43.328  32.770  30.575  1.00  0.00    -0.354 N 
ATOM     45  C   UNL A   1      46.753  33.528  28.053  1.00  0.00     0.074 A 
ATOM     46  C   UNL A   1      47.012  32.406  27.178  1.00  0.00     0.031 C 
ATOM     47  C   UNL A   1      41.581  31.614  31.354  1.00  0.00     0.029 A 
ATOM     48  C   UNL A   1      42.335  32.856  31.522  1.00  0.00     0.049 A 
ATOM     49  H   UNL A   1      43.979  33.490  30.411  1.00  0.00     0.167 HD
ATOM     50  C   UNL A   1      47.482  34.670  28.063  1.00  0.00     0.031 A 
ATOM     51  C   UNL A   1      42.081  33.814  32.435  1.00  0.00     0.031 A 
ATOM     52  C   UNL A   1      47.237  35.775  28.951  1.00  0.00     0.049 A 
ATOM     53  C   UNL A   1      42.960  35.038  32.487  1.00  0.00     0.074 A 
ATOM     54  C   UNL A   1      47.912  36.981  29.031  1.00  0.00     0.029 A 
ATOM     55  N   UNL A   1      46.249  35.805  29.923  1.00  0.00    -0.354 N 
ATOM     56  N   UNL A   1      43.979  35.356  31.724  1.00  0.00    -0.248 NA
ATOM     57  C   UNL A   1      42.650  36.036  33.522  1.00  0.00     0.031 C 
ATOM     58  C   UNL A   1      47.372  37.714  30.092  1.00  0.00     0.029 A 
ATOM     59  C   UNL A   1      46.315  36.996  30.628  1.00  0.00     0.049 A 
ATOM     60  H   UNL A   1      45.596  35.087  30.088  1.00  0.00     0.167 HD
ATOM     61  C   UNL A   1      44.411  36.604  32.166  1.00  0.00     0.074 A 
ATOM     62  C   UNL A   1      43.534  36.987  33.253  1.00  0.00     0.031 C 
ATOM     63  C   UNL A   1      45.435  37.366  31.709  1.00  0.00     0.031 A 
BRANCH  50  64
ATOM     64  C   UNL A   1      48.643  34.758  27.108  1.00  0.00    -0.014 A 
ATOM     65  C   UNL A   1      49.924  34.301  27.470  1.00  0.00     0.010 A 
ATOM     66  C   UNL A   1      48.444  35.285  25.818  1.00  0.00     0.010 A 
ATOM     67  C   UNL A   1      50.992  34.410  26.576  1.00  0.00     0.020 A 
ATOM     68  C   UNL A   1      49.503  35.368  24.911  1.00  0.00     0.020 A 
ATOM     69  C   UNL A   1      50.775  34.947  25.303  1.00  0.00     0.054 A 
BRANCH  69  70
ATOM     70  S   UNL A   1      52.178  35.068  24.160  1.00  0.00     0.124 S 
ATOM     71  O   UNL A   1      53.308  35.182  25.080  1.00  0.00    -0.237 OA
ATOM     72  O   UNL A   1      52.097  33.811  23.420  1.00  0.00    -0.237 OA
ATOM     73  O   UNL A   1      51.888  36.268  23.379  1.00  0.00    -0.744 OA
ENDBRANCH  69  70
ENDBRANCH  50  64
BRANCH  51  74
ATOM     74  C   UNL A   1      40.949  33.654  33.390  1.00  0.00    -0.014 A 
ATOM     75  C   UNL A   1      39.650  34.061  33.037  1.00  0.00     0.010 A 
ATOM     76  C   UNL A   1      41.166  33.100  34.665  1.00  0.00     0.010 A 
ATOM     77  C   UNL A   1      38.595  33.933  33.945  1.00  0.00     0.020 A 
ATOM     78  C   UNL A   1      40.109  32.943  35.566  1.00  0.00     0.020 A 
ATOM     79  C   UNL A   1      38.831  33.371  35.204  1.00  0.00     0.054 A 
BRANCH  79  80
ATOM     80  S   UNL A   1      37.435  33.168  36.346  1.00  0.00     0.124 S 
ATOM     81  O   UNL A   1      37.435  31.726  36.572  1.00  0.00    -0.237 OA
ATOM     82  O   UNL A   1      37.840  33.988  37.484  1.00  0.00    -0.237 OA
ATOM     83  O   UNL A   1      36.297  33.684  35.589  1.00  0.00    -0.744 OA
ENDBRANCH  79  80
ENDBRANCH  51  74
BRANCH  63  84
ATOM     84  C   UNL A   1      45.644  38.716  32.349  1.00  0.00    -0.014 A 
ATOM     85  C   UNL A   1      44.990  39.865  31.870  1.00  0.00     0.010 A 
ATOM     86  C   UNL A   1      46.463  38.820  33.489  1.00  0.00     0.010 A 
ATOM     87  C   UNL A   1      45.178  41.099  32.500  1.00  0.00     0.020 A 
ATOM     88  C   UNL A   1      46.629  40.045  34.140  1.00  0.00     0.020 A 
ATOM     89  C   UNL A   1      45.996  41.180  33.633  1.00  0.00     0.054 A 
BRANCH  89  90
ATOM     90  S   UNL A   1      46.187  42.784  34.458  1.00  0.00     0.124 S 
ATOM     91  O   UNL A   1      47.636  42.958  34.454  1.00  0.00    -0.237 OA
ATOM     92  O   UNL A   1      45.441  43.685  33.584  1.00  0.00    -0.237 OA
ATOM     93  O   UNL A   1      45.590  42.569  35.776  1.00  0.00    -0.744 OA
ENDBRANCH  89  90
ENDBRANCH  63  84
ENDBRANCH  37  38
ENDBRANCH  30  32
ENDBRANCH  29  30
ENDBRANCH  28  29
ENDBRANCH  27  28
ENDBRANCH  26  27
ENDBRANCH  25  26
ENDBRANCH   1  25
TORSDOF 24
ENDMDL
MODEL 2
REMARK VINA RESULT:      -7.7      6.510     11.330
REMARK SMILES O=C(/C=C/C(=O)OCCOCCOCCOC(=O)c1ccc(-c2c3nc(c(-c4ccc(S(=O)(=O)[O-])cc4)c4ccc([nH]4)c(-c4ccc(S(=O)(=O)[O-])cc4)c4nc(c(-c5ccc(S(=O)(=O)[O-])cc5)c5ccc2[nH]5)C=C4)C=C3)cc1)NCc1ccc(-c2cccs2)s1
REMARK SMILES IDX 11 1 10 2 9 3 8 4 7 5 5 6 6 7 4 8 3 9 2 10 1 11 79 12 80 14
REMARK SMILES IDX 81 15 82 16 90 17 83 18 84 19 85 20 86 21 89 22 87 23 88 24
REMARK SMILES IDX 12 25 13 26 14 27 15 28 16 29 17 30 18 31 19 32 20 33 78 34
REMARK SMILES IDX 21 35 77 36 22 37 23 38 24 39 71 40 25 41 76 42 70 43 72 44
REMARK SMILES IDX 26 45 75 46 69 47 68 48 27 50 57 51 38 52 56 53 39 54 42 55
REMARK SMILES IDX 55 56 73 57 40 58 41 59 54 61 74 62 43 63 28 64 29 65 37 66
REMARK SMILES IDX 30 67 36 68 31 69 32 70 33 71 34 72 35 73 58 74 59 75 67 76
REMARK SMILES IDX 60 77 66 78 61 79 62 80 63 81 64 82 65 83 44 84 45 85 53 86
REMARK SMILES IDX 46 87 52 88 47 89 48 90 49 91 50 92 51 93
REMARK H PARENT 79 13 72 49 42 60
REMARK Flexibility Score: inf
ROOT
ATOM      1  C   UNL A   1      34.041  23.845  25.600  1.00  0.00     0.188 C 
ENDROOT
BRANCH   1   2
ATOM      2  O   UNL A   1      33.639  25.120  26.082  1.00  0.00    -0.376 OA
BRANCH   2   3
ATOM      3  C   UNL A   1      32.536  25.789  25.486  1.00  0.00     0.202 C 
BRANCH   3   4
ATOM      4  C   UNL A   1      31.677  26.764  26.308  1.00  0.00     0.261 C 
BRANCH   4   5
ATOM      5  O   UNL A   1      32.410  27.773  27.020  1.00  0.00    -0.460 OA
BRANCH   5   6
ATOM      6  C   UNL A   1      32.648  28.919  26.335  1.00  0.00     0.331 C 
ATOM      7  O   UNL A   1      31.980  29.369  25.418  1.00  0.00    -0.247 OA
BRANCH   6   8
ATOM      8  C   UNL A   1      33.774  29.686  26.903  1.00  0.00     0.099 C 
ATOM      9  C   UNL A   1      34.736  29.157  27.672  1.00  0.00     0.078 C 
BRANCH   9  10
ATOM     10  C   UNL A   1      35.873  29.933  28.224  1.00  0.00     0.244 C 
ATOM     11  O   UNL A   1      36.495  30.690  27.489  1.00  0.00    -0.270 OA
ATOM     12  N   UNL A   1      36.175  29.709  29.540  1.00  0.00    -0.348 N 
ATOM     13  H   UNL A   1      35.736  28.966  30.013  1.00  0.00     0.164 HD
BRANCH  12  14
ATOM     14  C   UNL A   1      37.123  30.537  30.254  1.00  0.00     0.163 C 
BRANCH  14  15
ATOM     15  C   UNL A   1      36.370  31.531  31.090  1.00  0.00     0.024 A 
ATOM     16  C   UNL A   1      35.967  31.420  32.407  1.00  0.00     0.018 A 
ATOM     17  S   UNL A   1      35.930  33.055  30.436  1.00  0.00    -0.138 S 
ATOM     18  C   UNL A   1      35.281  32.586  32.867  1.00  0.00     0.022 A 
ATOM     19  C   UNL A   1      35.169  33.549  31.885  1.00  0.00     0.045 A 
BRANCH  19  20
ATOM     20  C   UNL A   1      34.536  34.835  31.966  1.00  0.00     0.044 A 
ATOM     21  C   UNL A   1      34.603  35.729  33.017  1.00  0.00     0.021 A 
ATOM     22  S   UNL A   1      33.531  35.418  30.709  1.00  0.00    -0.143 S 
ATOM     23  C   UNL A   1      33.796  36.884  32.801  1.00  0.00     0.012 A 
ATOM     24  C   UNL A   1      33.145  36.835  31.590  1.00  0.00     0.065 A 
ENDBRANCH  19  20
ENDBRANCH  14  15
ENDBRANCH  12  14
ENDBRANCH   9  10
ENDBRANCH   6   8
ENDBRANCH   5   6
ENDBRANCH   4   5
ENDBRANCH   3   4
ENDBRANCH   2   3
ENDBRANCH   1   2
BRANCH   1  25
ATOM     25  C   UNL A   1      35.242  23.124  26.246  1.00  0.00     0.188 C 
BRANCH  25  26
ATOM     26  O   UNL A   1      36.494  23.466  25.700  1.00  0.00    -0.376 OA
BRANCH  26  27
ATOM     27  C   UNL A   1      37.292  22.466  25.090  1.00  0.00     0.202 C 
BRANCH  27  28
ATOM     28  C   UNL A   1      38.491  21.757  25.753  1.00  0.00     0.261 C 
BRANCH  28  29
ATOM     29  O   UNL A   1      39.480  22.552  26.413  1.00  0.00    -0.460 OA
BRANCH  29  30
ATOM     30  C   UNL A   1      40.745  22.076  26.399  1.00  0.00     0.338 C 
ATOM     31  O   UNL A   1      41.214  21.249  25.625  1.00  0.00    -0.246 OA
BRANCH  30  32
ATOM     32  C   UNL A   1      41.541  22.848  27.368  1.00  0.00     0.060 A 
ATOM     33  C   UNL A   1      40.987  24.004  27.933  1.00  0.00     0.016 A 
ATOM     34  C   UNL A   1      42.834  22.441  27.705  1.00  0.00     0.016 A 
ATOM     35  C   UNL A   1      41.737  24.771  28.827  1.00  0.00     0.010 A 
ATOM     36  C   UNL A   1      43.590  23.221  28.584  1.00  0.00     0.010 A 
ATOM     37  C   UNL A   1      43.055  24.402  29.130  1.00  0.00    -0.014 A 
BRANCH  37  38
ATOM     38  C   UNL A   1      43.930  25.333  29.882  1.00  0.00     0.031 A 
ATOM     39  C   UNL A   1      44.522  24.871  31.186  1.00  0.00     0.074 A 
ATOM     40  C   UNL A   1      44.201  26.565  29.416  1.00  0.00     0.049 A 
ATOM     41  N   UNL A   1      45.273  25.525  32.034  1.00  0.00    -0.248 NA
ATOM     42  C   UNL A   1      44.225  23.486  31.586  1.00  0.00     0.031 C 
ATOM     43  C   UNL A   1      43.727  27.115  28.146  1.00  0.00     0.029 A 
ATOM     44  N   UNL A   1      44.941  27.583  29.967  1.00  0.00    -0.354 N 
ATOM     45  C   UNL A   1      45.530  24.636  33.072  1.00  0.00     0.074 A 
ATOM     46  C   UNL A   1      44.834  23.407  32.760  1.00  0.00     0.031 C 
ATOM     47  C   UNL A   1      44.183  28.374  28.019  1.00  0.00     0.029 A 
ATOM     48  C   UNL A   1      44.947  28.733  29.214  1.00  0.00     0.049 A 
ATOM     49  H   UNL A   1      45.422  27.497  30.822  1.00  0.00     0.167 HD
ATOM     50  C   UNL A   1      46.279  24.826  34.184  1.00  0.00     0.031 A 
ATOM     51  C   UNL A   1      45.484  29.942  29.471  1.00  0.00     0.031 A 
ATOM     52  C   UNL A   1      46.950  26.058  34.504  1.00  0.00     0.049 A 
ATOM     53  C   UNL A   1      46.240  30.156  30.758  1.00  0.00     0.074 A 
ATOM     54  C   UNL A   1      47.743  26.345  35.602  1.00  0.00     0.029 A 
ATOM     55  N   UNL A   1      46.896  27.211  33.737  1.00  0.00    -0.354 N 
ATOM     56  N   UNL A   1      46.499  29.298  31.717  1.00  0.00    -0.248 NA
ATOM     57  C   UNL A   1      46.780  31.504  30.995  1.00  0.00     0.031 C 
ATOM     58  C   UNL A   1      48.117  27.691  35.529  1.00  0.00     0.029 A 
ATOM     59  C   UNL A   1      47.616  28.222  34.351  1.00  0.00     0.049 A 
ATOM     60  H   UNL A   1      46.417  27.299  32.881  1.00  0.00     0.167 HD
ATOM     61  C   UNL A   1      47.260  29.993  32.653  1.00  0.00     0.074 A 
ATOM     62  C   UNL A   1      47.428  31.337  32.140  1.00  0.00     0.031 C 
ATOM     63  C   UNL A   1      47.777  29.556  33.829  1.00  0.00     0.031 A 
BRANCH  50  64
ATOM     64  C   UNL A   1      46.373  23.681  35.158  1.00  0.00    -0.014 A 
ATOM     65  C   UNL A   1      45.581  23.642  36.320  1.00  0.00     0.010 A 
ATOM     66  C   UNL A   1      47.252  22.614  34.894  1.00  0.00     0.010 A 
ATOM     67  C   UNL A   1      45.699  22.581  37.221  1.00  0.00     0.020 A 
ATOM     68  C   UNL A   1      47.351  21.536  35.777  1.00  0.00     0.020 A 
ATOM     69  C   UNL A   1      46.586  21.536  36.945  1.00  0.00     0.054 A 
BRANCH  69  70
ATOM     70  S   UNL A   1      46.711  20.166  38.127  1.00  0.00     0.124 S 
ATOM     71  O   UNL A   1      48.141  20.160  38.431  1.00  0.00    -0.237 OA
ATOM     72  O   UNL A   1      45.840  20.602  39.215  1.00  0.00    -0.237 OA
ATOM     73  O   UNL A   1      46.231  19.011  37.373  1.00  0.00    -0.744 OA
ENDBRANCH  69  70
ENDBRANCH  50  64
BRANCH  51  74
ATOM     74  C   UNL A   1      45.319  31.056  28.496  1.00  0.00    -0.014 A 
ATOM     75  C   UNL A   1      44.183  31.883  28.538  1.00  0.00     0.010 A 
ATOM     76  C   UNL A   1      46.295  31.290  27.510  1.00  0.00     0.010 A 
ATOM     77  C   UNL A   1      44.018  32.911  27.605  1.00  0.00     0.020 A 
ATOM     78  C   UNL A   1      46.149  32.335  26.593  1.00  0.00     0.020 A 
ATOM     79  C   UNL A   1      45.005  33.133  26.640  1.00  0.00     0.054 A 
BRANCH  79  80
ATOM     80  S   UNL A   1      44.793  34.505  25.472  1.00  0.00     0.124 S 
ATOM     81  O   UNL A   1      45.986  35.307  25.726  1.00  0.00    -0.237 OA
ATOM     82  O   UNL A   1      44.752  33.818  24.185  1.00  0.00    -0.237 OA
ATOM     83  O   UNL A   1      43.530  35.114  25.886  1.00  0.00    -0.744 OA
ENDBRANCH  79  80
ENDBRANCH  51  74
BRANCH  63  84
ATOM     84  C   UNL A   1      48.615  30.523  34.627  1.00  0.00    -0.014 A 
ATOM     85  C   UNL A   1      48.052  31.325  35.635  1.00  0.00     0.010 A 
ATOM     86  C   UNL A   1      50.004  30.584  34.402  1.00  0.00     0.010 A 
ATOM     87  C   UNL A   1      48.856  32.193  36.381  1.00  0.00     0.020 A 
ATOM     88  C   UNL A   1      50.815  31.426  35.166  1.00  0.00     0.020 A 
ATOM     89  C   UNL A   1      50.234  32.236  36.141  1.00  0.00     0.054 A 
BRANCH  89  90
ATOM     90  S   UNL A   1      51.261  33.336  37.153  1.00  0.00     0.124 S 
ATOM     91  O   UNL A   1      50.764  34.655  36.771  1.00  0.00    -0.237 OA
ATOM     92  O   UNL A   1      50.941  32.913  38.514  1.00  0.00    -0.237 OA
ATOM     93  O   UNL A   1      52.625  33.035  36.718  1.00  0.00    -0.744 OA
ENDBRANCH  89  90
ENDBRANCH  63  84
ENDBRANCH  37  38
ENDBRANCH  30  32
ENDBRANCH  29  30
ENDBRANCH  28  29
ENDBRANCH  27  28
ENDBRANCH  26  27
ENDBRANCH  25  26
ENDBRANCH   1  25
TORSDOF 24
ENDMDL
MODEL 3
REMARK VINA RESULT:      -7.2      5.384     12.007
REMARK SMILES O=C(/C=C/C(=O)OCCOCCOCCOC(=O)c1ccc(-c2c3nc(c(-c4ccc(S(=O)(=O)[O-])cc4)c4ccc([nH]4)c(-c4ccc(S(=O)(=O)[O-])cc4)c4nc(c(-c5ccc(S(=O)(=O)[O-])cc5)c5ccc2[nH]5)C=C4)C=C3)cc1)NCc1ccc(-c2cccs2)s1
REMARK SMILES IDX 11 1 10 2 9 3 8 4 7 5 5 6 6 7 4 8 3 9 2 10 1 11 79 12 80 14
REMARK SMILES IDX 81 15 82 16 90 17 83 18 84 19 85 20 86 21 89 22 87 23 88 24
REMARK SMILES IDX 12 25 13 26 14 27 15 28 16 29 17 30 18 31 19 32 20 33 78 34
REMARK SMILES IDX 21 35 77 36 22 37 23 38 24 39 71 40 25 41 76 42 70 43 72 44
REMARK SMILES IDX 26 45 75 46 69 47 68 48 27 50 57 51 38 52 56 53 39 54 42 55
REMARK SMILES IDX 55 56 73 57 40 58 41 59 54 61 74 62 43 63 28 64 29 65 37 66
REMARK SMILES IDX 30 67 36 68 31 69 32 70 33 71 34 72 35 73 58 74 59 75 67 76
REMARK SMILES IDX 60 77 66 78 61 79 62 80 63 81 64 82 65 83 44 84 45 85 53 86
REMARK SMILES IDX 46 87 52 88 47 89 48 90 49 91 50 92 51 93
REMARK H PARENT 79 13 72 49 42 60
REMARK Flexibility Score: inf
ROOT
ATOM      1  C   UNL A   1      42.942  41.497  33.388  1.00  0.00     0.188 C 
ENDROOT
BRANCH   1   2
ATOM      2  O   UNL A   1      42.690  40.328  34.157  1.00  0.00    -0.376 OA
BRANCH   2   3
ATOM      3  C   UNL A   1      43.468  39.158  33.945  1.00  0.00     0.202 C 
BRANCH   3   4
ATOM      4  C   UNL A   1      43.486  38.032  34.992  1.00  0.00     0.261 C 
BRANCH   4   5
ATOM      5  O   UNL A   1      42.664  36.896  34.681  1.00  0.00    -0.460 OA
BRANCH   5   6
ATOM      6  C   UNL A   1      42.302  36.126  35.736  1.00  0.00     0.331 C 
ATOM      7  O   UNL A   1      42.774  36.169  36.861  1.00  0.00    -0.247 OA
BRANCH   6   8
ATOM      8  C   UNL A   1      41.141  35.267  35.430  1.00  0.00     0.099 C 
ATOM      9  C   UNL A   1      40.403  35.366  34.316  1.00  0.00     0.078 C 
BRANCH   9  10
ATOM     10  C   UNL A   1      39.248  34.486  34.011  1.00  0.00     0.244 C 
ATOM     11  O   UNL A   1      38.805  33.752  34.886  1.00  0.00    -0.270 OA
ATOM     12  N   UNL A   1      38.776  34.534  32.727  1.00  0.00    -0.348 N 
ATOM     13  H   UNL A   1      39.289  35.023  32.044  1.00  0.00     0.164 HD
BRANCH  12  14
ATOM     14  C   UNL A   1      37.540  33.884  32.347  1.00  0.00     0.163 C 
BRANCH  14  15
ATOM     15  C   UNL A   1      37.829  32.876  31.274  1.00  0.00     0.024 A 
ATOM     16  C   UNL A   1      37.913  33.070  29.908  1.00  0.00     0.018 A 
ATOM     17  S   UNL A   1      38.146  31.241  31.685  1.00  0.00    -0.138 S 
ATOM     18  C   UNL A   1      38.223  31.866  29.204  1.00  0.00     0.022 A 
ATOM     19  C   UNL A   1      38.353  30.784  30.050  1.00  0.00     0.045 A 
BRANCH  19  20
ATOM     20  C   UNL A   1      38.642  29.419  29.713  1.00  0.00     0.044 A 
ATOM     21  C   UNL A   1      38.821  28.366  30.589  1.00  0.00     0.021 A 
ATOM     22  S   UNL A   1      38.851  28.925  28.087  1.00  0.00    -0.143 S 
ATOM     23  C   UNL A   1      39.166  27.154  29.921  1.00  0.00     0.012 A 
ATOM     24  C   UNL A   1      39.233  27.323  28.556  1.00  0.00     0.065 A 
ENDBRANCH  19  20
ENDBRANCH  14  15
ENDBRANCH  12  14
ENDBRANCH   9  10
ENDBRANCH   6   8
ENDBRANCH   5   6
ENDBRANCH   4   5
ENDBRANCH   3   4
ENDBRANCH   2   3
ENDBRANCH   1   2
BRANCH   1  25
ATOM     25  C   UNL A   1      42.206  41.708  32.049  1.00  0.00     0.188 C 
BRANCH  25  26
ATOM     26  O   UNL A   1      42.747  40.994  30.964  1.00  0.00    -0.376 OA
BRANCH  26  27
ATOM     27  C   UNL A   1      42.280  41.249  29.650  1.00  0.00     0.202 C 
BRANCH  27  28
ATOM     28  C   UNL A   1      42.467  40.309  28.441  1.00  0.00     0.261 C 
BRANCH  28  29
ATOM     29  O   UNL A   1      42.933  38.977  28.672  1.00  0.00    -0.460 OA
BRANCH  29  30
ATOM     30  C   UNL A   1      43.259  38.252  27.579  1.00  0.00     0.338 C 
ATOM     31  O   UNL A   1      43.389  38.665  26.432  1.00  0.00    -0.246 OA
BRANCH  30  32
ATOM     32  C   UNL A   1      43.615  36.891  28.014  1.00  0.00     0.060 A 
ATOM     33  C   UNL A   1      42.671  35.866  27.872  1.00  0.00     0.016 A 
ATOM     34  C   UNL A   1      44.869  36.631  28.571  1.00  0.00     0.016 A 
ATOM     35  C   UNL A   1      42.973  34.575  28.309  1.00  0.00     0.010 A 
ATOM     36  C   UNL A   1      45.162  35.342  29.026  1.00  0.00     0.010 A 
ATOM     37  C   UNL A   1      44.208  34.314  28.920  1.00  0.00    -0.014 A 
BRANCH  37  38
ATOM     38  C   UNL A   1      44.440  33.015  29.597  1.00  0.00     0.031 A 
ATOM     39  C   UNL A   1      45.061  31.894  28.810  1.00  0.00     0.074 A 
ATOM     40  C   UNL A   1      44.111  32.835  30.889  1.00  0.00     0.049 A 
ATOM     41  N   UNL A   1      45.312  30.664  29.177  1.00  0.00    -0.248 NA
ATOM     42  C   UNL A   1      45.449  32.202  27.424  1.00  0.00     0.031 C 
ATOM     43  C   UNL A   1      43.546  33.855  31.771  1.00  0.00     0.029 A 
ATOM     44  N   UNL A   1      44.201  31.717  31.682  1.00  0.00    -0.354 N 
ATOM     45  C   UNL A   1      45.878  30.049  28.066  1.00  0.00     0.074 A 
ATOM     46  C   UNL A   1      45.908  31.032  27.006  1.00  0.00     0.031 C 
ATOM     47  C   UNL A   1      43.333  33.313  32.983  1.00  0.00     0.029 A 
ATOM     48  C   UNL A   1      43.709  31.900  32.952  1.00  0.00     0.049 A 
ATOM     49  H   UNL A   1      44.582  30.864  31.369  1.00  0.00     0.167 HD
ATOM     50  C   UNL A   1      46.333  28.778  27.940  1.00  0.00     0.031 A 
ATOM     51  C   UNL A   1      43.557  31.021  33.964  1.00  0.00     0.031 A 
ATOM     52  C   UNL A   1      46.278  27.795  28.989  1.00  0.00     0.049 A 
ATOM     53  C   UNL A   1      43.989  29.590  33.771  1.00  0.00     0.074 A 
ATOM     54  C   UNL A   1      46.724  26.485  28.963  1.00  0.00     0.029 A 
ATOM     55  N   UNL A   1      45.735  28.008  30.246  1.00  0.00    -0.354 N 
ATOM     56  N   UNL A   1      44.548  29.029  32.725  1.00  0.00    -0.248 NA
ATOM     57  C   UNL A   1      43.773  28.673  34.901  1.00  0.00     0.031 C 
ATOM     58  C   UNL A   1      46.393  25.888  30.183  1.00  0.00     0.029 A 
ATOM     59  C   UNL A   1      45.805  26.844  30.995  1.00  0.00     0.049 A 
ATOM     60  H   UNL A   1      45.354  28.859  30.561  1.00  0.00     0.167 HD
ATOM     61  C   UNL A   1      44.780  27.704  33.082  1.00  0.00     0.074 A 
ATOM     62  C   UNL A   1      44.312  27.550  34.444  1.00  0.00     0.031 C 
ATOM     63  C   UNL A   1      45.336  26.705  32.351  1.00  0.00     0.031 A 
BRANCH  50  64
ATOM     64  C   UNL A   1      46.889  28.373  26.600  1.00  0.00    -0.014 A 
ATOM     65  C   UNL A   1      46.049  28.185  25.487  1.00  0.00     0.010 A 
ATOM     66  C   UNL A   1      48.276  28.200  26.447  1.00  0.00     0.010 A 
ATOM     67  C   UNL A   1      46.583  27.788  24.258  1.00  0.00     0.020 A 
ATOM     68  C   UNL A   1      48.817  27.833  25.213  1.00  0.00     0.020 A 
ATOM     69  C   UNL A   1      47.964  27.611  24.130  1.00  0.00     0.054 A 
BRANCH  69  70
ATOM     70  S   UNL A   1      48.631  27.106  22.521  1.00  0.00     0.124 S 
ATOM     71  O   UNL A   1      48.469  25.655  22.570  1.00  0.00    -0.237 OA
ATOM     72  O   UNL A   1      47.758  27.803  21.580  1.00  0.00    -0.237 OA
ATOM     73  O   UNL A   1      50.013  27.579  22.552  1.00  0.00    -0.744 OA
ENDBRANCH  69  70
ENDBRANCH  50  64
BRANCH  51  74
ATOM     74  C   UNL A   1      42.954  31.464  35.252  1.00  0.00    -0.014 A 
ATOM     75  C   UNL A   1      43.761  31.988  36.278  1.00  0.00     0.010 A 
ATOM     76  C   UNL A   1      41.567  31.355  35.464  1.00  0.00     0.010 A 
ATOM     77  C   UNL A   1      43.196  32.378  37.496  1.00  0.00     0.020 A 
ATOM     78  C   UNL A   1      40.994  31.772  36.669  1.00  0.00     0.020 A 
ATOM     79  C   UNL A   1      41.814  32.271  37.682  1.00  0.00     0.054 A 
BRANCH  79  80
ATOM     80  S   UNL A   1      41.098  32.832  39.252  1.00  0.00     0.124 S 
ATOM     81  O   UNL A   1      41.537  34.223  39.306  1.00  0.00    -0.237 OA
ATOM     82  O   UNL A   1      39.668  32.626  39.036  1.00  0.00    -0.237 OA
ATOM     83  O   UNL A   1      41.706  31.944  40.241  1.00  0.00    -0.744 OA
ENDBRANCH  79  80
ENDBRANCH  51  74
BRANCH  63  84
ATOM     84  C   UNL A   1      45.514  25.365  33.018  1.00  0.00    -0.014 A 
ATOM     85  C   UNL A   1      46.593  25.112  33.883  1.00  0.00     0.010 A 
ATOM     86  C   UNL A   1      44.547  24.361  32.820  1.00  0.00     0.010 A 
ATOM     87  C   UNL A   1      46.719  23.870  34.512  1.00  0.00     0.020 A 
ATOM     88  C   UNL A   1      44.652  23.130  33.472  1.00  0.00     0.020 A 
ATOM     89  C   UNL A   1      45.746  22.886  34.303  1.00  0.00     0.054 A 
BRANCH  89  90
ATOM     90  S   UNL A   1      45.908  21.299  35.167  1.00  0.00     0.124 S 
ATOM     91  O   UNL A   1      44.640  20.648  34.849  1.00  0.00    -0.237 OA
ATOM     92  O   UNL A   1      47.091  20.714  34.541  1.00  0.00    -0.237 OA
ATOM     93  O   UNL A   1      46.077  21.683  36.568  1.00  0.00    -0.744 OA
ENDBRANCH  89  90
ENDBRANCH  63  84
ENDBRANCH  37  38
ENDBRANCH  30  32
ENDBRANCH  29  30
ENDBRANCH  28  29
ENDBRANCH  27  28
ENDBRANCH  26  27
ENDBRANCH  25  26
ENDBRANCH   1  25
TORSDOF 24
ENDMDL
