MODEL 1
REMARK VINA RESULT:      -9.2      0.000      0.000
REMARK SMILES CN(CCS(C)(=O)=O)C(=O)Nc1cccc(C(=O)OCCOCCOCCOC(=O)c2ccc(-c3c4nc(c(-c5ccc(S(=O)(=O)[O-])cc5)c5ccc([nH]5)c(-c5ccc(S(=O)(=O)[O-])cc5)c5nc(c(-c6ccc(S(=O)(=O)[O-])cc6)c6ccc3[nH]6)C=C5)C=C4)cc2)c1
REMARK SMILES IDX 23 1 22 2 21 3 20 4 19 5 17 6 18 7 16 8 12 9 13 10 91 11
REMARK SMILES IDX 14 12 15 13 11 14 9 15 10 16 2 18 1 19 3 20 4 21 5 22 6 23
REMARK SMILES IDX 7 24 8 25 24 26 25 27 26 28 27 29 28 30 29 31 30 32 31 33
REMARK SMILES IDX 32 34 90 35 33 36 89 37 34 38 35 39 36 40 83 41 37 42 88 43
REMARK SMILES IDX 82 44 84 45 38 46 87 47 81 48 80 49 39 51 69 52 50 53 68 54
REMARK SMILES IDX 51 55 54 56 67 57 85 58 52 59 53 60 66 62 86 63 55 64 40 65
REMARK SMILES IDX 41 66 49 67 42 68 48 69 43 70 44 71 45 72 46 73 47 74 70 75
REMARK SMILES IDX 71 76 79 77 72 78 78 79 73 80 74 81 75 82 76 83 77 84 56 85
REMARK SMILES IDX 57 86 65 87 58 88 64 89 59 90 60 91 61 92 62 93 63 94
REMARK H PARENT 11 17 84 50 54 61
REMARK Flexibility Score: inf
ROOT
ATOM      1  C   UNL A   1      34.117  24.809  26.124  1.00  0.00     0.188 C 
ENDROOT
BRANCH   1   2
ATOM      2  O   UNL A   1      32.844  25.303  25.718  1.00  0.00    -0.376 OA
BRANCH   2   3
ATOM      3  C   UNL A   1      32.136  26.215  26.535  1.00  0.00     0.202 C 
BRANCH   3   4
ATOM      4  C   UNL A   1      30.758  26.638  26.031  1.00  0.00     0.261 C 
BRANCH   4   5
ATOM      5  O   UNL A   1      30.791  27.665  25.033  1.00  0.00    -0.460 OA
BRANCH   5   6
ATOM      6  C   UNL A   1      30.356  27.291  23.801  1.00  0.00     0.338 C 
ATOM      7  O   UNL A   1      29.299  27.576  23.270  1.00  0.00    -0.246 OA
BRANCH   6   8
ATOM      8  C   UNL A   1      31.438  26.535  23.137  1.00  0.00     0.062 A 
ATOM      9  C   UNL A   1      32.361  24.422  22.423  1.00  0.00     0.043 A 
ATOM     10  C   UNL A   1      33.534  25.106  22.050  1.00  0.00     0.026 A 
ATOM     11  C   UNL A   1      31.295  25.158  22.900  1.00  0.00     0.041 A 
ATOM     12  C   UNL A   1      33.652  26.490  22.206  1.00  0.00     0.003 A 
ATOM     13  C   UNL A   1      32.606  27.207  22.773  1.00  0.00     0.016 A 
BRANCH   9  14
ATOM     14  N   UNL A   1      32.370  23.040  22.226  1.00  0.00    -0.308 N 
ATOM     15  C   UNL A   1      32.025  21.899  22.840  1.00  0.00     0.321 C 
ATOM     16  O   UNL A   1      31.895  20.959  22.041  1.00  0.00    -0.248 OA
ATOM     17  H   UNL A   1      32.759  22.835  21.346  1.00  0.00     0.171 HD
BRANCH  15  18
ATOM     18  N   UNL A   1      31.824  21.709  24.171  1.00  0.00    -0.327 N 
ATOM     19  C   UNL A   1      31.016  22.748  24.816  1.00  0.00     0.148 C 
BRANCH  18  20
ATOM     20  C   UNL A   1      32.146  20.615  25.096  1.00  0.00     0.137 C 
BRANCH  20  21
ATOM     21  C   UNL A   1      33.312  19.666  24.938  1.00  0.00     0.158 C 
BRANCH  21  22
ATOM     22  S   UNL A   1      33.014  17.987  24.476  1.00  0.00     0.149 S 
ATOM     23  C   UNL A   1      34.654  17.299  24.370  1.00  0.00     0.158 C 
ATOM     24  O   UNL A   1      32.374  17.351  25.616  1.00  0.00    -0.229 OA
ATOM     25  O   UNL A   1      32.392  17.926  23.172  1.00  0.00    -0.229 OA
ENDBRANCH  21  22
ENDBRANCH  20  21
ENDBRANCH  18  20
ENDBRANCH  15  18
ENDBRANCH   9  14
ENDBRANCH   6   8
ENDBRANCH   5   6
ENDBRANCH   4   5
ENDBRANCH   3   4
ENDBRANCH   2   3
ENDBRANCH   1   2
BRANCH   1  26
ATOM     26  C   UNL A   1      34.488  23.329  25.937  1.00  0.00     0.188 C 
BRANCH  26  27
ATOM     27  O   UNL A   1      34.850  22.980  24.606  1.00  0.00    -0.376 OA
BRANCH  27  28
ATOM     28  C   UNL A   1      36.010  22.160  24.473  1.00  0.00     0.202 C 
BRANCH  28  29
ATOM     29  C   UNL A   1      37.294  22.906  24.849  1.00  0.00     0.261 C 
BRANCH  29  30
ATOM     30  O   UNL A   1      37.789  22.610  26.164  1.00  0.00    -0.460 OA
BRANCH  30  31
ATOM     31  C   UNL A   1      39.123  22.718  26.360  1.00  0.00     0.338 C 
ATOM     32  O   UNL A   1      39.982  21.929  26.015  1.00  0.00    -0.246 OA
BRANCH  31  33
ATOM     33  C   UNL A   1      39.392  24.073  26.887  1.00  0.00     0.060 A 
ATOM     34  C   UNL A   1      40.069  24.990  26.073  1.00  0.00     0.016 A 
ATOM     35  C   UNL A   1      38.953  24.445  28.160  1.00  0.00     0.016 A 
ATOM     36  C   UNL A   1      40.328  26.280  26.543  1.00  0.00     0.010 A 
ATOM     37  C   UNL A   1      39.226  25.729  28.633  1.00  0.00     0.010 A 
ATOM     38  C   UNL A   1      39.934  26.646  27.838  1.00  0.00    -0.014 A 
BRANCH  38  39
ATOM     39  C   UNL A   1      40.409  27.912  28.445  1.00  0.00     0.031 A 
ATOM     40  C   UNL A   1      41.837  27.983  28.916  1.00  0.00     0.074 A 
ATOM     41  C   UNL A   1      39.595  28.972  28.601  1.00  0.00     0.049 A 
ATOM     42  N   UNL A   1      42.449  28.937  29.567  1.00  0.00    -0.248 NA
ATOM     43  C   UNL A   1      42.686  26.818  28.609  1.00  0.00     0.031 C 
ATOM     44  C   UNL A   1      38.206  29.052  28.147  1.00  0.00     0.029 A 
ATOM     45  N   UNL A   1      39.822  30.185  29.204  1.00  0.00    -0.354 N 
ATOM     46  C   UNL A   1      43.753  28.491  29.748  1.00  0.00     0.074 A 
ATOM     47  C   UNL A   1      43.837  27.172  29.162  1.00  0.00     0.031 C 
ATOM     48  C   UNL A   1      37.702  30.248  28.504  1.00  0.00     0.029 A 
ATOM     49  C   UNL A   1      38.715  31.001  29.242  1.00  0.00     0.049 A 
ATOM     50  H   UNL A   1      40.696  30.446  29.575  1.00  0.00     0.167 HD
ATOM     51  C   UNL A   1      44.790  29.124  30.343  1.00  0.00     0.031 A 
ATOM     52  C   UNL A   1      38.536  32.201  29.830  1.00  0.00     0.031 A 
ATOM     53  C   UNL A   1      44.703  30.419  30.959  1.00  0.00     0.049 A 
ATOM     54  C   UNL A   1      39.677  32.838  30.587  1.00  0.00     0.074 A 
ATOM     55  C   UNL A   1      45.695  31.130  31.611  1.00  0.00     0.029 A 
ATOM     56  N   UNL A   1      43.556  31.195  31.003  1.00  0.00    -0.354 N 
ATOM     57  N   UNL A   1      40.906  32.407  30.744  1.00  0.00    -0.248 NA
ATOM     58  C   UNL A   1      39.405  34.124  31.246  1.00  0.00     0.031 C 
ATOM     59  C   UNL A   1      45.135  32.320  32.088  1.00  0.00     0.029 A 
ATOM     60  C   UNL A   1      43.811  32.373  31.684  1.00  0.00     0.049 A 
ATOM     61  H   UNL A   1      42.688  30.946  30.609  1.00  0.00     0.167 HD
ATOM     62  C   UNL A   1      41.560  33.386  31.486  1.00  0.00     0.074 A 
ATOM     63  C   UNL A   1      40.595  34.433  31.745  1.00  0.00     0.031 C 
ATOM     64  C   UNL A   1      42.847  33.418  31.912  1.00  0.00     0.031 A 
BRANCH  51  65
ATOM     65  C   UNL A   1      46.109  28.404  30.375  1.00  0.00    -0.014 A 
ATOM     66  C   UNL A   1      46.432  27.544  31.440  1.00  0.00     0.010 A 
ATOM     67  C   UNL A   1      47.021  28.561  29.316  1.00  0.00     0.010 A 
ATOM     68  C   UNL A   1      47.659  26.878  31.461  1.00  0.00     0.020 A 
ATOM     69  C   UNL A   1      48.239  27.878  29.321  1.00  0.00     0.020 A 
ATOM     70  C   UNL A   1      48.557  27.053  30.402  1.00  0.00     0.054 A 
BRANCH  70  71
ATOM     71  S   UNL A   1      50.134  26.158  30.445  1.00  0.00     0.124 S 
ATOM     72  O   UNL A   1      50.361  25.881  29.029  1.00  0.00    -0.237 OA
ATOM     73  O   UNL A   1      51.040  27.134  31.047  1.00  0.00    -0.237 OA
ATOM     74  O   UNL A   1      49.846  24.988  31.271  1.00  0.00    -0.744 OA
ENDBRANCH  70  71
ENDBRANCH  51  65
BRANCH  52  75
ATOM     75  C   UNL A   1      37.212  32.883  29.766  1.00  0.00    -0.014 A 
ATOM     76  C   UNL A   1      36.767  33.468  28.568  1.00  0.00     0.010 A 
ATOM     77  C   UNL A   1      36.413  32.994  30.918  1.00  0.00     0.010 A 
ATOM     78  C   UNL A   1      35.562  34.177  28.529  1.00  0.00     0.020 A 
ATOM     79  C   UNL A   1      35.194  33.678  30.877  1.00  0.00     0.020 A 
ATOM     80  C   UNL A   1      34.786  34.282  29.687  1.00  0.00     0.054 A 
BRANCH  80  81
ATOM     81  S   UNL A   1      33.218  35.194  29.612  1.00  0.00     0.124 S 
ATOM     82  O   UNL A   1      32.546  34.548  28.488  1.00  0.00    -0.237 OA
ATOM     83  O   UNL A   1      32.638  34.937  30.928  1.00  0.00    -0.237 OA
ATOM     84  O   UNL A   1      33.636  36.575  29.383  1.00  0.00    -0.744 OA
ENDBRANCH  80  81
ENDBRANCH  52  75
BRANCH  64  85
ATOM     85  C   UNL A   1      43.319  34.642  32.649  1.00  0.00    -0.014 A 
ATOM     86  C   UNL A   1      43.803  35.769  31.963  1.00  0.00     0.010 A 
ATOM     87  C   UNL A   1      43.181  34.699  34.049  1.00  0.00     0.010 A 
ATOM     88  C   UNL A   1      44.152  36.927  32.665  1.00  0.00     0.020 A 
ATOM     89  C   UNL A   1      43.508  35.862  34.752  1.00  0.00     0.020 A 
ATOM     90  C   UNL A   1      43.998  36.967  34.055  1.00  0.00     0.054 A 
BRANCH  90  91
ATOM     91  S   UNL A   1      44.383  38.507  34.935  1.00  0.00     0.124 S 
ATOM     92  O   UNL A   1      43.321  39.396  34.471  1.00  0.00    -0.237 OA
ATOM     93  O   UNL A   1      44.300  38.106  36.337  1.00  0.00    -0.237 OA
ATOM     94  O   UNL A   1      45.727  38.845  34.469  1.00  0.00    -0.744 OA
ENDBRANCH  90  91
ENDBRANCH  64  85
ENDBRANCH  38  39
ENDBRANCH  31  33
ENDBRANCH  30  31
ENDBRANCH  29  30
ENDBRANCH  28  29
ENDBRANCH  27  28
ENDBRANCH  26  27
ENDBRANCH   1  26
TORSDOF 25
ENDMDL
MODEL 2
REMARK VINA RESULT:      -9.1      3.882      9.537
REMARK SMILES CN(CCS(C)(=O)=O)C(=O)Nc1cccc(C(=O)OCCOCCOCCOC(=O)c2ccc(-c3c4nc(c(-c5ccc(S(=O)(=O)[O-])cc5)c5ccc([nH]5)c(-c5ccc(S(=O)(=O)[O-])cc5)c5nc(c(-c6ccc(S(=O)(=O)[O-])cc6)c6ccc3[nH]6)C=C5)C=C4)cc2)c1
REMARK SMILES IDX 23 1 22 2 21 3 20 4 19 5 17 6 18 7 16 8 12 9 13 10 91 11
REMARK SMILES IDX 14 12 15 13 11 14 9 15 10 16 2 18 1 19 3 20 4 21 5 22 6 23
REMARK SMILES IDX 7 24 8 25 24 26 25 27 26 28 27 29 28 30 29 31 30 32 31 33
REMARK SMILES IDX 32 34 90 35 33 36 89 37 34 38 35 39 36 40 83 41 37 42 88 43
REMARK SMILES IDX 82 44 84 45 38 46 87 47 81 48 80 49 39 51 69 52 50 53 68 54
REMARK SMILES IDX 51 55 54 56 67 57 85 58 52 59 53 60 66 62 86 63 55 64 40 65
REMARK SMILES IDX 41 66 49 67 42 68 48 69 43 70 44 71 45 72 46 73 47 74 70 75
REMARK SMILES IDX 71 76 79 77 72 78 78 79 73 80 74 81 75 82 76 83 77 84 56 85
REMARK SMILES IDX 57 86 65 87 58 88 64 89 59 90 60 91 61 92 62 93 63 94
REMARK H PARENT 11 17 84 50 54 61
REMARK Flexibility Score: inf
ROOT
ATOM      1  C   UNL A   1      33.767  31.017  27.494  1.00  0.00     0.188 C 
ENDROOT
BRANCH   1   2
ATOM      2  O   UNL A   1      32.540  30.341  27.234  1.00  0.00    -0.376 OA
BRANCH   2   3
ATOM      3  C   UNL A   1      31.839  30.571  26.027  1.00  0.00     0.202 C 
BRANCH   3   4
ATOM      4  C   UNL A   1      31.433  29.328  25.239  1.00  0.00     0.261 C 
BRANCH   4   5
ATOM      5  O   UNL A   1      31.879  28.097  25.819  1.00  0.00    -0.460 OA
BRANCH   5   6
ATOM      6  C   UNL A   1      32.795  27.409  25.087  1.00  0.00     0.338 C 
ATOM      7  O   UNL A   1      33.860  27.815  24.662  1.00  0.00    -0.246 OA
BRANCH   6   8
ATOM      8  C   UNL A   1      32.331  26.013  24.959  1.00  0.00     0.062 A 
ATOM      9  C   UNL A   1      32.411  23.719  25.707  1.00  0.00     0.043 A 
ATOM     10  C   UNL A   1      31.593  23.376  24.613  1.00  0.00     0.026 A 
ATOM     11  C   UNL A   1      32.714  25.051  25.908  1.00  0.00     0.041 A 
ATOM     12  C   UNL A   1      31.138  24.342  23.711  1.00  0.00     0.003 A 
ATOM     13  C   UNL A   1      31.526  25.666  23.872  1.00  0.00     0.016 A 
BRANCH   9  14
ATOM     14  N   UNL A   1      32.806  22.663  26.530  1.00  0.00    -0.308 N 
ATOM     15  C   UNL A   1      33.783  21.755  26.659  1.00  0.00     0.321 C 
ATOM     16  O   UNL A   1      33.848  21.298  27.811  1.00  0.00    -0.248 OA
ATOM     17  H   UNL A   1      32.151  22.547  27.256  1.00  0.00     0.171 HD
BRANCH  15  18
ATOM     18  N   UNL A   1      34.641  21.326  25.695  1.00  0.00    -0.327 N 
ATOM     19  C   UNL A   1      35.906  22.063  25.639  1.00  0.00     0.148 C 
BRANCH  18  20
ATOM     20  C   UNL A   1      34.627  20.195  24.760  1.00  0.00     0.137 C 
BRANCH  20  21
ATOM     21  C   UNL A   1      33.440  19.290  24.517  1.00  0.00     0.158 C 
BRANCH  21  22
ATOM     22  S   UNL A   1      33.707  17.581  24.155  1.00  0.00     0.149 S 
ATOM     23  C   UNL A   1      32.636  16.751  25.312  1.00  0.00     0.158 C 
ATOM     24  O   UNL A   1      33.147  17.344  22.834  1.00  0.00    -0.229 OA
ATOM     25  O   UNL A   1      35.078  17.214  24.435  1.00  0.00    -0.229 OA
ENDBRANCH  21  22
ENDBRANCH  20  21
ENDBRANCH  18  20
ENDBRANCH  15  18
ENDBRANCH   9  14
ENDBRANCH   6   8
ENDBRANCH   5   6
ENDBRANCH   4   5
ENDBRANCH   3   4
ENDBRANCH   2   3
ENDBRANCH   1   2
BRANCH   1  26
ATOM     26  C   UNL A   1      33.784  32.502  27.893  1.00  0.00     0.188 C 
BRANCH  26  27
ATOM     27  O   UNL A   1      34.528  32.783  29.073  1.00  0.00    -0.376 OA
BRANCH  27  28
ATOM     28  C   UNL A   1      35.274  31.692  29.610  1.00  0.00     0.202 C 
BRANCH  28  29
ATOM     29  C   UNL A   1      35.590  31.881  31.097  1.00  0.00     0.261 C 
BRANCH  29  30
ATOM     30  O   UNL A   1      36.619  31.014  31.600  1.00  0.00    -0.460 OA
BRANCH  30  31
ATOM     31  C   UNL A   1      37.735  31.602  32.089  1.00  0.00     0.338 C 
ATOM     32  O   UNL A   1      37.814  32.340  33.053  1.00  0.00    -0.246 OA
BRANCH  31  33
ATOM     33  C   UNL A   1      38.895  31.029  31.375  1.00  0.00     0.060 A 
ATOM     34  C   UNL A   1      39.923  30.441  32.123  1.00  0.00     0.016 A 
ATOM     35  C   UNL A   1      38.955  31.043  29.979  1.00  0.00     0.016 A 
ATOM     36  C   UNL A   1      41.027  29.883  31.474  1.00  0.00     0.010 A 
ATOM     37  C   UNL A   1      40.065  30.498  29.332  1.00  0.00     0.010 A 
ATOM     38  C   UNL A   1      41.117  29.936  30.075  1.00  0.00    -0.014 A 
BRANCH  38  39
ATOM     39  C   UNL A   1      42.378  29.578  29.383  1.00  0.00     0.031 A 
ATOM     40  C   UNL A   1      42.531  28.174  28.863  1.00  0.00     0.074 A 
ATOM     41  C   UNL A   1      43.380  30.464  29.236  1.00  0.00     0.049 A 
ATOM     42  N   UNL A   1      43.572  27.600  28.321  1.00  0.00    -0.248 NA
ATOM     43  C   UNL A   1      41.347  27.304  28.972  1.00  0.00     0.031 C 
ATOM     44  C   UNL A   1      43.345  31.867  29.651  1.00  0.00     0.029 A 
ATOM     45  N   UNL A   1      44.637  30.303  28.705  1.00  0.00    -0.354 N 
ATOM     46  C   UNL A   1      43.171  26.303  28.022  1.00  0.00     0.074 A 
ATOM     47  C   UNL A   1      41.802  26.167  28.467  1.00  0.00     0.031 C 
ATOM     48  C   UNL A   1      44.534  32.433  29.371  1.00  0.00     0.029 A 
ATOM     49  C   UNL A   1      45.425  31.426  28.795  1.00  0.00     0.049 A 
ATOM     50  H   UNL A   1      44.945  29.461  28.298  1.00  0.00     0.167 HD
ATOM     51  C   UNL A   1      43.876  25.314  27.426  1.00  0.00     0.031 A 
ATOM     52  C   UNL A   1      46.723  31.610  28.477  1.00  0.00     0.031 A 
ATOM     53  C   UNL A   1      45.248  25.432  27.016  1.00  0.00     0.049 A 
ATOM     54  C   UNL A   1      47.523  30.458  27.917  1.00  0.00     0.074 A 
ATOM     55  C   UNL A   1      46.055  24.474  26.427  1.00  0.00     0.029 A 
ATOM     56  N   UNL A   1      46.017  26.575  27.156  1.00  0.00    -0.354 N 
ATOM     57  N   UNL A   1      47.128  29.239  27.634  1.00  0.00    -0.248 NA
ATOM     58  C   UNL A   1      48.944  30.707  27.634  1.00  0.00     0.031 C 
ATOM     59  C   UNL A   1      47.327  25.027  26.250  1.00  0.00     0.029 A 
ATOM     60  C   UNL A   1      47.295  26.344  26.677  1.00  0.00     0.049 A 
ATOM     61  H   UNL A   1      45.702  27.426  27.538  1.00  0.00     0.167 HD
ATOM     62  C   UNL A   1      48.242  28.591  27.106  1.00  0.00     0.074 A 
ATOM     63  C   UNL A   1      49.325  29.551  27.105  1.00  0.00     0.031 C 
ATOM     64  C   UNL A   1      48.356  27.317  26.659  1.00  0.00     0.031 A 
BRANCH  51  65
ATOM     65  C   UNL A   1      43.173  24.004  27.205  1.00  0.00    -0.014 A 
ATOM     66  C   UNL A   1      43.114  23.039  28.227  1.00  0.00     0.010 A 
ATOM     67  C   UNL A   1      42.536  23.747  25.978  1.00  0.00     0.010 A 
ATOM     68  C   UNL A   1      42.458  21.825  28.013  1.00  0.00     0.020 A 
ATOM     69  C   UNL A   1      41.858  22.544  25.769  1.00  0.00     0.020 A 
ATOM     70  C   UNL A   1      41.837  21.584  26.783  1.00  0.00     0.054 A 
BRANCH  70  71
ATOM     71  S   UNL A   1      40.973  20.007  26.542  1.00  0.00     0.124 S 
ATOM     72  O   UNL A   1      39.705  20.446  25.963  1.00  0.00    -0.237 OA
ATOM     73  O   UNL A   1      41.863  19.290  25.632  1.00  0.00    -0.237 OA
ATOM     74  O   UNL A   1      40.884  19.452  27.889  1.00  0.00    -0.744 OA
ENDBRANCH  70  71
ENDBRANCH  51  65
BRANCH  52  75
ATOM     75  C   UNL A   1      47.378  32.929  28.705  1.00  0.00    -0.014 A 
ATOM     76  C   UNL A   1      47.466  33.872  27.666  1.00  0.00     0.010 A 
ATOM     77  C   UNL A   1      47.959  33.229  29.950  1.00  0.00     0.010 A 
ATOM     78  C   UNL A   1      48.151  35.076  27.858  1.00  0.00     0.020 A 
ATOM     79  C   UNL A   1      48.620  34.443  30.154  1.00  0.00     0.020 A 
ATOM     80  C   UNL A   1      48.728  35.352  29.101  1.00  0.00     0.054 A 
BRANCH  80  81
ATOM     81  S   UNL A   1      49.599  36.927  29.334  1.00  0.00     0.124 S 
ATOM     82  O   UNL A   1      48.492  37.858  29.531  1.00  0.00    -0.237 OA
ATOM     83  O   UNL A   1      50.423  36.664  30.512  1.00  0.00    -0.237 OA
ATOM     84  O   UNL A   1      50.344  37.093  28.088  1.00  0.00    -0.744 OA
ENDBRANCH  80  81
ENDBRANCH  52  75
BRANCH  64  85
ATOM     85  C   UNL A   1      49.674  26.889  26.070  1.00  0.00    -0.014 A 
ATOM     86  C   UNL A   1      49.971  27.096  24.712  1.00  0.00     0.010 A 
ATOM     87  C   UNL A   1      50.667  26.360  26.916  1.00  0.00     0.010 A 
ATOM     88  C   UNL A   1      51.234  26.771  24.208  1.00  0.00     0.020 A 
ATOM     89  C   UNL A   1      51.937  26.055  26.420  1.00  0.00     0.020 A 
ATOM     90  C   UNL A   1      52.211  26.256  25.067  1.00  0.00     0.054 A 
BRANCH  90  91
ATOM     91  S   UNL A   1      53.867  25.917  24.407  1.00  0.00     0.124 S 
ATOM     92  O   UNL A   1      53.689  26.192  22.983  1.00  0.00    -0.237 OA
ATOM     93  O   UNL A   1      54.704  26.869  25.132  1.00  0.00    -0.237 OA
ATOM     94  O   UNL A   1      54.094  24.513  24.747  1.00  0.00    -0.744 OA
ENDBRANCH  90  91
ENDBRANCH  64  85
ENDBRANCH  38  39
ENDBRANCH  31  33
ENDBRANCH  30  31
ENDBRANCH  29  30
ENDBRANCH  28  29
ENDBRANCH  27  28
ENDBRANCH  26  27
ENDBRANCH   1  26
TORSDOF 25
ENDMDL
MODEL 3
REMARK VINA RESULT:      -8.8      3.718      5.239
REMARK SMILES CN(CCS(C)(=O)=O)C(=O)Nc1cccc(C(=O)OCCOCCOCCOC(=O)c2ccc(-c3c4nc(c(-c5ccc(S(=O)(=O)[O-])cc5)c5ccc([nH]5)c(-c5ccc(S(=O)(=O)[O-])cc5)c5nc(c(-c6ccc(S(=O)(=O)[O-])cc6)c6ccc3[nH]6)C=C5)C=C4)cc2)c1
REMARK SMILES IDX 23 1 22 2 21 3 20 4 19 5 17 6 18 7 16 8 12 9 13 10 91 11
REMARK SMILES IDX 14 12 15 13 11 14 9 15 10 16 2 18 1 19 3 20 4 21 5 22 6 23
REMARK SMILES IDX 7 24 8 25 24 26 25 27 26 28 27 29 28 30 29 31 30 32 31 33
REMARK SMILES IDX 32 34 90 35 33 36 89 37 34 38 35 39 36 40 83 41 37 42 88 43
REMARK SMILES IDX 82 44 84 45 38 46 87 47 81 48 80 49 39 51 69 52 50 53 68 54
REMARK SMILES IDX 51 55 54 56 67 57 85 58 52 59 53 60 66 62 86 63 55 64 40 65
REMARK SMILES IDX 41 66 49 67 42 68 48 69 43 70 44 71 45 72 46 73 47 74 70 75
REMARK SMILES IDX 71 76 79 77 72 78 78 79 73 80 74 81 75 82 76 83 77 84 56 85
REMARK SMILES IDX 57 86 65 87 58 88 64 89 59 90 60 91 61 92 62 93 63 94
REMARK H PARENT 11 17 84 50 54 61
REMARK Flexibility Score: inf
ROOT
ATOM      1  C   UNL A   1      37.869  21.738  25.001  1.00  0.00     0.188 C 
ENDROOT
BRANCH   1   2
ATOM      2  O   UNL A   1      36.638  22.074  25.635  1.00  0.00    -0.376 OA
BRANCH   2   3
ATOM      3  C   UNL A   1      36.364  23.413  26.001  1.00  0.00     0.202 C 
BRANCH   3   4
ATOM      4  C   UNL A   1      34.889  23.804  26.059  1.00  0.00     0.261 C 
BRANCH   4   5
ATOM      5  O   UNL A   1      34.110  23.011  26.962  1.00  0.00    -0.460 OA
BRANCH   5   6
ATOM      6  C   UNL A   1      33.005  22.432  26.421  1.00  0.00     0.338 C 
ATOM      7  O   UNL A   1      32.843  21.258  26.146  1.00  0.00    -0.246 OA
BRANCH   6   8
ATOM      8  C   UNL A   1      31.955  23.464  26.298  1.00  0.00     0.062 A 
ATOM      9  C   UNL A   1      31.338  25.770  25.938  1.00  0.00     0.043 A 
ATOM     10  C   UNL A   1      30.007  25.418  26.236  1.00  0.00     0.026 A 
ATOM     11  C   UNL A   1      32.289  24.770  25.904  1.00  0.00     0.041 A 
ATOM     12  C   UNL A   1      29.652  24.103  26.547  1.00  0.00     0.003 A 
ATOM     13  C   UNL A   1      30.635  23.122  26.600  1.00  0.00     0.016 A 
BRANCH   9  14
ATOM     14  N   UNL A   1      31.566  27.117  25.653  1.00  0.00    -0.308 N 
ATOM     15  C   UNL A   1      31.393  28.017  24.675  1.00  0.00     0.321 C 
ATOM     16  O   UNL A   1      31.424  29.182  25.100  1.00  0.00    -0.248 OA
ATOM     17  H   UNL A   1      31.995  27.550  26.426  1.00  0.00     0.171 HD
BRANCH  15  18
ATOM     18  N   UNL A   1      31.204  27.768  23.352  1.00  0.00    -0.327 N 
ATOM     19  C   UNL A   1      30.222  28.643  22.705  1.00  0.00     0.148 C 
BRANCH  18  20
ATOM     20  C   UNL A   1      31.862  26.879  22.387  1.00  0.00     0.137 C 
BRANCH  20  21
ATOM     21  C   UNL A   1      31.688  25.378  22.336  1.00  0.00     0.158 C 
BRANCH  21  22
ATOM     22  S   UNL A   1      33.097  24.345  22.069  1.00  0.00     0.149 S 
ATOM     23  C   UNL A   1      32.571  22.770  22.715  1.00  0.00     0.158 C 
ATOM     24  O   UNL A   1      33.221  24.178  20.631  1.00  0.00    -0.229 OA
ATOM     25  O   UNL A   1      34.224  24.820  22.841  1.00  0.00    -0.229 OA
ENDBRANCH  21  22
ENDBRANCH  20  21
ENDBRANCH  18  20
ENDBRANCH  15  18
ENDBRANCH   9  14
ENDBRANCH   6   8
ENDBRANCH   5   6
ENDBRANCH   4   5
ENDBRANCH   3   4
ENDBRANCH   2   3
ENDBRANCH   1   2
BRANCH   1  26
ATOM     26  C   UNL A   1      38.775  20.632  25.568  1.00  0.00     0.188 C 
BRANCH  26  27
ATOM     27  O   UNL A   1      39.521  21.018  26.717  1.00  0.00    -0.376 OA
BRANCH  27  28
ATOM     28  C   UNL A   1      40.079  22.330  26.682  1.00  0.00     0.202 C 
BRANCH  28  29
ATOM     29  C   UNL A   1      41.609  22.307  26.603  1.00  0.00     0.261 C 
BRANCH  29  30
ATOM     30  O   UNL A   1      42.254  23.394  27.286  1.00  0.00    -0.460 OA
BRANCH  30  31
ATOM     31  C   UNL A   1      42.359  24.566  26.619  1.00  0.00     0.338 C 
ATOM     32  O   UNL A   1      42.559  24.718  25.429  1.00  0.00    -0.246 OA
BRANCH  31  33
ATOM     33  C   UNL A   1      41.981  25.649  27.550  1.00  0.00     0.060 A 
ATOM     34  C   UNL A   1      42.731  26.832  27.549  1.00  0.00     0.016 A 
ATOM     35  C   UNL A   1      40.877  25.512  28.396  1.00  0.00     0.016 A 
ATOM     36  C   UNL A   1      42.389  27.875  28.412  1.00  0.00     0.010 A 
ATOM     37  C   UNL A   1      40.546  26.550  29.268  1.00  0.00     0.010 A 
ATOM     38  C   UNL A   1      41.312  27.728  29.298  1.00  0.00    -0.014 A 
BRANCH  38  39
ATOM     39  C   UNL A   1      41.084  28.710  30.385  1.00  0.00     0.031 A 
ATOM     40  C   UNL A   1      41.932  28.609  31.625  1.00  0.00     0.074 A 
ATOM     41  C   UNL A   1      40.135  29.658  30.293  1.00  0.00     0.049 A 
ATOM     42  N   UNL A   1      41.849  29.282  32.742  1.00  0.00    -0.248 NA
ATOM     43  C   UNL A   1      43.017  27.612  31.597  1.00  0.00     0.031 C 
ATOM     44  C   UNL A   1      39.277  29.896  29.131  1.00  0.00     0.029 A 
ATOM     45  N   UNL A   1      39.722  30.594  31.211  1.00  0.00    -0.354 N 
ATOM     46  C   UNL A   1      42.870  28.794  33.549  1.00  0.00     0.074 A 
ATOM     47  C   UNL A   1      43.540  27.751  32.805  1.00  0.00     0.031 C 
ATOM     48  C   UNL A   1      38.431  30.903  29.415  1.00  0.00     0.029 A 
ATOM     49  C   UNL A   1      38.658  31.355  30.787  1.00  0.00     0.049 A 
ATOM     50  H   UNL A   1      40.150  30.708  32.090  1.00  0.00     0.167 HD
ATOM     51  C   UNL A   1      43.222  29.182  34.797  1.00  0.00     0.031 A 
ATOM     52  C   UNL A   1      37.935  32.285  31.442  1.00  0.00     0.031 A 
ATOM     53  C   UNL A   1      42.537  30.191  35.555  1.00  0.00     0.049 A 
ATOM     54  C   UNL A   1      38.276  32.621  32.874  1.00  0.00     0.074 A 
ATOM     55  C   UNL A   1      42.805  30.634  36.839  1.00  0.00     0.029 A 
ATOM     56  N   UNL A   1      41.445  30.913  35.101  1.00  0.00    -0.354 N 
ATOM     57  N   UNL A   1      39.248  32.156  33.623  1.00  0.00    -0.248 NA
ATOM     58  C   UNL A   1      37.421  33.610  33.550  1.00  0.00     0.031 C 
ATOM     59  C   UNL A   1      41.847  31.594  37.177  1.00  0.00     0.029 A 
ATOM     60  C   UNL A   1      41.018  31.788  36.083  1.00  0.00     0.049 A 
ATOM     61  H   UNL A   1      41.034  30.817  34.211  1.00  0.00     0.167 HD
ATOM     62  C   UNL A   1      39.141  32.821  34.841  1.00  0.00     0.074 A 
ATOM     63  C   UNL A   1      38.016  33.724  34.731  1.00  0.00     0.031 C 
ATOM     64  C   UNL A   1      39.910  32.699  35.950  1.00  0.00     0.031 A 
BRANCH  51  65
ATOM     65  C   UNL A   1      44.396  28.486  35.429  1.00  0.00    -0.014 A 
ATOM     66  C   UNL A   1      45.694  29.015  35.309  1.00  0.00     0.010 A 
ATOM     67  C   UNL A   1      44.197  27.311  36.176  1.00  0.00     0.010 A 
ATOM     68  C   UNL A   1      46.777  28.362  35.900  1.00  0.00     0.020 A 
ATOM     69  C   UNL A   1      45.275  26.670  36.789  1.00  0.00     0.020 A 
ATOM     70  C   UNL A   1      46.561  27.191  36.633  1.00  0.00     0.054 A 
BRANCH  70  71
ATOM     71  S   UNL A   1      47.985  26.377  37.408  1.00  0.00     0.124 S 
ATOM     72  O   UNL A   1      49.078  26.781  36.525  1.00  0.00    -0.237 OA
ATOM     73  O   UNL A   1      48.006  26.968  38.743  1.00  0.00    -0.237 OA
ATOM     74  O   UNL A   1      47.640  24.959  37.363  1.00  0.00    -0.744 OA
ENDBRANCH  70  71
ENDBRANCH  51  65
BRANCH  52  75
ATOM     75  C   UNL A   1      36.784  32.957  30.774  1.00  0.00    -0.014 A 
ATOM     76  C   UNL A   1      36.997  34.028  29.889  1.00  0.00     0.010 A 
ATOM     77  C   UNL A   1      35.465  32.557  31.057  1.00  0.00     0.010 A 
ATOM     78  C   UNL A   1      35.913  34.709  29.326  1.00  0.00     0.020 A 
ATOM     79  C   UNL A   1      34.380  33.218  30.474  1.00  0.00     0.020 A 
ATOM     80  C   UNL A   1      34.611  34.302  29.626  1.00  0.00     0.054 A 
BRANCH  80  81
ATOM     81  S   UNL A   1      33.218  35.189  28.872  1.00  0.00     0.124 S 
ATOM     82  O   UNL A   1      32.595  34.143  28.065  1.00  0.00    -0.237 OA
ATOM     83  O   UNL A   1      32.453  35.629  30.036  1.00  0.00    -0.237 OA
ATOM     84  O   UNL A   1      33.864  36.261  28.119  1.00  0.00    -0.744 OA
ENDBRANCH  80  81
ENDBRANCH  52  75
BRANCH  64  85
ATOM     85  C   UNL A   1      39.613  33.599  37.120  1.00  0.00    -0.014 A 
ATOM     86  C   UNL A   1      38.782  33.181  38.173  1.00  0.00     0.010 A 
ATOM     87  C   UNL A   1      40.258  34.847  37.210  1.00  0.00     0.010 A 
ATOM     88  C   UNL A   1      38.593  33.999  39.291  1.00  0.00     0.020 A 
ATOM     89  C   UNL A   1      40.089  35.658  38.335  1.00  0.00     0.020 A 
ATOM     90  C   UNL A   1      39.251  35.232  39.366  1.00  0.00     0.054 A 
BRANCH  90  91
ATOM     91  S   UNL A   1      39.052  36.241  40.861  1.00  0.00     0.124 S 
ATOM     92  O   UNL A   1      40.310  35.999  41.563  1.00  0.00    -0.237 OA
ATOM     93  O   UNL A   1      38.883  37.587  40.320  1.00  0.00    -0.237 OA
ATOM     94  O   UNL A   1      37.863  35.681  41.502  1.00  0.00    -0.744 OA
ENDBRANCH  90  91
ENDBRANCH  64  85
ENDBRANCH  38  39
ENDBRANCH  31  33
ENDBRANCH  30  31
ENDBRANCH  29  30
ENDBRANCH  28  29
ENDBRANCH  27  28
ENDBRANCH  26  27
ENDBRANCH   1  26
TORSDOF 25
ENDMDL
