MODEL 1
REMARK VINA RESULT:     -10.1      0.000      0.000
REMARK SMILES Cc1cc(N(C)[C@H]2CC[C@@H](C)CC2)cc(C(=O)OCCOCCOCCOC(=O)c2ccc(-c3c4nc(c(-c5ccc(S(=O)(=O)[O-])cc5)c5ccc([nH]5)c(-c5ccc(S(=O)(=O)[O-])cc5)c5nc(c(-c6ccc(S(=O)(=O)[O-])cc6)c6ccc3[nH]6)C=C5)C=C4)cc2)c1N
REMARK SMILES IDX 23 1 22 2 21 3 20 4 19 5 18 6 16 7 17 8 15 9 1 10 2 11 3 12
REMARK SMILES IDX 90 13 4 14 14 15 91 16 5 19 6 20 7 21 8 22 13 23 9 24 12 25
REMARK SMILES IDX 10 26 11 27 24 28 25 29 26 30 27 31 28 32 29 33 30 34 31 35
REMARK SMILES IDX 89 36 32 37 88 38 33 39 34 40 35 41 82 42 36 43 87 44 81 45
REMARK SMILES IDX 83 46 37 47 86 48 80 49 79 50 38 52 68 53 49 54 67 55 50 56
REMARK SMILES IDX 53 57 66 58 84 59 51 60 52 61 65 63 85 64 54 65 39 66 40 67
REMARK SMILES IDX 48 68 41 69 47 70 42 71 43 72 44 73 45 74 46 75 69 76 70 77
REMARK SMILES IDX 78 78 71 79 77 80 72 81 73 82 74 83 75 84 76 85 55 86 56 87
REMARK SMILES IDX 64 88 57 89 63 90 58 91 59 92 60 93 61 94 62 95
REMARK H PARENT 91 17 91 18 83 51 53 62
REMARK Flexibility Score: inf
ROOT
ATOM      1  C   UNL A   1      41.187  20.514  26.505  1.00  0.00     0.188 C 
ENDROOT
BRANCH   1   2
ATOM      2  C   UNL A   1      39.730  20.808  26.087  1.00  0.00     0.188 C 
BRANCH   2   3
ATOM      3  O   UNL A   1      39.240  22.056  26.552  1.00  0.00    -0.376 OA
BRANCH   3   4
ATOM      4  C   UNL A   1      38.352  22.739  25.681  1.00  0.00     0.202 C 
BRANCH   4   5
ATOM      5  C   UNL A   1      37.363  23.733  26.318  1.00  0.00     0.261 C 
BRANCH   5   6
ATOM      6  O   UNL A   1      36.116  23.928  25.626  1.00  0.00    -0.460 OA
BRANCH   6   7
ATOM      7  C   UNL A   1      35.116  23.082  25.964  1.00  0.00     0.340 C 
ATOM      8  O   UNL A   1      35.266  21.906  26.259  1.00  0.00    -0.246 OA
BRANCH   7   9
ATOM      9  C   UNL A   1      33.816  23.802  26.075  1.00  0.00     0.085 A 
ATOM     10  C   UNL A   1      30.182  23.089  26.895  1.00  0.00     0.047 C 
ATOM     11  C   UNL A   1      31.456  23.676  26.350  1.00  0.00    -0.025 A 
ATOM     12  C   UNL A   1      31.390  24.938  25.747  1.00  0.00     0.031 A 
ATOM     13  C   UNL A   1      32.696  23.073  26.514  1.00  0.00     0.049 A 
ATOM     14  C   UNL A   1      32.450  25.835  25.768  1.00  0.00     0.038 A 
ATOM     15  C   UNL A   1      33.700  25.191  25.798  1.00  0.00     0.043 A 
BRANCH  13  16
ATOM     16  N   UNL A   1      32.813  21.894  27.248  1.00  0.00    -0.398 N 
ATOM     17  H   UNL A   1      33.074  21.058  26.797  1.00  0.00     0.156 HD
ATOM     18  H   UNL A   1      32.635  21.897  28.217  1.00  0.00     0.156 HD
ENDBRANCH  13  16
BRANCH  14  19
ATOM     19  N   UNL A   1      32.247  27.225  25.857  1.00  0.00    -0.372 N 
ATOM     20  C   UNL A   1      32.644  27.854  27.125  1.00  0.00     0.144 C 
BRANCH  19  21
ATOM     21  C   UNL A   1      31.960  28.181  24.700  1.00  0.00     0.082 C 
ATOM     22  C   UNL A   1      30.767  27.767  23.779  1.00  0.00     0.025 C 
ATOM     23  C   UNL A   1      33.068  28.487  23.681  1.00  0.00     0.025 C 
ATOM     24  C   UNL A   1      31.055  26.789  22.612  1.00  0.00     0.005 C 
ATOM     25  C   UNL A   1      33.529  27.206  23.000  1.00  0.00     0.005 C 
ATOM     26  C   UNL A   1      32.471  26.779  21.999  1.00  0.00    -0.014 C 
ATOM     27  C   UNL A   1      32.830  25.408  21.418  1.00  0.00     0.007 C 
ENDBRANCH  19  21
ENDBRANCH  14  19
ENDBRANCH   7   9
ENDBRANCH   6   7
ENDBRANCH   5   6
ENDBRANCH   4   5
ENDBRANCH   3   4
ENDBRANCH   2   3
ENDBRANCH   1   2
BRANCH   1  28
ATOM     28  O   UNL A   1      42.106  21.580  26.709  1.00  0.00    -0.376 OA
BRANCH  28  29
ATOM     29  C   UNL A   1      42.677  22.228  25.583  1.00  0.00     0.202 C 
BRANCH  29  30
ATOM     30  C   UNL A   1      43.211  23.670  25.691  1.00  0.00     0.261 C 
BRANCH  30  31
ATOM     31  O   UNL A   1      42.527  24.552  26.598  1.00  0.00    -0.460 OA
BRANCH  31  32
ATOM     32  C   UNL A   1      42.113  25.733  26.071  1.00  0.00     0.338 C 
ATOM     33  O   UNL A   1      42.002  26.013  24.893  1.00  0.00    -0.246 OA
BRANCH  32  34
ATOM     34  C   UNL A   1      41.651  26.629  27.156  1.00  0.00     0.060 A 
ATOM     35  C   UNL A   1      42.299  27.860  27.336  1.00  0.00     0.016 A 
ATOM     36  C   UNL A   1      40.641  26.234  28.035  1.00  0.00     0.016 A 
ATOM     37  C   UNL A   1      41.954  28.689  28.405  1.00  0.00     0.010 A 
ATOM     38  C   UNL A   1      40.314  27.055  29.120  1.00  0.00     0.010 A 
ATOM     39  C   UNL A   1      40.988  28.273  29.329  1.00  0.00    -0.014 A 
BRANCH  39  40
ATOM     40  C   UNL A   1      40.802  29.025  30.598  1.00  0.00     0.031 A 
ATOM     41  C   UNL A   1      39.715  30.067  30.669  1.00  0.00     0.074 A 
ATOM     42  C   UNL A   1      41.570  28.782  31.675  1.00  0.00     0.049 A 
ATOM     43  N   UNL A   1      39.417  30.887  31.644  1.00  0.00    -0.248 NA
ATOM     44  C   UNL A   1      38.855  30.203  29.482  1.00  0.00     0.031 C 
ATOM     45  C   UNL A   1      42.622  27.768  31.756  1.00  0.00     0.029 A 
ATOM     46  N   UNL A   1      41.590  29.384  32.910  1.00  0.00    -0.354 N 
ATOM     47  C   UNL A   1      38.341  31.641  31.186  1.00  0.00     0.074 A 
ATOM     48  C   UNL A   1      38.059  31.202  29.837  1.00  0.00     0.031 C 
ATOM     49  C   UNL A   1      43.196  27.831  32.971  1.00  0.00     0.029 A 
ATOM     50  C   UNL A   1      42.579  28.912  33.740  1.00  0.00     0.049 A 
ATOM     51  H   UNL A   1      40.955  30.088  33.176  1.00  0.00     0.167 HD
ATOM     52  C   UNL A   1      37.646  32.608  31.832  1.00  0.00     0.031 A 
ATOM     53  C   UNL A   1      42.963  29.321  34.967  1.00  0.00     0.031 A 
ATOM     54  C   UNL A   1      37.935  33.057  33.168  1.00  0.00     0.049 A 
ATOM     55  C   UNL A   1      42.229  30.460  35.632  1.00  0.00     0.074 A 
ATOM     56  C   UNL A   1      37.281  34.026  33.909  1.00  0.00     0.029 A 
ATOM     57  N   UNL A   1      38.963  32.574  33.962  1.00  0.00    -0.354 N 
ATOM     58  N   UNL A   1      41.201  31.149  35.195  1.00  0.00    -0.248 NA
ATOM     59  C   UNL A   1      42.703  30.872  36.962  1.00  0.00     0.031 C 
ATOM     60  C   UNL A   1      37.952  34.173  35.127  1.00  0.00     0.029 A 
ATOM     61  C   UNL A   1      38.979  33.243  35.174  1.00  0.00     0.049 A 
ATOM     62  H   UNL A   1      39.589  31.860  33.703  1.00  0.00     0.167 HD
ATOM     63  C   UNL A   1      40.887  32.050  36.209  1.00  0.00     0.074 A 
ATOM     64  C   UNL A   1      41.822  31.808  37.287  1.00  0.00     0.031 C 
ATOM     65  C   UNL A   1      39.910  32.990  36.245  1.00  0.00     0.031 A 
BRANCH  52  66
ATOM     66  C   UNL A   1      36.517  33.273  31.087  1.00  0.00    -0.014 A 
ATOM     67  C   UNL A   1      35.203  33.258  31.591  1.00  0.00     0.010 A 
ATOM     68  C   UNL A   1      36.785  33.976  29.898  1.00  0.00     0.010 A 
ATOM     69  C   UNL A   1      34.174  33.907  30.903  1.00  0.00     0.020 A 
ATOM     70  C   UNL A   1      35.765  34.652  29.223  1.00  0.00     0.020 A 
ATOM     71  C   UNL A   1      34.462  34.602  29.724  1.00  0.00     0.054 A 
BRANCH  71  72
ATOM     72  S   UNL A   1      33.115  35.471  28.877  1.00  0.00     0.124 S 
ATOM     73  O   UNL A   1      32.356  36.019  29.998  1.00  0.00    -0.237 OA
ATOM     74  O   UNL A   1      33.830  36.453  28.065  1.00  0.00    -0.237 OA
ATOM     75  O   UNL A   1      32.439  34.417  28.124  1.00  0.00    -0.744 OA
ENDBRANCH  71  72
ENDBRANCH  52  66
BRANCH  53  76
ATOM     76  C   UNL A   1      44.124  28.677  35.644  1.00  0.00    -0.014 A 
ATOM     77  C   UNL A   1      45.435  29.131  35.417  1.00  0.00     0.010 A 
ATOM     78  C   UNL A   1      43.923  27.580  36.502  1.00  0.00     0.010 A 
ATOM     79  C   UNL A   1      46.524  28.482  36.010  1.00  0.00     0.020 A 
ATOM     80  C   UNL A   1      45.005  26.950  37.124  1.00  0.00     0.020 A 
ATOM     81  C   UNL A   1      46.301  27.397  36.862  1.00  0.00     0.054 A 
BRANCH  81  82
ATOM     82  S   UNL A   1      47.726  26.594  37.647  1.00  0.00     0.124 S 
ATOM     83  O   UNL A   1      48.220  27.644  38.529  1.00  0.00    -0.237 OA
ATOM     84  O   UNL A   1      47.112  25.446  38.310  1.00  0.00    -0.237 OA
ATOM     85  O   UNL A   1      48.595  26.262  36.520  1.00  0.00    -0.744 OA
ENDBRANCH  81  82
ENDBRANCH  53  76
BRANCH  65  86
ATOM     86  C   UNL A   1      39.762  33.801  37.509  1.00  0.00    -0.014 A 
ATOM     87  C   UNL A   1      40.442  35.019  37.685  1.00  0.00     0.010 A 
ATOM     88  C   UNL A   1      38.875  33.363  38.511  1.00  0.00     0.010 A 
ATOM     89  C   UNL A   1      40.265  35.765  38.855  1.00  0.00     0.020 A 
ATOM     90  C   UNL A   1      38.670  34.122  39.667  1.00  0.00     0.020 A 
ATOM     91  C   UNL A   1      39.378  35.312  39.838  1.00  0.00     0.054 A 
BRANCH  91  92
ATOM     92  S   UNL A   1      39.134  36.320  41.326  1.00  0.00     0.124 S 
ATOM     93  O   UNL A   1      38.009  35.648  41.970  1.00  0.00    -0.237 OA
ATOM     94  O   UNL A   1      40.418  36.195  42.012  1.00  0.00    -0.237 OA
ATOM     95  O   UNL A   1      38.844  37.652  40.800  1.00  0.00    -0.744 OA
ENDBRANCH  91  92
ENDBRANCH  65  86
ENDBRANCH  39  40
ENDBRANCH  32  34
ENDBRANCH  31  32
ENDBRANCH  30  31
ENDBRANCH  29  30
ENDBRANCH  28  29
ENDBRANCH   1  28
TORSDOF 23
ENDMDL
MODEL 2
REMARK VINA RESULT:     -10.0      6.435     12.402
REMARK SMILES Cc1cc(N(C)[C@H]2CC[C@@H](C)CC2)cc(C(=O)OCCOCCOCCOC(=O)c2ccc(-c3c4nc(c(-c5ccc(S(=O)(=O)[O-])cc5)c5ccc([nH]5)c(-c5ccc(S(=O)(=O)[O-])cc5)c5nc(c(-c6ccc(S(=O)(=O)[O-])cc6)c6ccc3[nH]6)C=C5)C=C4)cc2)c1N
REMARK SMILES IDX 23 1 22 2 21 3 20 4 19 5 18 6 16 7 17 8 15 9 1 10 2 11 3 12
REMARK SMILES IDX 90 13 4 14 14 15 91 16 5 19 6 20 7 21 8 22 13 23 9 24 12 25
REMARK SMILES IDX 10 26 11 27 24 28 25 29 26 30 27 31 28 32 29 33 30 34 31 35
REMARK SMILES IDX 89 36 32 37 88 38 33 39 34 40 35 41 82 42 36 43 87 44 81 45
REMARK SMILES IDX 83 46 37 47 86 48 80 49 79 50 38 52 68 53 49 54 67 55 50 56
REMARK SMILES IDX 53 57 66 58 84 59 51 60 52 61 65 63 85 64 54 65 39 66 40 67
REMARK SMILES IDX 48 68 41 69 47 70 42 71 43 72 44 73 45 74 46 75 69 76 70 77
REMARK SMILES IDX 78 78 71 79 77 80 72 81 73 82 74 83 75 84 76 85 55 86 56 87
REMARK SMILES IDX 64 88 57 89 63 90 58 91 59 92 60 93 61 94 62 95
REMARK H PARENT 91 17 91 18 83 51 53 62
REMARK Flexibility Score: inf
ROOT
ATOM      1  C   UNL A   1      35.078  32.830  29.792  1.00  0.00     0.188 C 
ENDROOT
BRANCH   1   2
ATOM      2  C   UNL A   1      34.543  33.464  28.490  1.00  0.00     0.188 C 
BRANCH   2   3
ATOM      3  O   UNL A   1      33.509  32.717  27.870  1.00  0.00    -0.376 OA
BRANCH   3   4
ATOM      4  C   UNL A   1      33.783  31.342  27.648  1.00  0.00     0.202 C 
BRANCH   4   5
ATOM      5  C   UNL A   1      32.605  30.448  27.215  1.00  0.00     0.261 C 
BRANCH   5   6
ATOM      6  O   UNL A   1      32.434  30.255  25.800  1.00  0.00    -0.460 OA
BRANCH   6   7
ATOM      7  C   UNL A   1      33.065  29.182  25.271  1.00  0.00     0.340 C 
ATOM      8  O   UNL A   1      34.204  28.837  25.545  1.00  0.00    -0.246 OA
BRANCH   7   9
ATOM      9  C   UNL A   1      32.143  28.382  24.416  1.00  0.00     0.085 A 
ATOM     10  C   UNL A   1      28.630  28.567  22.998  1.00  0.00     0.047 C 
ATOM     11  C   UNL A   1      29.954  28.089  23.531  1.00  0.00    -0.025 A 
ATOM     12  C   UNL A   1      30.282  26.740  23.355  1.00  0.00     0.031 A 
ATOM     13  C   UNL A   1      30.896  28.943  24.088  1.00  0.00     0.049 A 
ATOM     14  C   UNL A   1      31.591  26.300  23.210  1.00  0.00     0.038 A 
ATOM     15  C   UNL A   1      32.512  27.110  23.898  1.00  0.00     0.043 A 
BRANCH  13  16
ATOM     16  N   UNL A   1      30.661  30.317  24.132  1.00  0.00    -0.398 N 
ATOM     17  H   UNL A   1      30.023  30.727  23.503  1.00  0.00     0.156 HD
ATOM     18  H   UNL A   1      31.132  30.877  24.791  1.00  0.00     0.156 HD
ENDBRANCH  13  16
BRANCH  14  19
ATOM     19  N   UNL A   1      31.925  25.220  22.370  1.00  0.00    -0.372 N 
ATOM     20  C   UNL A   1      32.480  25.575  21.056  1.00  0.00     0.144 C 
BRANCH  19  21
ATOM     21  C   UNL A   1      32.065  23.755  22.780  1.00  0.00     0.082 C 
ATOM     22  C   UNL A   1      31.791  23.460  24.290  1.00  0.00     0.025 C 
ATOM     23  C   UNL A   1      33.398  23.030  22.541  1.00  0.00     0.025 C 
ATOM     24  C   UNL A   1      32.966  23.624  25.287  1.00  0.00     0.005 C 
ATOM     25  C   UNL A   1      34.523  23.734  23.286  1.00  0.00     0.005 C 
ATOM     26  C   UNL A   1      34.402  23.416  24.765  1.00  0.00    -0.014 C 
ATOM     27  C   UNL A   1      35.421  24.241  25.557  1.00  0.00     0.007 C 
ENDBRANCH  19  21
ENDBRANCH  14  19
ENDBRANCH   7   9
ENDBRANCH   6   7
ENDBRANCH   5   6
ENDBRANCH   4   5
ENDBRANCH   3   4
ENDBRANCH   2   3
ENDBRANCH   1   2
BRANCH   1  28
ATOM     28  O   UNL A   1      36.478  32.750  30.031  1.00  0.00    -0.376 OA
BRANCH  28  29
ATOM     29  C   UNL A   1      36.952  31.968  31.115  1.00  0.00     0.202 C 
BRANCH  29  30
ATOM     30  C   UNL A   1      36.448  30.525  31.324  1.00  0.00     0.261 C 
BRANCH  30  31
ATOM     31  O   UNL A   1      37.290  29.465  30.842  1.00  0.00    -0.460 OA
BRANCH  31  32
ATOM     32  C   UNL A   1      37.254  29.247  29.502  1.00  0.00     0.338 C 
ATOM     33  O   UNL A   1      36.301  29.388  28.761  1.00  0.00    -0.246 OA
BRANCH  32  34
ATOM     34  C   UNL A   1      38.618  28.947  29.008  1.00  0.00     0.060 A 
ATOM     35  C   UNL A   1      39.583  28.504  29.924  1.00  0.00     0.016 A 
ATOM     36  C   UNL A   1      38.966  29.168  27.675  1.00  0.00     0.016 A 
ATOM     37  C   UNL A   1      40.902  28.301  29.514  1.00  0.00     0.010 A 
ATOM     38  C   UNL A   1      40.295  28.988  27.272  1.00  0.00     0.010 A 
ATOM     39  C   UNL A   1      41.277  28.581  28.195  1.00  0.00    -0.014 A 
BRANCH  39  40
ATOM     40  C   UNL A   1      42.715  28.613  27.821  1.00  0.00     0.031 A 
ATOM     41  C   UNL A   1      43.341  27.371  27.243  1.00  0.00     0.074 A 
ATOM     42  C   UNL A   1      43.454  29.727  27.977  1.00  0.00     0.049 A 
ATOM     43  N   UNL A   1      44.587  27.148  26.910  1.00  0.00    -0.248 NA
ATOM     44  C   UNL A   1      42.442  26.227  27.013  1.00  0.00     0.031 C 
ATOM     45  C   UNL A   1      42.960  31.010  28.479  1.00  0.00     0.029 A 
ATOM     46  N   UNL A   1      44.788  29.951  27.738  1.00  0.00    -0.354 N 
ATOM     47  C   UNL A   1      44.624  25.840  26.440  1.00  0.00     0.074 A 
ATOM     48  C   UNL A   1      43.283  25.309  26.558  1.00  0.00     0.031 C 
ATOM     49  C   UNL A   1      43.983  31.882  28.525  1.00  0.00     0.029 A 
ATOM     50  C   UNL A   1      45.210  31.211  28.094  1.00  0.00     0.049 A 
ATOM     51  H   UNL A   1      45.387  29.274  27.349  1.00  0.00     0.167 HD
ATOM     52  C   UNL A   1      45.677  25.143  25.949  1.00  0.00     0.031 A 
ATOM     53  C   UNL A   1      46.446  31.753  28.099  1.00  0.00     0.031 A 
ATOM     54  C   UNL A   1      47.014  25.664  25.845  1.00  0.00     0.049 A 
ATOM     55  C   UNL A   1      47.619  30.928  27.629  1.00  0.00     0.074 A 
ATOM     56  C   UNL A   1      48.145  25.037  25.353  1.00  0.00     0.029 A 
ATOM     57  N   UNL A   1      47.404  26.933  26.245  1.00  0.00    -0.354 N 
ATOM     58  N   UNL A   1      47.634  29.699  27.168  1.00  0.00    -0.248 NA
ATOM     59  C   UNL A   1      48.943  31.567  27.673  1.00  0.00     0.031 C 
ATOM     60  C   UNL A   1      49.230  25.903  25.512  1.00  0.00     0.029 A 
ATOM     61  C   UNL A   1      48.763  27.098  26.035  1.00  0.00     0.049 A 
ATOM     62  H   UNL A   1      46.803  27.617  26.620  1.00  0.00     0.167 HD
ATOM     63  C   UNL A   1      48.960  29.434  26.836  1.00  0.00     0.074 A 
ATOM     64  C   UNL A   1      49.714  30.633  27.134  1.00  0.00     0.031 C 
ATOM     65  C   UNL A   1      49.503  28.299  26.328  1.00  0.00     0.031 A 
BRANCH  52  66
ATOM     66  C   UNL A   1      45.432  23.722  25.510  1.00  0.00    -0.014 A 
ATOM     67  C   UNL A   1      45.639  22.642  26.388  1.00  0.00     0.010 A 
ATOM     68  C   UNL A   1      44.930  23.468  24.221  1.00  0.00     0.010 A 
ATOM     69  C   UNL A   1      45.376  21.333  25.973  1.00  0.00     0.020 A 
ATOM     70  C   UNL A   1      44.637  22.164  23.813  1.00  0.00     0.020 A 
ATOM     71  C   UNL A   1      44.875  21.103  24.689  1.00  0.00     0.054 A 
BRANCH  71  72
ATOM     72  S   UNL A   1      44.504  19.398  24.194  1.00  0.00     0.124 S 
ATOM     73  O   UNL A   1      45.598  18.658  24.816  1.00  0.00    -0.237 OA
ATOM     74  O   UNL A   1      43.184  19.177  24.781  1.00  0.00    -0.237 OA
ATOM     75  O   UNL A   1      44.534  19.444  22.734  1.00  0.00    -0.744 OA
ENDBRANCH  71  72
ENDBRANCH  52  66
BRANCH  53  76
ATOM     76  C   UNL A   1      46.654  33.142  28.598  1.00  0.00    -0.014 A 
ATOM     77  C   UNL A   1      46.905  33.390  29.959  1.00  0.00     0.010 A 
ATOM     78  C   UNL A   1      46.571  34.232  27.712  1.00  0.00     0.010 A 
ATOM     79  C   UNL A   1      47.041  34.701  30.428  1.00  0.00     0.020 A 
ATOM     80  C   UNL A   1      46.741  35.542  28.171  1.00  0.00     0.020 A 
ATOM     81  C   UNL A   1      46.959  35.768  29.530  1.00  0.00     0.054 A 
BRANCH  81  82
ATOM     82  S   UNL A   1      47.172  37.458  30.156  1.00  0.00     0.124 S 
ATOM     83  O   UNL A   1      48.488  37.387  30.781  1.00  0.00    -0.237 OA
ATOM     84  O   UNL A   1      47.092  38.257  28.936  1.00  0.00    -0.237 OA
ATOM     85  O   UNL A   1      46.049  37.625  31.077  1.00  0.00    -0.744 OA
ENDBRANCH  81  82
ENDBRANCH  53  76
BRANCH  65  86
ATOM     86  C   UNL A   1      50.979  28.308  26.010  1.00  0.00    -0.014 A 
ATOM     87  C   UNL A   1      51.459  28.741  24.762  1.00  0.00     0.010 A 
ATOM     88  C   UNL A   1      51.902  27.933  27.005  1.00  0.00     0.010 A 
ATOM     89  C   UNL A   1      52.834  28.766  24.503  1.00  0.00     0.020 A 
ATOM     90  C   UNL A   1      53.277  27.987  26.761  1.00  0.00     0.020 A 
ATOM     91  C   UNL A   1      53.734  28.390  25.506  1.00  0.00     0.054 A 
BRANCH  91  92
ATOM     92  S   UNL A   1      55.512  28.472  25.159  1.00  0.00     0.124 S 
ATOM     93  O   UNL A   1      55.572  29.480  24.104  1.00  0.00    -0.237 OA
ATOM     94  O   UNL A   1      56.072  28.877  26.447  1.00  0.00    -0.237 OA
ATOM     95  O   UNL A   1      55.848  27.114  24.741  1.00  0.00    -0.744 OA
ENDBRANCH  91  92
ENDBRANCH  65  86
ENDBRANCH  39  40
ENDBRANCH  32  34
ENDBRANCH  31  32
ENDBRANCH  30  31
ENDBRANCH  29  30
ENDBRANCH  28  29
ENDBRANCH   1  28
TORSDOF 23
ENDMDL
MODEL 3
REMARK VINA RESULT:      -9.7      4.602     12.198
REMARK SMILES Cc1cc(N(C)[C@H]2CC[C@@H](C)CC2)cc(C(=O)OCCOCCOCCOC(=O)c2ccc(-c3c4nc(c(-c5ccc(S(=O)(=O)[O-])cc5)c5ccc([nH]5)c(-c5ccc(S(=O)(=O)[O-])cc5)c5nc(c(-c6ccc(S(=O)(=O)[O-])cc6)c6ccc3[nH]6)C=C5)C=C4)cc2)c1N
REMARK SMILES IDX 23 1 22 2 21 3 20 4 19 5 18 6 16 7 17 8 15 9 1 10 2 11 3 12
REMARK SMILES IDX 90 13 4 14 14 15 91 16 5 19 6 20 7 21 8 22 13 23 9 24 12 25
REMARK SMILES IDX 10 26 11 27 24 28 25 29 26 30 27 31 28 32 29 33 30 34 31 35
REMARK SMILES IDX 89 36 32 37 88 38 33 39 34 40 35 41 82 42 36 43 87 44 81 45
REMARK SMILES IDX 83 46 37 47 86 48 80 49 79 50 38 52 68 53 49 54 67 55 50 56
REMARK SMILES IDX 53 57 66 58 84 59 51 60 52 61 65 63 85 64 54 65 39 66 40 67
REMARK SMILES IDX 48 68 41 69 47 70 42 71 43 72 44 73 45 74 46 75 69 76 70 77
REMARK SMILES IDX 78 78 71 79 77 80 72 81 73 82 74 83 75 84 76 85 55 86 56 87
REMARK SMILES IDX 64 88 57 89 63 90 58 91 59 92 60 93 61 94 62 95
REMARK H PARENT 91 17 91 18 83 51 53 62
REMARK Flexibility Score: inf
ROOT
ATOM      1  C   UNL A   1      34.791  33.684  30.657  1.00  0.00     0.188 C 
ENDROOT
BRANCH   1   2
ATOM      2  C   UNL A   1      34.907  32.373  31.464  1.00  0.00     0.188 C 
BRANCH   2   3
ATOM      3  O   UNL A   1      35.039  32.570  32.863  1.00  0.00    -0.376 OA
BRANCH   3   4
ATOM      4  C   UNL A   1      36.183  33.297  33.284  1.00  0.00     0.202 C 
BRANCH   4   5
ATOM      5  C   UNL A   1      37.159  32.586  34.240  1.00  0.00     0.261 C 
BRANCH   5   6
ATOM      6  O   UNL A   1      38.288  33.355  34.691  1.00  0.00    -0.460 OA
BRANCH   6   7
ATOM      7  C   UNL A   1      39.435  33.181  33.996  1.00  0.00     0.340 C 
ATOM      8  O   UNL A   1      39.649  33.628  32.879  1.00  0.00    -0.246 OA
BRANCH   7   9
ATOM      9  C   UNL A   1      40.468  32.496  34.823  1.00  0.00     0.085 A 
ATOM     10  C   UNL A   1      42.700  33.188  37.811  1.00  0.00     0.047 C 
ATOM     11  C   UNL A   1      42.118  32.653  36.530  1.00  0.00    -0.025 A 
ATOM     12  C   UNL A   1      42.698  31.505  35.976  1.00  0.00     0.031 A 
ATOM     13  C   UNL A   1      40.978  33.181  35.940  1.00  0.00     0.049 A 
ATOM     14  C   UNL A   1      41.972  30.582  35.235  1.00  0.00     0.038 A 
ATOM     15  C   UNL A   1      40.902  31.172  34.540  1.00  0.00     0.043 A 
BRANCH  13  16
ATOM     16  N   UNL A   1      40.288  34.226  36.555  1.00  0.00    -0.398 N 
ATOM     17  H   UNL A   1      39.618  34.738  36.047  1.00  0.00     0.156 HD
ATOM     18  H   UNL A   1      40.469  34.449  37.497  1.00  0.00     0.156 HD
ENDBRANCH  13  16
BRANCH  14  19
ATOM     19  N   UNL A   1      42.248  29.203  35.287  1.00  0.00    -0.372 N 
ATOM     20  C   UNL A   1      43.017  28.744  36.453  1.00  0.00     0.144 C 
BRANCH  19  21
ATOM     21  C   UNL A   1      41.588  28.108  34.451  1.00  0.00     0.082 C 
ATOM     22  C   UNL A   1      41.750  26.658  35.011  1.00  0.00     0.025 C 
ATOM     23  C   UNL A   1      41.992  27.937  32.978  1.00  0.00     0.025 C 
ATOM     24  C   UNL A   1      43.030  25.871  34.632  1.00  0.00     0.005 C 
ATOM     25  C   UNL A   1      43.481  27.642  32.869  1.00  0.00     0.005 C 
ATOM     26  C   UNL A   1      43.726  26.206  33.296  1.00  0.00    -0.014 C 
ATOM     27  C   UNL A   1      45.231  25.932  33.352  1.00  0.00     0.007 C 
ENDBRANCH  19  21
ENDBRANCH  14  19
ENDBRANCH   7   9
ENDBRANCH   6   7
ENDBRANCH   5   6
ENDBRANCH   4   5
ENDBRANCH   3   4
ENDBRANCH   2   3
ENDBRANCH   1   2
BRANCH   1  28
ATOM     28  O   UNL A   1      33.703  33.884  29.763  1.00  0.00    -0.376 OA
BRANCH  28  29
ATOM     29  C   UNL A   1      33.854  33.525  28.398  1.00  0.00     0.202 C 
BRANCH  29  30
ATOM     30  C   UNL A   1      34.634  32.255  28.000  1.00  0.00     0.261 C 
BRANCH  30  31
ATOM     31  O   UNL A   1      34.028  30.991  28.319  1.00  0.00    -0.460 OA
BRANCH  31  32
ATOM     32  C   UNL A   1      34.614  29.899  27.764  1.00  0.00     0.338 C 
ATOM     33  O   UNL A   1      34.130  29.145  26.942  1.00  0.00    -0.246 OA
BRANCH  32  34
ATOM     34  C   UNL A   1      36.031  29.821  28.190  1.00  0.00     0.060 A 
ATOM     35  C   UNL A   1      37.034  29.996  27.227  1.00  0.00     0.016 A 
ATOM     36  C   UNL A   1      36.369  29.506  29.507  1.00  0.00     0.016 A 
ATOM     37  C   UNL A   1      38.377  29.838  27.572  1.00  0.00     0.010 A 
ATOM     38  C   UNL A   1      37.715  29.322  29.845  1.00  0.00     0.010 A 
ATOM     39  C   UNL A   1      38.725  29.458  28.874  1.00  0.00    -0.014 A 
BRANCH  39  40
ATOM     40  C   UNL A   1      40.119  29.041  29.179  1.00  0.00     0.031 A 
ATOM     41  C   UNL A   1      41.053  30.040  29.812  1.00  0.00     0.074 A 
ATOM     42  C   UNL A   1      40.550  27.794  28.914  1.00  0.00     0.049 A 
ATOM     43  N   UNL A   1      42.322  29.920  30.102  1.00  0.00    -0.248 NA
ATOM     44  C   UNL A   1      40.476  31.350  30.160  1.00  0.00     0.031 C 
ATOM     45  C   UNL A   1      39.737  26.717  28.350  1.00  0.00     0.029 A 
ATOM     46  N   UNL A   1      41.791  27.227  29.077  1.00  0.00    -0.354 N 
ATOM     47  C   UNL A   1      42.699  31.138  30.658  1.00  0.00     0.074 A 
ATOM     48  C   UNL A   1      41.532  31.992  30.638  1.00  0.00     0.031 C 
ATOM     49  C   UNL A   1      40.506  25.624  28.197  1.00  0.00     0.029 A 
ATOM     50  C   UNL A   1      41.873  25.934  28.618  1.00  0.00     0.049 A 
ATOM     51  H   UNL A   1      42.551  27.702  29.484  1.00  0.00     0.167 HD
ATOM     52  C   UNL A   1      43.906  31.511  31.148  1.00  0.00     0.031 A 
ATOM     53  C   UNL A   1      42.933  25.104  28.520  1.00  0.00     0.031 A 
ATOM     54  C   UNL A   1      45.072  30.667  31.155  1.00  0.00     0.049 A 
ATOM     55  C   UNL A   1      44.287  25.572  28.992  1.00  0.00     0.074 A 
ATOM     56  C   UNL A   1      46.337  30.954  31.637  1.00  0.00     0.029 A 
ATOM     57  N   UNL A   1      45.120  29.376  30.653  1.00  0.00    -0.354 N 
ATOM     58  N   UNL A   1      44.623  26.719  29.534  1.00  0.00    -0.248 NA
ATOM     59  C   UNL A   1      45.406  24.629  28.844  1.00  0.00     0.031 C 
ATOM     60  C   UNL A   1      47.165  29.860  31.371  1.00  0.00     0.029 A 
ATOM     61  C   UNL A   1      46.399  28.863  30.790  1.00  0.00     0.049 A 
ATOM     62  H   UNL A   1      44.357  28.894  30.259  1.00  0.00     0.167 HD
ATOM     63  C   UNL A   1      45.982  26.620  29.823  1.00  0.00     0.074 A 
ATOM     64  C   UNL A   1      46.402  25.298  29.410  1.00  0.00     0.031 C 
ATOM     65  C   UNL A   1      46.806  27.541  30.382  1.00  0.00     0.031 A 
BRANCH  52  66
ATOM     66  C   UNL A   1      44.038  32.909  31.693  1.00  0.00    -0.014 A 
ATOM     67  C   UNL A   1      44.360  33.992  30.854  1.00  0.00     0.010 A 
ATOM     68  C   UNL A   1      43.777  33.154  33.054  1.00  0.00     0.010 A 
ATOM     69  C   UNL A   1      44.447  35.287  31.372  1.00  0.00     0.020 A 
ATOM     70  C   UNL A   1      43.833  34.451  33.569  1.00  0.00     0.020 A 
ATOM     71  C   UNL A   1      44.181  35.509  32.726  1.00  0.00     0.054 A 
BRANCH  71  72
ATOM     72  S   UNL A   1      44.259  37.206  33.361  1.00  0.00     0.124 S 
ATOM     73  O   UNL A   1      44.703  37.948  32.183  1.00  0.00    -0.237 OA
ATOM     74  O   UNL A   1      42.881  37.455  33.776  1.00  0.00    -0.237 OA
ATOM     75  O   UNL A   1      45.231  37.127  34.448  1.00  0.00    -0.744 OA
ENDBRANCH  71  72
ENDBRANCH  52  66
BRANCH  53  76
ATOM     76  C   UNL A   1      42.772  23.749  27.918  1.00  0.00    -0.014 A 
ATOM     77  C   UNL A   1      43.007  23.535  26.548  1.00  0.00     0.010 A 
ATOM     78  C   UNL A   1      42.350  22.668  28.714  1.00  0.00     0.010 A 
ATOM     79  C   UNL A   1      42.797  22.274  25.981  1.00  0.00     0.020 A 
ATOM     80  C   UNL A   1      42.172  21.397  28.157  1.00  0.00     0.020 A 
ATOM     81  C   UNL A   1      42.382  21.213  26.790  1.00  0.00     0.054 A 
BRANCH  81  82
ATOM     82  S   UNL A   1      42.149  19.578  26.039  1.00  0.00     0.124 S 
ATOM     83  O   UNL A   1      42.613  18.687  27.096  1.00  0.00    -0.237 OA
ATOM     84  O   UNL A   1      40.712  19.555  25.777  1.00  0.00    -0.237 OA
ATOM     85  O   UNL A   1      42.992  19.627  24.845  1.00  0.00    -0.744 OA
ENDBRANCH  81  82
ENDBRANCH  53  76
BRANCH  65  86
ATOM     86  C   UNL A   1      48.240  27.142  30.632  1.00  0.00    -0.014 A 
ATOM     87  C   UNL A   1      49.276  27.548  29.773  1.00  0.00     0.010 A 
ATOM     88  C   UNL A   1      48.559  26.397  31.783  1.00  0.00     0.010 A 
ATOM     89  C   UNL A   1      50.601  27.187  30.044  1.00  0.00     0.020 A 
ATOM     90  C   UNL A   1      49.884  26.062  32.074  1.00  0.00     0.020 A 
ATOM     91  C   UNL A   1      50.895  26.448  31.194  1.00  0.00     0.054 A 
BRANCH  91  92
ATOM     92  S   UNL A   1      52.626  26.030  31.544  1.00  0.00     0.124 S 
ATOM     93  O   UNL A   1      53.028  27.113  32.436  1.00  0.00    -0.237 OA
ATOM     94  O   UNL A   1      52.518  24.712  32.165  1.00  0.00    -0.237 OA
ATOM     95  O   UNL A   1      53.259  26.041  30.227  1.00  0.00    -0.744 OA
ENDBRANCH  91  92
ENDBRANCH  65  86
ENDBRANCH  39  40
ENDBRANCH  32  34
ENDBRANCH  31  32
ENDBRANCH  30  31
ENDBRANCH  29  30
ENDBRANCH  28  29
ENDBRANCH   1  28
TORSDOF 23
ENDMDL
