MODEL 1
REMARK VINA RESULT:      -9.7      0.000      0.000
REMARK SMILES Cn1ccnc1[C@@H]1[C@@H](C(=O)OCCOCCOCCOC(=O)c2ccc(-c3c4nc(c(-c5ccc(S(=O)(=O)[O-])cc5)c5ccc([nH]5)c(-c5ccc(S(=O)(=O)[O-])cc5)c5nc(c(-c6ccc(S(=O)(=O)[O-])cc6)c6ccc3[nH]6)C=C5)C=C4)cc2)CC(=O)N1CCc1ccccc1F
REMARK SMILES IDX 15 1 14 2 13 3 12 4 11 5 9 6 10 7 8 8 7 9 86 10 83 11 84 12
REMARK SMILES IDX 85 13 6 14 1 15 2 16 3 17 4 18 5 19 87 20 88 21 89 22 90 23
REMARK SMILES IDX 94 24 91 25 93 26 95 27 92 28 16 29 17 30 18 31 19 32 20 33
REMARK SMILES IDX 21 34 22 35 23 36 24 37 82 38 25 39 81 40 26 41 27 42 28 43
REMARK SMILES IDX 75 44 29 45 80 46 74 47 76 48 30 49 79 50 73 51 72 52 31 54
REMARK SMILES IDX 61 55 42 56 60 57 43 58 46 59 59 60 77 61 44 62 45 63 58 65
REMARK SMILES IDX 78 66 47 67 32 68 33 69 41 70 34 71 40 72 35 73 36 74 37 75
REMARK SMILES IDX 38 76 39 77 62 78 63 79 71 80 64 81 70 82 65 83 66 84 67 85
REMARK SMILES IDX 68 86 69 87 48 88 49 89 57 90 50 91 56 92 51 93 52 94 53 95
REMARK SMILES IDX 54 96 55 97
REMARK H PARENT 76 53 46 64
REMARK Flexibility Score: inf
ROOT
ATOM      1  C   UNL A   1      36.470  21.415  25.163  1.00  0.00     0.188 C 
ENDROOT
BRANCH   1   2
ATOM      2  O   UNL A   1      35.153  21.947  25.130  1.00  0.00    -0.376 OA
BRANCH   2   3
ATOM      3  C   UNL A   1      34.158  21.493  26.032  1.00  0.00     0.202 C 
BRANCH   3   4
ATOM      4  C   UNL A   1      33.259  22.506  26.764  1.00  0.00     0.261 C 
BRANCH   4   5
ATOM      5  O   UNL A   1      31.920  22.685  26.261  1.00  0.00    -0.463 OA
BRANCH   5   6
ATOM      6  C   UNL A   1      31.410  23.935  26.418  1.00  0.00     0.312 C 
ATOM      7  O   UNL A   1      31.631  24.647  27.389  1.00  0.00    -0.252 OA
BRANCH   6   8
ATOM      8  C   UNL A   1      30.540  24.407  25.269  1.00  0.00     0.139 C 
ATOM      9  C   UNL A   1      31.358  25.400  24.474  1.00  0.00     0.166 C 
ATOM     10  N   UNL A   1      30.384  26.182  23.738  1.00  0.00    -0.331 N 
ATOM     11  C   UNL A   1      29.251  25.188  25.532  1.00  0.00     0.118 C 
ATOM     12  C   UNL A   1      29.155  26.144  24.373  1.00  0.00     0.224 C 
ATOM     13  O   UNL A   1      28.171  26.811  24.096  1.00  0.00    -0.275 OA
BRANCH   9  14
ATOM     14  C   UNL A   1      32.446  24.776  23.671  1.00  0.00     0.132 A 
ATOM     15  C   UNL A   1      34.510  25.500  24.964  1.00  0.00     0.151 C 
ATOM     16  N   UNL A   1      33.797  24.806  23.921  1.00  0.00    -0.336 N 
ATOM     17  C   UNL A   1      34.413  24.070  22.942  1.00  0.00     0.107 A 
ATOM     18  C   UNL A   1      33.417  23.716  22.071  1.00  0.00     0.131 A 
ATOM     19  N   UNL A   1      32.210  24.152  22.531  1.00  0.00    -0.239 NA
ENDBRANCH   9  14
BRANCH  10  20
ATOM     20  C   UNL A   1      30.723  27.227  22.774  1.00  0.00     0.125 C 
BRANCH  20  21
ATOM     21  C   UNL A   1      31.033  28.595  23.416  1.00  0.00     0.060 C 
BRANCH  21  22
ATOM     22  C   UNL A   1      29.980  29.637  23.128  1.00  0.00    -0.010 A 
ATOM     23  C   UNL A   1      29.067  29.473  22.075  1.00  0.00     0.007 A 
ATOM     24  C   UNL A   1      29.818  30.726  23.991  1.00  0.00     0.126 A 
ATOM     25  C   UNL A   1      27.966  30.326  21.961  1.00  0.00     0.000 A 
ATOM     26  C   UNL A   1      28.740  31.593  23.865  1.00  0.00     0.039 A 
ATOM     27  F   UNL A   1      30.682  30.906  25.002  1.00  0.00    -0.207 F 
ATOM     28  C   UNL A   1      27.796  31.377  22.863  1.00  0.00     0.003 A 
ENDBRANCH  21  22
ENDBRANCH  20  21
ENDBRANCH  10  20
ENDBRANCH   6   8
ENDBRANCH   5   6
ENDBRANCH   4   5
ENDBRANCH   3   4
ENDBRANCH   2   3
ENDBRANCH   1   2
BRANCH   1  29
ATOM     29  C   UNL A   1      37.621  22.243  25.753  1.00  0.00     0.188 C 
BRANCH  29  30
ATOM     30  O   UNL A   1      38.879  21.618  25.720  1.00  0.00    -0.376 OA
BRANCH  30  31
ATOM     31  C   UNL A   1      39.859  22.028  26.650  1.00  0.00     0.202 C 
BRANCH  31  32
ATOM     32  C   UNL A   1      40.677  23.318  26.439  1.00  0.00     0.261 C 
BRANCH  32  33
ATOM     33  O   UNL A   1      39.986  24.576  26.503  1.00  0.00    -0.460 OA
BRANCH  33  34
ATOM     34  C   UNL A   1      40.714  25.708  26.357  1.00  0.00     0.338 C 
ATOM     35  O   UNL A   1      41.112  26.184  25.305  1.00  0.00    -0.246 OA
BRANCH  34  36
ATOM     36  C   UNL A   1      40.744  26.407  27.668  1.00  0.00     0.060 A 
ATOM     37  C   UNL A   1      39.719  26.171  28.598  1.00  0.00     0.016 A 
ATOM     38  C   UNL A   1      41.788  27.276  27.988  1.00  0.00     0.016 A 
ATOM     39  C   UNL A   1      39.725  26.821  29.836  1.00  0.00     0.010 A 
ATOM     40  C   UNL A   1      41.778  27.945  29.217  1.00  0.00     0.010 A 
ATOM     41  C   UNL A   1      40.735  27.744  30.139  1.00  0.00    -0.014 A 
BRANCH  41  42
ATOM     42  C   UNL A   1      40.617  28.630  31.328  1.00  0.00     0.031 A 
ATOM     43  C   UNL A   1      39.603  29.745  31.294  1.00  0.00     0.074 A 
ATOM     44  C   UNL A   1      41.400  28.471  32.412  1.00  0.00     0.049 A 
ATOM     45  N   UNL A   1      39.384  30.696  32.164  1.00  0.00    -0.248 NA
ATOM     46  C   UNL A   1      38.722  29.791  30.116  1.00  0.00     0.031 C 
ATOM     47  C   UNL A   1      42.388  27.411  32.596  1.00  0.00     0.029 A 
ATOM     48  N   UNL A   1      41.492  29.221  33.560  1.00  0.00    -0.354 N 
ATOM     49  C   UNL A   1      38.358  31.468  31.630  1.00  0.00     0.074 A 
ATOM     50  C   UNL A   1      38.012  30.884  30.352  1.00  0.00     0.031 C 
ATOM     51  C   UNL A   1      43.003  27.591  33.780  1.00  0.00     0.029 A 
ATOM     52  C   UNL A   1      42.482  28.800  34.417  1.00  0.00     0.049 A 
ATOM     53  H   UNL A   1      40.906  29.989  33.751  1.00  0.00     0.167 HD
ATOM     54  C   UNL A   1      37.759  32.565  32.152  1.00  0.00     0.031 A 
ATOM     55  C   UNL A   1      42.939  29.344  35.564  1.00  0.00     0.031 A 
ATOM     56  C   UNL A   1      38.115  33.156  33.415  1.00  0.00     0.049 A 
ATOM     57  C   UNL A   1      42.310  30.610  36.091  1.00  0.00     0.074 A 
ATOM     58  C   UNL A   1      37.547  34.252  34.040  1.00  0.00     0.029 A 
ATOM     59  N   UNL A   1      39.139  32.712  34.239  1.00  0.00    -0.354 N 
ATOM     60  N   UNL A   1      41.317  31.308  35.593  1.00  0.00    -0.248 NA
ATOM     61  C   UNL A   1      42.860  31.159  37.339  1.00  0.00     0.031 C 
ATOM     62  C   UNL A   1      38.273  34.515  35.206  1.00  0.00     0.029 A 
ATOM     63  C   UNL A   1      39.243  33.535  35.348  1.00  0.00     0.049 A 
ATOM     64  H   UNL A   1      39.707  31.929  34.061  1.00  0.00     0.167 HD
ATOM     65  C   UNL A   1      41.107  32.360  36.481  1.00  0.00     0.074 A 
ATOM     66  C   UNL A   1      42.063  32.198  37.555  1.00  0.00     0.031 C 
ATOM     67  C   UNL A   1      40.201  33.369  36.413  1.00  0.00     0.031 A 
BRANCH  54  68
ATOM     68  C   UNL A   1      36.684  33.230  31.331  1.00  0.00    -0.014 A 
ATOM     69  C   UNL A   1      36.977  33.856  30.106  1.00  0.00     0.010 A 
ATOM     70  C   UNL A   1      35.350  33.192  31.777  1.00  0.00     0.010 A 
ATOM     71  C   UNL A   1      35.962  34.468  29.364  1.00  0.00     0.020 A 
ATOM     72  C   UNL A   1      34.328  33.775  31.023  1.00  0.00     0.020 A 
ATOM     73  C   UNL A   1      34.644  34.425  29.829  1.00  0.00     0.054 A 
BRANCH  73  74
ATOM     74  S   UNL A   1      33.345  35.210  28.835  1.00  0.00     0.124 S 
ATOM     75  O   UNL A   1      32.872  36.259  29.733  1.00  0.00    -0.237 OA
ATOM     76  O   UNL A   1      34.079  35.672  27.660  1.00  0.00    -0.237 OA
ATOM     77  O   UNL A   1      32.395  34.127  28.587  1.00  0.00    -0.744 OA
ENDBRANCH  73  74
ENDBRANCH  54  68
BRANCH  55  78
ATOM     78  C   UNL A   1      44.080  28.710  36.286  1.00  0.00    -0.014 A 
ATOM     79  C   UNL A   1      43.865  27.641  37.174  1.00  0.00     0.010 A 
ATOM     80  C   UNL A   1      45.393  29.178  36.090  1.00  0.00     0.010 A 
ATOM     81  C   UNL A   1      44.938  27.060  37.860  1.00  0.00     0.020 A 
ATOM     82  C   UNL A   1      46.472  28.580  36.749  1.00  0.00     0.020 A 
ATOM     83  C   UNL A   1      46.236  27.531  37.637  1.00  0.00     0.054 A 
BRANCH  83  84
ATOM     84  S   UNL A   1      47.616  26.719  38.491  1.00  0.00     0.124 S 
ATOM     85  O   UNL A   1      47.652  25.414  37.840  1.00  0.00    -0.237 OA
ATOM     86  O   UNL A   1      48.736  27.607  38.189  1.00  0.00    -0.237 OA
ATOM     87  O   UNL A   1      47.195  26.709  39.890  1.00  0.00    -0.744 OA
ENDBRANCH  83  84
ENDBRANCH  55  78
BRANCH  67  88
ATOM     88  C   UNL A   1      40.166  34.360  37.550  1.00  0.00    -0.014 A 
ATOM     89  C   UNL A   1      39.489  34.078  38.751  1.00  0.00     0.010 A 
ATOM     90  C   UNL A   1      40.879  35.569  37.438  1.00  0.00     0.010 A 
ATOM     91  C   UNL A   1      39.498  35.001  39.802  1.00  0.00     0.020 A 
ATOM     92  C   UNL A   1      40.918  36.478  38.497  1.00  0.00     0.020 A 
ATOM     93  C   UNL A   1      40.216  36.195  39.669  1.00  0.00     0.054 A 
BRANCH  93  94
ATOM     94  S   UNL A   1      40.248  37.355  41.064  1.00  0.00     0.124 S 
ATOM     95  O   UNL A   1      40.276  36.451  42.211  1.00  0.00    -0.237 OA
ATOM     96  O   UNL A   1      41.478  38.106  40.825  1.00  0.00    -0.237 OA
ATOM     97  O   UNL A   1      39.015  38.122  40.906  1.00  0.00    -0.744 OA
ENDBRANCH  93  94
ENDBRANCH  67  88
ENDBRANCH  41  42
ENDBRANCH  34  36
ENDBRANCH  33  34
ENDBRANCH  32  33
ENDBRANCH  31  32
ENDBRANCH  30  31
ENDBRANCH  29  30
ENDBRANCH   1  29
TORSDOF 24
ENDMDL
MODEL 2
REMARK VINA RESULT:      -8.8      5.741     10.711
REMARK SMILES Cn1ccnc1[C@@H]1[C@@H](C(=O)OCCOCCOCCOC(=O)c2ccc(-c3c4nc(c(-c5ccc(S(=O)(=O)[O-])cc5)c5ccc([nH]5)c(-c5ccc(S(=O)(=O)[O-])cc5)c5nc(c(-c6ccc(S(=O)(=O)[O-])cc6)c6ccc3[nH]6)C=C5)C=C4)cc2)CC(=O)N1CCc1ccccc1F
REMARK SMILES IDX 15 1 14 2 13 3 12 4 11 5 9 6 10 7 8 8 7 9 86 10 83 11 84 12
REMARK SMILES IDX 85 13 6 14 1 15 2 16 3 17 4 18 5 19 87 20 88 21 89 22 90 23
REMARK SMILES IDX 94 24 91 25 93 26 95 27 92 28 16 29 17 30 18 31 19 32 20 33
REMARK SMILES IDX 21 34 22 35 23 36 24 37 82 38 25 39 81 40 26 41 27 42 28 43
REMARK SMILES IDX 75 44 29 45 80 46 74 47 76 48 30 49 79 50 73 51 72 52 31 54
REMARK SMILES IDX 61 55 42 56 60 57 43 58 46 59 59 60 77 61 44 62 45 63 58 65
REMARK SMILES IDX 78 66 47 67 32 68 33 69 41 70 34 71 40 72 35 73 36 74 37 75
REMARK SMILES IDX 38 76 39 77 62 78 63 79 71 80 64 81 70 82 65 83 66 84 67 85
REMARK SMILES IDX 68 86 69 87 48 88 49 89 57 90 50 91 56 92 51 93 52 94 53 95
REMARK SMILES IDX 54 96 55 97
REMARK H PARENT 76 53 46 64
REMARK Flexibility Score: inf
ROOT
ATOM      1  C   UNL A   1      33.653  28.193  26.607  1.00  0.00     0.188 C 
ENDROOT
BRANCH   1   2
ATOM      2  O   UNL A   1      32.288  28.370  26.252  1.00  0.00    -0.376 OA
BRANCH   2   3
ATOM      3  C   UNL A   1      31.271  27.574  26.838  1.00  0.00     0.202 C 
BRANCH   3   4
ATOM      4  C   UNL A   1      30.603  26.452  26.021  1.00  0.00     0.261 C 
BRANCH   4   5
ATOM      5  O   UNL A   1      29.763  26.848  24.919  1.00  0.00    -0.463 OA
BRANCH   5   6
ATOM      6  C   UNL A   1      29.876  26.078  23.805  1.00  0.00     0.312 C 
ATOM      7  O   UNL A   1      29.028  25.273  23.442  1.00  0.00    -0.252 OA
BRANCH   6   8
ATOM      8  C   UNL A   1      31.148  26.304  23.011  1.00  0.00     0.139 C 
ATOM      9  C   UNL A   1      32.246  25.532  23.706  1.00  0.00     0.166 C 
ATOM     10  N   UNL A   1      33.479  26.151  23.260  1.00  0.00    -0.331 N 
ATOM     11  C   UNL A   1      31.760  27.701  22.893  1.00  0.00     0.118 C 
ATOM     12  C   UNL A   1      33.244  27.452  22.849  1.00  0.00     0.224 C 
ATOM     13  O   UNL A   1      34.085  28.287  22.559  1.00  0.00    -0.275 OA
BRANCH   9  14
ATOM     14  C   UNL A   1      32.148  24.056  23.530  1.00  0.00     0.132 A 
ATOM     15  C   UNL A   1      31.365  23.321  25.833  1.00  0.00     0.151 C 
ATOM     16  N   UNL A   1      31.734  23.126  24.453  1.00  0.00    -0.336 N 
ATOM     17  C   UNL A   1      31.769  21.898  23.844  1.00  0.00     0.107 A 
ATOM     18  C   UNL A   1      32.314  22.121  22.608  1.00  0.00     0.131 A 
ATOM     19  N   UNL A   1      32.540  23.452  22.423  1.00  0.00    -0.239 NA
ENDBRANCH   9  14
BRANCH  10  20
ATOM     20  C   UNL A   1      34.816  25.686  23.624  1.00  0.00     0.125 C 
BRANCH  20  21
ATOM     21  C   UNL A   1      34.893  25.031  25.019  1.00  0.00     0.060 C 
BRANCH  21  22
ATOM     22  C   UNL A   1      35.352  23.594  24.974  1.00  0.00    -0.010 A 
ATOM     23  C   UNL A   1      36.158  23.123  23.926  1.00  0.00     0.007 A 
ATOM     24  C   UNL A   1      35.084  22.740  26.048  1.00  0.00     0.126 A 
ATOM     25  C   UNL A   1      36.756  21.864  24.013  1.00  0.00     0.000 A 
ATOM     26  C   UNL A   1      35.655  21.474  26.125  1.00  0.00     0.039 A 
ATOM     27  F   UNL A   1      34.311  23.166  27.059  1.00  0.00    -0.207 F 
ATOM     28  C   UNL A   1      36.515  21.045  25.117  1.00  0.00     0.003 A 
ENDBRANCH  21  22
ENDBRANCH  20  21
ENDBRANCH  10  20
ENDBRANCH   6   8
ENDBRANCH   5   6
ENDBRANCH   4   5
ENDBRANCH   3   4
ENDBRANCH   2   3
ENDBRANCH   1   2
BRANCH   1  29
ATOM     29  C   UNL A   1      34.424  29.331  27.293  1.00  0.00     0.188 C 
BRANCH  29  30
ATOM     30  O   UNL A   1      33.630  30.400  27.741  1.00  0.00    -0.376 OA
BRANCH  30  31
ATOM     31  C   UNL A   1      34.106  31.715  27.556  1.00  0.00     0.202 C 
BRANCH  31  32
ATOM     32  C   UNL A   1      34.336  32.662  28.751  1.00  0.00     0.261 C 
BRANCH  32  33
ATOM     33  O   UNL A   1      34.757  32.088  29.999  1.00  0.00    -0.460 OA
BRANCH  33  34
ATOM     34  C   UNL A   1      35.767  32.693  30.667  1.00  0.00     0.338 C 
ATOM     35  O   UNL A   1      35.657  33.576  31.505  1.00  0.00    -0.246 OA
BRANCH  34  36
ATOM     36  C   UNL A   1      37.017  31.937  30.392  1.00  0.00     0.060 A 
ATOM     37  C   UNL A   1      37.696  31.319  31.454  1.00  0.00     0.016 A 
ATOM     38  C   UNL A   1      37.507  31.822  29.091  1.00  0.00     0.016 A 
ATOM     39  C   UNL A   1      38.876  30.607  31.219  1.00  0.00     0.010 A 
ATOM     40  C   UNL A   1      38.702  31.131  28.861  1.00  0.00     0.010 A 
ATOM     41  C   UNL A   1      39.410  30.541  29.925  1.00  0.00    -0.014 A 
BRANCH  41  42
ATOM     42  C   UNL A   1      40.784  30.018  29.699  1.00  0.00     0.031 A 
ATOM     43  C   UNL A   1      41.944  30.972  29.826  1.00  0.00     0.074 A 
ATOM     44  C   UNL A   1      41.009  28.732  29.371  1.00  0.00     0.049 A 
ATOM     45  N   UNL A   1      43.214  30.773  29.585  1.00  0.00    -0.248 NA
ATOM     46  C   UNL A   1      41.623  32.334  30.283  1.00  0.00     0.031 C 
ATOM     47  C   UNL A   1      39.986  27.694  29.259  1.00  0.00     0.029 A 
ATOM     48  N   UNL A   1      42.180  28.086  29.055  1.00  0.00    -0.354 N 
ATOM     49  C   UNL A   1      43.841  31.988  29.837  1.00  0.00     0.074 A 
ATOM     50  C   UNL A   1      42.808  32.922  30.231  1.00  0.00     0.031 C 
ATOM     51  C   UNL A   1      40.574  26.544  28.878  1.00  0.00     0.029 A 
ATOM     52  C   UNL A   1      42.005  26.775  28.679  1.00  0.00     0.049 A 
ATOM     53  H   UNL A   1      43.063  28.522  29.092  1.00  0.00     0.167 HD
ATOM     54  C   UNL A   1      45.156  32.301  29.747  1.00  0.00     0.031 A 
ATOM     55  C   UNL A   1      42.887  25.874  28.199  1.00  0.00     0.031 A 
ATOM     56  C   UNL A   1      46.181  31.376  29.339  1.00  0.00     0.049 A 
ATOM     57  C   UNL A   1      44.335  26.265  28.033  1.00  0.00     0.074 A 
ATOM     58  C   UNL A   1      47.544  31.594  29.242  1.00  0.00     0.029 A 
ATOM     59  N   UNL A   1      45.956  30.066  28.944  1.00  0.00    -0.354 N 
ATOM     60  N   UNL A   1      44.919  27.407  28.309  1.00  0.00    -0.248 NA
ATOM     61  C   UNL A   1      45.244  25.242  27.494  1.00  0.00     0.031 C 
ATOM     62  C   UNL A   1      48.134  30.438  28.721  1.00  0.00     0.029 A 
ATOM     63  C   UNL A   1      47.150  29.475  28.568  1.00  0.00     0.049 A 
ATOM     64  H   UNL A   1      45.077  29.622  28.932  1.00  0.00     0.167 HD
ATOM     65  C   UNL A   1      46.266  27.229  28.004  1.00  0.00     0.074 A 
ATOM     66  C   UNL A   1      46.414  25.866  27.540  1.00  0.00     0.031 C 
ATOM     67  C   UNL A   1      47.289  28.116  28.104  1.00  0.00     0.031 A 
BRANCH  54  68
ATOM     68  C   UNL A   1      45.557  33.722  30.050  1.00  0.00    -0.014 A 
ATOM     69  C   UNL A   1      45.935  34.118  31.346  1.00  0.00     0.010 A 
ATOM     70  C   UNL A   1      45.591  34.668  29.009  1.00  0.00     0.010 A 
ATOM     71  C   UNL A   1      46.300  35.443  31.601  1.00  0.00     0.020 A 
ATOM     72  C   UNL A   1      45.987  35.986  29.254  1.00  0.00     0.020 A 
ATOM     73  C   UNL A   1      46.322  36.369  30.553  1.00  0.00     0.054 A 
BRANCH  73  74
ATOM     74  S   UNL A   1      46.820  38.076  30.911  1.00  0.00     0.124 S 
ATOM     75  O   UNL A   1      47.867  37.880  31.911  1.00  0.00    -0.237 OA
ATOM     76  O   UNL A   1      47.276  38.555  29.609  1.00  0.00    -0.237 OA
ATOM     77  O   UNL A   1      45.595  38.699  31.408  1.00  0.00    -0.744 OA
ENDBRANCH  73  74
ENDBRANCH  54  68
BRANCH  55  78
ATOM     78  C   UNL A   1      42.422  24.511  27.809  1.00  0.00    -0.014 A 
ATOM     79  C   UNL A   1      41.947  24.258  26.509  1.00  0.00     0.010 A 
ATOM     80  C   UNL A   1      42.446  23.458  28.742  1.00  0.00     0.010 A 
ATOM     81  C   UNL A   1      41.496  22.981  26.155  1.00  0.00     0.020 A 
ATOM     82  C   UNL A   1      42.027  22.173  28.382  1.00  0.00     0.020 A 
ATOM     83  C   UNL A   1      41.546  21.946  27.093  1.00  0.00     0.054 A 
BRANCH  83  84
ATOM     84  S   UNL A   1      41.015  20.285  26.588  1.00  0.00     0.124 S 
ATOM     85  O   UNL A   1      40.959  19.583  27.866  1.00  0.00    -0.237 OA
ATOM     86  O   UNL A   1      39.726  20.548  25.953  1.00  0.00    -0.237 OA
ATOM     87  O   UNL A   1      42.073  19.849  25.680  1.00  0.00    -0.744 OA
ENDBRANCH  83  84
ENDBRANCH  55  78
BRANCH  67  88
ATOM     88  C   UNL A   1      48.673  27.636  27.742  1.00  0.00    -0.014 A 
ATOM     89  C   UNL A   1      49.541  27.099  28.709  1.00  0.00     0.010 A 
ATOM     90  C   UNL A   1      49.087  27.664  26.396  1.00  0.00     0.010 A 
ATOM     91  C   UNL A   1      50.808  26.631  28.342  1.00  0.00     0.020 A 
ATOM     92  C   UNL A   1      50.337  27.168  26.020  1.00  0.00     0.020 A 
ATOM     93  C   UNL A   1      51.197  26.666  26.999  1.00  0.00     0.054 A 
BRANCH  93  94
ATOM     94  S   UNL A   1      52.827  26.013  26.544  1.00  0.00     0.124 S 
ATOM     95  O   UNL A   1      53.536  26.046  27.820  1.00  0.00    -0.237 OA
ATOM     96  O   UNL A   1      52.506  24.680  26.037  1.00  0.00    -0.237 OA
ATOM     97  O   UNL A   1      53.310  26.955  25.539  1.00  0.00    -0.744 OA
ENDBRANCH  93  94
ENDBRANCH  67  88
ENDBRANCH  41  42
ENDBRANCH  34  36
ENDBRANCH  33  34
ENDBRANCH  32  33
ENDBRANCH  31  32
ENDBRANCH  30  31
ENDBRANCH  29  30
ENDBRANCH   1  29
TORSDOF 24
ENDMDL
MODEL 3
REMARK VINA RESULT:      -8.7      5.647      7.221
REMARK SMILES Cn1ccnc1[C@@H]1[C@@H](C(=O)OCCOCCOCCOC(=O)c2ccc(-c3c4nc(c(-c5ccc(S(=O)(=O)[O-])cc5)c5ccc([nH]5)c(-c5ccc(S(=O)(=O)[O-])cc5)c5nc(c(-c6ccc(S(=O)(=O)[O-])cc6)c6ccc3[nH]6)C=C5)C=C4)cc2)CC(=O)N1CCc1ccccc1F
REMARK SMILES IDX 15 1 14 2 13 3 12 4 11 5 9 6 10 7 8 8 7 9 86 10 83 11 84 12
REMARK SMILES IDX 85 13 6 14 1 15 2 16 3 17 4 18 5 19 87 20 88 21 89 22 90 23
REMARK SMILES IDX 94 24 91 25 93 26 95 27 92 28 16 29 17 30 18 31 19 32 20 33
REMARK SMILES IDX 21 34 22 35 23 36 24 37 82 38 25 39 81 40 26 41 27 42 28 43
REMARK SMILES IDX 75 44 29 45 80 46 74 47 76 48 30 49 79 50 73 51 72 52 31 54
REMARK SMILES IDX 61 55 42 56 60 57 43 58 46 59 59 60 77 61 44 62 45 63 58 65
REMARK SMILES IDX 78 66 47 67 32 68 33 69 41 70 34 71 40 72 35 73 36 74 37 75
REMARK SMILES IDX 38 76 39 77 62 78 63 79 71 80 64 81 70 82 65 83 66 84 67 85
REMARK SMILES IDX 68 86 69 87 48 88 49 89 57 90 50 91 56 92 51 93 52 94 53 95
REMARK SMILES IDX 54 96 55 97
REMARK H PARENT 76 53 46 64
REMARK Flexibility Score: inf
ROOT
ATOM      1  C   UNL A   1      37.055  22.718  26.092  1.00  0.00     0.188 C 
ENDROOT
BRANCH   1   2
ATOM      2  O   UNL A   1      35.794  23.333  25.865  1.00  0.00    -0.376 OA
BRANCH   2   3
ATOM      3  C   UNL A   1      35.011  22.998  24.732  1.00  0.00     0.202 C 
BRANCH   3   4
ATOM      4  C   UNL A   1      35.054  23.886  23.474  1.00  0.00     0.261 C 
BRANCH   4   5
ATOM      5  O   UNL A   1      34.131  23.572  22.412  1.00  0.00    -0.463 OA
BRANCH   5   6
ATOM      6  C   UNL A   1      33.496  24.642  21.868  1.00  0.00     0.312 C 
ATOM      7  O   UNL A   1      32.973  24.638  20.761  1.00  0.00    -0.252 OA
BRANCH   6   8
ATOM      8  C   UNL A   1      33.461  25.870  22.758  1.00  0.00     0.139 C 
ATOM      9  C   UNL A   1      32.025  26.061  23.192  1.00  0.00     0.166 C 
ATOM     10  N   UNL A   1      31.935  27.454  23.584  1.00  0.00    -0.331 N 
ATOM     11  C   UNL A   1      33.816  27.250  22.201  1.00  0.00     0.118 C 
ATOM     12  C   UNL A   1      32.923  28.196  22.960  1.00  0.00     0.224 C 
ATOM     13  O   UNL A   1      33.031  29.411  22.960  1.00  0.00    -0.275 OA
BRANCH   9  14
ATOM     14  C   UNL A   1      31.563  25.061  24.195  1.00  0.00     0.132 A 
ATOM     15  C   UNL A   1      32.945  25.705  26.227  1.00  0.00     0.151 C 
ATOM     16  N   UNL A   1      31.952  24.948  25.508  1.00  0.00    -0.336 N 
ATOM     17  C   UNL A   1      31.243  23.912  26.059  1.00  0.00     0.107 A 
ATOM     18  C   UNL A   1      30.534  23.364  25.023  1.00  0.00     0.131 A 
ATOM     19  N   UNL A   1      30.736  24.080  23.881  1.00  0.00    -0.239 NA
ENDBRANCH   9  14
BRANCH  10  20
ATOM     20  C   UNL A   1      30.738  28.078  24.143  1.00  0.00     0.125 C 
BRANCH  20  21
ATOM     21  C   UNL A   1      29.491  27.960  23.244  1.00  0.00     0.060 C 
BRANCH  21  22
ATOM     22  C   UNL A   1      28.852  29.293  22.939  1.00  0.00    -0.010 A 
ATOM     23  C   UNL A   1      27.686  29.706  23.600  1.00  0.00     0.007 A 
ATOM     24  C   UNL A   1      29.488  30.194  22.078  1.00  0.00     0.126 A 
ATOM     25  C   UNL A   1      27.236  31.023  23.475  1.00  0.00     0.000 A 
ATOM     26  C   UNL A   1      29.028  31.497  21.928  1.00  0.00     0.039 A 
ATOM     27  F   UNL A   1      30.601  29.819  21.429  1.00  0.00    -0.207 F 
ATOM     28  C   UNL A   1      27.914  31.921  22.649  1.00  0.00     0.003 A 
ENDBRANCH  21  22
ENDBRANCH  20  21
ENDBRANCH  10  20
ENDBRANCH   6   8
ENDBRANCH   5   6
ENDBRANCH   4   5
ENDBRANCH   3   4
ENDBRANCH   2   3
ENDBRANCH   1   2
BRANCH   1  29
ATOM     29  C   UNL A   1      38.321  23.578  26.218  1.00  0.00     0.188 C 
BRANCH  29  30
ATOM     30  O   UNL A   1      39.506  22.859  26.448  1.00  0.00    -0.376 OA
BRANCH  30  31
ATOM     31  C   UNL A   1      40.490  23.433  27.281  1.00  0.00     0.202 C 
BRANCH  31  32
ATOM     32  C   UNL A   1      40.307  24.837  27.890  1.00  0.00     0.261 C 
BRANCH  32  33
ATOM     33  O   UNL A   1      41.360  25.797  27.708  1.00  0.00    -0.460 OA
BRANCH  33  34
ATOM     34  C   UNL A   1      42.438  25.719  28.523  1.00  0.00     0.338 C 
ATOM     35  O   UNL A   1      43.261  24.817  28.555  1.00  0.00    -0.246 OA
BRANCH  34  36
ATOM     36  C   UNL A   1      42.592  27.030  29.207  1.00  0.00     0.060 A 
ATOM     37  C   UNL A   1      41.810  28.119  28.791  1.00  0.00     0.016 A 
ATOM     38  C   UNL A   1      43.489  27.180  30.266  1.00  0.00     0.016 A 
ATOM     39  C   UNL A   1      41.940  29.363  29.418  1.00  0.00     0.010 A 
ATOM     40  C   UNL A   1      43.636  28.431  30.874  1.00  0.00     0.010 A 
ATOM     41  C   UNL A   1      42.884  29.538  30.439  1.00  0.00    -0.014 A 
BRANCH  41  42
ATOM     42  C   UNL A   1      43.220  30.900  30.932  1.00  0.00     0.031 A 
ATOM     43  C   UNL A   1      42.459  31.442  32.114  1.00  0.00     0.074 A 
ATOM     44  C   UNL A   1      44.164  31.657  30.341  1.00  0.00     0.049 A 
ATOM     45  N   UNL A   1      42.507  32.630  32.661  1.00  0.00    -0.248 NA
ATOM     46  C   UNL A   1      41.514  30.518  32.763  1.00  0.00     0.031 C 
ATOM     47  C   UNL A   1      45.005  31.242  29.221  1.00  0.00     0.029 A 
ATOM     48  N   UNL A   1      44.560  32.947  30.599  1.00  0.00    -0.354 N 
ATOM     49  C   UNL A   1      41.585  32.604  33.701  1.00  0.00     0.074 A 
ATOM     50  C   UNL A   1      40.978  31.290  33.696  1.00  0.00     0.031 C 
ATOM     51  C   UNL A   1      45.804  32.267  28.873  1.00  0.00     0.029 A 
ATOM     52  C   UNL A   1      45.503  33.423  29.718  1.00  0.00     0.049 A 
ATOM     53  H   UNL A   1      44.201  33.483  31.344  1.00  0.00     0.167 HD
ATOM     54  C   UNL A   1      41.267  33.585  34.580  1.00  0.00     0.031 A 
ATOM     55  C   UNL A   1      46.037  34.655  29.585  1.00  0.00     0.031 A 
ATOM     56  C   UNL A   1      41.858  34.897  34.575  1.00  0.00     0.049 A 
ATOM     57  C   UNL A   1      45.613  35.756  30.526  1.00  0.00     0.074 A 
ATOM     58  C   UNL A   1      41.619  35.950  35.441  1.00  0.00     0.029 A 
ATOM     59  N   UNL A   1      42.790  35.344  33.650  1.00  0.00    -0.354 N 
ATOM     60  N   UNL A   1      44.766  35.707  31.526  1.00  0.00    -0.248 NA
ATOM     61  C   UNL A   1      46.223  37.079  30.321  1.00  0.00     0.031 C 
ATOM     62  C   UNL A   1      42.353  37.054  34.999  1.00  0.00     0.029 A 
ATOM     63  C   UNL A   1      43.109  36.668  33.904  1.00  0.00     0.049 A 
ATOM     64  H   UNL A   1      43.168  34.801  32.922  1.00  0.00     0.167 HD
ATOM     65  C   UNL A   1      44.763  36.983  32.086  1.00  0.00     0.074 A 
ATOM     66  C   UNL A   1      45.706  37.775  31.325  1.00  0.00     0.031 C 
ATOM     67  C   UNL A   1      44.047  37.453  33.139  1.00  0.00     0.031 A 
BRANCH  54  68
ATOM     68  C   UNL A   1      40.193  33.290  35.596  1.00  0.00    -0.014 A 
ATOM     69  C   UNL A   1      38.829  33.316  35.252  1.00  0.00     0.010 A 
ATOM     70  C   UNL A   1      40.559  32.944  36.909  1.00  0.00     0.010 A 
ATOM     71  C   UNL A   1      37.852  33.042  36.213  1.00  0.00     0.020 A 
ATOM     72  C   UNL A   1      39.587  32.637  37.865  1.00  0.00     0.020 A 
ATOM     73  C   UNL A   1      38.238  32.706  37.515  1.00  0.00     0.054 A 
BRANCH  73  74
ATOM     74  S   UNL A   1      36.948  32.334  38.735  1.00  0.00     0.124 S 
ATOM     75  O   UNL A   1      36.887  30.877  38.673  1.00  0.00    -0.237 OA
ATOM     76  O   UNL A   1      37.506  32.887  39.966  1.00  0.00    -0.237 OA
ATOM     77  O   UNL A   1      35.771  33.029  38.219  1.00  0.00    -0.744 OA
ENDBRANCH  73  74
ENDBRANCH  54  68
BRANCH  55  78
ATOM     78  C   UNL A   1      47.016  34.928  28.493  1.00  0.00    -0.014 A 
ATOM     79  C   UNL A   1      48.336  34.448  28.574  1.00  0.00     0.010 A 
ATOM     80  C   UNL A   1      46.632  35.677  27.365  1.00  0.00     0.010 A 
ATOM     81  C   UNL A   1      49.254  34.720  27.553  1.00  0.00     0.020 A 
ATOM     82  C   UNL A   1      47.538  35.925  26.329  1.00  0.00     0.020 A 
ATOM     83  C   UNL A   1      48.846  35.452  26.435  1.00  0.00     0.054 A 
BRANCH  83  84
ATOM     84  S   UNL A   1      50.039  35.738  25.097  1.00  0.00     0.124 S 
ATOM     85  O   UNL A   1      51.059  36.538  25.765  1.00  0.00    -0.237 OA
ATOM     86  O   UNL A   1      50.437  34.379  24.737  1.00  0.00    -0.237 OA
ATOM     87  O   UNL A   1      49.256  36.441  24.084  1.00  0.00    -0.744 OA
ENDBRANCH  83  84
ENDBRANCH  55  78
BRANCH  67  88
ATOM     88  C   UNL A   1      44.277  38.882  33.563  1.00  0.00    -0.014 A 
ATOM     89  C   UNL A   1      43.461  39.928  33.096  1.00  0.00     0.010 A 
ATOM     90  C   UNL A   1      45.288  39.173  34.499  1.00  0.00     0.010 A 
ATOM     91  C   UNL A   1      43.675  41.241  33.530  1.00  0.00     0.020 A 
ATOM     92  C   UNL A   1      45.484  40.477  34.960  1.00  0.00     0.020 A 
ATOM     93  C   UNL A   1      44.684  41.506  34.462  1.00  0.00     0.054 A 
BRANCH  93  94
ATOM     94  S   UNL A   1      44.912  43.211  35.041  1.00  0.00     0.124 S 
ATOM     95  O   UNL A   1      46.162  43.590  34.390  1.00  0.00    -0.237 OA
ATOM     96  O   UNL A   1      43.714  43.881  34.540  1.00  0.00    -0.237 OA
ATOM     97  O   UNL A   1      44.982  43.077  36.494  1.00  0.00    -0.744 OA
ENDBRANCH  93  94
ENDBRANCH  67  88
ENDBRANCH  41  42
ENDBRANCH  34  36
ENDBRANCH  33  34
ENDBRANCH  32  33
ENDBRANCH  31  32
ENDBRANCH  30  31
ENDBRANCH  29  30
ENDBRANCH   1  29
TORSDOF 24
ENDMDL
