MODEL 1
REMARK VINA RESULT:      -7.8      0.000      0.000
REMARK SMILES CC[NH+]1CC[NH+]([C@@H]2CC(=O)N(c3ccc(C(=O)OCCOCCOCCOC(=O)c4ccc(-c5c6nc(c(-c7ccc(S(=O)(=O)[O-])cc7)c7ccc([nH]7)c(-c7ccc(S(=O)(=O)[O-])cc7)c7nc(c(-c8ccc(S(=O)(=O)[O-])cc8)c8ccc5[nH]8)C=C7)C=C6)cc4)cc3)C2=O)CC1
REMARK SMILES IDX 22 1 21 2 20 3 19 4 18 5 16 6 17 7 15 8 12 9 13 10 91 11
REMARK SMILES IDX 14 12 90 13 11 14 7 15 8 16 92 17 9 18 93 19 10 20 6 21 3 22
REMARK SMILES IDX 4 23 95 24 5 26 94 27 2 29 1 30 23 31 24 32 25 33 26 34
REMARK SMILES IDX 27 35 28 36 29 37 30 38 31 39 89 40 32 41 88 42 33 43 34 44
REMARK SMILES IDX 35 45 82 46 36 47 87 48 81 49 83 50 37 51 86 52 80 53 79 54
REMARK SMILES IDX 38 56 68 57 49 58 67 59 50 60 53 61 66 62 84 63 51 64 52 65
REMARK SMILES IDX 65 67 85 68 54 69 39 70 40 71 48 72 41 73 47 74 42 75 43 76
REMARK SMILES IDX 44 77 45 78 46 79 69 80 70 81 78 82 71 83 77 84 72 85 73 86
REMARK SMILES IDX 74 87 75 88 76 89 55 90 56 91 64 92 57 93 63 94 58 95 59 96
REMARK SMILES IDX 60 97 61 98 62 99
REMARK H PARENT 3 25 6 28 83 55 53 66
REMARK Flexibility Score: inf
ROOT
ATOM      1  C   UNL A   1      34.591  33.655  30.887  1.00  0.00     0.188 C 
ENDROOT
BRANCH   1   2
ATOM      2  O   UNL A   1      35.711  33.749  31.746  1.00  0.00    -0.376 OA
BRANCH   2   3
ATOM      3  C   UNL A   1      35.600  34.367  33.017  1.00  0.00     0.202 C 
BRANCH   3   4
ATOM      4  C   UNL A   1      35.432  33.579  34.325  1.00  0.00     0.261 C 
BRANCH   4   5
ATOM      5  O   UNL A   1      36.432  32.589  34.578  1.00  0.00    -0.460 OA
BRANCH   5   6
ATOM      6  C   UNL A   1      37.451  33.001  35.381  1.00  0.00     0.338 C 
ATOM      7  O   UNL A   1      37.411  33.840  36.249  1.00  0.00    -0.246 OA
BRANCH   6   8
ATOM      8  C   UNL A   1      38.622  32.128  35.152  1.00  0.00     0.060 A 
ATOM      9  C   UNL A   1      40.770  30.414  34.609  1.00  0.00     0.052 A 
ATOM     10  C   UNL A   1      40.298  31.291  33.621  1.00  0.00     0.028 A 
ATOM     11  C   UNL A   1      40.203  30.469  35.892  1.00  0.00     0.028 A 
ATOM     12  C   UNL A   1      39.202  32.116  33.880  1.00  0.00     0.018 A 
ATOM     13  C   UNL A   1      39.148  31.339  36.174  1.00  0.00     0.018 A 
BRANCH   9  14
ATOM     14  N   UNL A   1      41.709  29.409  34.275  1.00  0.00    -0.245 N 
ATOM     15  C   UNL A   1      42.652  27.270  34.002  1.00  0.00     0.285 C 
ATOM     16  C   UNL A   1      43.763  28.300  34.118  1.00  0.00     0.176 C 
ATOM     17  C   UNL A   1      41.379  28.112  33.953  1.00  0.00     0.292 C 
ATOM     18  C   UNL A   1      43.065  29.599  34.353  1.00  0.00     0.240 C 
ATOM     19  O   UNL A   1      40.269  27.680  33.668  1.00  0.00    -0.267 OA
ATOM     20  O   UNL A   1      43.680  30.628  34.609  1.00  0.00    -0.274 OA
BRANCH  15  21
ATOM     21  N   UNL A   1      42.545  26.205  35.016  1.00  0.00    -0.315 N 
ATOM     22  N   UNL A   1      44.708  25.695  37.049  1.00  0.00    -0.326 N 
ATOM     23  C   UNL A   1      44.801  25.187  35.675  1.00  0.00     0.324 C 
ATOM     24  C   UNL A   1      43.747  26.795  37.182  1.00  0.00     0.324 C 
ATOM     25  H   UNL A   1      45.619  26.110  37.245  1.00  0.00     0.348 HD
ATOM     26  C   UNL A   1      43.483  25.086  34.872  1.00  0.00     0.325 C 
ATOM     27  C   UNL A   1      42.416  26.609  36.422  1.00  0.00     0.325 C 
ATOM     28  H   UNL A   1      41.620  25.858  34.761  1.00  0.00     0.349 HD
BRANCH  22  29
ATOM     29  C   UNL A   1      44.602  24.657  38.079  1.00  0.00     0.259 C 
ATOM     30  C   UNL A   1      45.334  24.872  39.398  1.00  0.00     0.071 C 
ENDBRANCH  22  29
ENDBRANCH  15  21
ENDBRANCH   9  14
ENDBRANCH   6   8
ENDBRANCH   5   6
ENDBRANCH   4   5
ENDBRANCH   3   4
ENDBRANCH   2   3
ENDBRANCH   1   2
BRANCH   1  31
ATOM     31  C   UNL A   1      34.072  34.905  30.147  1.00  0.00     0.188 C 
BRANCH  31  32
ATOM     32  O   UNL A   1      34.135  34.939  28.742  1.00  0.00    -0.376 OA
BRANCH  32  33
ATOM     33  C   UNL A   1      33.311  34.094  27.959  1.00  0.00     0.202 C 
BRANCH  33  34
ATOM     34  C   UNL A   1      33.278  32.553  28.004  1.00  0.00     0.261 C 
BRANCH  34  35
ATOM     35  O   UNL A   1      34.436  31.837  27.576  1.00  0.00    -0.460 OA
BRANCH  35  36
ATOM     36  C   UNL A   1      34.416  30.502  27.826  1.00  0.00     0.338 C 
ATOM     37  O   UNL A   1      33.464  29.748  27.725  1.00  0.00    -0.246 OA
BRANCH  36  38
ATOM     38  C   UNL A   1      35.794  30.048  28.085  1.00  0.00     0.060 A 
ATOM     39  C   UNL A   1      36.147  29.679  29.389  1.00  0.00     0.016 A 
ATOM     40  C   UNL A   1      36.737  30.026  27.057  1.00  0.00     0.016 A 
ATOM     41  C   UNL A   1      37.459  29.304  29.674  1.00  0.00     0.010 A 
ATOM     42  C   UNL A   1      38.056  29.668  27.349  1.00  0.00     0.010 A 
ATOM     43  C   UNL A   1      38.430  29.332  28.664  1.00  0.00    -0.014 A 
BRANCH  43  44
ATOM     44  C   UNL A   1      39.864  29.175  29.008  1.00  0.00     0.031 A 
ATOM     45  C   UNL A   1      40.530  27.854  28.731  1.00  0.00     0.074 A 
ATOM     46  C   UNL A   1      40.565  30.185  29.553  1.00  0.00     0.049 A 
ATOM     47  N   UNL A   1      41.750  27.469  28.999  1.00  0.00    -0.248 NA
ATOM     48  C   UNL A   1      39.706  26.830  28.067  1.00  0.00     0.031 C 
ATOM     49  C   UNL A   1      40.047  31.524  29.829  1.00  0.00     0.029 A 
ATOM     50  N   UNL A   1      41.869  30.233  29.981  1.00  0.00    -0.354 N 
ATOM     51  C   UNL A   1      41.840  26.158  28.546  1.00  0.00     0.074 A 
ATOM     52  C   UNL A   1      40.542  25.804  28.012  1.00  0.00     0.031 C 
ATOM     53  C   UNL A   1      41.022  32.260  30.391  1.00  0.00     0.029 A 
ATOM     54  C   UNL A   1      42.220  31.435  30.546  1.00  0.00     0.049 A 
ATOM     55  H   UNL A   1      42.494  29.477  29.890  1.00  0.00     0.167 HD
ATOM     56  C   UNL A   1      42.907  25.323  28.568  1.00  0.00     0.031 A 
ATOM     57  C   UNL A   1      43.368  31.817  31.143  1.00  0.00     0.031 A 
ATOM     58  C   UNL A   1      44.191  25.672  29.114  1.00  0.00     0.049 A 
ATOM     59  C   UNL A   1      44.517  30.844  31.228  1.00  0.00     0.074 A 
ATOM     60  C   UNL A   1      45.338  24.900  29.171  1.00  0.00     0.029 A 
ATOM     61  N   UNL A   1      44.497  26.887  29.708  1.00  0.00    -0.354 N 
ATOM     62  N   UNL A   1      44.596  29.616  30.772  1.00  0.00    -0.248 NA
ATOM     63  C   UNL A   1      45.737  31.314  31.902  1.00  0.00     0.031 C 
ATOM     64  C   UNL A   1      46.319  25.627  29.855  1.00  0.00     0.029 A 
ATOM     65  C   UNL A   1      45.805  26.878  30.161  1.00  0.00     0.049 A 
ATOM     66  H   UNL A   1      43.875  27.646  29.794  1.00  0.00     0.167 HD
ATOM     67  C   UNL A   1      45.883  29.179  31.076  1.00  0.00     0.074 A 
ATOM     68  C   UNL A   1      46.549  30.279  31.744  1.00  0.00     0.031 C 
ATOM     69  C   UNL A   1      46.460  27.978  30.823  1.00  0.00     0.031 A 
BRANCH  56  70
ATOM     70  C   UNL A   1      42.716  23.935  28.016  1.00  0.00    -0.014 A 
ATOM     71  C   UNL A   1      42.227  22.889  28.820  1.00  0.00     0.010 A 
ATOM     72  C   UNL A   1      42.999  23.681  26.662  1.00  0.00     0.010 A 
ATOM     73  C   UNL A   1      42.061  21.607  28.288  1.00  0.00     0.020 A 
ATOM     74  C   UNL A   1      42.807  22.409  26.119  1.00  0.00     0.020 A 
ATOM     75  C   UNL A   1      42.354  21.374  26.941  1.00  0.00     0.054 A 
BRANCH  75  76
ATOM     76  S   UNL A   1      42.108  19.707  26.273  1.00  0.00     0.124 S 
ATOM     77  O   UNL A   1      42.553  18.869  27.382  1.00  0.00    -0.237 OA
ATOM     78  O   UNL A   1      40.672  19.679  26.001  1.00  0.00    -0.237 OA
ATOM     79  O   UNL A   1      42.962  19.677  25.088  1.00  0.00    -0.744 OA
ENDBRANCH  75  76
ENDBRANCH  56  70
BRANCH  57  80
ATOM     80  C   UNL A   1      43.484  33.182  31.727  1.00  0.00    -0.014 A 
ATOM     81  C   UNL A   1      44.001  34.247  30.969  1.00  0.00     0.010 A 
ATOM     82  C   UNL A   1      43.086  33.422  33.056  1.00  0.00     0.010 A 
ATOM     83  C   UNL A   1      44.133  35.520  31.531  1.00  0.00     0.020 A 
ATOM     84  C   UNL A   1      43.189  34.700  33.612  1.00  0.00     0.020 A 
ATOM     85  C   UNL A   1      43.722  35.739  32.849  1.00  0.00     0.054 A 
BRANCH  85  86
ATOM     86  S   UNL A   1      43.858  37.412  33.540  1.00  0.00     0.124 S 
ATOM     87  O   UNL A   1      43.852  38.240  32.338  1.00  0.00    -0.237 OA
ATOM     88  O   UNL A   1      42.665  37.503  34.378  1.00  0.00    -0.237 OA
ATOM     89  O   UNL A   1      45.124  37.379  34.270  1.00  0.00    -0.744 OA
ENDBRANCH  85  86
ENDBRANCH  57  80
BRANCH  69  90
ATOM     90  C   UNL A   1      47.901  27.796  31.225  1.00  0.00    -0.014 A 
ATOM     91  C   UNL A   1      48.948  27.951  30.300  1.00  0.00     0.010 A 
ATOM     92  C   UNL A   1      48.214  27.522  32.570  1.00  0.00     0.010 A 
ATOM     93  C   UNL A   1      50.279  27.803  30.704  1.00  0.00     0.020 A 
ATOM     94  C   UNL A   1      49.543  27.403  32.985  1.00  0.00     0.020 A 
ATOM     95  C   UNL A   1      50.568  27.529  32.045  1.00  0.00     0.054 A 
BRANCH  95  96
ATOM     96  S   UNL A   1      52.303  27.381  32.554  1.00  0.00     0.124 S 
ATOM     97  O   UNL A   1      52.950  26.966  31.313  1.00  0.00    -0.237 OA
ATOM     98  O   UNL A   1      52.620  28.734  33.008  1.00  0.00    -0.237 OA
ATOM     99  O   UNL A   1      52.271  26.370  33.608  1.00  0.00    -0.744 OA
ENDBRANCH  95  96
ENDBRANCH  69  90
ENDBRANCH  43  44
ENDBRANCH  36  38
ENDBRANCH  35  36
ENDBRANCH  34  35
ENDBRANCH  33  34
ENDBRANCH  32  33
ENDBRANCH  31  32
ENDBRANCH   1  31
TORSDOF 23
ENDMDL
MODEL 2
REMARK VINA RESULT:      -7.6      4.977     11.142
REMARK SMILES CC[NH+]1CC[NH+]([C@@H]2CC(=O)N(c3ccc(C(=O)OCCOCCOCCOC(=O)c4ccc(-c5c6nc(c(-c7ccc(S(=O)(=O)[O-])cc7)c7ccc([nH]7)c(-c7ccc(S(=O)(=O)[O-])cc7)c7nc(c(-c8ccc(S(=O)(=O)[O-])cc8)c8ccc5[nH]8)C=C7)C=C6)cc4)cc3)C2=O)CC1
REMARK SMILES IDX 22 1 21 2 20 3 19 4 18 5 16 6 17 7 15 8 12 9 13 10 91 11
REMARK SMILES IDX 14 12 90 13 11 14 7 15 8 16 92 17 9 18 93 19 10 20 6 21 3 22
REMARK SMILES IDX 4 23 95 24 5 26 94 27 2 29 1 30 23 31 24 32 25 33 26 34
REMARK SMILES IDX 27 35 28 36 29 37 30 38 31 39 89 40 32 41 88 42 33 43 34 44
REMARK SMILES IDX 35 45 82 46 36 47 87 48 81 49 83 50 37 51 86 52 80 53 79 54
REMARK SMILES IDX 38 56 68 57 49 58 67 59 50 60 53 61 66 62 84 63 51 64 52 65
REMARK SMILES IDX 65 67 85 68 54 69 39 70 40 71 48 72 41 73 47 74 42 75 43 76
REMARK SMILES IDX 44 77 45 78 46 79 69 80 70 81 78 82 71 83 77 84 72 85 73 86
REMARK SMILES IDX 74 87 75 88 76 89 55 90 56 91 64 92 57 93 63 94 58 95 59 96
REMARK SMILES IDX 60 97 61 98 62 99
REMARK H PARENT 3 25 6 28 83 55 53 66
REMARK Flexibility Score: inf
ROOT
ATOM      1  C   UNL A   1      34.388  33.869  31.455  1.00  0.00     0.188 C 
ENDROOT
BRANCH   1   2
ATOM      2  O   UNL A   1      35.004  34.547  30.377  1.00  0.00    -0.376 OA
BRANCH   2   3
ATOM      3  C   UNL A   1      34.277  34.842  29.196  1.00  0.00     0.202 C 
BRANCH   3   4
ATOM      4  C   UNL A   1      34.520  34.128  27.858  1.00  0.00     0.261 C 
BRANCH   4   5
ATOM      5  O   UNL A   1      34.143  32.750  27.819  1.00  0.00    -0.460 OA
BRANCH   5   6
ATOM      6  C   UNL A   1      32.843  32.523  27.487  1.00  0.00     0.338 C 
ATOM      7  O   UNL A   1      31.939  33.324  27.464  1.00  0.00    -0.246 OA
BRANCH   6   8
ATOM      8  C   UNL A   1      32.714  31.142  26.973  1.00  0.00     0.060 A 
ATOM      9  C   UNL A   1      32.604  28.539  25.947  1.00  0.00     0.052 A 
ATOM     10  C   UNL A   1      33.611  28.898  26.856  1.00  0.00     0.028 A 
ATOM     11  C   UNL A   1      31.612  29.479  25.627  1.00  0.00     0.028 A 
ATOM     12  C   UNL A   1      33.688  30.207  27.336  1.00  0.00     0.018 A 
ATOM     13  C   UNL A   1      31.649  30.771  26.155  1.00  0.00     0.018 A 
BRANCH   9  14
ATOM     14  N   UNL A   1      32.669  27.296  25.272  1.00  0.00    -0.245 N 
ATOM     15  C   UNL A   1      32.774  24.969  24.934  1.00  0.00     0.285 C 
ATOM     16  C   UNL A   1      33.352  25.681  23.722  1.00  0.00     0.176 C 
ATOM     17  C   UNL A   1      32.220  26.104  25.792  1.00  0.00     0.292 C 
ATOM     18  C   UNL A   1      33.300  27.135  24.065  1.00  0.00     0.240 C 
ATOM     19  O   UNL A   1      31.498  25.948  26.770  1.00  0.00    -0.267 OA
ATOM     20  O   UNL A   1      33.802  27.988  23.344  1.00  0.00    -0.274 OA
BRANCH  15  21
ATOM     21  N   UNL A   1      33.637  24.076  25.726  1.00  0.00    -0.315 N 
ATOM     22  N   UNL A   1      35.237  21.853  24.473  1.00  0.00    -0.326 N 
ATOM     23  C   UNL A   1      33.808  21.704  24.774  1.00  0.00     0.324 C 
ATOM     24  C   UNL A   1      35.660  23.257  24.414  1.00  0.00     0.324 C 
ATOM     25  H   UNL A   1      35.349  21.500  23.522  1.00  0.00     0.348 HD
ATOM     26  C   UNL A   1      33.204  22.677  25.815  1.00  0.00     0.325 C 
ATOM     27  C   UNL A   1      35.089  24.168  25.521  1.00  0.00     0.325 C 
ATOM     28  H   UNL A   1      33.479  24.499  26.641  1.00  0.00     0.349 HD
BRANCH  22  29
ATOM     29  C   UNL A   1      36.120  20.975  25.246  1.00  0.00     0.259 C 
ATOM     30  C   UNL A   1      37.537  20.744  24.734  1.00  0.00     0.071 C 
ENDBRANCH  22  29
ENDBRANCH  15  21
ENDBRANCH   9  14
ENDBRANCH   6   8
ENDBRANCH   5   6
ENDBRANCH   4   5
ENDBRANCH   3   4
ENDBRANCH   2   3
ENDBRANCH   1   2
BRANCH   1  31
ATOM     31  C   UNL A   1      34.947  32.516  31.942  1.00  0.00     0.188 C 
BRANCH  31  32
ATOM     32  O   UNL A   1      36.240  32.131  31.541  1.00  0.00    -0.376 OA
BRANCH  32  33
ATOM     33  C   UNL A   1      36.427  31.263  30.437  1.00  0.00     0.202 C 
BRANCH  33  34
ATOM     34  C   UNL A   1      37.255  31.560  29.171  1.00  0.00     0.261 C 
BRANCH  34  35
ATOM     35  O   UNL A   1      37.233  30.610  28.107  1.00  0.00    -0.460 OA
BRANCH  35  36
ATOM     36  C   UNL A   1      37.716  29.380  28.420  1.00  0.00     0.338 C 
ATOM     37  O   UNL A   1      37.072  28.385  28.702  1.00  0.00    -0.246 OA
BRANCH  36  38
ATOM     38  C   UNL A   1      39.174  29.374  28.200  1.00  0.00     0.060 A 
ATOM     39  C   UNL A   1      39.657  29.438  26.887  1.00  0.00     0.016 A 
ATOM     40  C   UNL A   1      40.052  29.266  29.279  1.00  0.00     0.016 A 
ATOM     41  C   UNL A   1      41.029  29.373  26.646  1.00  0.00     0.010 A 
ATOM     42  C   UNL A   1      41.426  29.181  29.034  1.00  0.00     0.010 A 
ATOM     43  C   UNL A   1      41.919  29.207  27.717  1.00  0.00    -0.014 A 
BRANCH  43  44
ATOM     44  C   UNL A   1      43.344  28.893  27.453  1.00  0.00     0.031 A 
ATOM     45  C   UNL A   1      44.361  29.994  27.587  1.00  0.00     0.074 A 
ATOM     46  C   UNL A   1      43.732  27.653  27.107  1.00  0.00     0.049 A 
ATOM     47  N   UNL A   1      45.647  29.968  27.353  1.00  0.00    -0.248 NA
ATOM     48  C   UNL A   1      43.856  31.301  28.041  1.00  0.00     0.031 C 
ATOM     49  C   UNL A   1      42.852  26.491  26.987  1.00  0.00     0.029 A 
ATOM     50  N   UNL A   1      44.975  27.168  26.781  1.00  0.00    -0.354 N 
ATOM     51  C   UNL A   1      46.105  31.252  27.622  1.00  0.00     0.074 A 
ATOM     52  C   UNL A   1      44.956  32.041  28.009  1.00  0.00     0.031 C 
ATOM     53  C   UNL A   1      43.582  25.430  26.603  1.00  0.00     0.029 A 
ATOM     54  C   UNL A   1      44.973  25.843  26.416  1.00  0.00     0.049 A 
ATOM     55  H   UNL A   1      45.791  27.718  26.807  1.00  0.00     0.167 HD
ATOM     56  C   UNL A   1      47.370  31.733  27.556  1.00  0.00     0.031 A 
ATOM     57  C   UNL A   1      45.972  25.061  25.960  1.00  0.00     0.031 A 
ATOM     58  C   UNL A   1      48.510  30.952  27.154  1.00  0.00     0.049 A 
ATOM     59  C   UNL A   1      47.358  25.640  25.819  1.00  0.00     0.074 A 
ATOM     60  C   UNL A   1      49.833  31.344  27.069  1.00  0.00     0.029 A 
ATOM     61  N   UNL A   1      48.460  29.623  26.761  1.00  0.00    -0.354 N 
ATOM     62  N   UNL A   1      47.782  26.850  26.101  1.00  0.00    -0.248 NA
ATOM     63  C   UNL A   1      48.403  24.742  25.304  1.00  0.00     0.031 C 
ATOM     64  C   UNL A   1      50.575  30.270  26.564  1.00  0.00     0.029 A 
ATOM     65  C   UNL A   1      49.725  29.188  26.402  1.00  0.00     0.049 A 
ATOM     66  H   UNL A   1      47.646  29.070  26.739  1.00  0.00     0.167 HD
ATOM     67  C   UNL A   1      49.148  26.847  25.828  1.00  0.00     0.074 A 
ATOM     68  C   UNL A   1      49.479  25.514  25.371  1.00  0.00     0.031 C 
ATOM     69  C   UNL A   1      50.044  27.857  25.950  1.00  0.00     0.031 A 
BRANCH  56  70
ATOM     70  C   UNL A   1      47.580  33.186  27.892  1.00  0.00    -0.014 A 
ATOM     71  C   UNL A   1      47.811  33.606  29.215  1.00  0.00     0.010 A 
ATOM     72  C   UNL A   1      47.580  34.144  26.861  1.00  0.00     0.010 A 
ATOM     73  C   UNL A   1      48.000  34.960  29.504  1.00  0.00     0.020 A 
ATOM     74  C   UNL A   1      47.797  35.495  27.142  1.00  0.00     0.020 A 
ATOM     75  C   UNL A   1      47.991  35.897  28.466  1.00  0.00     0.054 A 
BRANCH  75  76
ATOM     76  S   UNL A   1      48.261  37.644  28.868  1.00  0.00     0.124 S 
ATOM     77  O   UNL A   1      47.569  38.316  27.772  1.00  0.00    -0.237 OA
ATOM     78  O   UNL A   1      47.631  37.771  30.180  1.00  0.00    -0.237 OA
ATOM     79  O   UNL A   1      49.715  37.781  28.864  1.00  0.00    -0.744 OA
ENDBRANCH  75  76
ENDBRANCH  56  70
BRANCH  57  80
ATOM     80  C   UNL A   1      45.698  23.647  25.584  1.00  0.00    -0.014 A 
ATOM     81  C   UNL A   1      45.822  22.615  26.530  1.00  0.00     0.010 A 
ATOM     82  C   UNL A   1      45.320  23.323  24.267  1.00  0.00     0.010 A 
ATOM     83  C   UNL A   1      45.590  21.285  26.164  1.00  0.00     0.020 A 
ATOM     84  C   UNL A   1      45.058  21.999  23.905  1.00  0.00     0.020 A 
ATOM     85  C   UNL A   1      45.206  20.986  24.854  1.00  0.00     0.054 A 
BRANCH  85  86
ATOM     86  S   UNL A   1      44.862  19.259  24.416  1.00  0.00     0.124 S 
ATOM     87  O   UNL A   1      43.437  19.301  24.104  1.00  0.00    -0.237 OA
ATOM     88  O   UNL A   1      45.753  19.039  23.280  1.00  0.00    -0.237 OA
ATOM     89  O   UNL A   1      45.216  18.522  25.628  1.00  0.00    -0.744 OA
ENDBRANCH  85  86
ENDBRANCH  57  80
BRANCH  69  90
ATOM     90  C   UNL A   1      51.486  27.555  25.626  1.00  0.00    -0.014 A 
ATOM     91  C   UNL A   1      52.496  27.667  26.597  1.00  0.00     0.010 A 
ATOM     92  C   UNL A   1      51.823  27.094  24.339  1.00  0.00     0.010 A 
ATOM     93  C   UNL A   1      53.822  27.355  26.279  1.00  0.00     0.020 A 
ATOM     94  C   UNL A   1      53.142  26.752  24.026  1.00  0.00     0.020 A 
ATOM     95  C   UNL A   1      54.137  26.899  24.994  1.00  0.00     0.054 A 
BRANCH  95  96
ATOM     96  S   UNL A   1      55.856  26.463  24.617  1.00  0.00     0.124 S 
ATOM     97  O   UNL A   1      55.872  26.523  23.158  1.00  0.00    -0.237 OA
ATOM     98  O   UNL A   1      56.610  27.514  25.298  1.00  0.00    -0.237 OA
ATOM     99  O   UNL A   1      56.010  25.127  25.187  1.00  0.00    -0.744 OA
ENDBRANCH  95  96
ENDBRANCH  69  90
ENDBRANCH  43  44
ENDBRANCH  36  38
ENDBRANCH  35  36
ENDBRANCH  34  35
ENDBRANCH  33  34
ENDBRANCH  32  33
ENDBRANCH  31  32
ENDBRANCH   1  31
TORSDOF 23
ENDMDL
MODEL 3
REMARK VINA RESULT:      -7.1      6.461     13.525
REMARK SMILES CC[NH+]1CC[NH+]([C@@H]2CC(=O)N(c3ccc(C(=O)OCCOCCOCCOC(=O)c4ccc(-c5c6nc(c(-c7ccc(S(=O)(=O)[O-])cc7)c7ccc([nH]7)c(-c7ccc(S(=O)(=O)[O-])cc7)c7nc(c(-c8ccc(S(=O)(=O)[O-])cc8)c8ccc5[nH]8)C=C7)C=C6)cc4)cc3)C2=O)CC1
REMARK SMILES IDX 22 1 21 2 20 3 19 4 18 5 16 6 17 7 15 8 12 9 13 10 91 11
REMARK SMILES IDX 14 12 90 13 11 14 7 15 8 16 92 17 9 18 93 19 10 20 6 21 3 22
REMARK SMILES IDX 4 23 95 24 5 26 94 27 2 29 1 30 23 31 24 32 25 33 26 34
REMARK SMILES IDX 27 35 28 36 29 37 30 38 31 39 89 40 32 41 88 42 33 43 34 44
REMARK SMILES IDX 35 45 82 46 36 47 87 48 81 49 83 50 37 51 86 52 80 53 79 54
REMARK SMILES IDX 38 56 68 57 49 58 67 59 50 60 53 61 66 62 84 63 51 64 52 65
REMARK SMILES IDX 65 67 85 68 54 69 39 70 40 71 48 72 41 73 47 74 42 75 43 76
REMARK SMILES IDX 44 77 45 78 46 79 69 80 70 81 78 82 71 83 77 84 72 85 73 86
REMARK SMILES IDX 74 87 75 88 76 89 55 90 56 91 64 92 57 93 63 94 58 95 59 96
REMARK SMILES IDX 60 97 61 98 62 99
REMARK H PARENT 3 25 6 28 83 55 53 66
REMARK Flexibility Score: inf
ROOT
ATOM      1  C   UNL A   1      40.299  27.645  29.180  1.00  0.00     0.188 C 
ENDROOT
BRANCH   1   2
ATOM      2  O   UNL A   1      41.355  26.931  28.566  1.00  0.00    -0.376 OA
BRANCH   2   3
ATOM      3  C   UNL A   1      41.086  25.849  27.689  1.00  0.00     0.202 C 
BRANCH   3   4
ATOM      4  C   UNL A   1      41.468  24.395  28.003  1.00  0.00     0.261 C 
BRANCH   4   5
ATOM      5  O   UNL A   1      41.292  23.468  26.930  1.00  0.00    -0.460 OA
BRANCH   5   6
ATOM      6  C   UNL A   1      40.573  22.356  27.249  1.00  0.00     0.338 C 
ATOM      7  O   UNL A   1      40.821  21.541  28.106  1.00  0.00    -0.246 OA
BRANCH   6   8
ATOM      8  C   UNL A   1      39.306  22.371  26.488  1.00  0.00     0.060 A 
ATOM      9  C   UNL A   1      36.837  22.440  25.168  1.00  0.00     0.052 A 
ATOM     10  C   UNL A   1      37.324  23.585  25.814  1.00  0.00     0.028 A 
ATOM     11  C   UNL A   1      37.642  21.290  25.126  1.00  0.00     0.028 A 
ATOM     12  C   UNL A   1      38.536  23.539  26.505  1.00  0.00     0.018 A 
ATOM     13  C   UNL A   1      38.884  21.259  25.762  1.00  0.00     0.018 A 
BRANCH   9  14
ATOM     14  N   UNL A   1      35.507  22.410  24.683  1.00  0.00    -0.245 N 
ATOM     15  C   UNL A   1      33.596  22.993  23.439  1.00  0.00     0.285 C 
ATOM     16  C   UNL A   1      33.171  22.280  24.712  1.00  0.00     0.176 C 
ATOM     17  C   UNL A   1      35.118  22.876  23.448  1.00  0.00     0.292 C 
ATOM     18  C   UNL A   1      34.441  22.017  25.452  1.00  0.00     0.240 C 
ATOM     19  O   UNL A   1      35.843  23.153  22.500  1.00  0.00    -0.267 OA
ATOM     20  O   UNL A   1      34.446  21.554  26.587  1.00  0.00    -0.274 OA
BRANCH  15  21
ATOM     21  N   UNL A   1      33.172  24.387  23.216  1.00  0.00    -0.315 N 
ATOM     22  N   UNL A   1      31.026  25.702  24.870  1.00  0.00    -0.326 N 
ATOM     23  C   UNL A   1      30.703  24.806  23.754  1.00  0.00     0.324 C 
ATOM     24  C   UNL A   1      32.399  25.527  25.358  1.00  0.00     0.324 C 
ATOM     25  H   UNL A   1      30.429  25.399  25.640  1.00  0.00     0.348 HD
ATOM     26  C   UNL A   1      31.810  24.568  22.700  1.00  0.00     0.325 C 
ATOM     27  C   UNL A   1      33.476  25.371  24.263  1.00  0.00     0.325 C 
ATOM     28  H   UNL A   1      33.815  24.611  22.456  1.00  0.00     0.349 HD
BRANCH  22  29
ATOM     29  C   UNL A   1      30.615  27.095  24.676  1.00  0.00     0.259 C 
ATOM     30  C   UNL A   1      29.637  27.410  23.550  1.00  0.00     0.071 C 
ENDBRANCH  22  29
ENDBRANCH  15  21
ENDBRANCH   9  14
ENDBRANCH   6   8
ENDBRANCH   5   6
ENDBRANCH   4   5
ENDBRANCH   3   4
ENDBRANCH   2   3
ENDBRANCH   1   2
BRANCH   1  31
ATOM     31  C   UNL A   1      39.151  28.220  28.325  1.00  0.00     0.188 C 
BRANCH  31  32
ATOM     32  O   UNL A   1      38.759  29.557  28.526  1.00  0.00    -0.376 OA
BRANCH  32  33
ATOM     33  C   UNL A   1      38.092  29.946  29.713  1.00  0.00     0.202 C 
BRANCH  33  34
ATOM     34  C   UNL A   1      36.768  29.366  30.249  1.00  0.00     0.261 C 
BRANCH  34  35
ATOM     35  O   UNL A   1      36.316  29.783  31.536  1.00  0.00    -0.460 OA
BRANCH  35  36
ATOM     36  C   UNL A   1      36.015  31.104  31.643  1.00  0.00     0.338 C 
ATOM     37  O   UNL A   1      35.203  31.730  30.986  1.00  0.00    -0.246 OA
BRANCH  36  38
ATOM     38  C   UNL A   1      36.714  31.654  32.819  1.00  0.00     0.060 A 
ATOM     39  C   UNL A   1      36.297  32.887  33.334  1.00  0.00     0.016 A 
ATOM     40  C   UNL A   1      37.796  30.974  33.382  1.00  0.00     0.016 A 
ATOM     41  C   UNL A   1      36.979  33.460  34.407  1.00  0.00     0.010 A 
ATOM     42  C   UNL A   1      38.490  31.559  34.445  1.00  0.00     0.010 A 
ATOM     43  C   UNL A   1      38.102  32.816  34.944  1.00  0.00    -0.014 A 
BRANCH  43  44
ATOM     44  C   UNL A   1      38.971  33.527  35.913  1.00  0.00     0.031 A 
ATOM     45  C   UNL A   1      38.684  33.380  37.383  1.00  0.00     0.074 A 
ATOM     46  C   UNL A   1      40.001  34.287  35.498  1.00  0.00     0.049 A 
ATOM     47  N   UNL A   1      39.270  33.949  38.403  1.00  0.00    -0.248 NA
ATOM     48  C   UNL A   1      37.584  32.471  37.747  1.00  0.00     0.031 C 
ATOM     49  C   UNL A   1      40.409  34.475  34.107  1.00  0.00     0.029 A 
ATOM     50  N   UNL A   1      40.886  35.054  36.216  1.00  0.00    -0.354 N 
ATOM     51  C   UNL A   1      38.607  33.476  39.530  1.00  0.00     0.074 A 
ATOM     52  C   UNL A   1      37.556  32.596  39.066  1.00  0.00     0.031 C 
ATOM     53  C   UNL A   1      41.460  35.313  34.072  1.00  0.00     0.029 A 
ATOM     54  C   UNL A   1      41.776  35.748  35.432  1.00  0.00     0.049 A 
ATOM     55  H   UNL A   1      40.884  35.100  37.200  1.00  0.00     0.167 HD
ATOM     56  C   UNL A   1      38.852  33.747  40.834  1.00  0.00     0.031 A 
ATOM     57  C   UNL A   1      42.719  36.650  35.772  1.00  0.00     0.031 A 
ATOM     58  C   UNL A   1      39.887  34.636  41.293  1.00  0.00     0.049 A 
ATOM     59  C   UNL A   1      42.922  36.997  37.226  1.00  0.00     0.074 A 
ATOM     60  C   UNL A   1      40.223  34.964  42.594  1.00  0.00     0.029 A 
ATOM     61  N   UNL A   1      40.745  35.345  40.467  1.00  0.00    -0.354 N 
ATOM     62  N   UNL A   1      42.305  36.523  38.283  1.00  0.00    -0.248 NA
ATOM     63  C   UNL A   1      43.956  37.996  37.532  1.00  0.00     0.031 C 
ATOM     64  C   UNL A   1      41.243  35.921  42.552  1.00  0.00     0.029 A 
ATOM     65  C   UNL A   1      41.591  36.134  41.228  1.00  0.00     0.049 A 
ATOM     66  H   UNL A   1      40.752  35.296  39.483  1.00  0.00     0.167 HD
ATOM     67  C   UNL A   1      42.898  37.143  39.379  1.00  0.00     0.074 A 
ATOM     68  C   UNL A   1      43.929  38.015  38.858  1.00  0.00     0.031 C 
ATOM     69  C   UNL A   1      42.616  36.998  40.698  1.00  0.00     0.031 A 
BRANCH  56  70
ATOM     70  C   UNL A   1      37.958  33.100  41.859  1.00  0.00    -0.014 A 
ATOM     71  C   UNL A   1      36.763  33.712  42.278  1.00  0.00     0.010 A 
ATOM     72  C   UNL A   1      38.303  31.843  42.387  1.00  0.00     0.010 A 
ATOM     73  C   UNL A   1      35.950  33.096  43.234  1.00  0.00     0.020 A 
ATOM     74  C   UNL A   1      37.478  31.210  43.320  1.00  0.00     0.020 A 
ATOM     75  C   UNL A   1      36.313  31.849  43.750  1.00  0.00     0.054 A 
BRANCH  75  76
ATOM     76  S   UNL A   1      35.228  31.063  44.971  1.00  0.00     0.124 S 
ATOM     77  O   UNL A   1      34.014  30.835  44.193  1.00  0.00    -0.237 OA
ATOM     78  O   UNL A   1      35.974  29.861  45.337  1.00  0.00    -0.237 OA
ATOM     79  O   UNL A   1      35.110  32.064  46.028  1.00  0.00    -0.744 OA
ENDBRANCH  75  76
ENDBRANCH  56  70
BRANCH  57  80
ATOM     80  C   UNL A   1      43.537  37.307  34.714  1.00  0.00    -0.014 A 
ATOM     81  C   UNL A   1      44.746  36.735  34.282  1.00  0.00     0.010 A 
ATOM     82  C   UNL A   1      43.111  38.519  34.139  1.00  0.00     0.010 A 
ATOM     83  C   UNL A   1      45.522  37.370  33.307  1.00  0.00     0.020 A 
ATOM     84  C   UNL A   1      43.870  39.141  33.143  1.00  0.00     0.020 A 
ATOM     85  C   UNL A   1      45.077  38.568  32.742  1.00  0.00     0.054 A 
BRANCH  85  86
ATOM     86  S   UNL A   1      46.078  39.347  31.444  1.00  0.00     0.124 S 
ATOM     87  O   UNL A   1      46.054  40.751  31.842  1.00  0.00    -0.237 OA
ATOM     88  O   UNL A   1      47.364  38.669  31.590  1.00  0.00    -0.237 OA
ATOM     89  O   UNL A   1      45.351  39.032  30.216  1.00  0.00    -0.744 OA
ENDBRANCH  85  86
ENDBRANCH  57  80
BRANCH  69  90
ATOM     90  C   UNL A   1      43.461  37.766  41.683  1.00  0.00    -0.014 A 
ATOM     91  C   UNL A   1      44.654  37.232  42.202  1.00  0.00     0.010 A 
ATOM     92  C   UNL A   1      43.082  39.073  42.047  1.00  0.00     0.010 A 
ATOM     93  C   UNL A   1      45.433  37.975  43.093  1.00  0.00     0.020 A 
ATOM     94  C   UNL A   1      43.875  39.831  42.914  1.00  0.00     0.020 A 
ATOM     95  C   UNL A   1      45.039  39.271  43.444  1.00  0.00     0.054 A 
BRANCH  95  96
ATOM     96  S   UNL A   1      46.088  40.231  44.570  1.00  0.00     0.124 S 
ATOM     97  O   UNL A   1      47.375  40.207  43.882  1.00  0.00    -0.237 OA
ATOM     98  O   UNL A   1      45.417  41.529  44.603  1.00  0.00    -0.237 OA
ATOM     99  O   UNL A   1      46.036  39.478  45.821  1.00  0.00    -0.744 OA
ENDBRANCH  95  96
ENDBRANCH  69  90
ENDBRANCH  43  44
ENDBRANCH  36  38
ENDBRANCH  35  36
ENDBRANCH  34  35
ENDBRANCH  33  34
ENDBRANCH  32  33
ENDBRANCH  31  32
ENDBRANCH   1  31
TORSDOF 23
ENDMDL
