MODEL 1
REMARK VINA RESULT:      -9.0      0.000      0.000
REMARK SMILES CCCc1n[nH]c(C(=O)N[C@H](C)CC(=O)OCCOCCOCCOC(=O)c2ccc(-c3c4nc(c(-c5ccc(S(=O)(=O)[O-])cc5)c5ccc([nH]5)c(-c5ccc(S(=O)(=O)[O-])cc5)c5nc(c(-c6ccc(S(=O)(=O)[O-])cc6)c6ccc3[nH]6)C=C5)C=C4)cc2)n1
REMARK SMILES IDX 20 1 19 2 18 3 17 4 16 5 14 6 15 7 13 8 11 9 12 10 10 11
REMARK SMILES IDX 8 12 9 13 7 15 4 16 5 17 88 18 6 19 3 21 2 22 1 23 21 24
REMARK SMILES IDX 22 25 23 26 24 27 25 28 26 29 27 30 28 31 29 32 87 33 30 34
REMARK SMILES IDX 86 35 31 36 32 37 33 38 80 39 34 40 85 41 79 42 81 43 35 44
REMARK SMILES IDX 84 45 78 46 77 47 36 49 66 50 47 51 65 52 48 53 51 54 64 55
REMARK SMILES IDX 82 56 49 57 50 58 63 60 83 61 52 62 37 63 38 64 46 65 39 66
REMARK SMILES IDX 45 67 40 68 41 69 42 70 43 71 44 72 67 73 68 74 76 75 69 76
REMARK SMILES IDX 75 77 70 78 71 79 72 80 73 81 74 82 53 83 54 84 62 85 55 86
REMARK SMILES IDX 61 87 56 88 57 89 58 90 59 91 60 92
REMARK H PARENT 10 14 6 20 81 48 51 59
REMARK Flexibility Score: inf
ROOT
ATOM      1  C   UNL A   1      38.444  21.807  26.125  1.00  0.00     0.188 C 
ENDROOT
BRANCH   1   2
ATOM      2  O   UNL A   1      38.122  22.629  25.010  1.00  0.00    -0.376 OA
BRANCH   2   3
ATOM      3  C   UNL A   1      36.972  22.249  24.252  1.00  0.00     0.202 C 
BRANCH   3   4
ATOM      4  C   UNL A   1      36.246  23.364  23.478  1.00  0.00     0.261 C 
BRANCH   4   5
ATOM      5  O   UNL A   1      35.085  22.897  22.751  1.00  0.00    -0.463 OA
BRANCH   5   6
ATOM      6  C   UNL A   1      33.894  23.455  23.100  1.00  0.00     0.307 C 
ATOM      7  O   UNL A   1      33.697  24.666  23.149  1.00  0.00    -0.252 OA
BRANCH   6   8
ATOM      8  C   UNL A   1      32.748  22.460  23.176  1.00  0.00     0.147 C 
BRANCH   8   9
ATOM      9  C   UNL A   1      32.700  21.291  24.181  1.00  0.00     0.090 C 
ATOM     10  C   UNL A   1      32.766  19.839  23.709  1.00  0.00     0.031 C 
BRANCH   9  11
ATOM     11  N   UNL A   1      33.611  21.517  25.324  1.00  0.00    -0.346 N 
ATOM     12  C   UNL A   1      33.425  22.300  26.446  1.00  0.00     0.288 C 
ATOM     13  O   UNL A   1      34.317  22.324  27.295  1.00  0.00    -0.266 OA
ATOM     14  H   UNL A   1      34.472  21.042  25.278  1.00  0.00     0.164 HD
BRANCH  12  15
ATOM     15  C   UNL A   1      32.199  23.045  26.603  1.00  0.00     0.214 A 
ATOM     16  C   UNL A   1      30.649  24.482  26.504  1.00  0.00     0.151 A 
ATOM     17  N   UNL A   1      30.073  23.479  27.176  1.00  0.00    -0.158 NA
ATOM     18  N   UNL A   1      31.954  24.264  26.171  1.00  0.00    -0.207 NA
ATOM     19  N   UNL A   1      31.074  22.575  27.214  1.00  0.00    -0.255 N 
ATOM     20  H   UNL A   1      31.002  21.686  27.632  1.00  0.00     0.192 HD
BRANCH  16  21
ATOM     21  C   UNL A   1      29.962  25.737  26.108  1.00  0.00     0.079 C 
BRANCH  21  22
ATOM     22  C   UNL A   1      30.149  26.107  24.636  1.00  0.00     0.005 C 
ATOM     23  C   UNL A   1      28.845  26.341  23.883  1.00  0.00     0.004 C 
ENDBRANCH  21  22
ENDBRANCH  16  21
ENDBRANCH  12  15
ENDBRANCH   9  11
ENDBRANCH   8   9
ENDBRANCH   6   8
ENDBRANCH   5   6
ENDBRANCH   4   5
ENDBRANCH   3   4
ENDBRANCH   2   3
ENDBRANCH   1   2
BRANCH   1  24
ATOM     24  C   UNL A   1      39.801  22.071  26.792  1.00  0.00     0.188 C 
BRANCH  24  25
ATOM     25  O   UNL A   1      40.941  21.908  25.961  1.00  0.00    -0.376 OA
BRANCH  25  26
ATOM     26  C   UNL A   1      42.166  22.490  26.410  1.00  0.00     0.202 C 
BRANCH  26  27
ATOM     27  C   UNL A   1      42.320  24.012  26.203  1.00  0.00     0.261 C 
BRANCH  27  28
ATOM     28  O   UNL A   1      41.707  24.864  27.194  1.00  0.00    -0.460 OA
BRANCH  28  29
ATOM     29  C   UNL A   1      40.724  25.706  26.790  1.00  0.00     0.338 C 
ATOM     30  O   UNL A   1      40.028  25.577  25.801  1.00  0.00    -0.246 OA
BRANCH  29  31
ATOM     31  C   UNL A   1      40.428  26.660  27.901  1.00  0.00     0.060 A 
ATOM     32  C   UNL A   1      41.013  27.936  27.847  1.00  0.00     0.016 A 
ATOM     33  C   UNL A   1      39.539  26.353  28.936  1.00  0.00     0.016 A 
ATOM     34  C   UNL A   1      40.766  28.874  28.854  1.00  0.00     0.010 A 
ATOM     35  C   UNL A   1      39.300  27.290  29.950  1.00  0.00     0.010 A 
ATOM     36  C   UNL A   1      39.948  28.540  29.941  1.00  0.00    -0.014 A 
BRANCH  36  37
ATOM     37  C   UNL A   1      39.968  29.375  31.174  1.00  0.00     0.031 A 
ATOM     38  C   UNL A   1      41.086  29.142  32.161  1.00  0.00     0.074 A 
ATOM     39  C   UNL A   1      39.052  30.330  31.424  1.00  0.00     0.049 A 
ATOM     40  N   UNL A   1      41.301  29.698  33.326  1.00  0.00    -0.248 NA
ATOM     41  C   UNL A   1      42.098  28.144  31.776  1.00  0.00     0.031 C 
ATOM     42  C   UNL A   1      37.952  30.709  30.540  1.00  0.00     0.029 A 
ATOM     43  N   UNL A   1      38.908  31.159  32.513  1.00  0.00    -0.354 N 
ATOM     44  C   UNL A   1      42.461  29.108  33.816  1.00  0.00     0.074 A 
ATOM     45  C   UNL A   1      42.883  28.129  32.840  1.00  0.00     0.031 C 
ATOM     46  C   UNL A   1      37.242  31.693  31.124  1.00  0.00     0.029 A 
ATOM     47  C   UNL A   1      37.813  31.989  32.439  1.00  0.00     0.049 A 
ATOM     48  H   UNL A   1      39.531  31.157  33.275  1.00  0.00     0.167 HD
ATOM     49  C   UNL A   1      43.125  29.360  34.970  1.00  0.00     0.031 A 
ATOM     50  C   UNL A   1      37.318  32.870  33.335  1.00  0.00     0.031 A 
ATOM     51  C   UNL A   1      42.702  30.317  35.955  1.00  0.00     0.049 A 
ATOM     52  C   UNL A   1      38.020  33.068  34.657  1.00  0.00     0.074 A 
ATOM     53  C   UNL A   1      43.308  30.640  37.156  1.00  0.00     0.029 A 
ATOM     54  N   UNL A   1      41.562  31.101  35.860  1.00  0.00    -0.354 N 
ATOM     55  N   UNL A   1      39.120  32.508  35.102  1.00  0.00    -0.248 NA
ATOM     56  C   UNL A   1      37.415  34.027  35.595  1.00  0.00     0.031 C 
ATOM     57  C   UNL A   1      42.504  31.575  37.815  1.00  0.00     0.029 A 
ATOM     58  C   UNL A   1      41.437  31.890  36.991  1.00  0.00     0.049 A 
ATOM     59  H   UNL A   1      40.936  31.098  35.100  1.00  0.00     0.167 HD
ATOM     60  C   UNL A   1      39.360  33.079  36.351  1.00  0.00     0.074 A 
ATOM     61  C   UNL A   1      38.294  34.029  36.588  1.00  0.00     0.031 C 
ATOM     62  C   UNL A   1      40.377  32.841  37.218  1.00  0.00     0.031 A 
BRANCH  49  63
ATOM     63  C   UNL A   1      44.364  28.547  35.243  1.00  0.00    -0.014 A 
ATOM     64  C   UNL A   1      44.297  27.317  35.924  1.00  0.00     0.010 A 
ATOM     65  C   UNL A   1      45.614  29.014  34.797  1.00  0.00     0.010 A 
ATOM     66  C   UNL A   1      45.462  26.596  36.198  1.00  0.00     0.020 A 
ATOM     67  C   UNL A   1      46.777  28.279  35.040  1.00  0.00     0.020 A 
ATOM     68  C   UNL A   1      46.696  27.084  35.757  1.00  0.00     0.054 A 
BRANCH  68  69
ATOM     69  S   UNL A   1      48.190  26.125  36.121  1.00  0.00     0.124 S 
ATOM     70  O   UNL A   1      47.716  25.214  37.162  1.00  0.00    -0.237 OA
ATOM     71  O   UNL A   1      48.493  25.504  34.835  1.00  0.00    -0.237 OA
ATOM     72  O   UNL A   1      49.150  27.131  36.566  1.00  0.00    -0.744 OA
ENDBRANCH  68  69
ENDBRANCH  49  63
BRANCH  50  73
ATOM     73  C   UNL A   1      36.077  33.638  33.023  1.00  0.00    -0.014 A 
ATOM     74  C   UNL A   1      36.151  34.945  32.509  1.00  0.00     0.010 A 
ATOM     75  C   UNL A   1      34.810  33.071  33.257  1.00  0.00     0.010 A 
ATOM     76  C   UNL A   1      34.985  35.674  32.249  1.00  0.00     0.020 A 
ATOM     77  C   UNL A   1      33.642  33.785  32.970  1.00  0.00     0.020 A 
ATOM     78  C   UNL A   1      33.738  35.087  32.477  1.00  0.00     0.054 A 
BRANCH  78  79
ATOM     79  S   UNL A   1      32.240  36.032  32.079  1.00  0.00     0.124 S 
ATOM     80  O   UNL A   1      32.416  37.235  32.887  1.00  0.00    -0.237 OA
ATOM     81  O   UNL A   1      32.361  36.216  30.635  1.00  0.00    -0.237 OA
ATOM     82  O   UNL A   1      31.156  35.148  32.499  1.00  0.00    -0.744 OA
ENDBRANCH  78  79
ENDBRANCH  50  73
BRANCH  62  83
ATOM     83  C   UNL A   1      40.434  33.663  38.483  1.00  0.00    -0.014 A 
ATOM     84  C   UNL A   1      39.781  33.258  39.661  1.00  0.00     0.010 A 
ATOM     85  C   UNL A   1      41.213  34.836  38.505  1.00  0.00     0.010 A 
ATOM     86  C   UNL A   1      39.877  34.029  40.824  1.00  0.00     0.020 A 
ATOM     87  C   UNL A   1      41.338  35.592  39.675  1.00  0.00     0.020 A 
ATOM     88  C   UNL A   1      40.655  35.191  40.823  1.00  0.00     0.054 A 
BRANCH  88  89
ATOM     89  S   UNL A   1      40.794  36.152  42.357  1.00  0.00     0.124 S 
ATOM     90  O   UNL A   1      41.378  35.178  43.274  1.00  0.00    -0.237 OA
ATOM     91  O   UNL A   1      41.671  37.252  41.966  1.00  0.00    -0.237 OA
ATOM     92  O   UNL A   1      39.415  36.536  42.653  1.00  0.00    -0.744 OA
ENDBRANCH  88  89
ENDBRANCH  62  83
ENDBRANCH  36  37
ENDBRANCH  29  31
ENDBRANCH  28  29
ENDBRANCH  27  28
ENDBRANCH  26  27
ENDBRANCH  25  26
ENDBRANCH  24  25
ENDBRANCH   1  24
TORSDOF 25
ENDMDL
MODEL 2
REMARK VINA RESULT:      -8.8      2.209      8.411
REMARK SMILES CCCc1n[nH]c(C(=O)N[C@H](C)CC(=O)OCCOCCOCCOC(=O)c2ccc(-c3c4nc(c(-c5ccc(S(=O)(=O)[O-])cc5)c5ccc([nH]5)c(-c5ccc(S(=O)(=O)[O-])cc5)c5nc(c(-c6ccc(S(=O)(=O)[O-])cc6)c6ccc3[nH]6)C=C5)C=C4)cc2)n1
REMARK SMILES IDX 20 1 19 2 18 3 17 4 16 5 14 6 15 7 13 8 11 9 12 10 10 11
REMARK SMILES IDX 8 12 9 13 7 15 4 16 5 17 88 18 6 19 3 21 2 22 1 23 21 24
REMARK SMILES IDX 22 25 23 26 24 27 25 28 26 29 27 30 28 31 29 32 87 33 30 34
REMARK SMILES IDX 86 35 31 36 32 37 33 38 80 39 34 40 85 41 79 42 81 43 35 44
REMARK SMILES IDX 84 45 78 46 77 47 36 49 66 50 47 51 65 52 48 53 51 54 64 55
REMARK SMILES IDX 82 56 49 57 50 58 63 60 83 61 52 62 37 63 38 64 46 65 39 66
REMARK SMILES IDX 45 67 40 68 41 69 42 70 43 71 44 72 67 73 68 74 76 75 69 76
REMARK SMILES IDX 75 77 70 78 71 79 72 80 73 81 74 82 53 83 54 84 62 85 55 86
REMARK SMILES IDX 61 87 56 88 57 89 58 90 59 91 60 92
REMARK H PARENT 10 14 6 20 81 48 51 59
REMARK Flexibility Score: inf
ROOT
ATOM      1  C   UNL A   1      38.573  22.087  26.052  1.00  0.00     0.188 C 
ENDROOT
BRANCH   1   2
ATOM      2  O   UNL A   1      38.041  23.383  26.295  1.00  0.00    -0.376 OA
BRANCH   2   3
ATOM      3  C   UNL A   1      37.115  23.881  25.327  1.00  0.00     0.202 C 
BRANCH   3   4
ATOM      4  C   UNL A   1      36.066  22.892  24.789  1.00  0.00     0.261 C 
BRANCH   4   5
ATOM      5  O   UNL A   1      34.827  23.526  24.394  1.00  0.00    -0.463 OA
BRANCH   5   6
ATOM      6  C   UNL A   1      33.721  23.177  25.104  1.00  0.00     0.307 C 
ATOM      7  O   UNL A   1      33.571  22.080  25.637  1.00  0.00    -0.252 OA
BRANCH   6   8
ATOM      8  C   UNL A   1      32.789  24.339  25.404  1.00  0.00     0.147 C 
BRANCH   8   9
ATOM      9  C   UNL A   1      33.044  25.781  24.921  1.00  0.00     0.090 C 
ATOM     10  C   UNL A   1      33.822  26.778  25.781  1.00  0.00     0.031 C 
BRANCH   9  11
ATOM     11  N   UNL A   1      33.516  25.812  23.520  1.00  0.00    -0.346 N 
ATOM     12  C   UNL A   1      32.964  26.450  22.428  1.00  0.00     0.288 C 
ATOM     13  O   UNL A   1      33.544  26.361  21.344  1.00  0.00    -0.266 OA
ATOM     14  H   UNL A   1      34.342  25.306  23.342  1.00  0.00     0.164 HD
BRANCH  12  15
ATOM     15  C   UNL A   1      31.747  27.210  22.583  1.00  0.00     0.214 A 
ATOM     16  C   UNL A   1      30.252  28.707  22.576  1.00  0.00     0.151 A 
ATOM     17  N   UNL A   1      29.580  27.628  22.994  1.00  0.00    -0.158 NA
ATOM     18  N   UNL A   1      31.581  28.495  22.351  1.00  0.00    -0.207 NA
ATOM     19  N   UNL A   1      30.549  26.689  22.978  1.00  0.00    -0.255 N 
ATOM     20  H   UNL A   1      30.410  25.745  23.221  1.00  0.00     0.192 HD
BRANCH  16  21
ATOM     21  C   UNL A   1      29.643  30.041  22.339  1.00  0.00     0.079 C 
BRANCH  21  22
ATOM     22  C   UNL A   1      29.118  30.715  23.607  1.00  0.00     0.005 C 
ATOM     23  C   UNL A   1      27.761  31.387  23.437  1.00  0.00     0.004 C 
ENDBRANCH  21  22
ENDBRANCH  16  21
ENDBRANCH  12  15
ENDBRANCH   9  11
ENDBRANCH   8   9
ENDBRANCH   6   8
ENDBRANCH   5   6
ENDBRANCH   4   5
ENDBRANCH   3   4
ENDBRANCH   2   3
ENDBRANCH   1   2
BRANCH   1  24
ATOM     24  C   UNL A   1      40.094  21.941  26.193  1.00  0.00     0.188 C 
BRANCH  24  25
ATOM     25  O   UNL A   1      40.572  21.688  27.505  1.00  0.00    -0.376 OA
BRANCH  25  26
ATOM     26  C   UNL A   1      41.976  21.473  27.660  1.00  0.00     0.202 C 
BRANCH  26  27
ATOM     27  C   UNL A   1      42.905  22.340  26.784  1.00  0.00     0.261 C 
BRANCH  27  28
ATOM     28  O   UNL A   1      43.256  23.640  27.305  1.00  0.00    -0.460 OA
BRANCH  28  29
ATOM     29  C   UNL A   1      42.775  24.734  26.663  1.00  0.00     0.338 C 
ATOM     30  O   UNL A   1      42.517  24.817  25.478  1.00  0.00    -0.246 OA
BRANCH  29  31
ATOM     31  C   UNL A   1      42.334  25.730  27.686  1.00  0.00     0.060 A 
ATOM     32  C   UNL A   1      43.101  26.896  27.843  1.00  0.00     0.016 A 
ATOM     33  C   UNL A   1      41.157  25.574  28.424  1.00  0.00     0.016 A 
ATOM     34  C   UNL A   1      42.732  27.868  28.779  1.00  0.00     0.010 A 
ATOM     35  C   UNL A   1      40.794  26.544  29.369  1.00  0.00     0.010 A 
ATOM     36  C   UNL A   1      41.604  27.675  29.586  1.00  0.00    -0.014 A 
BRANCH  36  37
ATOM     37  C   UNL A   1      41.409  28.503  30.808  1.00  0.00     0.031 A 
ATOM     38  C   UNL A   1      40.292  29.518  30.797  1.00  0.00     0.074 A 
ATOM     39  C   UNL A   1      42.167  28.364  31.912  1.00  0.00     0.049 A 
ATOM     40  N   UNL A   1      39.948  30.391  31.709  1.00  0.00    -0.248 NA
ATOM     41  C   UNL A   1      39.451  29.549  29.588  1.00  0.00     0.031 C 
ATOM     42  C   UNL A   1      43.241  27.390  32.093  1.00  0.00     0.029 A 
ATOM     43  N   UNL A   1      42.142  29.060  33.100  1.00  0.00    -0.354 N 
ATOM     44  C   UNL A   1      38.862  31.081  31.179  1.00  0.00     0.074 A 
ATOM     45  C   UNL A   1      38.628  30.550  29.855  1.00  0.00     0.031 C 
ATOM     46  C   UNL A   1      43.776  27.553  33.318  1.00  0.00     0.029 A 
ATOM     47  C   UNL A   1      43.110  28.666  33.995  1.00  0.00     0.049 A 
ATOM     48  H   UNL A   1      41.492  29.774  33.290  1.00  0.00     0.167 HD
ATOM     49  C   UNL A   1      38.118  32.062  31.742  1.00  0.00     0.031 A 
ATOM     50  C   UNL A   1      43.433  29.158  35.211  1.00  0.00     0.031 A 
ATOM     51  C   UNL A   1      38.355  32.610  33.050  1.00  0.00     0.049 A 
ATOM     52  C   UNL A   1      42.650  30.317  35.781  1.00  0.00     0.074 A 
ATOM     53  C   UNL A   1      37.654  33.608  33.704  1.00  0.00     0.029 A 
ATOM     54  N   UNL A   1      39.374  32.213  33.902  1.00  0.00    -0.354 N 
ATOM     55  N   UNL A   1      41.622  30.953  35.271  1.00  0.00    -0.248 NA
ATOM     56  C   UNL A   1      43.069  30.818  37.100  1.00  0.00     0.031 C 
ATOM     57  C   UNL A   1      38.286  33.857  34.925  1.00  0.00     0.029 A 
ATOM     58  C   UNL A   1      39.334  32.962  35.065  1.00  0.00     0.049 A 
ATOM     59  H   UNL A   1      40.029  31.503  33.708  1.00  0.00     0.167 HD
ATOM     60  C   UNL A   1      41.247  31.898  36.224  1.00  0.00     0.074 A 
ATOM     61  C   UNL A   1      42.155  31.748  37.342  1.00  0.00     0.031 C 
ATOM     62  C   UNL A   1      40.236  32.803  36.179  1.00  0.00     0.031 A 
BRANCH  49  63
ATOM     63  C   UNL A   1      36.996  32.636  30.915  1.00  0.00    -0.014 A 
ATOM     64  C   UNL A   1      37.229  33.655  29.973  1.00  0.00     0.010 A 
ATOM     65  C   UNL A   1      35.690  32.136  31.072  1.00  0.00     0.010 A 
ATOM     66  C   UNL A   1      36.168  34.198  29.242  1.00  0.00     0.020 A 
ATOM     67  C   UNL A   1      34.633  32.652  30.318  1.00  0.00     0.020 A 
ATOM     68  C   UNL A   1      34.877  33.694  29.422  1.00  0.00     0.054 A 
BRANCH  68  69
ATOM     69  S   UNL A   1      33.522  34.413  28.455  1.00  0.00     0.124 S 
ATOM     70  O   UNL A   1      33.103  33.279  27.635  1.00  0.00    -0.237 OA
ATOM     71  O   UNL A   1      32.575  34.824  29.488  1.00  0.00    -0.237 OA
ATOM     72  O   UNL A   1      34.157  35.507  27.725  1.00  0.00    -0.744 OA
ENDBRANCH  68  69
ENDBRANCH  49  63
BRANCH  50  73
ATOM     73  C   UNL A   1      44.565  28.566  35.982  1.00  0.00    -0.014 A 
ATOM     74  C   UNL A   1      45.855  29.119  35.903  1.00  0.00     0.010 A 
ATOM     75  C   UNL A   1      44.361  27.430  36.788  1.00  0.00     0.010 A 
ATOM     76  C   UNL A   1      46.921  28.541  36.601  1.00  0.00     0.020 A 
ATOM     77  C   UNL A   1      45.417  26.867  37.511  1.00  0.00     0.020 A 
ATOM     78  C   UNL A   1      46.693  27.421  37.405  1.00  0.00     0.054 A 
BRANCH  78  79
ATOM     79  S   UNL A   1      48.080  26.723  38.345  1.00  0.00     0.124 S 
ATOM     80  O   UNL A   1      48.317  25.463  37.648  1.00  0.00    -0.237 OA
ATOM     81  O   UNL A   1      49.115  27.742  38.180  1.00  0.00    -0.237 OA
ATOM     82  O   UNL A   1      47.547  26.600  39.700  1.00  0.00    -0.744 OA
ENDBRANCH  78  79
ENDBRANCH  50  73
BRANCH  62  83
ATOM     83  C   UNL A   1      40.005  33.666  37.396  1.00  0.00    -0.014 A 
ATOM     84  C   UNL A   1      40.642  34.909  37.555  1.00  0.00     0.010 A 
ATOM     85  C   UNL A   1      39.079  33.245  38.371  1.00  0.00     0.010 A 
ATOM     86  C   UNL A   1      40.384  35.697  38.681  1.00  0.00     0.020 A 
ATOM     87  C   UNL A   1      38.795  34.045  39.482  1.00  0.00     0.020 A 
ATOM     88  C   UNL A   1      39.463  35.260  39.638  1.00  0.00     0.054 A 
BRANCH  88  89
ATOM     89  S   UNL A   1      39.117  36.320  41.070  1.00  0.00     0.124 S 
ATOM     90  O   UNL A   1      40.432  36.422  41.696  1.00  0.00    -0.237 OA
ATOM     91  O   UNL A   1      38.619  37.544  40.449  1.00  0.00    -0.237 OA
ATOM     92  O   UNL A   1      38.123  35.564  41.830  1.00  0.00    -0.744 OA
ENDBRANCH  88  89
ENDBRANCH  62  83
ENDBRANCH  36  37
ENDBRANCH  29  31
ENDBRANCH  28  29
ENDBRANCH  27  28
ENDBRANCH  26  27
ENDBRANCH  25  26
ENDBRANCH  24  25
ENDBRANCH   1  24
TORSDOF 25
ENDMDL
MODEL 3
REMARK VINA RESULT:      -8.7      2.557      4.176
REMARK SMILES CCCc1n[nH]c(C(=O)N[C@H](C)CC(=O)OCCOCCOCCOC(=O)c2ccc(-c3c4nc(c(-c5ccc(S(=O)(=O)[O-])cc5)c5ccc([nH]5)c(-c5ccc(S(=O)(=O)[O-])cc5)c5nc(c(-c6ccc(S(=O)(=O)[O-])cc6)c6ccc3[nH]6)C=C5)C=C4)cc2)n1
REMARK SMILES IDX 20 1 19 2 18 3 17 4 16 5 14 6 15 7 13 8 11 9 12 10 10 11
REMARK SMILES IDX 8 12 9 13 7 15 4 16 5 17 88 18 6 19 3 21 2 22 1 23 21 24
REMARK SMILES IDX 22 25 23 26 24 27 25 28 26 29 27 30 28 31 29 32 87 33 30 34
REMARK SMILES IDX 86 35 31 36 32 37 33 38 80 39 34 40 85 41 79 42 81 43 35 44
REMARK SMILES IDX 84 45 78 46 77 47 36 49 66 50 47 51 65 52 48 53 51 54 64 55
REMARK SMILES IDX 82 56 49 57 50 58 63 60 83 61 52 62 37 63 38 64 46 65 39 66
REMARK SMILES IDX 45 67 40 68 41 69 42 70 43 71 44 72 67 73 68 74 76 75 69 76
REMARK SMILES IDX 75 77 70 78 71 79 72 80 73 81 74 82 53 83 54 84 62 85 55 86
REMARK SMILES IDX 61 87 56 88 57 89 58 90 59 91 60 92
REMARK H PARENT 10 14 6 20 81 48 51 59
REMARK Flexibility Score: inf
ROOT
ATOM      1  C   UNL A   1      42.395  19.259  25.666  1.00  0.00     0.188 C 
ENDROOT
BRANCH   1   2
ATOM      2  O   UNL A   1      42.286  20.048  26.843  1.00  0.00    -0.376 OA
BRANCH   2   3
ATOM      3  C   UNL A   1      41.011  20.644  27.093  1.00  0.00     0.202 C 
BRANCH   3   4
ATOM      4  C   UNL A   1      39.862  20.260  26.143  1.00  0.00     0.261 C 
BRANCH   4   5
ATOM      5  O   UNL A   1      39.037  21.383  25.756  1.00  0.00    -0.463 OA
BRANCH   5   6
ATOM      6  C   UNL A   1      37.850  21.081  25.165  1.00  0.00     0.307 C 
ATOM      7  O   UNL A   1      37.577  19.972  24.712  1.00  0.00    -0.252 OA
BRANCH   6   8
ATOM      8  C   UNL A   1      36.786  22.153  25.335  1.00  0.00     0.147 C 
BRANCH   8   9
ATOM      9  C   UNL A   1      35.314  21.845  25.674  1.00  0.00     0.090 C 
ATOM     10  C   UNL A   1      34.755  22.094  27.076  1.00  0.00     0.031 C 
BRANCH   9  11
ATOM     11  N   UNL A   1      34.395  22.366  24.640  1.00  0.00    -0.346 N 
ATOM     12  C   UNL A   1      33.335  21.737  24.017  1.00  0.00     0.288 C 
ATOM     13  O   UNL A   1      32.681  22.375  23.191  1.00  0.00    -0.266 OA
ATOM     14  H   UNL A   1      34.563  23.293  24.355  1.00  0.00     0.164 HD
BRANCH  12  15
ATOM     15  C   UNL A   1      33.014  20.372  24.357  1.00  0.00     0.214 A 
ATOM     16  C   UNL A   1      32.900  18.263  24.472  1.00  0.00     0.151 A 
ATOM     17  N   UNL A   1      32.162  18.651  25.518  1.00  0.00    -0.158 NA
ATOM     18  N   UNL A   1      33.404  19.286  23.724  1.00  0.00    -0.207 NA
ATOM     19  N   UNL A   1      32.260  19.994  25.429  1.00  0.00    -0.255 N 
ATOM     20  H   UNL A   1      31.841  20.623  26.060  1.00  0.00     0.192 HD
BRANCH  16  21
ATOM     21  C   UNL A   1      33.195  16.849  24.126  1.00  0.00     0.079 C 
BRANCH  21  22
ATOM     22  C   UNL A   1      33.572  15.984  25.328  1.00  0.00     0.005 C 
ATOM     23  C   UNL A   1      32.730  14.722  25.475  1.00  0.00     0.004 C 
ENDBRANCH  21  22
ENDBRANCH  16  21
ENDBRANCH  12  15
ENDBRANCH   9  11
ENDBRANCH   8   9
ENDBRANCH   6   8
ENDBRANCH   5   6
ENDBRANCH   4   5
ENDBRANCH   3   4
ENDBRANCH   2   3
ENDBRANCH   1   2
BRANCH   1  24
ATOM     24  C   UNL A   1      43.813  18.825  25.269  1.00  0.00     0.188 C 
BRANCH  24  25
ATOM     25  O   UNL A   1      44.863  19.680  25.694  1.00  0.00    -0.376 OA
BRANCH  25  26
ATOM     26  C   UNL A   1      45.205  20.771  24.839  1.00  0.00     0.202 C 
BRANCH  26  27
ATOM     27  C   UNL A   1      45.367  22.150  25.516  1.00  0.00     0.261 C 
BRANCH  27  28
ATOM     28  O   UNL A   1      44.262  22.604  26.328  1.00  0.00    -0.460 OA
BRANCH  28  29
ATOM     29  C   UNL A   1      43.259  23.282  25.717  1.00  0.00     0.338 C 
ATOM     30  O   UNL A   1      42.672  22.942  24.707  1.00  0.00    -0.246 OA
BRANCH  29  31
ATOM     31  C   UNL A   1      42.785  24.360  26.635  1.00  0.00     0.060 A 
ATOM     32  C   UNL A   1      43.338  25.642  26.485  1.00  0.00     0.016 A 
ATOM     33  C   UNL A   1      41.768  24.155  27.572  1.00  0.00     0.016 A 
ATOM     34  C   UNL A   1      42.928  26.695  27.311  1.00  0.00     0.010 A 
ATOM     35  C   UNL A   1      41.364  25.207  28.406  1.00  0.00     0.010 A 
ATOM     36  C   UNL A   1      41.975  26.472  28.312  1.00  0.00    -0.014 A 
BRANCH  36  37
ATOM     37  C   UNL A   1      41.799  27.463  29.410  1.00  0.00     0.031 A 
ATOM     38  C   UNL A   1      42.770  27.410  30.564  1.00  0.00     0.074 A 
ATOM     39  C   UNL A   1      40.836  28.404  29.397  1.00  0.00     0.049 A 
ATOM     40  N   UNL A   1      42.804  28.125  31.660  1.00  0.00    -0.248 NA
ATOM     41  C   UNL A   1      43.849  26.413  30.464  1.00  0.00     0.031 C 
ATOM     42  C   UNL A   1      39.866  28.616  28.325  1.00  0.00     0.029 A 
ATOM     43  N   UNL A   1      40.519  29.363  30.331  1.00  0.00    -0.354 N 
ATOM     44  C   UNL A   1      43.895  27.654  32.383  1.00  0.00     0.074 A 
ATOM     45  C   UNL A   1      44.474  26.572  31.619  1.00  0.00     0.031 C 
ATOM     46  C   UNL A   1      39.057  29.638  28.665  1.00  0.00     0.029 A 
ATOM     47  C   UNL A   1      39.428  30.130  29.993  1.00  0.00     0.049 A 
ATOM     48  H   UNL A   1      41.027  29.489  31.165  1.00  0.00     0.167 HD
ATOM     49  C   UNL A   1      44.381  28.084  33.572  1.00  0.00     0.031 A 
ATOM     50  C   UNL A   1      38.790  31.101  30.682  1.00  0.00     0.031 A 
ATOM     51  C   UNL A   1      43.800  29.146  34.348  1.00  0.00     0.049 A 
ATOM     52  C   UNL A   1      39.291  31.502  32.049  1.00  0.00     0.074 A 
ATOM     53  C   UNL A   1      44.222  29.651  35.565  1.00  0.00     0.029 A 
ATOM     54  N   UNL A   1      42.669  29.862  33.989  1.00  0.00    -0.354 N 
ATOM     55  N   UNL A   1      40.329  31.052  32.715  1.00  0.00    -0.248 NA
ATOM     56  C   UNL A   1      38.537  32.551  32.753  1.00  0.00     0.031 C 
ATOM     57  C   UNL A   1      43.311  30.630  35.971  1.00  0.00     0.029 A 
ATOM     58  C   UNL A   1      42.365  30.788  34.972  1.00  0.00     0.049 A 
ATOM     59  H   UNL A   1      42.157  29.731  33.157  1.00  0.00     0.167 HD
ATOM     60  C   UNL A   1      40.376  31.793  33.894  1.00  0.00     0.074 A 
ATOM     61  C   UNL A   1      39.265  32.722  33.848  1.00  0.00     0.031 C 
ATOM     62  C   UNL A   1      41.263  31.716  34.918  1.00  0.00     0.031 A 
BRANCH  49  63
ATOM     63  C   UNL A   1      45.587  27.367  34.123  1.00  0.00    -0.014 A 
ATOM     64  C   UNL A   1      46.892  27.816  33.852  1.00  0.00     0.010 A 
ATOM     65  C   UNL A   1      45.409  26.233  34.938  1.00  0.00     0.010 A 
ATOM     66  C   UNL A   1      47.997  27.115  34.343  1.00  0.00     0.020 A 
ATOM     67  C   UNL A   1      46.510  25.551  35.459  1.00  0.00     0.020 A 
ATOM     68  C   UNL A   1      47.798  25.985  35.142  1.00  0.00     0.054 A 
BRANCH  68  69
ATOM     69  S   UNL A   1      49.250  25.100  35.771  1.00  0.00     0.124 S 
ATOM     70  O   UNL A   1      50.142  25.123  34.613  1.00  0.00    -0.237 OA
ATOM     71  O   UNL A   1      49.665  25.928  36.899  1.00  0.00    -0.237 OA
ATOM     72  O   UNL A   1      48.728  23.783  36.127  1.00  0.00    -0.744 OA
ENDBRANCH  68  69
ENDBRANCH  49  63
BRANCH  50  73
ATOM     73  C   UNL A   1      37.589  31.768  30.098  1.00  0.00    -0.014 A 
ATOM     74  C   UNL A   1      37.727  32.877  29.244  1.00  0.00     0.010 A 
ATOM     75  C   UNL A   1      36.296  31.307  30.410  1.00  0.00     0.010 A 
ATOM     76  C   UNL A   1      36.598  33.520  28.726  1.00  0.00     0.020 A 
ATOM     77  C   UNL A   1      35.166  31.929  29.870  1.00  0.00     0.020 A 
ATOM     78  C   UNL A   1      35.324  33.038  29.039  1.00  0.00     0.054 A 
BRANCH  78  79
ATOM     79  S   UNL A   1      33.877  33.855  28.309  1.00  0.00     0.124 S 
ATOM     80  O   UNL A   1      33.160  32.731  27.715  1.00  0.00    -0.237 OA
ATOM     81  O   UNL A   1      33.241  34.466  29.475  1.00  0.00    -0.237 OA
ATOM     82  O   UNL A   1      34.459  34.800  27.359  1.00  0.00    -0.744 OA
ENDBRANCH  78  79
ENDBRANCH  50  73
BRANCH  62  83
ATOM     83  C   UNL A   1      41.120  32.701  36.053  1.00  0.00    -0.014 A 
ATOM     84  C   UNL A   1      40.254  32.463  37.135  1.00  0.00     0.010 A 
ATOM     85  C   UNL A   1      41.921  33.859  36.063  1.00  0.00     0.010 A 
ATOM     86  C   UNL A   1      40.166  33.383  38.185  1.00  0.00     0.020 A 
ATOM     87  C   UNL A   1      41.859  34.764  37.126  1.00  0.00     0.020 A 
ATOM     88  C   UNL A   1      40.969  34.528  38.174  1.00  0.00     0.054 A 
BRANCH  88  89
ATOM     89  S   UNL A   1      40.865  35.685  39.568  1.00  0.00     0.124 S 
ATOM     90  O   UNL A   1      40.918  34.785  40.716  1.00  0.00    -0.237 OA
ATOM     91  O   UNL A   1      42.042  36.528  39.374  1.00  0.00    -0.237 OA
ATOM     92  O   UNL A   1      39.583  36.359  39.365  1.00  0.00    -0.744 OA
ENDBRANCH  88  89
ENDBRANCH  62  83
ENDBRANCH  36  37
ENDBRANCH  29  31
ENDBRANCH  28  29
ENDBRANCH  27  28
ENDBRANCH  26  27
ENDBRANCH  25  26
ENDBRANCH  24  25
ENDBRANCH   1  24
TORSDOF 25
ENDMDL
