MODEL 1
REMARK VINA RESULT:     -10.7      0.000      0.000
REMARK SMILES Cc1nc(-c2ccccc2Cl)nc2sc(C(=O)OCCOCCOCCOC(=O)c3ccc(-c4c5nc(c(-c6ccc(S(=O)(=O)[O-])cc6)c6ccc([nH]6)c(-c6ccc(S(=O)(=O)[O-])cc6)c6nc(c(-c7ccc(S(=O)(=O)[O-])cc7)c7ccc4[nH]7)C=C6)C=C5)cc3)c(N)c12
REMARK SMILES IDX 23 1 22 2 21 3 20 4 19 5 18 6 16 7 17 8 15 9 1 10 2 11 3 12
REMARK SMILES IDX 92 13 4 14 13 15 90 16 12 17 14 18 5 19 6 20 10 21 7 22 9 23
REMARK SMILES IDX 11 24 8 25 91 26 24 29 25 30 26 31 27 32 28 33 29 34 30 35
REMARK SMILES IDX 31 36 89 37 32 38 88 39 33 40 34 41 35 42 82 43 36 44 87 45
REMARK SMILES IDX 81 46 83 47 37 48 86 49 80 50 79 51 38 53 68 54 49 55 67 56
REMARK SMILES IDX 50 57 53 58 66 59 84 60 51 61 52 62 65 64 85 65 54 66 39 67
REMARK SMILES IDX 40 68 48 69 41 70 47 71 42 72 43 73 44 74 45 75 46 76 69 77
REMARK SMILES IDX 70 78 78 79 71 80 77 81 72 82 73 83 74 84 75 85 76 86 55 87
REMARK SMILES IDX 56 88 64 89 57 90 63 91 58 92 59 93 60 94 61 95 62 96
REMARK H PARENT 91 27 91 28 83 52 53 63
REMARK Flexibility Score: inf
ROOT
ATOM      1  C   UNL A   1      35.668  33.035  28.147  1.00  0.00     0.188 C 
ENDROOT
BRANCH   1   2
ATOM      2  C   UNL A   1      34.475  32.084  28.382  1.00  0.00     0.188 C 
BRANCH   2   3
ATOM      3  O   UNL A   1      34.517  30.716  27.984  1.00  0.00    -0.376 OA
BRANCH   3   4
ATOM      4  C   UNL A   1      33.810  30.267  26.840  1.00  0.00     0.202 C 
BRANCH   4   5
ATOM      5  C   UNL A   1      32.285  30.451  26.764  1.00  0.00     0.261 C 
BRANCH   5   6
ATOM      6  O   UNL A   1      31.522  29.285  26.427  1.00  0.00    -0.459 OA
BRANCH   6   7
ATOM      7  C   UNL A   1      31.219  29.107  25.109  1.00  0.00     0.350 C 
ATOM      8  O   UNL A   1      30.691  29.959  24.400  1.00  0.00    -0.245 OA
BRANCH   7   9
ATOM      9  C   UNL A   1      31.726  27.835  24.628  1.00  0.00     0.138 A 
ATOM     10  C   UNL A   1      32.663  25.492  20.672  1.00  0.00     0.067 C 
ATOM     11  C   UNL A   1      32.781  25.214  22.141  1.00  0.00     0.052 A 
ATOM     12  N   UNL A   1      33.131  23.927  22.439  1.00  0.00    -0.233 NA
ATOM     13  C   UNL A   1      32.459  26.091  23.204  1.00  0.00     0.057 A 
ATOM     14  C   UNL A   1      33.208  23.531  23.719  1.00  0.00     0.162 A 
ATOM     15  C   UNL A   1      32.542  25.529  24.471  1.00  0.00     0.130 A 
ATOM     16  C   UNL A   1      32.028  27.468  23.323  1.00  0.00     0.069 A 
ATOM     17  N   UNL A   1      32.910  24.280  24.782  1.00  0.00    -0.217 NA
ATOM     18  S   UNL A   1      32.063  26.571  25.722  1.00  0.00    -0.106 S 
BRANCH  14  19
ATOM     19  C   UNL A   1      33.456  22.114  23.999  1.00  0.00     0.038 A 
ATOM     20  C   UNL A   1      32.429  21.185  23.715  1.00  0.00     0.013 A 
ATOM     21  C   UNL A   1      34.639  21.621  24.571  1.00  0.00     0.052 A 
ATOM     22  C   UNL A   1      32.567  19.826  23.998  1.00  0.00     0.001 A 
ATOM     23  C   UNL A   1      34.776  20.253  24.858  1.00  0.00     0.021 A 
ATOM     24  Cl  UNL A   1      35.958  22.648  25.013  1.00  0.00    -0.084 Cl
ATOM     25  C   UNL A   1      33.743  19.359  24.573  1.00  0.00     0.002 A 
ENDBRANCH  14  19
BRANCH  16  26
ATOM     26  N   UNL A   1      31.939  28.350  22.302  1.00  0.00    -0.397 N 
ATOM     27  H   UNL A   1      32.098  28.050  21.378  1.00  0.00     0.156 HD
ATOM     28  H   UNL A   1      31.715  29.291  22.483  1.00  0.00     0.156 HD
ENDBRANCH  16  26
ENDBRANCH   7   9
ENDBRANCH   6   7
ENDBRANCH   5   6
ENDBRANCH   4   5
ENDBRANCH   3   4
ENDBRANCH   2   3
ENDBRANCH   1   2
BRANCH   1  29
ATOM     29  O   UNL A   1      35.479  34.347  28.644  1.00  0.00    -0.376 OA
BRANCH  29  30
ATOM     30  C   UNL A   1      34.183  34.704  29.101  1.00  0.00     0.202 C 
BRANCH  30  31
ATOM     31  C   UNL A   1      33.978  34.954  30.594  1.00  0.00     0.261 C 
BRANCH  31  32
ATOM     32  O   UNL A   1      35.037  34.543  31.446  1.00  0.00    -0.460 OA
BRANCH  32  33
ATOM     33  C   UNL A   1      34.943  33.278  31.902  1.00  0.00     0.338 C 
ATOM     34  O   UNL A   1      33.927  32.643  32.116  1.00  0.00    -0.246 OA
BRANCH  33  35
ATOM     35  C   UNL A   1      36.293  32.806  32.201  1.00  0.00     0.060 A 
ATOM     36  C   UNL A   1      37.377  33.477  31.633  1.00  0.00     0.016 A 
ATOM     37  C   UNL A   1      36.414  31.541  32.792  1.00  0.00     0.016 A 
ATOM     38  C   UNL A   1      38.565  32.789  31.496  1.00  0.00     0.010 A 
ATOM     39  C   UNL A   1      37.584  30.847  32.622  1.00  0.00     0.010 A 
ATOM     40  C   UNL A   1      38.615  31.453  31.907  1.00  0.00    -0.014 A 
BRANCH  40  41
ATOM     41  C   UNL A   1      39.802  30.680  31.616  1.00  0.00     0.031 A 
ATOM     42  C   UNL A   1      40.659  30.457  32.797  1.00  0.00     0.074 A 
ATOM     43  C   UNL A   1      39.999  30.115  30.410  1.00  0.00     0.049 A 
ATOM     44  N   UNL A   1      41.821  30.964  33.034  1.00  0.00    -0.248 NA
ATOM     45  C   UNL A   1      40.072  29.733  33.938  1.00  0.00     0.031 C 
ATOM     46  C   UNL A   1      39.058  30.040  29.288  1.00  0.00     0.029 A 
ATOM     47  N   UNL A   1      41.051  29.373  29.976  1.00  0.00    -0.354 N 
ATOM     48  C   UNL A   1      42.211  30.434  34.257  1.00  0.00     0.074 A 
ATOM     49  C   UNL A   1      41.022  29.890  34.858  1.00  0.00     0.031 C 
ATOM     50  C   UNL A   1      39.487  29.102  28.412  1.00  0.00     0.029 A 
ATOM     51  C   UNL A   1      40.784  28.608  28.846  1.00  0.00     0.049 A 
ATOM     52  H   UNL A   1      41.927  29.376  30.423  1.00  0.00     0.167 HD
ATOM     53  C   UNL A   1      43.521  30.219  34.552  1.00  0.00     0.031 A 
ATOM     54  C   UNL A   1      41.543  27.590  28.363  1.00  0.00     0.031 A 
ATOM     55  C   UNL A   1      44.391  30.912  33.638  1.00  0.00     0.049 A 
ATOM     56  C   UNL A   1      42.900  27.747  28.946  1.00  0.00     0.074 A 
ATOM     57  C   UNL A   1      44.595  32.237  33.309  1.00  0.00     0.029 A 
ATOM     58  N   UNL A   1      44.932  30.168  32.616  1.00  0.00    -0.354 N 
ATOM     59  N   UNL A   1      43.693  28.745  28.667  1.00  0.00    -0.248 NA
ATOM     60  C   UNL A   1      43.200  27.047  30.187  1.00  0.00     0.031 C 
ATOM     61  C   UNL A   1      44.854  32.234  31.909  1.00  0.00     0.029 A 
ATOM     62  C   UNL A   1      44.862  30.909  31.466  1.00  0.00     0.049 A 
ATOM     63  H   UNL A   1      45.306  29.261  32.697  1.00  0.00     0.167 HD
ATOM     64  C   UNL A   1      44.298  29.070  29.874  1.00  0.00     0.074 A 
ATOM     65  C   UNL A   1      44.036  27.927  30.747  1.00  0.00     0.031 C 
ATOM     66  C   UNL A   1      44.705  30.347  30.139  1.00  0.00     0.031 A 
BRANCH  53  67
ATOM     67  C   UNL A   1      43.998  29.052  35.383  1.00  0.00    -0.014 A 
ATOM     68  C   UNL A   1      44.726  29.314  36.559  1.00  0.00     0.010 A 
ATOM     69  C   UNL A   1      43.994  27.719  34.918  1.00  0.00     0.010 A 
ATOM     70  C   UNL A   1      45.467  28.308  37.193  1.00  0.00     0.020 A 
ATOM     71  C   UNL A   1      44.689  26.701  35.568  1.00  0.00     0.020 A 
ATOM     72  C   UNL A   1      45.451  27.009  36.684  1.00  0.00     0.054 A 
BRANCH  72  73
ATOM     73  S   UNL A   1      46.485  25.741  37.449  1.00  0.00     0.124 S 
ATOM     74  O   UNL A   1      47.815  26.334  37.344  1.00  0.00    -0.237 OA
ATOM     75  O   UNL A   1      45.928  25.662  38.796  1.00  0.00    -0.237 OA
ATOM     76  O   UNL A   1      46.257  24.563  36.616  1.00  0.00    -0.744 OA
ENDBRANCH  72  73
ENDBRANCH  53  67
BRANCH  54  77
ATOM     77  C   UNL A   1      41.087  26.332  27.712  1.00  0.00    -0.014 A 
ATOM     78  C   UNL A   1      41.771  25.792  26.606  1.00  0.00     0.010 A 
ATOM     79  C   UNL A   1      40.135  25.509  28.350  1.00  0.00     0.010 A 
ATOM     80  C   UNL A   1      41.556  24.463  26.194  1.00  0.00     0.020 A 
ATOM     81  C   UNL A   1      39.907  24.188  27.940  1.00  0.00     0.020 A 
ATOM     82  C   UNL A   1      40.639  23.663  26.878  1.00  0.00     0.054 A 
BRANCH  82  83
ATOM     83  S   UNL A   1      40.488  21.901  26.453  1.00  0.00     0.124 S 
ATOM     84  O   UNL A   1      39.198  21.853  25.771  1.00  0.00    -0.237 OA
ATOM     85  O   UNL A   1      41.659  21.679  25.609  1.00  0.00    -0.237 OA
ATOM     86  O   UNL A   1      40.529  21.228  27.751  1.00  0.00    -0.744 OA
ENDBRANCH  82  83
ENDBRANCH  54  77
BRANCH  66  87
ATOM     87  C   UNL A   1      44.781  31.333  28.995  1.00  0.00    -0.014 A 
ATOM     88  C   UNL A   1      45.818  31.351  28.040  1.00  0.00     0.010 A 
ATOM     89  C   UNL A   1      43.654  32.146  28.777  1.00  0.00     0.010 A 
ATOM     90  C   UNL A   1      45.724  32.165  26.900  1.00  0.00     0.020 A 
ATOM     91  C   UNL A   1      43.546  32.942  27.636  1.00  0.00     0.020 A 
ATOM     92  C   UNL A   1      44.584  32.950  26.702  1.00  0.00     0.054 A 
BRANCH  92  93
ATOM     93  S   UNL A   1      44.427  33.940  25.188  1.00  0.00     0.124 S 
ATOM     94  O   UNL A   1      43.359  34.875  25.528  1.00  0.00    -0.237 OA
ATOM     95  O   UNL A   1      45.758  34.527  25.045  1.00  0.00    -0.237 OA
ATOM     96  O   UNL A   1      44.083  32.956  24.162  1.00  0.00    -0.744 OA
ENDBRANCH  92  93
ENDBRANCH  66  87
ENDBRANCH  40  41
ENDBRANCH  33  35
ENDBRANCH  32  33
ENDBRANCH  31  32
ENDBRANCH  30  31
ENDBRANCH  29  30
ENDBRANCH   1  29
TORSDOF 22
ENDMDL
MODEL 2
REMARK VINA RESULT:     -10.0      2.510      7.127
REMARK SMILES Cc1nc(-c2ccccc2Cl)nc2sc(C(=O)OCCOCCOCCOC(=O)c3ccc(-c4c5nc(c(-c6ccc(S(=O)(=O)[O-])cc6)c6ccc([nH]6)c(-c6ccc(S(=O)(=O)[O-])cc6)c6nc(c(-c7ccc(S(=O)(=O)[O-])cc7)c7ccc4[nH]7)C=C6)C=C5)cc3)c(N)c12
REMARK SMILES IDX 23 1 22 2 21 3 20 4 19 5 18 6 16 7 17 8 15 9 1 10 2 11 3 12
REMARK SMILES IDX 92 13 4 14 13 15 90 16 12 17 14 18 5 19 6 20 10 21 7 22 9 23
REMARK SMILES IDX 11 24 8 25 91 26 24 29 25 30 26 31 27 32 28 33 29 34 30 35
REMARK SMILES IDX 31 36 89 37 32 38 88 39 33 40 34 41 35 42 82 43 36 44 87 45
REMARK SMILES IDX 81 46 83 47 37 48 86 49 80 50 79 51 38 53 68 54 49 55 67 56
REMARK SMILES IDX 50 57 53 58 66 59 84 60 51 61 52 62 65 64 85 65 54 66 39 67
REMARK SMILES IDX 40 68 48 69 41 70 47 71 42 72 43 73 44 74 45 75 46 76 69 77
REMARK SMILES IDX 70 78 78 79 71 80 77 81 72 82 73 83 74 84 75 85 76 86 55 87
REMARK SMILES IDX 56 88 64 89 57 90 63 91 58 92 59 93 60 94 61 95 62 96
REMARK H PARENT 91 27 91 28 83 52 53 63
REMARK Flexibility Score: inf
ROOT
ATOM      1  C   UNL A   1      34.050  31.207  27.584  1.00  0.00     0.188 C 
ENDROOT
BRANCH   1   2
ATOM      2  C   UNL A   1      33.406  30.098  26.724  1.00  0.00     0.188 C 
BRANCH   2   3
ATOM      3  O   UNL A   1      34.079  28.870  26.458  1.00  0.00    -0.376 OA
BRANCH   3   4
ATOM      4  C   UNL A   1      33.412  27.799  25.812  1.00  0.00     0.202 C 
BRANCH   4   5
ATOM      5  C   UNL A   1      32.939  27.959  24.358  1.00  0.00     0.261 C 
BRANCH   5   6
ATOM      6  O   UNL A   1      31.521  27.922  24.144  1.00  0.00    -0.459 OA
BRANCH   6   7
ATOM      7  C   UNL A   1      31.068  27.097  23.157  1.00  0.00     0.350 C 
ATOM      8  O   UNL A   1      30.695  27.481  22.052  1.00  0.00    -0.245 OA
BRANCH   7   9
ATOM      9  C   UNL A   1      31.215  25.704  23.538  1.00  0.00     0.138 A 
ATOM     10  C   UNL A   1      30.121  22.675  26.951  1.00  0.00     0.067 C 
ATOM     11  C   UNL A   1      30.847  22.604  25.640  1.00  0.00     0.052 A 
ATOM     12  N   UNL A   1      31.457  21.404  25.405  1.00  0.00    -0.233 NA
ATOM     13  C   UNL A   1      31.051  23.659  24.719  1.00  0.00     0.057 A 
ATOM     14  C   UNL A   1      32.195  21.231  24.297  1.00  0.00     0.162 A 
ATOM     15  C   UNL A   1      31.871  23.345  23.643  1.00  0.00     0.130 A 
ATOM     16  C   UNL A   1      30.632  25.040  24.608  1.00  0.00     0.069 A 
ATOM     17  N   UNL A   1      32.454  22.168  23.384  1.00  0.00    -0.217 NA
ATOM     18  S   UNL A   1      32.176  24.650  22.603  1.00  0.00    -0.106 S 
BRANCH  14  19
ATOM     19  C   UNL A   1      32.942  19.979  24.142  1.00  0.00     0.038 A 
ATOM     20  C   UNL A   1      32.335  18.921  23.428  1.00  0.00     0.013 A 
ATOM     21  C   UNL A   1      34.211  19.748  24.694  1.00  0.00     0.052 A 
ATOM     22  C   UNL A   1      32.959  17.682  23.279  1.00  0.00     0.001 A 
ATOM     23  C   UNL A   1      34.837  18.500  24.544  1.00  0.00     0.021 A 
ATOM     24  Cl  UNL A   1      35.050  20.936  25.629  1.00  0.00    -0.084 Cl
ATOM     25  C   UNL A   1      34.212  17.470  23.840  1.00  0.00     0.002 A 
ENDBRANCH  14  19
BRANCH  16  26
ATOM     26  N   UNL A   1      29.745  25.654  25.424  1.00  0.00    -0.397 N 
ATOM     27  H   UNL A   1      30.062  26.284  26.110  1.00  0.00     0.156 HD
ATOM     28  H   UNL A   1      28.782  25.471  25.331  1.00  0.00     0.156 HD
ENDBRANCH  16  26
ENDBRANCH   7   9
ENDBRANCH   6   7
ENDBRANCH   5   6
ENDBRANCH   4   5
ENDBRANCH   3   4
ENDBRANCH   2   3
ENDBRANCH   1   2
BRANCH   1  29
ATOM     29  O   UNL A   1      33.334  32.429  27.597  1.00  0.00    -0.376 OA
BRANCH  29  30
ATOM     30  C   UNL A   1      33.857  33.497  28.371  1.00  0.00     0.202 C 
BRANCH  30  31
ATOM     31  C   UNL A   1      35.370  33.718  28.384  1.00  0.00     0.261 C 
BRANCH  31  32
ATOM     32  O   UNL A   1      35.980  33.771  29.665  1.00  0.00    -0.460 OA
BRANCH  32  33
ATOM     33  C   UNL A   1      36.238  32.572  30.224  1.00  0.00     0.338 C 
ATOM     34  O   UNL A   1      35.506  31.920  30.945  1.00  0.00    -0.246 OA
BRANCH  33  35
ATOM     35  C   UNL A   1      37.614  32.209  29.895  1.00  0.00     0.060 A 
ATOM     36  C   UNL A   1      37.836  31.122  29.047  1.00  0.00     0.016 A 
ATOM     37  C   UNL A   1      38.631  32.776  30.676  1.00  0.00     0.016 A 
ATOM     38  C   UNL A   1      39.055  30.482  29.120  1.00  0.00     0.010 A 
ATOM     39  C   UNL A   1      39.828  32.115  30.773  1.00  0.00     0.010 A 
ATOM     40  C   UNL A   1      39.993  30.934  30.053  1.00  0.00    -0.014 A 
BRANCH  40  41
ATOM     41  C   UNL A   1      41.204  30.168  30.250  1.00  0.00     0.031 A 
ATOM     42  C   UNL A   1      42.366  30.714  29.520  1.00  0.00     0.074 A 
ATOM     43  C   UNL A   1      41.262  29.151  31.129  1.00  0.00     0.049 A 
ATOM     44  N   UNL A   1      42.966  30.202  28.499  1.00  0.00    -0.248 NA
ATOM     45  C   UNL A   1      42.794  32.085  29.847  1.00  0.00     0.031 C 
ATOM     46  C   UNL A   1      40.243  28.746  32.103  1.00  0.00     0.029 A 
ATOM     47  N   UNL A   1      42.308  28.335  31.425  1.00  0.00    -0.354 N 
ATOM     48  C   UNL A   1      43.998  31.082  28.201  1.00  0.00     0.074 A 
ATOM     49  C   UNL A   1      43.697  32.306  28.894  1.00  0.00     0.031 C 
ATOM     50  C   UNL A   1      40.809  27.932  33.025  1.00  0.00     0.029 A 
ATOM     51  C   UNL A   1      42.184  27.664  32.636  1.00  0.00     0.049 A 
ATOM     52  H   UNL A   1      43.086  28.229  30.832  1.00  0.00     0.167 HD
ATOM     53  C   UNL A   1      45.164  30.648  27.650  1.00  0.00     0.031 A 
ATOM     54  C   UNL A   1      43.172  27.008  33.299  1.00  0.00     0.031 A 
ATOM     55  C   UNL A   1      45.036  29.316  27.120  1.00  0.00     0.049 A 
ATOM     56  C   UNL A   1      44.247  26.730  32.311  1.00  0.00     0.074 A 
ATOM     57  C   UNL A   1      44.258  28.731  26.142  1.00  0.00     0.029 A 
ATOM     58  N   UNL A   1      45.512  28.291  27.904  1.00  0.00    -0.354 N 
ATOM     59  N   UNL A   1      44.103  25.917  31.301  1.00  0.00    -0.248 NA
ATOM     60  C   UNL A   1      45.324  27.700  32.177  1.00  0.00     0.031 C 
ATOM     61  C   UNL A   1      43.949  27.434  26.641  1.00  0.00     0.029 A 
ATOM     62  C   UNL A   1      44.605  27.266  27.863  1.00  0.00     0.049 A 
ATOM     63  H   UNL A   1      46.358  28.294  28.407  1.00  0.00     0.167 HD
ATOM     64  C   UNL A   1      44.761  26.537  30.247  1.00  0.00     0.074 A 
ATOM     65  C   UNL A   1      45.580  27.575  30.871  1.00  0.00     0.031 C 
ATOM     66  C   UNL A   1      44.367  26.340  28.954  1.00  0.00     0.031 A 
BRANCH  53  67
ATOM     67  C   UNL A   1      46.506  31.254  27.980  1.00  0.00    -0.014 A 
ATOM     68  C   UNL A   1      47.167  32.010  26.992  1.00  0.00     0.010 A 
ATOM     69  C   UNL A   1      47.262  30.889  29.114  1.00  0.00     0.010 A 
ATOM     70  C   UNL A   1      48.528  32.321  27.105  1.00  0.00     0.020 A 
ATOM     71  C   UNL A   1      48.604  31.234  29.260  1.00  0.00     0.020 A 
ATOM     72  C   UNL A   1      49.239  31.920  28.236  1.00  0.00     0.054 A 
BRANCH  72  73
ATOM     73  S   UNL A   1      51.015  32.239  28.330  1.00  0.00     0.124 S 
ATOM     74  O   UNL A   1      51.560  31.141  27.536  1.00  0.00    -0.237 OA
ATOM     75  O   UNL A   1      51.120  33.567  27.734  1.00  0.00    -0.237 OA
ATOM     76  O   UNL A   1      51.299  32.179  29.761  1.00  0.00    -0.744 OA
ENDBRANCH  72  73
ENDBRANCH  53  67
BRANCH  54  77
ATOM     77  C   UNL A   1      43.385  26.910  34.768  1.00  0.00    -0.014 A 
ATOM     78  C   UNL A   1      43.474  25.660  35.411  1.00  0.00     0.010 A 
ATOM     79  C   UNL A   1      43.775  28.047  35.506  1.00  0.00     0.010 A 
ATOM     80  C   UNL A   1      43.990  25.547  36.717  1.00  0.00     0.020 A 
ATOM     81  C   UNL A   1      44.280  27.945  36.809  1.00  0.00     0.020 A 
ATOM     82  C   UNL A   1      44.410  26.691  37.399  1.00  0.00     0.054 A 
BRANCH  82  83
ATOM     83  S   UNL A   1      45.233  26.525  39.013  1.00  0.00     0.124 S 
ATOM     84  O   UNL A   1      45.046  25.108  39.314  1.00  0.00    -0.237 OA
ATOM     85  O   UNL A   1      46.603  26.933  38.713  1.00  0.00    -0.237 OA
ATOM     86  O   UNL A   1      44.491  27.444  39.875  1.00  0.00    -0.744 OA
ENDBRANCH  82  83
ENDBRANCH  54  77
BRANCH  66  87
ATOM     87  C   UNL A   1      43.416  25.203  28.654  1.00  0.00    -0.014 A 
ATOM     88  C   UNL A   1      42.018  25.352  28.559  1.00  0.00     0.010 A 
ATOM     89  C   UNL A   1      43.988  23.978  28.264  1.00  0.00     0.010 A 
ATOM     90  C   UNL A   1      41.218  24.298  28.088  1.00  0.00     0.020 A 
ATOM     91  C   UNL A   1      43.201  22.934  27.777  1.00  0.00     0.020 A 
ATOM     92  C   UNL A   1      41.817  23.097  27.693  1.00  0.00     0.054 A 
BRANCH  92  93
ATOM     93  S   UNL A   1      40.792  21.765  27.009  1.00  0.00     0.124 S 
ATOM     94  O   UNL A   1      39.497  22.418  26.834  1.00  0.00    -0.237 OA
ATOM     95  O   UNL A   1      41.493  21.416  25.775  1.00  0.00    -0.237 OA
ATOM     96  O   UNL A   1      40.827  20.730  28.042  1.00  0.00    -0.744 OA
ENDBRANCH  92  93
ENDBRANCH  66  87
ENDBRANCH  40  41
ENDBRANCH  33  35
ENDBRANCH  32  33
ENDBRANCH  31  32
ENDBRANCH  30  31
ENDBRANCH  29  30
ENDBRANCH   1  29
TORSDOF 22
ENDMDL
MODEL 3
REMARK VINA RESULT:      -9.9      1.374      2.068
REMARK SMILES Cc1nc(-c2ccccc2Cl)nc2sc(C(=O)OCCOCCOCCOC(=O)c3ccc(-c4c5nc(c(-c6ccc(S(=O)(=O)[O-])cc6)c6ccc([nH]6)c(-c6ccc(S(=O)(=O)[O-])cc6)c6nc(c(-c7ccc(S(=O)(=O)[O-])cc7)c7ccc4[nH]7)C=C6)C=C5)cc3)c(N)c12
REMARK SMILES IDX 23 1 22 2 21 3 20 4 19 5 18 6 16 7 17 8 15 9 1 10 2 11 3 12
REMARK SMILES IDX 92 13 4 14 13 15 90 16 12 17 14 18 5 19 6 20 10 21 7 22 9 23
REMARK SMILES IDX 11 24 8 25 91 26 24 29 25 30 26 31 27 32 28 33 29 34 30 35
REMARK SMILES IDX 31 36 89 37 32 38 88 39 33 40 34 41 35 42 82 43 36 44 87 45
REMARK SMILES IDX 81 46 83 47 37 48 86 49 80 50 79 51 38 53 68 54 49 55 67 56
REMARK SMILES IDX 50 57 53 58 66 59 84 60 51 61 52 62 65 64 85 65 54 66 39 67
REMARK SMILES IDX 40 68 48 69 41 70 47 71 42 72 43 73 44 74 45 75 46 76 69 77
REMARK SMILES IDX 70 78 78 79 71 80 77 81 72 82 73 83 74 84 75 85 76 86 55 87
REMARK SMILES IDX 56 88 64 89 57 90 63 91 58 92 59 93 60 94 61 95 62 96
REMARK H PARENT 91 27 91 28 83 52 53 63
REMARK Flexibility Score: inf
ROOT
ATOM      1  C   UNL A   1      34.356  30.861  27.282  1.00  0.00     0.188 C 
ENDROOT
BRANCH   1   2
ATOM      2  C   UNL A   1      33.599  29.588  26.846  1.00  0.00     0.188 C 
BRANCH   2   3
ATOM      3  O   UNL A   1      32.966  29.491  25.573  1.00  0.00    -0.376 OA
BRANCH   3   4
ATOM      4  C   UNL A   1      31.569  29.690  25.437  1.00  0.00     0.202 C 
BRANCH   4   5
ATOM      5  C   UNL A   1      30.885  29.406  24.089  1.00  0.00     0.261 C 
BRANCH   5   6
ATOM      6  O   UNL A   1      30.147  28.180  23.998  1.00  0.00    -0.459 OA
BRANCH   6   7
ATOM      7  C   UNL A   1      30.453  27.352  22.958  1.00  0.00     0.350 C 
ATOM      8  O   UNL A   1      30.480  27.701  21.781  1.00  0.00    -0.245 OA
BRANCH   7   9
ATOM      9  C   UNL A   1      30.873  26.049  23.440  1.00  0.00     0.138 A 
ATOM     10  C   UNL A   1      30.037  22.923  26.838  1.00  0.00     0.067 C 
ATOM     11  C   UNL A   1      30.951  23.004  25.652  1.00  0.00     0.052 A 
ATOM     12  N   UNL A   1      31.863  21.989  25.579  1.00  0.00    -0.233 NA
ATOM     13  C   UNL A   1      31.031  24.055  24.707  1.00  0.00     0.057 A 
ATOM     14  C   UNL A   1      32.781  21.980  24.600  1.00  0.00     0.162 A 
ATOM     15  C   UNL A   1      32.058  23.930  23.780  1.00  0.00     0.130 A 
ATOM     16  C   UNL A   1      30.312  25.285  24.454  1.00  0.00     0.069 A 
ATOM     17  N   UNL A   1      32.942  22.930  23.678  1.00  0.00    -0.217 NA
ATOM     18  S   UNL A   1      32.193  25.246  22.717  1.00  0.00    -0.106 S 
BRANCH  14  19
ATOM     19  C   UNL A   1      33.824  20.950  24.630  1.00  0.00     0.038 A 
ATOM     20  C   UNL A   1      33.437  19.599  24.485  1.00  0.00     0.013 A 
ATOM     21  C   UNL A   1      35.187  21.217  24.833  1.00  0.00     0.052 A 
ATOM     22  C   UNL A   1      34.361  18.556  24.551  1.00  0.00     0.001 A 
ATOM     23  C   UNL A   1      36.117  20.167  24.902  1.00  0.00     0.021 A 
ATOM     24  Cl  UNL A   1      35.796  22.818  25.072  1.00  0.00    -0.084 Cl
ATOM     25  C   UNL A   1      35.704  18.842  24.762  1.00  0.00     0.002 A 
ENDBRANCH  14  19
BRANCH  16  26
ATOM     26  N   UNL A   1      29.188  25.679  25.096  1.00  0.00    -0.397 N 
ATOM     27  H   UNL A   1      28.527  26.241  24.632  1.00  0.00     0.156 HD
ATOM     28  H   UNL A   1      29.032  25.402  26.028  1.00  0.00     0.156 HD
ENDBRANCH  16  26
ENDBRANCH   7   9
ENDBRANCH   6   7
ENDBRANCH   5   6
ENDBRANCH   4   5
ENDBRANCH   3   4
ENDBRANCH   2   3
ENDBRANCH   1   2
BRANCH   1  29
ATOM     29  O   UNL A   1      33.530  31.883  27.809  1.00  0.00    -0.376 OA
BRANCH  29  30
ATOM     30  C   UNL A   1      34.124  33.144  28.078  1.00  0.00     0.202 C 
BRANCH  30  31
ATOM     31  C   UNL A   1      34.282  33.582  29.534  1.00  0.00     0.261 C 
BRANCH  31  32
ATOM     32  O   UNL A   1      34.381  32.538  30.491  1.00  0.00    -0.460 OA
BRANCH  32  33
ATOM     33  C   UNL A   1      34.628  32.943  31.753  1.00  0.00     0.338 C 
ATOM     34  O   UNL A   1      33.987  33.742  32.411  1.00  0.00    -0.246 OA
BRANCH  33  35
ATOM     35  C   UNL A   1      35.879  32.327  32.187  1.00  0.00     0.060 A 
ATOM     36  C   UNL A   1      37.008  33.135  32.332  1.00  0.00     0.016 A 
ATOM     37  C   UNL A   1      35.953  30.928  32.144  1.00  0.00     0.016 A 
ATOM     38  C   UNL A   1      38.248  32.536  32.253  1.00  0.00     0.010 A 
ATOM     39  C   UNL A   1      37.187  30.340  32.030  1.00  0.00     0.010 A 
ATOM     40  C   UNL A   1      38.312  31.161  32.007  1.00  0.00    -0.014 A 
BRANCH  40  41
ATOM     41  C   UNL A   1      39.603  30.558  31.759  1.00  0.00     0.031 A 
ATOM     42  C   UNL A   1      40.411  30.385  32.983  1.00  0.00     0.074 A 
ATOM     43  C   UNL A   1      39.940  30.084  30.546  1.00  0.00     0.049 A 
ATOM     44  N   UNL A   1      41.483  31.021  33.314  1.00  0.00    -0.248 NA
ATOM     45  C   UNL A   1      39.857  29.537  34.052  1.00  0.00     0.031 C 
ATOM     46  C   UNL A   1      39.083  29.948  29.364  1.00  0.00     0.029 A 
ATOM     47  N   UNL A   1      41.102  29.502  30.149  1.00  0.00    -0.354 N 
ATOM     48  C   UNL A   1      41.866  30.483  34.536  1.00  0.00     0.074 A 
ATOM     49  C   UNL A   1      40.724  29.765  35.037  1.00  0.00     0.031 C 
ATOM     50  C   UNL A   1      39.678  29.116  28.478  1.00  0.00     0.029 A 
ATOM     51  C   UNL A   1      41.000  28.768  28.972  1.00  0.00     0.049 A 
ATOM     52  H   UNL A   1      41.943  29.593  30.651  1.00  0.00     0.167 HD
ATOM     53  C   UNL A   1      43.174  30.419  34.905  1.00  0.00     0.031 A 
ATOM     54  C   UNL A   1      41.911  27.879  28.495  1.00  0.00     0.031 A 
ATOM     55  C   UNL A   1      43.999  31.261  34.079  1.00  0.00     0.049 A 
ATOM     56  C   UNL A   1      43.201  28.175  29.171  1.00  0.00     0.074 A 
ATOM     57  C   UNL A   1      44.051  32.616  33.820  1.00  0.00     0.029 A 
ATOM     58  N   UNL A   1      44.690  30.643  33.063  1.00  0.00    -0.354 N 
ATOM     59  N   UNL A   1      43.873  29.277  28.985  1.00  0.00    -0.248 NA
ATOM     60  C   UNL A   1      43.515  27.456  30.397  1.00  0.00     0.031 C 
ATOM     61  C   UNL A   1      44.389  32.716  32.441  1.00  0.00     0.029 A 
ATOM     62  C   UNL A   1      44.592  31.427  31.943  1.00  0.00     0.049 A 
ATOM     63  H   UNL A   1      45.171  29.787  33.128  1.00  0.00     0.167 HD
ATOM     64  C   UNL A   1      44.361  29.613  30.241  1.00  0.00     0.074 A 
ATOM     65  C   UNL A   1      44.197  28.405  31.046  1.00  0.00     0.031 C 
ATOM     66  C   UNL A   1      44.585  30.916  30.586  1.00  0.00     0.031 A 
BRANCH  53  67
ATOM     67  C   UNL A   1      43.747  29.281  35.714  1.00  0.00    -0.014 A 
ATOM     68  C   UNL A   1      44.767  29.560  36.645  1.00  0.00     0.010 A 
ATOM     69  C   UNL A   1      43.519  27.922  35.407  1.00  0.00     0.010 A 
ATOM     70  C   UNL A   1      45.559  28.538  37.183  1.00  0.00     0.020 A 
ATOM     71  C   UNL A   1      44.269  26.893  35.973  1.00  0.00     0.020 A 
ATOM     72  C   UNL A   1      45.309  27.210  36.833  1.00  0.00     0.054 A 
BRANCH  72  73
ATOM     73  S   UNL A   1      46.395  25.907  37.454  1.00  0.00     0.124 S 
ATOM     74  O   UNL A   1      47.600  26.114  36.655  1.00  0.00    -0.237 OA
ATOM     75  O   UNL A   1      46.505  26.248  38.870  1.00  0.00    -0.237 OA
ATOM     76  O   UNL A   1      45.657  24.680  37.168  1.00  0.00    -0.744 OA
ENDBRANCH  72  73
ENDBRANCH  53  67
BRANCH  54  77
ATOM     77  C   UNL A   1      41.658  26.608  27.764  1.00  0.00    -0.014 A 
ATOM     78  C   UNL A   1      42.426  26.247  26.640  1.00  0.00     0.010 A 
ATOM     79  C   UNL A   1      40.837  25.612  28.335  1.00  0.00     0.010 A 
ATOM     80  C   UNL A   1      42.420  24.928  26.147  1.00  0.00     0.020 A 
ATOM     81  C   UNL A   1      40.818  24.299  27.844  1.00  0.00     0.020 A 
ATOM     82  C   UNL A   1      41.630  23.957  26.767  1.00  0.00     0.054 A 
BRANCH  82  83
ATOM     83  S   UNL A   1      41.755  22.222  26.236  1.00  0.00     0.124 S 
ATOM     84  O   UNL A   1      42.395  21.589  27.385  1.00  0.00    -0.237 OA
ATOM     85  O   UNL A   1      40.358  21.860  26.010  1.00  0.00    -0.237 OA
ATOM     86  O   UNL A   1      42.577  22.289  25.028  1.00  0.00    -0.744 OA
ENDBRANCH  82  83
ENDBRANCH  54  77
BRANCH  66  87
ATOM     87  C   UNL A   1      44.601  31.961  29.492  1.00  0.00    -0.014 A 
ATOM     88  C   UNL A   1      43.464  32.685  29.081  1.00  0.00     0.010 A 
ATOM     89  C   UNL A   1      45.860  32.353  29.001  1.00  0.00     0.010 A 
ATOM     90  C   UNL A   1      43.590  33.771  28.199  1.00  0.00     0.020 A 
ATOM     91  C   UNL A   1      45.993  33.443  28.141  1.00  0.00     0.020 A 
ATOM     92  C   UNL A   1      44.856  34.147  27.740  1.00  0.00     0.054 A 
BRANCH  92  93
ATOM     93  S   UNL A   1      45.026  35.600  26.666  1.00  0.00     0.124 S 
ATOM     94  O   UNL A   1      45.581  35.028  25.442  1.00  0.00    -0.237 OA
ATOM     95  O   UNL A   1      43.654  36.092  26.566  1.00  0.00    -0.237 OA
ATOM     96  O   UNL A   1      45.935  36.477  27.405  1.00  0.00    -0.744 OA
ENDBRANCH  92  93
ENDBRANCH  66  87
ENDBRANCH  40  41
ENDBRANCH  33  35
ENDBRANCH  32  33
ENDBRANCH  31  32
ENDBRANCH  30  31
ENDBRANCH  29  30
ENDBRANCH   1  29
TORSDOF 22
ENDMDL
