MODEL 1
REMARK VINA RESULT:      -8.7      0.000      0.000
REMARK SMILES C=CC[NH2+]CC(=O)N1CCC[C@@H]1C(=O)OCCOCCOCCOC(=O)c1ccc(-c2c3nc(c(-c4ccc(S(=O)(=O)[O-])cc4)c4ccc([nH]4)c(-c4ccc(S(=O)(=O)[O-])cc4)c4nc(c(-c5ccc(S(=O)(=O)[O-])cc5)c5ccc2[nH]5)C=C4)C=C3)cc1
REMARK SMILES IDX 19 1 18 2 17 3 16 4 15 5 13 6 14 7 12 8 8 9 9 10 10 11 11 12
REMARK SMILES IDX 6 13 7 14 5 15 4 16 3 19 2 20 1 21 20 22 21 23 22 24 23 25
REMARK SMILES IDX 24 26 25 27 26 28 27 29 28 30 86 31 29 32 85 33 30 34 31 35
REMARK SMILES IDX 32 36 79 37 33 38 84 39 78 40 80 41 34 42 83 43 77 44 76 45
REMARK SMILES IDX 35 47 65 48 46 49 64 50 47 51 50 52 63 53 81 54 48 55 49 56
REMARK SMILES IDX 62 58 82 59 51 60 36 61 37 62 45 63 38 64 44 65 39 66 40 67
REMARK SMILES IDX 41 68 42 69 43 70 66 71 67 72 75 73 68 74 74 75 69 76 70 77
REMARK SMILES IDX 71 78 72 79 73 80 52 81 53 82 61 83 54 84 60 85 55 86 56 87
REMARK SMILES IDX 57 88 58 89 59 90
REMARK H PARENT 4 17 4 18 80 46 50 57
REMARK Flexibility Score: inf
ROOT
ATOM      1  C   UNL A   1      35.696  22.901  25.800  1.00  0.00     0.188 C 
ENDROOT
BRANCH   1   2
ATOM      2  O   UNL A   1      34.460  22.858  26.505  1.00  0.00    -0.376 OA
BRANCH   2   3
ATOM      3  C   UNL A   1      33.492  23.865  26.195  1.00  0.00     0.202 C 
BRANCH   3   4
ATOM      4  C   UNL A   1      33.476  24.392  24.754  1.00  0.00     0.261 C 
BRANCH   4   5
ATOM      5  O   UNL A   1      34.281  25.576  24.580  1.00  0.00    -0.462 OA
BRANCH   5   6
ATOM      6  C   UNL A   1      33.617  26.666  24.123  1.00  0.00     0.328 C 
ATOM      7  O   UNL A   1      33.582  27.001  22.941  1.00  0.00    -0.250 OA
BRANCH   6   8
ATOM      8  C   UNL A   1      32.871  27.448  25.214  1.00  0.00     0.195 C 
ATOM      9  N   UNL A   1      31.795  28.207  24.581  1.00  0.00    -0.324 N 
ATOM     10  C   UNL A   1      31.575  29.408  25.365  1.00  0.00     0.121 C 
ATOM     11  C   UNL A   1      32.953  29.807  25.825  1.00  0.00     0.024 C 
ATOM     12  C   UNL A   1      33.627  28.470  26.080  1.00  0.00     0.039 C 
BRANCH   9  13
ATOM     13  C   UNL A   1      30.716  27.475  24.080  1.00  0.00     0.278 C 
ATOM     14  O   UNL A   1      30.194  26.555  24.703  1.00  0.00    -0.268 OA
BRANCH  13  15
ATOM     15  C   UNL A   1      30.170  28.013  22.733  1.00  0.00     0.362 C 
BRANCH  15  16
ATOM     16  N   UNL A   1      28.959  28.872  22.918  1.00  0.00    -0.335 N 
ATOM     17  H   UNL A   1      28.203  28.536  22.322  1.00  0.00     0.347 HD
ATOM     18  H   UNL A   1      28.647  28.840  23.889  1.00  0.00     0.347 HD
BRANCH  16  19
ATOM     19  C   UNL A   1      29.311  30.233  22.546  1.00  0.00     0.289 C 
BRANCH  19  20
ATOM     20  C   UNL A   1      28.788  31.353  23.372  1.00  0.00     0.025 C 
ATOM     21  C   UNL A   1      27.481  31.414  23.676  1.00  0.00     0.010 C 
ENDBRANCH  19  20
ENDBRANCH  16  19
ENDBRANCH  15  16
ENDBRANCH  13  15
ENDBRANCH   9  13
ENDBRANCH   6   8
ENDBRANCH   5   6
ENDBRANCH   4   5
ENDBRANCH   3   4
ENDBRANCH   2   3
ENDBRANCH   1   2
BRANCH   1  22
ATOM     22  C   UNL A   1      36.028  21.668  24.951  1.00  0.00     0.188 C 
BRANCH  22  23
ATOM     23  O   UNL A   1      37.401  21.320  24.951  1.00  0.00    -0.376 OA
BRANCH  23  24
ATOM     24  C   UNL A   1      37.768  19.963  24.723  1.00  0.00     0.202 C 
BRANCH  24  25
ATOM     25  C   UNL A   1      38.876  19.365  25.615  1.00  0.00     0.261 C 
BRANCH  25  26
ATOM     26  O   UNL A   1      39.828  20.291  26.176  1.00  0.00    -0.460 OA
BRANCH  26  27
ATOM     27  C   UNL A   1      41.139  19.949  26.142  1.00  0.00     0.338 C 
ATOM     28  O   UNL A   1      41.598  18.895  25.731  1.00  0.00    -0.246 OA
BRANCH  27  29
ATOM     29  C   UNL A   1      41.944  21.179  26.394  1.00  0.00     0.060 A 
ATOM     30  C   UNL A   1      42.273  21.495  27.722  1.00  0.00     0.016 A 
ATOM     31  C   UNL A   1      42.463  21.951  25.351  1.00  0.00     0.016 A 
ATOM     32  C   UNL A   1      43.090  22.595  28.009  1.00  0.00     0.010 A 
ATOM     33  C   UNL A   1      43.265  23.062  25.641  1.00  0.00     0.010 A 
ATOM     34  C   UNL A   1      43.561  23.409  26.972  1.00  0.00    -0.014 A 
BRANCH  34  35
ATOM     35  C   UNL A   1      44.178  24.733  27.262  1.00  0.00     0.031 A 
ATOM     36  C   UNL A   1      43.271  25.846  27.720  1.00  0.00     0.074 A 
ATOM     37  C   UNL A   1      45.495  24.967  27.114  1.00  0.00     0.049 A 
ATOM     38  N   UNL A   1      43.541  27.109  27.925  1.00  0.00    -0.248 NA
ATOM     39  C   UNL A   1      41.868  25.480  27.975  1.00  0.00     0.031 C 
ATOM     40  C   UNL A   1      46.500  23.974  26.737  1.00  0.00     0.029 A 
ATOM     41  N   UNL A   1      46.213  26.133  27.252  1.00  0.00    -0.354 N 
ATOM     42  C   UNL A   1      42.341  27.692  28.316  1.00  0.00     0.074 A 
ATOM     43  C   UNL A   1      41.338  26.650  28.299  1.00  0.00     0.031 C 
ATOM     44  C   UNL A   1      47.701  24.578  26.657  1.00  0.00     0.029 A 
ATOM     45  C   UNL A   1      47.544  26.007  26.933  1.00  0.00     0.049 A 
ATOM     46  H   UNL A   1      45.809  26.980  27.551  1.00  0.00     0.167 HD
ATOM     47  C   UNL A   1      42.090  28.978  28.658  1.00  0.00     0.031 A 
ATOM     48  C   UNL A   1      48.518  26.938  26.841  1.00  0.00     0.031 A 
ATOM     49  C   UNL A   1      43.079  30.022  28.658  1.00  0.00     0.049 A 
ATOM     50  C   UNL A   1      48.196  28.386  27.132  1.00  0.00     0.074 A 
ATOM     51  C   UNL A   1      42.920  31.354  28.998  1.00  0.00     0.029 A 
ATOM     52  N   UNL A   1      44.406  29.856  28.291  1.00  0.00    -0.354 N 
ATOM     53  N   UNL A   1      47.060  28.919  27.514  1.00  0.00    -0.248 NA
ATOM     54  C   UNL A   1      49.291  29.358  26.977  1.00  0.00     0.031 C 
ATOM     55  C   UNL A   1      44.136  32.008  28.775  1.00  0.00     0.029 A 
ATOM     56  C   UNL A   1      45.069  31.071  28.364  1.00  0.00     0.049 A 
ATOM     57  H   UNL A   1      44.815  29.004  28.018  1.00  0.00     0.167 HD
ATOM     58  C   UNL A   1      47.312  30.281  27.675  1.00  0.00     0.074 A 
ATOM     59  C   UNL A   1      48.710  30.487  27.359  1.00  0.00     0.031 C 
ATOM     60  C   UNL A   1      46.463  31.268  28.053  1.00  0.00     0.031 A 
BRANCH  47  61
ATOM     61  C   UNL A   1      40.674  29.336  29.019  1.00  0.00    -0.014 A 
ATOM     62  C   UNL A   1      40.277  29.487  30.360  1.00  0.00     0.010 A 
ATOM     63  C   UNL A   1      39.732  29.556  27.997  1.00  0.00     0.010 A 
ATOM     64  C   UNL A   1      38.955  29.815  30.672  1.00  0.00     0.020 A 
ATOM     65  C   UNL A   1      38.417  29.914  28.304  1.00  0.00     0.020 A 
ATOM     66  C   UNL A   1      38.033  30.024  29.641  1.00  0.00     0.054 A 
BRANCH  66  67
ATOM     67  S   UNL A   1      36.329  30.468  30.077  1.00  0.00     0.124 S 
ATOM     68  O   UNL A   1      36.427  31.916  30.237  1.00  0.00    -0.237 OA
ATOM     69  O   UNL A   1      35.573  30.014  28.912  1.00  0.00    -0.237 OA
ATOM     70  O   UNL A   1      36.079  29.722  31.308  1.00  0.00    -0.744 OA
ENDBRANCH  66  67
ENDBRANCH  47  61
BRANCH  48  71
ATOM     71  C   UNL A   1      49.895  26.547  26.420  1.00  0.00    -0.014 A 
ATOM     72  C   UNL A   1      50.294  26.654  25.075  1.00  0.00     0.010 A 
ATOM     73  C   UNL A   1      50.809  26.041  27.362  1.00  0.00     0.010 A 
ATOM     74  C   UNL A   1      51.575  26.249  24.679  1.00  0.00     0.020 A 
ATOM     75  C   UNL A   1      52.100  25.664  26.977  1.00  0.00     0.020 A 
ATOM     76  C   UNL A   1      52.470  25.760  25.634  1.00  0.00     0.054 A 
BRANCH  76  77
ATOM     77  S   UNL A   1      54.142  25.286  25.106  1.00  0.00     0.124 S 
ATOM     78  O   UNL A   1      54.034  23.832  25.024  1.00  0.00    -0.237 OA
ATOM     79  O   UNL A   1      54.277  25.982  23.829  1.00  0.00    -0.237 OA
ATOM     80  O   UNL A   1      54.996  25.791  26.178  1.00  0.00    -0.744 OA
ENDBRANCH  76  77
ENDBRANCH  48  71
BRANCH  60  81
ATOM     81  C   UNL A   1      47.016  32.664  28.193  1.00  0.00    -0.014 A 
ATOM     82  C   UNL A   1      47.580  33.113  29.401  1.00  0.00     0.010 A 
ATOM     83  C   UNL A   1      47.048  33.511  27.069  1.00  0.00     0.010 A 
ATOM     84  C   UNL A   1      48.143  34.390  29.488  1.00  0.00     0.020 A 
ATOM     85  C   UNL A   1      47.636  34.777  27.143  1.00  0.00     0.020 A 
ATOM     86  C   UNL A   1      48.172  35.212  28.356  1.00  0.00     0.054 A 
BRANCH  86  87
ATOM     87  S   UNL A   1      48.965  36.840  28.479  1.00  0.00     0.124 S 
ATOM     88  O   UNL A   1      48.156  37.496  29.503  1.00  0.00    -0.237 OA
ATOM     89  O   UNL A   1      50.330  36.502  28.877  1.00  0.00    -0.237 OA
ATOM     90  O   UNL A   1      48.833  37.394  27.133  1.00  0.00    -0.744 OA
ENDBRANCH  86  87
ENDBRANCH  60  81
ENDBRANCH  34  35
ENDBRANCH  27  29
ENDBRANCH  26  27
ENDBRANCH  25  26
ENDBRANCH  24  25
ENDBRANCH  23  24
ENDBRANCH  22  23
ENDBRANCH   1  22
TORSDOF 25
ENDMDL
MODEL 2
REMARK VINA RESULT:      -8.6      4.483     10.429
REMARK SMILES C=CC[NH2+]CC(=O)N1CCC[C@@H]1C(=O)OCCOCCOCCOC(=O)c1ccc(-c2c3nc(c(-c4ccc(S(=O)(=O)[O-])cc4)c4ccc([nH]4)c(-c4ccc(S(=O)(=O)[O-])cc4)c4nc(c(-c5ccc(S(=O)(=O)[O-])cc5)c5ccc2[nH]5)C=C4)C=C3)cc1
REMARK SMILES IDX 19 1 18 2 17 3 16 4 15 5 13 6 14 7 12 8 8 9 9 10 10 11 11 12
REMARK SMILES IDX 6 13 7 14 5 15 4 16 3 19 2 20 1 21 20 22 21 23 22 24 23 25
REMARK SMILES IDX 24 26 25 27 26 28 27 29 28 30 86 31 29 32 85 33 30 34 31 35
REMARK SMILES IDX 32 36 79 37 33 38 84 39 78 40 80 41 34 42 83 43 77 44 76 45
REMARK SMILES IDX 35 47 65 48 46 49 64 50 47 51 50 52 63 53 81 54 48 55 49 56
REMARK SMILES IDX 62 58 82 59 51 60 36 61 37 62 45 63 38 64 44 65 39 66 40 67
REMARK SMILES IDX 41 68 42 69 43 70 66 71 67 72 75 73 68 74 74 75 69 76 70 77
REMARK SMILES IDX 71 78 72 79 73 80 52 81 53 82 61 83 54 84 60 85 55 86 56 87
REMARK SMILES IDX 57 88 58 89 59 90
REMARK H PARENT 4 17 4 18 80 46 50 57
REMARK Flexibility Score: inf
ROOT
ATOM      1  C   UNL A   1      34.258  34.672  30.321  1.00  0.00     0.188 C 
ENDROOT
BRANCH   1   2
ATOM      2  O   UNL A   1      33.996  33.515  31.109  1.00  0.00    -0.376 OA
BRANCH   2   3
ATOM      3  C   UNL A   1      34.955  32.455  31.057  1.00  0.00     0.202 C 
BRANCH   3   4
ATOM      4  C   UNL A   1      36.352  32.808  30.531  1.00  0.00     0.261 C 
BRANCH   4   5
ATOM      5  O   UNL A   1      37.362  32.785  31.561  1.00  0.00    -0.462 OA
BRANCH   5   6
ATOM      6  C   UNL A   1      37.897  33.990  31.875  1.00  0.00     0.328 C 
ATOM      7  O   UNL A   1      38.566  34.666  31.096  1.00  0.00    -0.250 OA
BRANCH   6   8
ATOM      8  C   UNL A   1      37.568  34.470  33.295  1.00  0.00     0.195 C 
ATOM      9  N   UNL A   1      37.887  33.395  34.230  1.00  0.00    -0.324 N 
ATOM     10  C   UNL A   1      36.986  33.505  35.363  1.00  0.00     0.121 C 
ATOM     11  C   UNL A   1      35.684  33.959  34.756  1.00  0.00     0.024 C 
ATOM     12  C   UNL A   1      36.134  34.897  33.649  1.00  0.00     0.039 C 
BRANCH   9  13
ATOM     13  C   UNL A   1      39.240  33.104  34.421  1.00  0.00     0.278 C 
ATOM     14  O   UNL A   1      39.806  32.179  33.847  1.00  0.00    -0.268 OA
BRANCH  13  15
ATOM     15  C   UNL A   1      39.976  34.129  35.321  1.00  0.00     0.362 C 
BRANCH  15  16
ATOM     16  N   UNL A   1      40.007  33.701  36.755  1.00  0.00    -0.335 N 
ATOM     17  H   UNL A   1      39.148  33.992  37.221  1.00  0.00     0.347 HD
ATOM     18  H   UNL A   1      40.083  32.685  36.820  1.00  0.00     0.347 HD
BRANCH  16  19
ATOM     19  C   UNL A   1      41.152  34.334  37.389  1.00  0.00     0.289 C 
BRANCH  19  20
ATOM     20  C   UNL A   1      42.440  33.592  37.434  1.00  0.00     0.025 C 
ATOM     21  C   UNL A   1      42.687  32.615  36.545  1.00  0.00     0.010 C 
ENDBRANCH  19  20
ENDBRANCH  16  19
ENDBRANCH  15  16
ENDBRANCH  13  15
ENDBRANCH   9  13
ENDBRANCH   6   8
ENDBRANCH   5   6
ENDBRANCH   4   5
ENDBRANCH   3   4
ENDBRANCH   2   3
ENDBRANCH   1   2
BRANCH   1  22
ATOM     22  C   UNL A   1      33.064  35.240  29.545  1.00  0.00     0.188 C 
BRANCH  22  23
ATOM     23  O   UNL A   1      32.595  34.395  28.509  1.00  0.00    -0.376 OA
BRANCH  23  24
ATOM     24  C   UNL A   1      33.533  33.602  27.788  1.00  0.00     0.202 C 
BRANCH  24  25
ATOM     25  C   UNL A   1      33.288  32.078  27.738  1.00  0.00     0.261 C 
BRANCH  25  26
ATOM     26  O   UNL A   1      34.374  31.263  27.255  1.00  0.00    -0.460 OA
BRANCH  26  27
ATOM     27  C   UNL A   1      34.451  29.985  27.698  1.00  0.00     0.338 C 
ATOM     28  O   UNL A   1      33.602  29.119  27.553  1.00  0.00    -0.246 OA
BRANCH  27  29
ATOM     29  C   UNL A   1      35.859  29.724  28.115  1.00  0.00     0.060 A 
ATOM     30  C   UNL A   1      36.883  29.985  27.191  1.00  0.00     0.016 A 
ATOM     31  C   UNL A   1      36.186  29.338  29.419  1.00  0.00     0.016 A 
ATOM     32  C   UNL A   1      38.226  29.830  27.556  1.00  0.00     0.010 A 
ATOM     33  C   UNL A   1      37.529  29.165  29.776  1.00  0.00     0.010 A 
ATOM     34  C   UNL A   1      38.558  29.382  28.841  1.00  0.00    -0.014 A 
BRANCH  34  35
ATOM     35  C   UNL A   1      39.941  28.934  29.158  1.00  0.00     0.031 A 
ATOM     36  C   UNL A   1      40.878  29.934  29.786  1.00  0.00     0.074 A 
ATOM     37  C   UNL A   1      40.379  27.689  28.891  1.00  0.00     0.049 A 
ATOM     38  N   UNL A   1      42.154  29.828  30.051  1.00  0.00    -0.248 NA
ATOM     39  C   UNL A   1      40.290  31.231  30.159  1.00  0.00     0.031 C 
ATOM     40  C   UNL A   1      39.572  26.601  28.343  1.00  0.00     0.029 A 
ATOM     41  N   UNL A   1      41.631  27.137  29.037  1.00  0.00    -0.354 N 
ATOM     42  C   UNL A   1      42.526  31.047  30.605  1.00  0.00     0.074 A 
ATOM     43  C   UNL A   1      41.347  31.885  30.618  1.00  0.00     0.031 C 
ATOM     44  C   UNL A   1      40.353  25.517  28.182  1.00  0.00     0.029 A 
ATOM     45  C   UNL A   1      41.725  25.845  28.573  1.00  0.00     0.049 A 
ATOM     46  H   UNL A   1      42.390  27.622  29.435  1.00  0.00     0.167 HD
ATOM     47  C   UNL A   1      43.739  31.441  31.061  1.00  0.00     0.031 A 
ATOM     48  C   UNL A   1      42.797  25.032  28.447  1.00  0.00     0.031 A 
ATOM     49  C   UNL A   1      44.919  30.619  31.033  1.00  0.00     0.049 A 
ATOM     50  C   UNL A   1      44.161  25.525  28.872  1.00  0.00     0.074 A 
ATOM     51  C   UNL A   1      46.190  30.929  31.481  1.00  0.00     0.029 A 
ATOM     52  N   UNL A   1      44.976  29.332  30.520  1.00  0.00    -0.354 N 
ATOM     53  N   UNL A   1      44.494  26.675  29.407  1.00  0.00    -0.248 NA
ATOM     54  C   UNL A   1      45.294  24.606  28.674  1.00  0.00     0.031 C 
ATOM     55  C   UNL A   1      47.032  29.853  31.180  1.00  0.00     0.029 A 
ATOM     56  C   UNL A   1      46.270  28.847  30.610  1.00  0.00     0.049 A 
ATOM     57  H   UNL A   1      44.211  28.838  30.145  1.00  0.00     0.167 HD
ATOM     58  C   UNL A   1      45.867  26.606  29.638  1.00  0.00     0.074 A 
ATOM     59  C   UNL A   1      46.300  25.297  29.193  1.00  0.00     0.031 C 
ATOM     60  C   UNL A   1      46.693  27.541  30.171  1.00  0.00     0.031 A 
BRANCH  47  61
ATOM     61  C   UNL A   1      43.858  32.844  31.591  1.00  0.00    -0.014 A 
ATOM     62  C   UNL A   1      44.215  33.915  30.752  1.00  0.00     0.010 A 
ATOM     63  C   UNL A   1      43.578  33.099  32.946  1.00  0.00     0.010 A 
ATOM     64  C   UNL A   1      44.325  35.209  31.267  1.00  0.00     0.020 A 
ATOM     65  C   UNL A   1      43.657  34.396  33.458  1.00  0.00     0.020 A 
ATOM     66  C   UNL A   1      44.047  35.441  32.618  1.00  0.00     0.054 A 
BRANCH  66  67
ATOM     67  S   UNL A   1      44.179  37.134  33.254  1.00  0.00     0.124 S 
ATOM     68  O   UNL A   1      44.187  37.918  32.022  1.00  0.00    -0.237 OA
ATOM     69  O   UNL A   1      42.976  37.263  34.072  1.00  0.00    -0.237 OA
ATOM     70  O   UNL A   1      45.437  37.130  33.997  1.00  0.00    -0.744 OA
ENDBRANCH  66  67
ENDBRANCH  47  61
BRANCH  48  71
ATOM     71  C   UNL A   1      42.641  23.670  27.859  1.00  0.00    -0.014 A 
ATOM     72  C   UNL A   1      42.792  23.462  26.476  1.00  0.00     0.010 A 
ATOM     73  C   UNL A   1      42.317  22.575  28.680  1.00  0.00     0.010 A 
ATOM     74  C   UNL A   1      42.608  22.188  25.924  1.00  0.00     0.020 A 
ATOM     75  C   UNL A   1      42.161  21.295  28.138  1.00  0.00     0.020 A 
ATOM     76  C   UNL A   1      42.297  21.112  26.760  1.00  0.00     0.054 A 
BRANCH  76  77
ATOM     77  S   UNL A   1      42.109  19.461  26.029  1.00  0.00     0.124 S 
ATOM     78  O   UNL A   1      42.641  18.600  27.081  1.00  0.00    -0.237 OA
ATOM     79  O   UNL A   1      40.667  19.376  25.811  1.00  0.00    -0.237 OA
ATOM     80  O   UNL A   1      42.913  19.532  24.811  1.00  0.00    -0.744 OA
ENDBRANCH  76  77
ENDBRANCH  48  71
BRANCH  60  81
ATOM     81  C   UNL A   1      48.147  27.182  30.351  1.00  0.00    -0.014 A 
ATOM     82  C   UNL A   1      49.108  27.498  29.375  1.00  0.00     0.010 A 
ATOM     83  C   UNL A   1      48.569  26.593  31.558  1.00  0.00     0.010 A 
ATOM     84  C   UNL A   1      50.459  27.212  29.592  1.00  0.00     0.020 A 
ATOM     85  C   UNL A   1      49.922  26.331  31.792  1.00  0.00     0.020 A 
ATOM     86  C   UNL A   1      50.858  26.634  30.803  1.00  0.00     0.054 A 
BRANCH  86  87
ATOM     87  S   UNL A   1      52.625  26.330  31.085  1.00  0.00     0.124 S 
ATOM     88  O   UNL A   1      53.022  27.516  31.839  1.00  0.00    -0.237 OA
ATOM     89  O   UNL A   1      52.617  25.079  31.842  1.00  0.00    -0.237 OA
ATOM     90  O   UNL A   1      53.181  26.233  29.738  1.00  0.00    -0.744 OA
ENDBRANCH  86  87
ENDBRANCH  60  81
ENDBRANCH  34  35
ENDBRANCH  27  29
ENDBRANCH  26  27
ENDBRANCH  25  26
ENDBRANCH  24  25
ENDBRANCH  23  24
ENDBRANCH  22  23
ENDBRANCH   1  22
TORSDOF 25
ENDMDL
MODEL 3
REMARK VINA RESULT:      -8.4      2.527      4.228
REMARK SMILES C=CC[NH2+]CC(=O)N1CCC[C@@H]1C(=O)OCCOCCOCCOC(=O)c1ccc(-c2c3nc(c(-c4ccc(S(=O)(=O)[O-])cc4)c4ccc([nH]4)c(-c4ccc(S(=O)(=O)[O-])cc4)c4nc(c(-c5ccc(S(=O)(=O)[O-])cc5)c5ccc2[nH]5)C=C4)C=C3)cc1
REMARK SMILES IDX 19 1 18 2 17 3 16 4 15 5 13 6 14 7 12 8 8 9 9 10 10 11 11 12
REMARK SMILES IDX 6 13 7 14 5 15 4 16 3 19 2 20 1 21 20 22 21 23 22 24 23 25
REMARK SMILES IDX 24 26 25 27 26 28 27 29 28 30 86 31 29 32 85 33 30 34 31 35
REMARK SMILES IDX 32 36 79 37 33 38 84 39 78 40 80 41 34 42 83 43 77 44 76 45
REMARK SMILES IDX 35 47 65 48 46 49 64 50 47 51 50 52 63 53 81 54 48 55 49 56
REMARK SMILES IDX 62 58 82 59 51 60 36 61 37 62 45 63 38 64 44 65 39 66 40 67
REMARK SMILES IDX 41 68 42 69 43 70 66 71 67 72 75 73 68 74 74 75 69 76 70 77
REMARK SMILES IDX 71 78 72 79 73 80 52 81 53 82 61 83 54 84 60 85 55 86 56 87
REMARK SMILES IDX 57 88 58 89 59 90
REMARK H PARENT 4 17 4 18 80 46 50 57
REMARK Flexibility Score: inf
ROOT
ATOM      1  C   UNL A   1      35.951  22.870  25.863  1.00  0.00     0.188 C 
ENDROOT
BRANCH   1   2
ATOM      2  O   UNL A   1      34.705  22.879  26.552  1.00  0.00    -0.376 OA
BRANCH   2   3
ATOM      3  C   UNL A   1      33.793  23.937  26.244  1.00  0.00     0.202 C 
BRANCH   3   4
ATOM      4  C   UNL A   1      33.673  24.343  24.770  1.00  0.00     0.261 C 
BRANCH   4   5
ATOM      5  O   UNL A   1      32.600  23.664  24.085  1.00  0.00    -0.462 OA
BRANCH   5   6
ATOM      6  C   UNL A   1      32.986  22.800  23.114  1.00  0.00     0.328 C 
ATOM      7  O   UNL A   1      34.044  22.892  22.497  1.00  0.00    -0.250 OA
BRANCH   6   8
ATOM      8  C   UNL A   1      31.994  21.656  22.864  1.00  0.00     0.195 C 
ATOM      9  N   UNL A   1      32.438  20.488  23.620  1.00  0.00    -0.324 N 
ATOM     10  C   UNL A   1      32.015  19.301  22.900  1.00  0.00     0.121 C 
ATOM     11  C   UNL A   1      32.166  19.678  21.449  1.00  0.00     0.024 C 
ATOM     12  C   UNL A   1      31.760  21.141  21.433  1.00  0.00     0.039 C 
BRANCH   9  13
ATOM     13  C   UNL A   1      32.323  20.556  25.011  1.00  0.00     0.278 C 
ATOM     14  O   UNL A   1      31.409  21.153  25.572  1.00  0.00    -0.268 OA
BRANCH  13  15
ATOM     15  C   UNL A   1      33.380  19.710  25.765  1.00  0.00     0.362 C 
BRANCH  15  16
ATOM     16  N   UNL A   1      32.832  18.392  26.215  1.00  0.00    -0.335 N 
ATOM     17  H   UNL A   1      33.136  18.199  27.169  1.00  0.00     0.347 HD
ATOM     18  H   UNL A   1      31.812  18.408  26.197  1.00  0.00     0.347 HD
BRANCH  16  19
ATOM     19  C   UNL A   1      33.336  17.365  25.319  1.00  0.00     0.289 C 
BRANCH  19  20
ATOM     20  C   UNL A   1      33.413  15.965  25.815  1.00  0.00     0.025 C 
ATOM     21  C   UNL A   1      32.362  15.140  25.674  1.00  0.00     0.010 C 
ENDBRANCH  19  20
ENDBRANCH  16  19
ENDBRANCH  15  16
ENDBRANCH  13  15
ENDBRANCH   9  13
ENDBRANCH   6   8
ENDBRANCH   5   6
ENDBRANCH   4   5
ENDBRANCH   3   4
ENDBRANCH   2   3
ENDBRANCH   1   2
BRANCH   1  22
ATOM     22  C   UNL A   1      36.151  21.734  24.853  1.00  0.00     0.188 C 
BRANCH  22  23
ATOM     23  O   UNL A   1      37.498  21.318  24.711  1.00  0.00    -0.376 OA
BRANCH  23  24
ATOM     24  C   UNL A   1      37.786  19.925  24.643  1.00  0.00     0.202 C 
BRANCH  24  25
ATOM     25  C   UNL A   1      38.881  19.377  25.583  1.00  0.00     0.261 C 
BRANCH  25  26
ATOM     26  O   UNL A   1      39.812  20.336  26.123  1.00  0.00    -0.460 OA
BRANCH  26  27
ATOM     27  C   UNL A   1      41.117  19.978  26.197  1.00  0.00     0.338 C 
ATOM     28  O   UNL A   1      41.589  18.901  25.866  1.00  0.00    -0.246 OA
BRANCH  27  29
ATOM     29  C   UNL A   1      41.920  21.209  26.451  1.00  0.00     0.060 A 
ATOM     30  C   UNL A   1      42.298  21.491  27.774  1.00  0.00     0.016 A 
ATOM     31  C   UNL A   1      42.392  22.014  25.410  1.00  0.00     0.016 A 
ATOM     32  C   UNL A   1      43.116  22.592  28.059  1.00  0.00     0.010 A 
ATOM     33  C   UNL A   1      43.194  23.125  25.700  1.00  0.00     0.010 A 
ATOM     34  C   UNL A   1      43.539  23.438  27.028  1.00  0.00    -0.014 A 
BRANCH  34  35
ATOM     35  C   UNL A   1      44.155  24.760  27.330  1.00  0.00     0.031 A 
ATOM     36  C   UNL A   1      43.244  25.873  27.782  1.00  0.00     0.074 A 
ATOM     37  C   UNL A   1      45.474  24.992  27.198  1.00  0.00     0.049 A 
ATOM     38  N   UNL A   1      43.514  27.135  27.995  1.00  0.00    -0.248 NA
ATOM     39  C   UNL A   1      41.838  25.508  28.019  1.00  0.00     0.031 C 
ATOM     40  C   UNL A   1      46.481  23.999  26.829  1.00  0.00     0.029 A 
ATOM     41  N   UNL A   1      46.192  26.156  27.349  1.00  0.00    -0.354 N 
ATOM     42  C   UNL A   1      42.311  27.718  28.374  1.00  0.00     0.074 A 
ATOM     43  C   UNL A   1      41.307  26.678  28.342  1.00  0.00     0.031 C 
ATOM     44  C   UNL A   1      47.684  24.600  26.765  1.00  0.00     0.029 A 
ATOM     45  C   UNL A   1      47.527  26.029  27.045  1.00  0.00     0.049 A 
ATOM     46  H   UNL A   1      45.787  27.002  27.646  1.00  0.00     0.167 HD
ATOM     47  C   UNL A   1      42.059  29.003  28.718  1.00  0.00     0.031 A 
ATOM     48  C   UNL A   1      48.504  26.958  26.968  1.00  0.00     0.031 A 
ATOM     49  C   UNL A   1      43.050  30.045  28.734  1.00  0.00     0.049 A 
ATOM     50  C   UNL A   1      48.181  28.405  27.261  1.00  0.00     0.074 A 
ATOM     51  C   UNL A   1      42.889  31.376  29.077  1.00  0.00     0.029 A 
ATOM     52  N   UNL A   1      44.380  29.879  28.382  1.00  0.00    -0.354 N 
ATOM     53  N   UNL A   1      47.042  28.939  27.632  1.00  0.00    -0.248 NA
ATOM     54  C   UNL A   1      49.279  29.376  27.123  1.00  0.00     0.031 C 
ATOM     55  C   UNL A   1      44.108  32.029  28.870  1.00  0.00     0.029 A 
ATOM     56  C   UNL A   1      45.045  31.091  28.468  1.00  0.00     0.049 A 
ATOM     57  H   UNL A   1      44.791  29.027  28.110  1.00  0.00     0.167 HD
ATOM     58  C   UNL A   1      47.294  30.300  27.802  1.00  0.00     0.074 A 
ATOM     59  C   UNL A   1      48.696  30.505  27.502  1.00  0.00     0.031 C 
ATOM     60  C   UNL A   1      46.442  31.287  28.174  1.00  0.00     0.031 A 
BRANCH  47  61
ATOM     61  C   UNL A   1      40.639  29.362  29.064  1.00  0.00    -0.014 A 
ATOM     62  C   UNL A   1      40.237  29.553  30.398  1.00  0.00     0.010 A 
ATOM     63  C   UNL A   1      39.699  29.544  28.033  1.00  0.00     0.010 A 
ATOM     64  C   UNL A   1      38.912  29.880  30.697  1.00  0.00     0.020 A 
ATOM     65  C   UNL A   1      38.381  29.902  28.325  1.00  0.00     0.020 A 
ATOM     66  C   UNL A   1      37.991  30.051  29.657  1.00  0.00     0.054 A 
BRANCH  66  67
ATOM     67  S   UNL A   1      36.284  30.497  30.074  1.00  0.00     0.124 S 
ATOM     68  O   UNL A   1      36.402  31.928  30.337  1.00  0.00    -0.237 OA
ATOM     69  O   UNL A   1      35.555  30.139  28.860  1.00  0.00    -0.237 OA
ATOM     70  O   UNL A   1      35.984  29.672  31.243  1.00  0.00    -0.744 OA
ENDBRANCH  66  67
ENDBRANCH  47  61
BRANCH  48  71
ATOM     71  C   UNL A   1      49.885  26.566  26.562  1.00  0.00    -0.014 A 
ATOM     72  C   UNL A   1      50.297  26.669  25.221  1.00  0.00     0.010 A 
ATOM     73  C   UNL A   1      50.790  26.062  27.514  1.00  0.00     0.010 A 
ATOM     74  C   UNL A   1      51.581  26.264  24.839  1.00  0.00     0.020 A 
ATOM     75  C   UNL A   1      52.084  25.685  27.143  1.00  0.00     0.020 A 
ATOM     76  C   UNL A   1      52.468  25.777  25.803  1.00  0.00     0.054 A 
BRANCH  76  77
ATOM     77  S   UNL A   1      54.144  25.302  25.293  1.00  0.00     0.124 S 
ATOM     78  O   UNL A   1      54.174  25.740  23.901  1.00  0.00    -0.237 OA
ATOM     79  O   UNL A   1      54.981  26.065  26.215  1.00  0.00    -0.237 OA
ATOM     80  O   UNL A   1      54.165  23.855  25.494  1.00  0.00    -0.744 OA
ENDBRANCH  76  77
ENDBRANCH  48  71
BRANCH  60  81
ATOM     81  C   UNL A   1      46.997  32.682  28.325  1.00  0.00    -0.014 A 
ATOM     82  C   UNL A   1      47.588  33.110  29.527  1.00  0.00     0.010 A 
ATOM     83  C   UNL A   1      47.001  33.549  27.216  1.00  0.00     0.010 A 
ATOM     84  C   UNL A   1      48.151  34.386  29.624  1.00  0.00     0.020 A 
ATOM     85  C   UNL A   1      47.589  34.814  27.299  1.00  0.00     0.020 A 
ATOM     86  C   UNL A   1      48.152  35.229  28.507  1.00  0.00     0.054 A 
BRANCH  86  87
ATOM     87  S   UNL A   1      48.945  36.856  28.640  1.00  0.00     0.124 S 
ATOM     88  O   UNL A   1      48.590  37.473  27.364  1.00  0.00    -0.237 OA
ATOM     89  O   UNL A   1      48.298  37.431  29.817  1.00  0.00    -0.237 OA
ATOM     90  O   UNL A   1      50.361  36.541  28.805  1.00  0.00    -0.744 OA
ENDBRANCH  86  87
ENDBRANCH  60  81
ENDBRANCH  34  35
ENDBRANCH  27  29
ENDBRANCH  26  27
ENDBRANCH  25  26
ENDBRANCH  24  25
ENDBRANCH  23  24
ENDBRANCH  22  23
ENDBRANCH   1  22
TORSDOF 25
ENDMDL
