MODEL 1
REMARK VINA RESULT:     -10.5      0.000      0.000
REMARK SMILES O=C(OCCOCCOCCOC(=O)[C@H]1Cc2ccc(Cl)cc2C[N@@H+]1Cc1ccc(Cl)cc1)c1ccc(-c2c3nc(c(-c4ccc(S(=O)(=O)[O-])cc4)c4ccc([nH]4)c(-c4ccc(S(=O)(=O)[O-])cc4)c4nc(c(-c5ccc(S(=O)(=O)[O-])cc5)c5ccc2[nH]5)C=C4)C=C3)cc1
REMARK SMILES IDX 7 1 6 2 5 3 4 4 3 5 2 6 1 7 34 8 35 9 93 10 36 11 92 12
REMARK SMILES IDX 37 13 38 14 39 15 86 16 40 17 91 18 85 19 87 20 41 21 90 22
REMARK SMILES IDX 84 23 83 24 42 26 72 27 53 28 71 29 54 30 57 31 70 32 88 33
REMARK SMILES IDX 55 34 56 35 69 37 89 38 58 39 43 40 44 41 52 42 45 43 51 44
REMARK SMILES IDX 46 45 47 46 48 47 49 48 50 49 73 50 74 51 82 52 75 53 81 54
REMARK SMILES IDX 76 55 77 56 78 57 79 58 80 59 59 60 60 61 68 62 61 63 67 64
REMARK SMILES IDX 62 65 63 66 64 67 65 68 66 69 8 70 9 71 10 72 11 73 12 74
REMARK SMILES IDX 13 75 14 76 15 77 16 78 25 79 17 80 24 81 18 83 23 84 19 85
REMARK SMILES IDX 22 86 20 87 21 88 26 89 27 90 28 91 33 92 29 93 32 94 30 95
REMARK SMILES IDX 31 96
REMARK H PARENT 87 25 57 36 25 82
REMARK Flexibility Score: inf
ROOT
ATOM      1  C   UNL A   1      32.158  30.279  26.754  1.00  0.00     0.188 C 
ENDROOT
BRANCH   1   2
ATOM      2  O   UNL A   1      33.240  30.891  27.459  1.00  0.00    -0.376 OA
BRANCH   2   3
ATOM      3  C   UNL A   1      34.373  30.038  27.606  1.00  0.00     0.202 C 
BRANCH   3   4
ATOM      4  C   UNL A   1      35.722  30.772  27.647  1.00  0.00     0.261 C 
BRANCH   4   5
ATOM      5  O   UNL A   1      36.457  30.672  28.879  1.00  0.00    -0.460 OA
BRANCH   5   6
ATOM      6  C   UNL A   1      37.180  29.654  29.402  1.00  0.00     0.338 C 
ATOM      7  O   UNL A   1      36.615  28.933  30.227  1.00  0.00    -0.246 OA
BRANCH   6   8
ATOM      8  C   UNL A   1      38.625  29.365  29.101  1.00  0.00     0.060 A 
ATOM      9  C   UNL A   1      38.973  29.310  27.740  1.00  0.00     0.016 A 
ATOM     10  C   UNL A   1      39.645  29.139  30.029  1.00  0.00     0.016 A 
ATOM     11  C   UNL A   1      40.280  29.020  27.338  1.00  0.00     0.010 A 
ATOM     12  C   UNL A   1      40.948  28.810  29.630  1.00  0.00     0.010 A 
ATOM     13  C   UNL A   1      41.281  28.745  28.279  1.00  0.00    -0.014 A 
BRANCH  13  14
ATOM     14  C   UNL A   1      42.701  28.678  27.868  1.00  0.00     0.031 A 
ATOM     15  C   UNL A   1      43.618  29.866  27.824  1.00  0.00     0.074 A 
ATOM     16  C   UNL A   1      43.131  27.484  27.420  1.00  0.00     0.049 A 
ATOM     17  N   UNL A   1      44.925  29.882  27.716  1.00  0.00    -0.248 NA
ATOM     18  C   UNL A   1      43.018  31.204  27.892  1.00  0.00     0.031 C 
ATOM     19  C   UNL A   1      42.296  26.284  27.301  1.00  0.00     0.029 A 
ATOM     20  N   UNL A   1      44.352  27.089  26.952  1.00  0.00    -0.354 N 
ATOM     21  C   UNL A   1      45.305  31.215  27.836  1.00  0.00     0.074 A 
ATOM     22  C   UNL A   1      44.092  31.988  27.875  1.00  0.00     0.031 C 
ATOM     23  C   UNL A   1      43.026  25.292  26.781  1.00  0.00     0.029 A 
ATOM     24  C   UNL A   1      44.372  25.788  26.516  1.00  0.00     0.049 A 
ATOM     25  H   UNL A   1      45.140  27.679  26.929  1.00  0.00     0.167 HD
ATOM     26  C   UNL A   1      46.558  31.718  27.945  1.00  0.00     0.031 A 
ATOM     27  C   UNL A   1      45.363  25.071  25.958  1.00  0.00     0.031 A 
ATOM     28  C   UNL A   1      47.732  30.935  27.672  1.00  0.00     0.049 A 
ATOM     29  C   UNL A   1      46.719  25.699  25.859  1.00  0.00     0.074 A 
ATOM     30  C   UNL A   1      49.057  31.328  27.718  1.00  0.00     0.029 A 
ATOM     31  N   UNL A   1      47.710  29.631  27.203  1.00  0.00    -0.354 N 
ATOM     32  N   UNL A   1      47.104  26.885  26.272  1.00  0.00    -0.248 NA
ATOM     33  C   UNL A   1      47.783  24.893  25.253  1.00  0.00     0.031 C 
ATOM     34  C   UNL A   1      49.821  30.306  27.149  1.00  0.00     0.029 A 
ATOM     35  C   UNL A   1      48.985  29.243  26.841  1.00  0.00     0.049 A 
ATOM     36  H   UNL A   1      46.906  29.066  27.139  1.00  0.00     0.167 HD
ATOM     37  C   UNL A   1      48.462  26.960  25.997  1.00  0.00     0.074 A 
ATOM     38  C   UNL A   1      48.833  25.693  25.396  1.00  0.00     0.031 C 
ATOM     39  C   UNL A   1      49.324  27.981  26.226  1.00  0.00     0.031 A 
BRANCH  26  40
ATOM     40  C   UNL A   1      46.774  33.143  28.400  1.00  0.00    -0.014 A 
ATOM     41  C   UNL A   1      47.113  34.168  27.502  1.00  0.00     0.010 A 
ATOM     42  C   UNL A   1      46.876  33.406  29.779  1.00  0.00     0.010 A 
ATOM     43  C   UNL A   1      47.545  35.418  27.976  1.00  0.00     0.020 A 
ATOM     44  C   UNL A   1      47.276  34.656  30.260  1.00  0.00     0.020 A 
ATOM     45  C   UNL A   1      47.630  35.650  29.352  1.00  0.00     0.054 A 
BRANCH  45  46
ATOM     46  S   UNL A   1      48.239  37.250  29.960  1.00  0.00     0.124 S 
ATOM     47  O   UNL A   1      47.341  38.193  29.304  1.00  0.00    -0.237 OA
ATOM     48  O   UNL A   1      48.079  37.121  31.406  1.00  0.00    -0.237 OA
ATOM     49  O   UNL A   1      49.627  37.278  29.499  1.00  0.00    -0.744 OA
ENDBRANCH  45  46
ENDBRANCH  26  40
BRANCH  27  50
ATOM     50  C   UNL A   1      45.072  23.680  25.522  1.00  0.00    -0.014 A 
ATOM     51  C   UNL A   1      45.178  22.616  26.441  1.00  0.00     0.010 A 
ATOM     52  C   UNL A   1      44.840  23.392  24.168  1.00  0.00     0.010 A 
ATOM     53  C   UNL A   1      45.124  21.291  26.004  1.00  0.00     0.020 A 
ATOM     54  C   UNL A   1      44.750  22.066  23.731  1.00  0.00     0.020 A 
ATOM     55  C   UNL A   1      44.926  21.025  24.648  1.00  0.00     0.054 A 
BRANCH  55  56
ATOM     56  S   UNL A   1      44.928  19.300  24.088  1.00  0.00     0.124 S 
ATOM     57  O   UNL A   1      44.339  19.418  22.754  1.00  0.00    -0.237 OA
ATOM     58  O   UNL A   1      46.352  18.961  24.115  1.00  0.00    -0.237 OA
ATOM     59  O   UNL A   1      44.109  18.615  25.077  1.00  0.00    -0.744 OA
ENDBRANCH  55  56
ENDBRANCH  27  50
BRANCH  39  60
ATOM     60  C   UNL A   1      50.752  27.805  25.793  1.00  0.00    -0.014 A 
ATOM     61  C   UNL A   1      51.116  28.077  24.461  1.00  0.00     0.010 A 
ATOM     62  C   UNL A   1      51.694  27.230  26.662  1.00  0.00     0.010 A 
ATOM     63  C   UNL A   1      52.382  27.726  23.991  1.00  0.00     0.020 A 
ATOM     64  C   UNL A   1      52.975  26.915  26.207  1.00  0.00     0.020 A 
ATOM     65  C   UNL A   1      53.299  27.136  24.866  1.00  0.00     0.054 A 
BRANCH  65  66
ATOM     66  S   UNL A   1      54.919  26.644  24.223  1.00  0.00     0.124 S 
ATOM     67  O   UNL A   1      55.044  25.278  24.722  1.00  0.00    -0.237 OA
ATOM     68  O   UNL A   1      54.746  26.776  22.779  1.00  0.00    -0.237 OA
ATOM     69  O   UNL A   1      55.834  27.614  24.824  1.00  0.00    -0.744 OA
ENDBRANCH  65  66
ENDBRANCH  39  60
ENDBRANCH  13  14
ENDBRANCH   6   8
ENDBRANCH   5   6
ENDBRANCH   4   5
ENDBRANCH   3   4
ENDBRANCH   2   3
ENDBRANCH   1   2
BRANCH   1  70
ATOM     70  C   UNL A   1      32.602  29.543  25.498  1.00  0.00     0.188 C 
BRANCH  70  71
ATOM     71  O   UNL A   1      31.870  28.336  25.320  1.00  0.00    -0.376 OA
BRANCH  71  72
ATOM     72  C   UNL A   1      31.993  27.769  24.014  1.00  0.00     0.202 C 
BRANCH  72  73
ATOM     73  C   UNL A   1      33.310  27.017  23.718  1.00  0.00     0.261 C 
BRANCH  73  74
ATOM     74  O   UNL A   1      33.294  25.579  23.559  1.00  0.00    -0.459 OA
BRANCH  74  75
ATOM     75  C   UNL A   1      33.532  24.807  24.647  1.00  0.00     0.365 C 
ATOM     76  O   UNL A   1      32.784  24.757  25.618  1.00  0.00    -0.245 OA
BRANCH  75  77
ATOM     77  C   UNL A   1      34.828  23.998  24.568  1.00  0.00     0.300 C 
ATOM     78  C   UNL A   1      35.801  24.449  25.681  1.00  0.00     0.113 C 
ATOM     79  N   UNL A   1      34.626  22.524  24.618  1.00  0.00    -0.315 N 
ATOM     80  C   UNL A   1      37.055  23.605  25.750  1.00  0.00    -0.033 A 
ATOM     81  C   UNL A   1      35.920  21.886  24.289  1.00  0.00     0.300 C 
ATOM     82  H   UNL A   1      34.312  22.307  25.564  1.00  0.00     0.349 HD
ATOM     83  C   UNL A   1      38.184  24.038  26.457  1.00  0.00     0.006 A 
ATOM     84  C   UNL A   1      37.057  22.324  25.180  1.00  0.00     0.011 A 
ATOM     85  C   UNL A   1      39.278  23.186  26.649  1.00  0.00     0.021 A 
ATOM     86  C   UNL A   1      38.170  21.488  25.357  1.00  0.00     0.030 A 
ATOM     87  C   UNL A   1      39.260  21.906  26.111  1.00  0.00     0.041 A 
ATOM     88  Cl  UNL A   1      40.590  20.845  26.357  1.00  0.00    -0.084 Cl
BRANCH  79  89
ATOM     89  C   UNL A   1      33.533  21.974  23.778  1.00  0.00     0.300 C 
BRANCH  89  90
ATOM     90  C   UNL A   1      32.984  20.633  24.218  1.00  0.00     0.006 A 
ATOM     91  C   UNL A   1      33.038  20.244  25.562  1.00  0.00     0.011 A 
ATOM     92  C   UNL A   1      32.537  19.708  23.270  1.00  0.00     0.011 A 
ATOM     93  C   UNL A   1      32.868  18.906  25.915  1.00  0.00     0.021 A 
ATOM     94  C   UNL A   1      32.370  18.368  23.615  1.00  0.00     0.021 A 
ATOM     95  C   UNL A   1      32.583  17.966  24.930  1.00  0.00     0.041 A 
ATOM     96  Cl  UNL A   1      32.524  16.293  25.326  1.00  0.00    -0.084 Cl
ENDBRANCH  89  90
ENDBRANCH  79  89
ENDBRANCH  75  77
ENDBRANCH  74  75
ENDBRANCH  73  74
ENDBRANCH  72  73
ENDBRANCH  71  72
ENDBRANCH  70  71
ENDBRANCH   1  70
TORSDOF 22
ENDMDL
MODEL 2
REMARK VINA RESULT:     -10.3      0.926      7.922
REMARK SMILES O=C(OCCOCCOCCOC(=O)[C@H]1Cc2ccc(Cl)cc2C[N@@H+]1Cc1ccc(Cl)cc1)c1ccc(-c2c3nc(c(-c4ccc(S(=O)(=O)[O-])cc4)c4ccc([nH]4)c(-c4ccc(S(=O)(=O)[O-])cc4)c4nc(c(-c5ccc(S(=O)(=O)[O-])cc5)c5ccc2[nH]5)C=C4)C=C3)cc1
REMARK SMILES IDX 7 1 6 2 5 3 4 4 3 5 2 6 1 7 34 8 35 9 93 10 36 11 92 12
REMARK SMILES IDX 37 13 38 14 39 15 86 16 40 17 91 18 85 19 87 20 41 21 90 22
REMARK SMILES IDX 84 23 83 24 42 26 72 27 53 28 71 29 54 30 57 31 70 32 88 33
REMARK SMILES IDX 55 34 56 35 69 37 89 38 58 39 43 40 44 41 52 42 45 43 51 44
REMARK SMILES IDX 46 45 47 46 48 47 49 48 50 49 73 50 74 51 82 52 75 53 81 54
REMARK SMILES IDX 76 55 77 56 78 57 79 58 80 59 59 60 60 61 68 62 61 63 67 64
REMARK SMILES IDX 62 65 63 66 64 67 65 68 66 69 8 70 9 71 10 72 11 73 12 74
REMARK SMILES IDX 13 75 14 76 15 77 16 78 25 79 17 80 24 81 18 83 23 84 19 85
REMARK SMILES IDX 22 86 20 87 21 88 26 89 27 90 28 91 33 92 29 93 32 94 30 95
REMARK SMILES IDX 31 96
REMARK H PARENT 87 25 57 36 25 82
REMARK Flexibility Score: inf
ROOT
ATOM      1  C   UNL A   1      31.997  28.875  26.133  1.00  0.00     0.188 C 
ENDROOT
BRANCH   1   2
ATOM      2  O   UNL A   1      32.925  28.482  27.148  1.00  0.00    -0.376 OA
BRANCH   2   3
ATOM      3  C   UNL A   1      34.282  28.761  26.810  1.00  0.00     0.202 C 
BRANCH   3   4
ATOM      4  C   UNL A   1      34.958  29.811  27.706  1.00  0.00     0.261 C 
BRANCH   4   5
ATOM      5  O   UNL A   1      36.395  29.774  27.745  1.00  0.00    -0.460 OA
BRANCH   5   6
ATOM      6  C   UNL A   1      37.249  29.422  28.735  1.00  0.00     0.338 C 
ATOM      7  O   UNL A   1      36.799  29.414  29.883  1.00  0.00    -0.246 OA
BRANCH   6   8
ATOM      8  C   UNL A   1      38.705  29.092  28.556  1.00  0.00     0.060 A 
ATOM      9  C   UNL A   1      39.191  29.138  27.238  1.00  0.00     0.016 A 
ATOM     10  C   UNL A   1      39.613  28.740  29.559  1.00  0.00     0.016 A 
ATOM     11  C   UNL A   1      40.522  28.821  26.946  1.00  0.00     0.010 A 
ATOM     12  C   UNL A   1      40.936  28.384  29.266  1.00  0.00     0.010 A 
ATOM     13  C   UNL A   1      41.407  28.420  27.956  1.00  0.00    -0.014 A 
BRANCH  13  14
ATOM     14  C   UNL A   1      42.859  28.322  27.686  1.00  0.00     0.031 A 
ATOM     15  C   UNL A   1      43.557  27.047  27.309  1.00  0.00     0.074 A 
ATOM     16  C   UNL A   1      43.577  29.441  27.897  1.00  0.00     0.049 A 
ATOM     17  N   UNL A   1      44.764  26.895  26.819  1.00  0.00    -0.248 NA
ATOM     18  C   UNL A   1      42.841  25.782  27.513  1.00  0.00     0.031 C 
ATOM     19  C   UNL A   1      43.025  30.711  28.383  1.00  0.00     0.029 A 
ATOM     20  N   UNL A   1      44.915  29.685  27.769  1.00  0.00    -0.354 N 
ATOM     21  C   UNL A   1      44.896  25.539  26.536  1.00  0.00     0.074 A 
ATOM     22  C   UNL A   1      43.713  24.894  27.043  1.00  0.00     0.031 C 
ATOM     23  C   UNL A   1      44.019  31.594  28.523  1.00  0.00     0.029 A 
ATOM     24  C   UNL A   1      45.274  30.952  28.154  1.00  0.00     0.049 A 
ATOM     25  H   UNL A   1      45.557  29.019  27.434  1.00  0.00     0.167 HD
ATOM     26  C   UNL A   1      45.902  24.919  25.874  1.00  0.00     0.031 A 
ATOM     27  C   UNL A   1      46.485  31.534  28.210  1.00  0.00     0.031 A 
ATOM     28  C   UNL A   1      47.156  25.564  25.593  1.00  0.00     0.049 A 
ATOM     29  C   UNL A   1      47.662  30.769  27.687  1.00  0.00     0.074 A 
ATOM     30  C   UNL A   1      48.266  25.043  24.956  1.00  0.00     0.029 A 
ATOM     31  N   UNL A   1      47.493  26.837  26.027  1.00  0.00    -0.354 N 
ATOM     32  N   UNL A   1      47.684  29.575  27.141  1.00  0.00    -0.248 NA
ATOM     33  C   UNL A   1      48.968  31.430  27.754  1.00  0.00     0.031 C 
ATOM     34  C   UNL A   1      49.315  25.951  25.126  1.00  0.00     0.029 A 
ATOM     35  C   UNL A   1      48.831  27.075  25.780  1.00  0.00     0.049 A 
ATOM     36  H   UNL A   1      46.873  27.474  26.447  1.00  0.00     0.167 HD
ATOM     37  C   UNL A   1      49.004  29.349  26.777  1.00  0.00     0.074 A 
ATOM     38  C   UNL A   1      49.746  30.537  27.152  1.00  0.00     0.031 C 
ATOM     39  C   UNL A   1      49.550  28.260  26.182  1.00  0.00     0.031 A 
BRANCH  26  40
ATOM     40  C   UNL A   1      45.729  23.506  25.365  1.00  0.00    -0.014 A 
ATOM     41  C   UNL A   1      45.282  23.233  24.063  1.00  0.00     0.010 A 
ATOM     42  C   UNL A   1      45.784  22.444  26.287  1.00  0.00     0.010 A 
ATOM     43  C   UNL A   1      44.898  21.931  23.699  1.00  0.00     0.020 A 
ATOM     44  C   UNL A   1      45.433  21.140  25.925  1.00  0.00     0.020 A 
ATOM     45  C   UNL A   1      44.970  20.896  24.636  1.00  0.00     0.054 A 
BRANCH  45  46
ATOM     46  S   UNL A   1      44.423  19.225  24.176  1.00  0.00     0.124 S 
ATOM     47  O   UNL A   1      44.453  19.279  22.719  1.00  0.00    -0.237 OA
ATOM     48  O   UNL A   1      45.434  18.378  24.802  1.00  0.00    -0.237 OA
ATOM     49  O   UNL A   1      43.092  19.131  24.775  1.00  0.00    -0.744 OA
ENDBRANCH  45  46
ENDBRANCH  26  40
BRANCH  27  50
ATOM     50  C   UNL A   1      46.580  32.922  28.735  1.00  0.00    -0.014 A 
ATOM     51  C   UNL A   1      46.160  34.008  27.940  1.00  0.00     0.010 A 
ATOM     52  C   UNL A   1      47.225  33.179  29.955  1.00  0.00     0.010 A 
ATOM     53  C   UNL A   1      46.440  35.320  28.324  1.00  0.00     0.020 A 
ATOM     54  C   UNL A   1      47.477  34.493  30.360  1.00  0.00     0.020 A 
ATOM     55  C   UNL A   1      47.112  35.554  29.525  1.00  0.00     0.054 A 
BRANCH  55  56
ATOM     56  S   UNL A   1      47.530  37.261  29.972  1.00  0.00     0.124 S 
ATOM     57  O   UNL A   1      48.275  37.070  31.217  1.00  0.00    -0.237 OA
ATOM     58  O   UNL A   1      48.330  37.700  28.828  1.00  0.00    -0.237 OA
ATOM     59  O   UNL A   1      46.235  37.909  30.110  1.00  0.00    -0.744 OA
ENDBRANCH  55  56
ENDBRANCH  27  50
BRANCH  39  60
ATOM     60  C   UNL A   1      51.032  28.268  25.928  1.00  0.00    -0.014 A 
ATOM     61  C   UNL A   1      51.521  28.636  24.662  1.00  0.00     0.010 A 
ATOM     62  C   UNL A   1      51.922  27.768  26.894  1.00  0.00     0.010 A 
ATOM     63  C   UNL A   1      52.867  28.453  24.346  1.00  0.00     0.020 A 
ATOM     64  C   UNL A   1      53.277  27.622  26.595  1.00  0.00     0.020 A 
ATOM     65  C   UNL A   1      53.734  27.936  25.312  1.00  0.00     0.054 A 
BRANCH  65  66
ATOM     66  S   UNL A   1      55.468  27.661  24.867  1.00  0.00     0.124 S 
ATOM     67  O   UNL A   1      56.001  27.044  26.078  1.00  0.00    -0.237 OA
ATOM     68  O   UNL A   1      55.366  26.782  23.704  1.00  0.00    -0.237 OA
ATOM     69  O   UNL A   1      55.965  29.005  24.580  1.00  0.00    -0.744 OA
ENDBRANCH  65  66
ENDBRANCH  39  60
ENDBRANCH  13  14
ENDBRANCH   6   8
ENDBRANCH   5   6
ENDBRANCH   4   5
ENDBRANCH   3   4
ENDBRANCH   2   3
ENDBRANCH   1   2
BRANCH   1  70
ATOM     70  C   UNL A   1      32.414  28.431  24.738  1.00  0.00     0.188 C 
BRANCH  70  71
ATOM     71  O   UNL A   1      31.816  27.188  24.391  1.00  0.00    -0.376 OA
BRANCH  71  72
ATOM     72  C   UNL A   1      32.331  26.611  23.189  1.00  0.00     0.202 C 
BRANCH  72  73
ATOM     73  C   UNL A   1      33.447  25.556  23.362  1.00  0.00     0.261 C 
BRANCH  73  74
ATOM     74  O   UNL A   1      33.095  24.171  23.587  1.00  0.00    -0.459 OA
BRANCH  74  75
ATOM     75  C   UNL A   1      33.488  23.586  24.744  1.00  0.00     0.365 C 
ATOM     76  O   UNL A   1      32.754  23.452  25.718  1.00  0.00    -0.245 OA
BRANCH  75  77
ATOM     77  C   UNL A   1      34.940  23.106  24.740  1.00  0.00     0.300 C 
ATOM     78  C   UNL A   1      35.763  23.901  25.780  1.00  0.00     0.113 C 
ATOM     79  N   UNL A   1      35.096  21.641  24.963  1.00  0.00    -0.315 N 
ATOM     80  C   UNL A   1      37.181  23.393  25.927  1.00  0.00    -0.033 A 
ATOM     81  C   UNL A   1      36.508  21.297  24.690  1.00  0.00     0.300 C 
ATOM     82  H   UNL A   1      34.829  21.467  25.932  1.00  0.00     0.349 HD
ATOM     83  C   UNL A   1      38.165  24.161  26.563  1.00  0.00     0.006 A 
ATOM     84  C   UNL A   1      37.496  22.093  25.508  1.00  0.00     0.011 A 
ATOM     85  C   UNL A   1      39.427  23.623  26.836  1.00  0.00     0.021 A 
ATOM     86  C   UNL A   1      38.774  21.572  25.764  1.00  0.00     0.030 A 
ATOM     87  C   UNL A   1      39.722  22.322  26.449  1.00  0.00     0.041 A 
ATOM     88  Cl  UNL A   1      41.264  21.644  26.796  1.00  0.00    -0.084 Cl
BRANCH  79  89
ATOM     89  C   UNL A   1      34.176  20.754  24.208  1.00  0.00     0.300 C 
BRANCH  89  90
ATOM     90  C   UNL A   1      34.021  19.354  24.761  1.00  0.00     0.006 A 
ATOM     91  C   UNL A   1      34.872  18.322  24.346  1.00  0.00     0.011 A 
ATOM     92  C   UNL A   1      32.943  19.038  25.595  1.00  0.00     0.011 A 
ATOM     93  C   UNL A   1      34.525  16.990  24.570  1.00  0.00     0.021 A 
ATOM     94  C   UNL A   1      32.588  17.709  25.818  1.00  0.00     0.021 A 
ATOM     95  C   UNL A   1      33.356  16.691  25.263  1.00  0.00     0.041 A 
ATOM     96  Cl  UNL A   1      32.836  15.058  25.412  1.00  0.00    -0.084 Cl
ENDBRANCH  89  90
ENDBRANCH  79  89
ENDBRANCH  75  77
ENDBRANCH  74  75
ENDBRANCH  73  74
ENDBRANCH  72  73
ENDBRANCH  71  72
ENDBRANCH  70  71
ENDBRANCH   1  70
TORSDOF 22
ENDMDL
MODEL 3
REMARK VINA RESULT:     -10.2      4.183      5.821
REMARK SMILES O=C(OCCOCCOCCOC(=O)[C@H]1Cc2ccc(Cl)cc2C[N@@H+]1Cc1ccc(Cl)cc1)c1ccc(-c2c3nc(c(-c4ccc(S(=O)(=O)[O-])cc4)c4ccc([nH]4)c(-c4ccc(S(=O)(=O)[O-])cc4)c4nc(c(-c5ccc(S(=O)(=O)[O-])cc5)c5ccc2[nH]5)C=C4)C=C3)cc1
REMARK SMILES IDX 7 1 6 2 5 3 4 4 3 5 2 6 1 7 34 8 35 9 93 10 36 11 92 12
REMARK SMILES IDX 37 13 38 14 39 15 86 16 40 17 91 18 85 19 87 20 41 21 90 22
REMARK SMILES IDX 84 23 83 24 42 26 72 27 53 28 71 29 54 30 57 31 70 32 88 33
REMARK SMILES IDX 55 34 56 35 69 37 89 38 58 39 43 40 44 41 52 42 45 43 51 44
REMARK SMILES IDX 46 45 47 46 48 47 49 48 50 49 73 50 74 51 82 52 75 53 81 54
REMARK SMILES IDX 76 55 77 56 78 57 79 58 80 59 59 60 60 61 68 62 61 63 67 64
REMARK SMILES IDX 62 65 63 66 64 67 65 68 66 69 8 70 9 71 10 72 11 73 12 74
REMARK SMILES IDX 13 75 14 76 15 77 16 78 25 79 17 80 24 81 18 83 23 84 19 85
REMARK SMILES IDX 22 86 20 87 21 88 26 89 27 90 28 91 33 92 29 93 32 94 30 95
REMARK SMILES IDX 31 96
REMARK H PARENT 87 25 57 36 25 82
REMARK Flexibility Score: inf
ROOT
ATOM      1  C   UNL A   1      33.565  27.237  25.073  1.00  0.00     0.188 C 
ENDROOT
BRANCH   1   2
ATOM      2  O   UNL A   1      34.044  28.565  25.298  1.00  0.00    -0.376 OA
BRANCH   2   3
ATOM      3  C   UNL A   1      33.052  29.566  25.081  1.00  0.00     0.202 C 
BRANCH   3   4
ATOM      4  C   UNL A   1      32.418  30.123  26.365  1.00  0.00     0.261 C 
BRANCH   4   5
ATOM      5  O   UNL A   1      33.234  30.065  27.548  1.00  0.00    -0.460 OA
BRANCH   5   6
ATOM      6  C   UNL A   1      34.299  30.809  27.930  1.00  0.00     0.338 C 
ATOM      7  O   UNL A   1      34.185  32.033  27.841  1.00  0.00    -0.246 OA
BRANCH   6   8
ATOM      8  C   UNL A   1      35.619  30.266  28.402  1.00  0.00     0.060 A 
ATOM      9  C   UNL A   1      36.636  30.188  27.435  1.00  0.00     0.016 A 
ATOM     10  C   UNL A   1      35.931  29.826  29.691  1.00  0.00     0.016 A 
ATOM     11  C   UNL A   1      37.897  29.672  27.751  1.00  0.00     0.010 A 
ATOM     12  C   UNL A   1      37.180  29.272  30.002  1.00  0.00     0.010 A 
ATOM     13  C   UNL A   1      38.179  29.188  29.035  1.00  0.00    -0.014 A 
BRANCH  13  14
ATOM     14  C   UNL A   1      39.569  28.870  29.430  1.00  0.00     0.031 A 
ATOM     15  C   UNL A   1      40.502  29.852  30.079  1.00  0.00     0.074 A 
ATOM     16  C   UNL A   1      40.020  27.651  29.080  1.00  0.00     0.049 A 
ATOM     17  N   UNL A   1      41.642  29.615  30.681  1.00  0.00    -0.248 NA
ATOM     18  C   UNL A   1      40.137  31.274  30.048  1.00  0.00     0.031 C 
ATOM     19  C   UNL A   1      39.243  26.653  28.335  1.00  0.00     0.029 A 
ATOM     20  N   UNL A   1      41.236  27.057  29.266  1.00  0.00    -0.354 N 
ATOM     21  C   UNL A   1      42.059  30.833  31.209  1.00  0.00     0.074 A 
ATOM     22  C   UNL A   1      41.133  31.827  30.734  1.00  0.00     0.031 C 
ATOM     23  C   UNL A   1      40.007  25.578  28.118  1.00  0.00     0.029 A 
ATOM     24  C   UNL A   1      41.326  25.814  28.692  1.00  0.00     0.049 A 
ATOM     25  H   UNL A   1      41.973  27.478  29.763  1.00  0.00     0.167 HD
ATOM     26  C   UNL A   1      43.097  31.067  32.047  1.00  0.00     0.031 A 
ATOM     27  C   UNL A   1      42.361  24.958  28.627  1.00  0.00     0.031 A 
ATOM     28  C   UNL A   1      44.119  30.089  32.305  1.00  0.00     0.049 A 
ATOM     29  C   UNL A   1      43.615  25.308  29.367  1.00  0.00     0.074 A 
ATOM     30  C   UNL A   1      45.237  30.206  33.108  1.00  0.00     0.029 A 
ATOM     31  N   UNL A   1      44.192  28.854  31.680  1.00  0.00    -0.354 N 
ATOM     32  N   UNL A   1      43.856  26.360  30.116  1.00  0.00    -0.248 NA
ATOM     33  C   UNL A   1      44.725  24.355  29.286  1.00  0.00     0.031 C 
ATOM     34  C   UNL A   1      46.052  29.098  32.863  1.00  0.00     0.029 A 
ATOM     35  C   UNL A   1      45.396  28.247  31.984  1.00  0.00     0.049 A 
ATOM     36  H   UNL A   1      43.493  28.467  31.106  1.00  0.00     0.167 HD
ATOM     37  C   UNL A   1      45.138  26.184  30.616  1.00  0.00     0.074 A 
ATOM     38  C   UNL A   1      45.615  24.917  30.095  1.00  0.00     0.031 C 
ATOM     39  C   UNL A   1      45.854  26.993  31.435  1.00  0.00     0.031 A 
BRANCH  26  40
ATOM     40  C   UNL A   1      43.207  32.383  32.782  1.00  0.00    -0.014 A 
ATOM     41  C   UNL A   1      42.596  32.592  34.029  1.00  0.00     0.010 A 
ATOM     42  C   UNL A   1      43.726  33.498  32.099  1.00  0.00     0.010 A 
ATOM     43  C   UNL A   1      42.506  33.886  34.571  1.00  0.00     0.020 A 
ATOM     44  C   UNL A   1      43.669  34.785  32.645  1.00  0.00     0.020 A 
ATOM     45  C   UNL A   1      43.037  34.973  33.871  1.00  0.00     0.054 A 
BRANCH  45  46
ATOM     46  S   UNL A   1      42.872  36.650  34.551  1.00  0.00     0.124 S 
ATOM     47  O   UNL A   1      43.146  37.485  33.387  1.00  0.00    -0.237 OA
ATOM     48  O   UNL A   1      41.494  36.662  35.032  1.00  0.00    -0.237 OA
ATOM     49  O   UNL A   1      43.888  36.687  35.603  1.00  0.00    -0.744 OA
ENDBRANCH  45  46
ENDBRANCH  26  40
BRANCH  27  50
ATOM     50  C   UNL A   1      42.184  23.689  27.873  1.00  0.00    -0.014 A 
ATOM     51  C   UNL A   1      41.718  22.534  28.535  1.00  0.00     0.010 A 
ATOM     52  C   UNL A   1      42.619  23.584  26.543  1.00  0.00     0.010 A 
ATOM     53  C   UNL A   1      41.753  21.290  27.903  1.00  0.00     0.020 A 
ATOM     54  C   UNL A   1      42.624  22.345  25.895  1.00  0.00     0.020 A 
ATOM     55  C   UNL A   1      42.221  21.201  26.591  1.00  0.00     0.054 A 
BRANCH  55  56
ATOM     56  S   UNL A   1      42.325  19.567  25.811  1.00  0.00     0.124 S 
ATOM     57  O   UNL A   1      42.709  18.720  26.940  1.00  0.00    -0.237 OA
ATOM     58  O   UNL A   1      40.962  19.367  25.315  1.00  0.00    -0.237 OA
ATOM     59  O   UNL A   1      43.340  19.740  24.782  1.00  0.00    -0.744 OA
ENDBRANCH  55  56
ENDBRANCH  27  50
BRANCH  39  60
ATOM     60  C   UNL A   1      47.249  26.569  31.798  1.00  0.00    -0.014 A 
ATOM     61  C   UNL A   1      48.344  27.086  31.081  1.00  0.00     0.010 A 
ATOM     62  C   UNL A   1      47.461  25.551  32.743  1.00  0.00     0.010 A 
ATOM     63  C   UNL A   1      49.620  26.553  31.263  1.00  0.00     0.020 A 
ATOM     64  C   UNL A   1      48.743  25.044  32.958  1.00  0.00     0.020 A 
ATOM     65  C   UNL A   1      49.808  25.527  32.193  1.00  0.00     0.054 A 
BRANCH  65  66
ATOM     66  S   UNL A   1      51.464  24.816  32.380  1.00  0.00     0.124 S 
ATOM     67  O   UNL A   1      51.187  23.383  32.350  1.00  0.00    -0.237 OA
ATOM     68  O   UNL A   1      52.175  25.346  31.219  1.00  0.00    -0.237 OA
ATOM     69  O   UNL A   1      51.916  25.337  33.669  1.00  0.00    -0.744 OA
ENDBRANCH  65  66
ENDBRANCH  39  60
ENDBRANCH  13  14
ENDBRANCH   6   8
ENDBRANCH   5   6
ENDBRANCH   4   5
ENDBRANCH   3   4
ENDBRANCH   2   3
ENDBRANCH   1   2
BRANCH   1  70
ATOM     70  C   UNL A   1      34.222  26.203  25.977  1.00  0.00     0.188 C 
BRANCH  70  71
ATOM     71  O   UNL A   1      33.740  24.893  25.699  1.00  0.00    -0.376 OA
BRANCH  71  72
ATOM     72  C   UNL A   1      33.971  23.954  26.752  1.00  0.00     0.202 C 
BRANCH  72  73
ATOM     73  C   UNL A   1      32.783  23.040  27.124  1.00  0.00     0.261 C 
BRANCH  73  74
ATOM     74  O   UNL A   1      32.194  22.184  26.117  1.00  0.00    -0.459 OA
BRANCH  74  75
ATOM     75  C   UNL A   1      30.910  22.412  25.748  1.00  0.00     0.365 C 
ATOM     76  O   UNL A   1      29.954  21.800  26.214  1.00  0.00    -0.245 OA
BRANCH  75  77
ATOM     77  C   UNL A   1      30.747  23.503  24.689  1.00  0.00     0.300 C 
ATOM     78  C   UNL A   1      30.432  24.855  25.366  1.00  0.00     0.113 C 
ATOM     79  N   UNL A   1      31.914  23.638  23.773  1.00  0.00    -0.315 N 
ATOM     80  C   UNL A   1      30.385  26.011  24.391  1.00  0.00    -0.033 A 
ATOM     81  C   UNL A   1      31.514  24.544  22.674  1.00  0.00     0.300 C 
ATOM     82  H   UNL A   1      32.679  24.016  24.333  1.00  0.00     0.349 HD
ATOM     83  C   UNL A   1      29.808  27.237  24.744  1.00  0.00     0.006 A 
ATOM     84  C   UNL A   1      31.016  25.888  23.144  1.00  0.00     0.011 A 
ATOM     85  C   UNL A   1      29.910  28.346  23.897  1.00  0.00     0.021 A 
ATOM     86  C   UNL A   1      31.090  27.000  22.292  1.00  0.00     0.030 A 
ATOM     87  C   UNL A   1      30.566  28.228  22.679  1.00  0.00     0.041 A 
ATOM     88  Cl  UNL A   1      30.714  29.589  21.640  1.00  0.00    -0.084 Cl
BRANCH  79  89
ATOM     89  C   UNL A   1      32.492  22.378  23.242  1.00  0.00     0.300 C 
BRANCH  89  90
ATOM     90  C   UNL A   1      33.961  22.161  23.534  1.00  0.00     0.006 A 
ATOM     91  C   UNL A   1      34.384  21.078  24.313  1.00  0.00     0.011 A 
ATOM     92  C   UNL A   1      34.907  23.114  23.142  1.00  0.00     0.011 A 
ATOM     93  C   UNL A   1      35.661  21.068  24.872  1.00  0.00     0.021 A 
ATOM     94  C   UNL A   1      36.184  23.113  23.701  1.00  0.00     0.021 A 
ATOM     95  C   UNL A   1      36.539  22.113  24.601  1.00  0.00     0.041 A 
ATOM     96  Cl  UNL A   1      38.058  22.193  25.403  1.00  0.00    -0.084 Cl
ENDBRANCH  89  90
ENDBRANCH  79  89
ENDBRANCH  75  77
ENDBRANCH  74  75
ENDBRANCH  73  74
ENDBRANCH  72  73
ENDBRANCH  71  72
ENDBRANCH  70  71
ENDBRANCH   1  70
TORSDOF 22
ENDMDL
