MODEL 1
REMARK VINA RESULT:      -9.4      0.000      0.000
REMARK SMILES O=C(OCCOCCOCCOC(=O)[C@@H](Cc1ccccc1F)C1CCOCC1)c1ccc(-c2c3nc(c(-c4ccc(S(=O)(=O)[O-])cc4)c4ccc([nH]4)c(-c4ccc(S(=O)(=O)[O-])cc4)c4nc(c(-c5ccc(S(=O)(=O)[O-])cc5)c5ccc2[nH]5)C=C4)C=C3)cc1
REMARK SMILES IDX 7 1 6 2 5 3 4 4 3 5 2 6 1 7 30 8 31 9 89 10 32 11 88 12
REMARK SMILES IDX 33 13 34 14 35 15 82 16 36 17 87 18 81 19 83 20 37 21 86 22
REMARK SMILES IDX 80 23 79 24 38 26 68 27 49 28 67 29 50 30 53 31 66 32 84 33
REMARK SMILES IDX 51 34 52 35 65 37 85 38 54 39 39 40 40 41 48 42 41 43 47 44
REMARK SMILES IDX 42 45 43 46 44 47 45 48 46 49 69 50 70 51 78 52 71 53 77 54
REMARK SMILES IDX 72 55 73 56 74 57 75 58 76 59 55 60 56 61 64 62 57 63 63 64
REMARK SMILES IDX 58 65 59 66 60 67 61 68 62 69 8 70 9 71 10 72 11 73 12 74
REMARK SMILES IDX 13 75 14 76 15 77 16 78 17 79 18 80 22 81 19 82 21 83 23 84
REMARK SMILES IDX 20 85 24 86 25 87 29 88 26 89 28 90 27 91
REMARK H PARENT 83 25 53 36
REMARK Flexibility Score: inf
ROOT
ATOM      1  C   UNL A   1      32.432  29.903  26.672  1.00  0.00     0.188 C 
ENDROOT
BRANCH   1   2
ATOM      2  O   UNL A   1      33.706  29.893  27.322  1.00  0.00    -0.376 OA
BRANCH   2   3
ATOM      3  C   UNL A   1      34.322  31.174  27.416  1.00  0.00     0.202 C 
BRANCH   3   4
ATOM      4  C   UNL A   1      35.237  31.319  28.635  1.00  0.00     0.261 C 
BRANCH   4   5
ATOM      5  O   UNL A   1      35.399  30.090  29.361  1.00  0.00    -0.460 OA
BRANCH   5   6
ATOM      6  C   UNL A   1      36.491  29.609  30.008  1.00  0.00     0.338 C 
ATOM      7  O   UNL A   1      36.325  29.206  31.160  1.00  0.00    -0.246 OA
BRANCH   6   8
ATOM      8  C   UNL A   1      37.883  29.517  29.440  1.00  0.00     0.060 A 
ATOM      9  C   UNL A   1      38.239  29.564  28.092  1.00  0.00     0.016 A 
ATOM     10  C   UNL A   1      38.934  29.397  30.376  1.00  0.00     0.016 A 
ATOM     11  C   UNL A   1      39.572  29.444  27.687  1.00  0.00     0.010 A 
ATOM     12  C   UNL A   1      40.275  29.283  29.979  1.00  0.00     0.010 A 
ATOM     13  C   UNL A   1      40.594  29.277  28.623  1.00  0.00    -0.014 A 
BRANCH  13  14
ATOM     14  C   UNL A   1      41.924  28.876  28.115  1.00  0.00     0.031 A 
ATOM     15  C   UNL A   1      43.062  29.818  28.355  1.00  0.00     0.074 A 
ATOM     16  C   UNL A   1      42.133  27.666  27.570  1.00  0.00     0.049 A 
ATOM     17  N   UNL A   1      44.334  29.646  28.131  1.00  0.00    -0.248 NA
ATOM     18  C   UNL A   1      42.711  31.142  28.896  1.00  0.00     0.031 C 
ATOM     19  C   UNL A   1      41.085  26.704  27.259  1.00  0.00     0.029 A 
ATOM     20  N   UNL A   1      43.295  27.009  27.240  1.00  0.00    -0.354 N 
ATOM     21  C   UNL A   1      44.929  30.865  28.429  1.00  0.00     0.074 A 
ATOM     22  C   UNL A   1      43.886  31.748  28.903  1.00  0.00     0.031 C 
ATOM     23  C   UNL A   1      41.654  25.538  26.914  1.00  0.00     0.029 A 
ATOM     24  C   UNL A   1      43.101  25.675  26.946  1.00  0.00     0.049 A 
ATOM     25  H   UNL A   1      44.176  27.446  27.217  1.00  0.00     0.167 HD
ATOM     26  C   UNL A   1      46.219  31.227  28.252  1.00  0.00     0.031 A 
ATOM     27  C   UNL A   1      43.994  24.681  26.754  1.00  0.00     0.031 A 
ATOM     28  C   UNL A   1      47.217  30.341  27.718  1.00  0.00     0.049 A 
ATOM     29  C   UNL A   1      45.444  25.076  26.664  1.00  0.00     0.074 A 
ATOM     30  C   UNL A   1      48.534  30.612  27.400  1.00  0.00     0.029 A 
ATOM     31  N   UNL A   1      46.996  29.004  27.413  1.00  0.00    -0.354 N 
ATOM     32  N   UNL A   1      45.991  26.245  26.899  1.00  0.00    -0.248 NA
ATOM     33  C   UNL A   1      46.385  24.046  26.206  1.00  0.00     0.031 C 
ATOM     34  C   UNL A   1      49.093  29.452  26.852  1.00  0.00     0.029 A 
ATOM     35  C   UNL A   1      48.148  28.438  26.899  1.00  0.00     0.049 A 
ATOM     36  H   UNL A   1      46.144  28.529  27.543  1.00  0.00     0.167 HD
ATOM     37  C   UNL A   1      47.330  26.110  26.561  1.00  0.00     0.074 A 
ATOM     38  C   UNL A   1      47.527  24.722  26.187  1.00  0.00     0.031 C 
ATOM     39  C   UNL A   1      48.300  27.055  26.516  1.00  0.00     0.031 A 
BRANCH  26  40
ATOM     40  C   UNL A   1      46.551  32.672  28.499  1.00  0.00    -0.014 A 
ATOM     41  C   UNL A   1      47.110  33.112  29.713  1.00  0.00     0.010 A 
ATOM     42  C   UNL A   1      46.221  33.621  27.513  1.00  0.00     0.010 A 
ATOM     43  C   UNL A   1      47.275  34.479  29.958  1.00  0.00     0.020 A 
ATOM     44  C   UNL A   1      46.415  34.984  27.742  1.00  0.00     0.020 A 
ATOM     45  C   UNL A   1      46.918  35.406  28.973  1.00  0.00     0.054 A 
BRANCH  45  46
ATOM     46  S   UNL A   1      47.118  37.173  29.325  1.00  0.00     0.124 S 
ATOM     47  O   UNL A   1      47.734  37.657  28.091  1.00  0.00    -0.237 OA
ATOM     48  O   UNL A   1      45.743  37.611  29.553  1.00  0.00    -0.237 OA
ATOM     49  O   UNL A   1      47.980  37.198  30.504  1.00  0.00    -0.744 OA
ENDBRANCH  45  46
ENDBRANCH  26  40
BRANCH  27  50
ATOM     50  C   UNL A   1      43.572  23.251  26.616  1.00  0.00    -0.014 A 
ATOM     51  C   UNL A   1      43.834  22.543  25.425  1.00  0.00     0.010 A 
ATOM     52  C   UNL A   1      42.905  22.578  27.655  1.00  0.00     0.010 A 
ATOM     53  C   UNL A   1      43.442  21.206  25.280  1.00  0.00     0.020 A 
ATOM     54  C   UNL A   1      42.547  21.230  27.532  1.00  0.00     0.020 A 
ATOM     55  C   UNL A   1      42.807  20.554  26.340  1.00  0.00     0.054 A 
BRANCH  55  56
ATOM     56  S   UNL A   1      42.368  18.802  26.161  1.00  0.00     0.124 S 
ATOM     57  O   UNL A   1      43.318  18.353  25.147  1.00  0.00    -0.237 OA
ATOM     58  O   UNL A   1      42.587  18.284  27.509  1.00  0.00    -0.237 OA
ATOM     59  O   UNL A   1      40.972  18.845  25.735  1.00  0.00    -0.744 OA
ENDBRANCH  55  56
ENDBRANCH  27  50
BRANCH  39  60
ATOM     60  C   UNL A   1      49.653  26.619  26.029  1.00  0.00    -0.014 A 
ATOM     61  C   UNL A   1      50.119  26.993  24.755  1.00  0.00     0.010 A 
ATOM     62  C   UNL A   1      50.492  25.884  26.884  1.00  0.00     0.010 A 
ATOM     63  C   UNL A   1      51.393  26.612  24.334  1.00  0.00     0.020 A 
ATOM     64  C   UNL A   1      51.777  25.528  26.477  1.00  0.00     0.020 A 
ATOM     65  C   UNL A   1      52.215  25.882  25.199  1.00  0.00     0.054 A 
BRANCH  65  66
ATOM     66  S   UNL A   1      53.884  25.440  24.648  1.00  0.00     0.124 S 
ATOM     67  O   UNL A   1      53.851  25.832  23.241  1.00  0.00    -0.237 OA
ATOM     68  O   UNL A   1      54.732  26.259  25.511  1.00  0.00    -0.237 OA
ATOM     69  O   UNL A   1      53.959  24.002  24.892  1.00  0.00    -0.744 OA
ENDBRANCH  65  66
ENDBRANCH  39  60
ENDBRANCH  13  14
ENDBRANCH   6   8
ENDBRANCH   5   6
ENDBRANCH   4   5
ENDBRANCH   3   4
ENDBRANCH   2   3
ENDBRANCH   1   2
BRANCH   1  70
ATOM     70  C   UNL A   1      31.853  28.492  26.650  1.00  0.00     0.188 C 
BRANCH  70  71
ATOM     71  O   UNL A   1      31.021  28.216  25.520  1.00  0.00    -0.376 OA
BRANCH  71  72
ATOM     72  C   UNL A   1      30.679  26.847  25.289  1.00  0.00     0.202 C 
BRANCH  72  73
ATOM     73  C   UNL A   1      31.395  25.834  26.190  1.00  0.00     0.261 C 
BRANCH  73  74
ATOM     74  O   UNL A   1      30.992  24.488  25.906  1.00  0.00    -0.463 OA
BRANCH  74  75
ATOM     75  C   UNL A   1      31.982  23.573  25.809  1.00  0.00     0.309 C 
ATOM     76  O   UNL A   1      31.814  22.362  25.848  1.00  0.00    -0.252 OA
BRANCH  75  77
ATOM     77  C   UNL A   1      33.347  24.207  25.585  1.00  0.00     0.107 C 
BRANCH  77  78
ATOM     78  C   UNL A   1      34.440  23.663  26.541  1.00  0.00     0.054 C 
BRANCH  78  79
ATOM     79  C   UNL A   1      35.470  22.639  26.103  1.00  0.00    -0.011 A 
ATOM     80  C   UNL A   1      35.104  21.339  25.734  1.00  0.00     0.007 A 
ATOM     81  C   UNL A   1      36.803  23.007  25.879  1.00  0.00     0.126 A 
ATOM     82  C   UNL A   1      36.006  20.484  25.088  1.00  0.00     0.000 A 
ATOM     83  C   UNL A   1      37.718  22.154  25.263  1.00  0.00     0.039 A 
ATOM     84  F   UNL A   1      37.228  24.233  26.201  1.00  0.00    -0.207 F 
ATOM     85  C   UNL A   1      37.312  20.895  24.841  1.00  0.00     0.003 A 
ENDBRANCH  78  79
ENDBRANCH  77  78
BRANCH  77  86
ATOM     86  C   UNL A   1      33.705  24.296  24.085  1.00  0.00     0.008 C 
ATOM     87  C   UNL A   1      33.361  25.679  23.498  1.00  0.00     0.033 C 
ATOM     88  C   UNL A   1      32.958  23.250  23.228  1.00  0.00     0.033 C 
ATOM     89  C   UNL A   1      33.697  25.729  22.013  1.00  0.00     0.160 C 
ATOM     90  C   UNL A   1      33.269  23.430  21.748  1.00  0.00     0.160 C 
ATOM     91  O   UNL A   1      32.925  24.745  21.329  1.00  0.00    -0.381 OA
ENDBRANCH  77  86
ENDBRANCH  75  77
ENDBRANCH  74  75
ENDBRANCH  73  74
ENDBRANCH  72  73
ENDBRANCH  71  72
ENDBRANCH  70  71
ENDBRANCH   1  70
TORSDOF 23
ENDMDL
MODEL 2
REMARK VINA RESULT:      -9.4      6.414     11.939
REMARK SMILES O=C(OCCOCCOCCOC(=O)[C@@H](Cc1ccccc1F)C1CCOCC1)c1ccc(-c2c3nc(c(-c4ccc(S(=O)(=O)[O-])cc4)c4ccc([nH]4)c(-c4ccc(S(=O)(=O)[O-])cc4)c4nc(c(-c5ccc(S(=O)(=O)[O-])cc5)c5ccc2[nH]5)C=C4)C=C3)cc1
REMARK SMILES IDX 7 1 6 2 5 3 4 4 3 5 2 6 1 7 30 8 31 9 89 10 32 11 88 12
REMARK SMILES IDX 33 13 34 14 35 15 82 16 36 17 87 18 81 19 83 20 37 21 86 22
REMARK SMILES IDX 80 23 79 24 38 26 68 27 49 28 67 29 50 30 53 31 66 32 84 33
REMARK SMILES IDX 51 34 52 35 65 37 85 38 54 39 39 40 40 41 48 42 41 43 47 44
REMARK SMILES IDX 42 45 43 46 44 47 45 48 46 49 69 50 70 51 78 52 71 53 77 54
REMARK SMILES IDX 72 55 73 56 74 57 75 58 76 59 55 60 56 61 64 62 57 63 63 64
REMARK SMILES IDX 58 65 59 66 60 67 61 68 62 69 8 70 9 71 10 72 11 73 12 74
REMARK SMILES IDX 13 75 14 76 15 77 16 78 17 79 18 80 22 81 19 82 21 83 23 84
REMARK SMILES IDX 20 85 24 86 25 87 29 88 26 89 28 90 27 91
REMARK H PARENT 83 25 53 36
REMARK Flexibility Score: inf
ROOT
ATOM      1  C   UNL A   1      42.209  20.738  26.196  1.00  0.00     0.188 C 
ENDROOT
BRANCH   1   2
ATOM      2  O   UNL A   1      43.241  21.583  25.680  1.00  0.00    -0.376 OA
BRANCH   2   3
ATOM      3  C   UNL A   1      43.640  22.623  26.569  1.00  0.00     0.202 C 
BRANCH   3   4
ATOM      4  C   UNL A   1      43.882  23.961  25.866  1.00  0.00     0.261 C 
BRANCH   4   5
ATOM      5  O   UNL A   1      42.663  24.637  25.518  1.00  0.00    -0.460 OA
BRANCH   5   6
ATOM      6  C   UNL A   1      42.283  25.913  25.777  1.00  0.00     0.338 C 
ATOM      7  O   UNL A   1      42.024  26.627  24.806  1.00  0.00    -0.246 OA
BRANCH   6   8
ATOM      8  C   UNL A   1      42.140  26.532  27.142  1.00  0.00     0.060 A 
ATOM      9  C   UNL A   1      41.569  25.943  28.271  1.00  0.00     0.016 A 
ATOM     10  C   UNL A   1      42.666  27.834  27.298  1.00  0.00     0.016 A 
ATOM     11  C   UNL A   1      41.474  26.632  29.484  1.00  0.00     0.010 A 
ATOM     12  C   UNL A   1      42.582  28.531  28.513  1.00  0.00     0.010 A 
ATOM     13  C   UNL A   1      41.955  27.937  29.606  1.00  0.00    -0.014 A 
BRANCH  13  14
ATOM     14  C   UNL A   1      41.568  28.694  30.817  1.00  0.00     0.031 A 
ATOM     15  C   UNL A   1      42.583  28.799  31.912  1.00  0.00     0.074 A 
ATOM     16  C   UNL A   1      40.406  29.364  30.886  1.00  0.00     0.049 A 
ATOM     17  N   UNL A   1      42.544  29.507  33.005  1.00  0.00    -0.248 NA
ATOM     18  C   UNL A   1      43.793  27.971  31.764  1.00  0.00     0.031 C 
ATOM     19  C   UNL A   1      39.344  29.286  29.893  1.00  0.00     0.029 A 
ATOM     20  N   UNL A   1      39.945  30.288  31.793  1.00  0.00    -0.354 N 
ATOM     21  C   UNL A   1      43.684  29.153  33.714  1.00  0.00     0.074 A 
ATOM     22  C   UNL A   1      44.421  28.212  32.902  1.00  0.00     0.031 C 
ATOM     23  C   UNL A   1      38.422  30.223  30.170  1.00  0.00     0.029 A 
ATOM     24  C   UNL A   1      38.806  30.942  31.373  1.00  0.00     0.049 A 
ATOM     25  H   UNL A   1      40.385  30.466  32.656  1.00  0.00     0.167 HD
ATOM     26  C   UNL A   1      44.039  29.533  34.962  1.00  0.00     0.031 A 
ATOM     27  C   UNL A   1      38.170  32.014  31.891  1.00  0.00     0.031 A 
ATOM     28  C   UNL A   1      43.248  30.423  35.767  1.00  0.00     0.049 A 
ATOM     29  C   UNL A   1      38.638  32.501  33.236  1.00  0.00     0.074 A 
ATOM     30  C   UNL A   1      43.446  30.809  37.080  1.00  0.00     0.029 A 
ATOM     31  N   UNL A   1      42.093  31.058  35.329  1.00  0.00    -0.354 N 
ATOM     32  N   UNL A   1      39.691  32.124  33.922  1.00  0.00    -0.248 NA
ATOM     33  C   UNL A   1      37.796  33.495  33.913  1.00  0.00     0.031 C 
ATOM     34  C   UNL A   1      42.379  31.637  37.451  1.00  0.00     0.029 A 
ATOM     35  C   UNL A   1      41.559  31.826  36.348  1.00  0.00     0.049 A 
ATOM     36  H   UNL A   1      41.710  30.975  34.427  1.00  0.00     0.167 HD
ATOM     37  C   UNL A   1      39.607  32.789  35.137  1.00  0.00     0.074 A 
ATOM     38  C   UNL A   1      38.446  33.656  35.058  1.00  0.00     0.031 C 
ATOM     39  C   UNL A   1      40.387  32.661  36.238  1.00  0.00     0.031 A 
BRANCH  26  40
ATOM     40  C   UNL A   1      45.245  28.856  35.553  1.00  0.00    -0.014 A 
ATOM     41  C   UNL A   1      46.553  29.307  35.298  1.00  0.00     0.010 A 
ATOM     42  C   UNL A   1      45.060  27.691  36.320  1.00  0.00     0.010 A 
ATOM     43  C   UNL A   1      47.652  28.572  35.749  1.00  0.00     0.020 A 
ATOM     44  C   UNL A   1      46.155  26.971  36.800  1.00  0.00     0.020 A 
ATOM     45  C   UNL A   1      47.446  27.403  36.490  1.00  0.00     0.054 A 
BRANCH  45  46
ATOM     46  S   UNL A   1      48.888  26.453  37.042  1.00  0.00     0.124 S 
ATOM     47  O   UNL A   1      49.516  27.380  37.981  1.00  0.00    -0.237 OA
ATOM     48  O   UNL A   1      48.278  25.269  37.643  1.00  0.00    -0.237 OA
ATOM     49  O   UNL A   1      49.636  26.209  35.812  1.00  0.00    -0.744 OA
ENDBRANCH  45  46
ENDBRANCH  26  40
BRANCH  27  50
ATOM     50  C   UNL A   1      37.036  32.684  31.178  1.00  0.00    -0.014 A 
ATOM     51  C   UNL A   1      35.701  32.364  31.505  1.00  0.00     0.010 A 
ATOM     52  C   UNL A   1      37.262  33.639  30.170  1.00  0.00     0.010 A 
ATOM     53  C   UNL A   1      34.630  32.979  30.843  1.00  0.00     0.020 A 
ATOM     54  C   UNL A   1      36.196  34.287  29.535  1.00  0.00     0.020 A 
ATOM     55  C   UNL A   1      34.885  33.946  29.867  1.00  0.00     0.054 A 
BRANCH  55  56
ATOM     56  S   UNL A   1      33.485  34.783  29.070  1.00  0.00     0.124 S 
ATOM     57  O   UNL A   1      33.033  33.775  28.115  1.00  0.00    -0.237 OA
ATOM     58  O   UNL A   1      32.590  35.038  30.196  1.00  0.00    -0.237 OA
ATOM     59  O   UNL A   1      34.093  35.974  28.483  1.00  0.00    -0.744 OA
ENDBRANCH  55  56
ENDBRANCH  27  50
BRANCH  39  60
ATOM     60  C   UNL A   1      39.997  33.464  37.447  1.00  0.00    -0.014 A 
ATOM     61  C   UNL A   1      40.410  34.802  37.590  1.00  0.00     0.010 A 
ATOM     62  C   UNL A   1      39.155  32.893  38.415  1.00  0.00     0.010 A 
ATOM     63  C   UNL A   1      40.006  35.546  38.699  1.00  0.00     0.020 A 
ATOM     64  C   UNL A   1      38.726  33.643  39.510  1.00  0.00     0.020 A 
ATOM     65  C   UNL A   1      39.166  34.961  39.652  1.00  0.00     0.054 A 
BRANCH  65  66
ATOM     66  S   UNL A   1      38.617  35.962  41.060  1.00  0.00     0.124 S 
ATOM     67  O   UNL A   1      38.552  37.298  40.473  1.00  0.00    -0.237 OA
ATOM     68  O   UNL A   1      37.329  35.359  41.397  1.00  0.00    -0.237 OA
ATOM     69  O   UNL A   1      39.669  35.768  42.054  1.00  0.00    -0.744 OA
ENDBRANCH  65  66
ENDBRANCH  39  60
ENDBRANCH  13  14
ENDBRANCH   6   8
ENDBRANCH   5   6
ENDBRANCH   4   5
ENDBRANCH   3   4
ENDBRANCH   2   3
ENDBRANCH   1   2
BRANCH   1  70
ATOM     70  C   UNL A   1      41.092  21.591  26.790  1.00  0.00     0.188 C 
BRANCH  70  71
ATOM     71  O   UNL A   1      40.168  22.104  25.827  1.00  0.00    -0.376 OA
BRANCH  71  72
ATOM     72  C   UNL A   1      38.782  22.055  26.171  1.00  0.00     0.202 C 
BRANCH  72  73
ATOM     73  C   UNL A   1      37.867  21.430  25.111  1.00  0.00     0.261 C 
BRANCH  73  74
ATOM     74  O   UNL A   1      36.487  21.733  25.351  1.00  0.00    -0.463 OA
BRANCH  74  75
ATOM     75  C   UNL A   1      35.824  22.346  24.346  1.00  0.00     0.309 C 
ATOM     76  O   UNL A   1      36.343  23.088  23.523  1.00  0.00    -0.252 OA
BRANCH  75  77
ATOM     77  C   UNL A   1      34.349  21.972  24.301  1.00  0.00     0.107 C 
BRANCH  77  78
ATOM     78  C   UNL A   1      34.026  20.659  25.061  1.00  0.00     0.054 C 
BRANCH  78  79
ATOM     79  C   UNL A   1      33.976  19.309  24.372  1.00  0.00    -0.011 A 
ATOM     80  C   UNL A   1      34.911  18.306  24.651  1.00  0.00     0.007 A 
ATOM     81  C   UNL A   1      32.887  18.951  23.566  1.00  0.00     0.126 A 
ATOM     82  C   UNL A   1      34.715  16.987  24.220  1.00  0.00     0.000 A 
ATOM     83  C   UNL A   1      32.697  17.648  23.107  1.00  0.00     0.039 A 
ATOM     84  F   UNL A   1      31.949  19.853  23.259  1.00  0.00    -0.207 F 
ATOM     85  C   UNL A   1      33.601  16.655  23.457  1.00  0.00     0.003 A 
ENDBRANCH  78  79
ENDBRANCH  77  78
BRANCH  77  86
ATOM     86  C   UNL A   1      33.435  23.187  24.576  1.00  0.00     0.008 C 
ATOM     87  C   UNL A   1      33.829  23.914  25.876  1.00  0.00     0.033 C 
ATOM     88  C   UNL A   1      31.947  22.795  24.719  1.00  0.00     0.033 C 
ATOM     89  C   UNL A   1      32.894  25.088  26.138  1.00  0.00     0.160 C 
ATOM     90  C   UNL A   1      31.093  24.005  25.078  1.00  0.00     0.160 C 
ATOM     91  O   UNL A   1      31.563  24.598  26.283  1.00  0.00    -0.381 OA
ENDBRANCH  77  86
ENDBRANCH  75  77
ENDBRANCH  74  75
ENDBRANCH  73  74
ENDBRANCH  72  73
ENDBRANCH  71  72
ENDBRANCH  70  71
ENDBRANCH   1  70
TORSDOF 23
ENDMDL
MODEL 3
REMARK VINA RESULT:      -9.4      4.409     11.448
REMARK SMILES O=C(OCCOCCOCCOC(=O)[C@@H](Cc1ccccc1F)C1CCOCC1)c1ccc(-c2c3nc(c(-c4ccc(S(=O)(=O)[O-])cc4)c4ccc([nH]4)c(-c4ccc(S(=O)(=O)[O-])cc4)c4nc(c(-c5ccc(S(=O)(=O)[O-])cc5)c5ccc2[nH]5)C=C4)C=C3)cc1
REMARK SMILES IDX 7 1 6 2 5 3 4 4 3 5 2 6 1 7 30 8 31 9 89 10 32 11 88 12
REMARK SMILES IDX 33 13 34 14 35 15 82 16 36 17 87 18 81 19 83 20 37 21 86 22
REMARK SMILES IDX 80 23 79 24 38 26 68 27 49 28 67 29 50 30 53 31 66 32 84 33
REMARK SMILES IDX 51 34 52 35 65 37 85 38 54 39 39 40 40 41 48 42 41 43 47 44
REMARK SMILES IDX 42 45 43 46 44 47 45 48 46 49 69 50 70 51 78 52 71 53 77 54
REMARK SMILES IDX 72 55 73 56 74 57 75 58 76 59 55 60 56 61 64 62 57 63 63 64
REMARK SMILES IDX 58 65 59 66 60 67 61 68 62 69 8 70 9 71 10 72 11 73 12 74
REMARK SMILES IDX 13 75 14 76 15 77 16 78 17 79 18 80 22 81 19 82 21 83 23 84
REMARK SMILES IDX 20 85 24 86 25 87 29 88 26 89 28 90 27 91
REMARK H PARENT 83 25 53 36
REMARK Flexibility Score: inf
ROOT
ATOM      1  C   UNL A   1      43.141  18.860  25.658  1.00  0.00     0.188 C 
ENDROOT
BRANCH   1   2
ATOM      2  O   UNL A   1      41.813  19.316  25.386  1.00  0.00    -0.376 OA
BRANCH   2   3
ATOM      3  C   UNL A   1      41.252  20.124  26.416  1.00  0.00     0.202 C 
BRANCH   3   4
ATOM      4  C   UNL A   1      41.063  21.586  26.004  1.00  0.00     0.261 C 
BRANCH   4   5
ATOM      5  O   UNL A   1      39.986  22.229  26.706  1.00  0.00    -0.460 OA
BRANCH   5   6
ATOM      6  C   UNL A   1      39.594  23.528  26.676  1.00  0.00     0.338 C 
ATOM      7  O   UNL A   1      38.492  23.768  26.180  1.00  0.00    -0.246 OA
BRANCH   6   8
ATOM      8  C   UNL A   1      40.381  24.700  27.201  1.00  0.00     0.060 A 
ATOM      9  C   UNL A   1      41.180  24.723  28.346  1.00  0.00     0.016 A 
ATOM     10  C   UNL A   1      40.322  25.887  26.438  1.00  0.00     0.016 A 
ATOM     11  C   UNL A   1      41.846  25.886  28.744  1.00  0.00     0.010 A 
ATOM     12  C   UNL A   1      40.993  27.056  26.827  1.00  0.00     0.010 A 
ATOM     13  C   UNL A   1      41.737  27.064  28.004  1.00  0.00    -0.014 A 
BRANCH  13  14
ATOM     14  C   UNL A   1      42.229  28.310  28.632  1.00  0.00     0.031 A 
ATOM     15  C   UNL A   1      43.656  28.685  28.382  1.00  0.00     0.074 A 
ATOM     16  C   UNL A   1      41.405  29.137  29.296  1.00  0.00     0.049 A 
ATOM     17  N   UNL A   1      44.288  29.779  28.703  1.00  0.00    -0.248 NA
ATOM     18  C   UNL A   1      44.488  27.677  27.702  1.00  0.00     0.031 C 
ATOM     19  C   UNL A   1      40.018  28.836  29.624  1.00  0.00     0.029 A 
ATOM     20  N   UNL A   1      41.585  30.418  29.759  1.00  0.00    -0.354 N 
ATOM     21  C   UNL A   1      45.609  29.563  28.336  1.00  0.00     0.074 A 
ATOM     22  C   UNL A   1      45.676  28.258  27.717  1.00  0.00     0.031 C 
ATOM     23  C   UNL A   1      39.437  29.946  30.109  1.00  0.00     0.029 A 
ATOM     24  C   UNL A   1      40.412  31.023  30.159  1.00  0.00     0.049 A 
ATOM     25  H   UNL A   1      42.463  30.860  29.800  1.00  0.00     0.167 HD
ATOM     26  C   UNL A   1      46.677  30.360  28.562  1.00  0.00     0.031 A 
ATOM     27  C   UNL A   1      40.158  32.305  30.498  1.00  0.00     0.031 A 
ATOM     28  C   UNL A   1      46.584  31.625  29.238  1.00  0.00     0.049 A 
ATOM     29  C   UNL A   1      41.344  33.219  30.646  1.00  0.00     0.074 A 
ATOM     30  C   UNL A   1      47.601  32.482  29.616  1.00  0.00     0.029 A 
ATOM     31  N   UNL A   1      45.392  32.208  29.647  1.00  0.00    -0.354 N 
ATOM     32  N   UNL A   1      42.600  32.987  30.342  1.00  0.00    -0.248 NA
ATOM     33  C   UNL A   1      41.099  34.532  31.255  1.00  0.00     0.031 C 
ATOM     34  C   UNL A   1      47.025  33.558  30.301  1.00  0.00     0.029 A 
ATOM     35  C   UNL A   1      45.646  33.409  30.284  1.00  0.00     0.049 A 
ATOM     36  H   UNL A   1      44.497  31.824  29.506  1.00  0.00     0.167 HD
ATOM     37  C   UNL A   1      43.305  34.101  30.777  1.00  0.00     0.074 A 
ATOM     38  C   UNL A   1      42.324  35.041  31.287  1.00  0.00     0.031 C 
ATOM     39  C   UNL A   1      44.644  34.310  30.800  1.00  0.00     0.031 A 
BRANCH  26  40
ATOM     40  C   UNL A   1      48.025  29.794  28.208  1.00  0.00    -0.014 A 
ATOM     41  C   UNL A   1      48.616  28.754  28.949  1.00  0.00     0.010 A 
ATOM     42  C   UNL A   1      48.748  30.378  27.151  1.00  0.00     0.010 A 
ATOM     43  C   UNL A   1      49.926  28.352  28.676  1.00  0.00     0.020 A 
ATOM     44  C   UNL A   1      50.045  29.956  26.855  1.00  0.00     0.020 A 
ATOM     45  C   UNL A   1      50.636  28.962  27.636  1.00  0.00     0.054 A 
BRANCH  45  46
ATOM     46  S   UNL A   1      52.342  28.439  27.319  1.00  0.00     0.124 S 
ATOM     47  O   UNL A   1      52.383  28.418  25.858  1.00  0.00    -0.237 OA
ATOM     48  O   UNL A   1      53.123  29.498  27.953  1.00  0.00    -0.237 OA
ATOM     49  O   UNL A   1      52.431  27.131  27.964  1.00  0.00    -0.744 OA
ENDBRANCH  45  46
ENDBRANCH  26  40
BRANCH  27  50
ATOM     50  C   UNL A   1      38.765  32.801  30.736  1.00  0.00    -0.014 A 
ATOM     51  C   UNL A   1      38.240  32.849  32.044  1.00  0.00     0.010 A 
ATOM     52  C   UNL A   1      37.944  33.226  29.676  1.00  0.00     0.010 A 
ATOM     53  C   UNL A   1      36.938  33.307  32.282  1.00  0.00     0.020 A 
ATOM     54  C   UNL A   1      36.657  33.723  29.912  1.00  0.00     0.020 A 
ATOM     55  C   UNL A   1      36.156  33.751  31.213  1.00  0.00     0.054 A 
BRANCH  55  56
ATOM     56  S   UNL A   1      34.496  34.406  31.548  1.00  0.00     0.124 S 
ATOM     57  O   UNL A   1      33.834  33.257  32.159  1.00  0.00    -0.237 OA
ATOM     58  O   UNL A   1      34.776  35.527  32.441  1.00  0.00    -0.237 OA
ATOM     59  O   UNL A   1      34.007  34.779  30.224  1.00  0.00    -0.744 OA
ENDBRANCH  55  56
ENDBRANCH  27  50
BRANCH  39  60
ATOM     60  C   UNL A   1      45.121  35.597  31.411  1.00  0.00    -0.014 A 
ATOM     61  C   UNL A   1      45.210  36.773  30.644  1.00  0.00     0.010 A 
ATOM     62  C   UNL A   1      45.421  35.642  32.783  1.00  0.00     0.010 A 
ATOM     63  C   UNL A   1      45.618  37.968  31.236  1.00  0.00     0.020 A 
ATOM     64  C   UNL A   1      45.801  36.842  33.384  1.00  0.00     0.020 A 
ATOM     65  C   UNL A   1      45.910  37.995  32.604  1.00  0.00     0.054 A 
BRANCH  65  66
ATOM     66  S   UNL A   1      46.393  39.569  33.360  1.00  0.00     0.124 S 
ATOM     67  O   UNL A   1      47.213  39.125  34.484  1.00  0.00    -0.237 OA
ATOM     68  O   UNL A   1      47.115  40.235  32.278  1.00  0.00    -0.237 OA
ATOM     69  O   UNL A   1      45.119  40.184  33.723  1.00  0.00    -0.744 OA
ENDBRANCH  65  66
ENDBRANCH  39  60
ENDBRANCH  13  14
ENDBRANCH   6   8
ENDBRANCH   5   6
ENDBRANCH   4   5
ENDBRANCH   3   4
ENDBRANCH   2   3
ENDBRANCH   1   2
BRANCH   1  70
ATOM     70  C   UNL A   1      44.134  19.994  25.421  1.00  0.00     0.188 C 
BRANCH  70  71
ATOM     71  O   UNL A   1      44.555  20.131  24.061  1.00  0.00    -0.376 OA
BRANCH  71  72
ATOM     72  C   UNL A   1      44.917  21.444  23.626  1.00  0.00     0.202 C 
BRANCH  72  73
ATOM     73  C   UNL A   1      44.384  22.590  24.495  1.00  0.00     0.261 C 
BRANCH  73  74
ATOM     74  O   UNL A   1      45.148  23.790  24.322  1.00  0.00    -0.463 OA
BRANCH  74  75
ATOM     75  C   UNL A   1      44.902  24.788  25.199  1.00  0.00     0.309 C 
ATOM     76  O   UNL A   1      43.841  25.391  25.285  1.00  0.00    -0.252 OA
BRANCH  75  77
ATOM     77  C   UNL A   1      46.078  25.057  26.127  1.00  0.00     0.107 C 
BRANCH  77  78
ATOM     78  C   UNL A   1      46.215  24.010  27.263  1.00  0.00     0.054 C 
BRANCH  78  79
ATOM     79  C   UNL A   1      45.423  24.098  28.553  1.00  0.00    -0.011 A 
ATOM     80  C   UNL A   1      44.405  23.186  28.855  1.00  0.00     0.007 A 
ATOM     81  C   UNL A   1      45.800  24.983  29.572  1.00  0.00     0.126 A 
ATOM     82  C   UNL A   1      43.858  23.104  30.142  1.00  0.00     0.000 A 
ATOM     83  C   UNL A   1      45.242  24.930  30.849  1.00  0.00     0.039 A 
ATOM     84  F   UNL A   1      46.769  25.880  29.361  1.00  0.00    -0.207 F 
ATOM     85  C   UNL A   1      44.285  23.969  31.144  1.00  0.00     0.003 A 
ENDBRANCH  78  79
ENDBRANCH  77  78
BRANCH  77  86
ATOM     86  C   UNL A   1      47.361  25.419  25.346  1.00  0.00     0.008 C 
ATOM     87  C   UNL A   1      48.552  25.666  26.292  1.00  0.00     0.033 C 
ATOM     88  C   UNL A   1      47.201  26.694  24.489  1.00  0.00     0.033 C 
ATOM     89  C   UNL A   1      49.796  26.050  25.498  1.00  0.00     0.160 C 
ATOM     90  C   UNL A   1      48.512  27.067  23.808  1.00  0.00     0.160 C 
ATOM     91  O   UNL A   1      49.535  27.253  24.779  1.00  0.00    -0.381 OA
ENDBRANCH  77  86
ENDBRANCH  75  77
ENDBRANCH  74  75
ENDBRANCH  73  74
ENDBRANCH  72  73
ENDBRANCH  71  72
ENDBRANCH  70  71
ENDBRANCH   1  70
TORSDOF 23
ENDMDL
