MODEL 1
REMARK VINA RESULT:     -11.0      0.000      0.000
REMARK SMILES C[C@@H]1C(C(=O)OCCOCCOCCOC(=O)c2ccc(-c3c4nc(c(-c5ccc(S(=O)(=O)[O-])cc5)c5ccc([nH]5)c(-c5ccc(S(=O)(=O)[O-])cc5)c5nc(c(-c6ccc(S(=O)(=O)[O-])cc6)c6ccc3[nH]6)C=C5)C=C4)cc2)=NC2=C1C(=O)C[C@H](c1ccccc1)C2
REMARK SMILES IDX 11 1 10 2 9 3 8 4 7 5 6 6 4 7 5 8 3 9 1 10 2 11 80 12 78 13
REMARK SMILES IDX 79 14 81 15 91 16 82 17 83 18 84 19 85 20 86 21 90 22 87 23
REMARK SMILES IDX 89 24 88 25 12 26 13 27 14 28 15 29 16 30 17 31 18 32 19 33
REMARK SMILES IDX 77 34 20 35 76 36 21 37 22 38 23 39 70 40 24 41 75 42 69 43
REMARK SMILES IDX 71 44 25 45 74 46 68 47 67 48 26 50 56 51 37 52 55 53 38 54
REMARK SMILES IDX 41 55 54 56 72 57 39 58 40 59 53 61 73 62 42 63 27 64 28 65
REMARK SMILES IDX 36 66 29 67 35 68 30 69 31 70 32 71 33 72 34 73 57 74 58 75
REMARK SMILES IDX 66 76 59 77 65 78 60 79 61 80 62 81 63 82 64 83 43 84 44 85
REMARK SMILES IDX 52 86 45 87 51 88 46 89 47 90 48 91 49 92 50 93
REMARK H PARENT 71 49 41 60
REMARK Flexibility Score: inf
ROOT
ATOM      1  C   UNL A   1      36.011  22.625  24.696  1.00  0.00     0.188 C 
ENDROOT
BRANCH   1   2
ATOM      2  C   UNL A   1      35.003  21.592  25.140  1.00  0.00     0.188 C 
BRANCH   2   3
ATOM      3  O   UNL A   1      33.666  21.892  24.785  1.00  0.00    -0.376 OA
BRANCH   3   4
ATOM      4  C   UNL A   1      32.721  21.941  25.852  1.00  0.00     0.202 C 
BRANCH   4   5
ATOM      5  C   UNL A   1      32.715  23.087  26.904  1.00  0.00     0.261 C 
BRANCH   5   6
ATOM      6  O   UNL A   1      32.360  24.402  26.424  1.00  0.00    -0.459 OA
BRANCH   6   7
ATOM      7  C   UNL A   1      31.076  24.716  26.164  1.00  0.00     0.353 C 
ATOM      8  O   UNL A   1      30.155  24.690  26.957  1.00  0.00    -0.245 OA
BRANCH   7   9
ATOM      9  C   UNL A   1      30.993  25.321  24.747  1.00  0.00     0.133 C 
ATOM     10  C   UNL A   1      30.804  23.735  22.824  1.00  0.00     0.020 C 
ATOM     11  C   UNL A   1      31.729  24.685  23.574  1.00  0.00     0.078 C 
ATOM     12  C   UNL A   1      31.861  25.975  22.852  1.00  0.00     0.026 C 
ATOM     13  N   UNL A   1      30.399  26.460  24.487  1.00  0.00    -0.249 NA
ATOM     14  C   UNL A   1      30.974  26.863  23.299  1.00  0.00     0.049 C 
ATOM     15  C   UNL A   1      33.022  26.478  22.108  1.00  0.00     0.161 C 
ATOM     16  C   UNL A   1      31.032  28.289  22.841  1.00  0.00     0.065 C 
ATOM     17  O   UNL A   1      33.644  25.710  21.379  1.00  0.00    -0.294 OA
ATOM     18  C   UNL A   1      33.455  27.940  22.339  1.00  0.00     0.089 C 
ATOM     19  C   UNL A   1      32.449  28.826  23.150  1.00  0.00     0.033 C 
BRANCH  19  20
ATOM     20  C   UNL A   1      32.696  28.969  24.665  1.00  0.00    -0.044 A 
ATOM     21  C   UNL A   1      33.750  28.280  25.301  1.00  0.00     0.004 A 
ATOM     22  C   UNL A   1      31.878  29.749  25.489  1.00  0.00     0.004 A 
ATOM     23  C   UNL A   1      34.078  28.486  26.641  1.00  0.00     0.000 A 
ATOM     24  C   UNL A   1      32.194  29.947  26.842  1.00  0.00     0.000 A 
ATOM     25  C   UNL A   1      33.312  29.343  27.409  1.00  0.00     0.000 A 
ENDBRANCH  19  20
ENDBRANCH   7   9
ENDBRANCH   6   7
ENDBRANCH   5   6
ENDBRANCH   4   5
ENDBRANCH   3   4
ENDBRANCH   2   3
ENDBRANCH   1   2
BRANCH   1  26
ATOM     26  O   UNL A   1      37.269  22.504  25.352  1.00  0.00    -0.376 OA
BRANCH  26  27
ATOM     27  C   UNL A   1      37.859  21.212  25.344  1.00  0.00     0.202 C 
BRANCH  27  28
ATOM     28  C   UNL A   1      39.189  21.111  26.070  1.00  0.00     0.261 C 
BRANCH  28  29
ATOM     29  O   UNL A   1      40.017  22.254  25.903  1.00  0.00    -0.460 OA
BRANCH  29  30
ATOM     30  C   UNL A   1      41.323  22.014  26.167  1.00  0.00     0.338 C 
ATOM     31  O   UNL A   1      41.892  20.937  26.220  1.00  0.00    -0.246 OA
BRANCH  30  32
ATOM     32  C   UNL A   1      41.960  23.267  26.560  1.00  0.00     0.060 A 
ATOM     33  C   UNL A   1      42.514  23.321  27.841  1.00  0.00     0.016 A 
ATOM     34  C   UNL A   1      41.703  24.414  25.795  1.00  0.00     0.016 A 
ATOM     35  C   UNL A   1      42.626  24.550  28.441  1.00  0.00     0.010 A 
ATOM     36  C   UNL A   1      41.787  25.635  26.406  1.00  0.00     0.010 A 
ATOM     37  C   UNL A   1      42.168  25.671  27.743  1.00  0.00    -0.014 A 
BRANCH  37  38
ATOM     38  C   UNL A   1      42.132  26.927  28.447  1.00  0.00     0.031 A 
ATOM     39  C   UNL A   1      43.307  27.773  28.171  1.00  0.00     0.074 A 
ATOM     40  C   UNL A   1      41.078  27.279  29.203  1.00  0.00     0.049 A 
ATOM     41  N   UNL A   1      44.271  28.050  28.980  1.00  0.00    -0.248 NA
ATOM     42  C   UNL A   1      43.539  28.192  26.780  1.00  0.00     0.031 C 
ATOM     43  C   UNL A   1      39.771  26.620  29.297  1.00  0.00     0.029 A 
ATOM     44  N   UNL A   1      40.915  28.392  29.960  1.00  0.00    -0.354 N 
ATOM     45  C   UNL A   1      45.122  28.880  28.264  1.00  0.00     0.074 A 
ATOM     46  C   UNL A   1      44.743  28.753  26.880  1.00  0.00     0.031 C 
ATOM     47  C   UNL A   1      38.888  27.476  29.861  1.00  0.00     0.029 A 
ATOM     48  C   UNL A   1      39.595  28.680  30.273  1.00  0.00     0.049 A 
ATOM     49  H   UNL A   1      41.670  28.949  30.261  1.00  0.00     0.167 HD
ATOM     50  C   UNL A   1      45.881  29.818  28.892  1.00  0.00     0.031 A 
ATOM     51  C   UNL A   1      39.124  29.863  30.742  1.00  0.00     0.031 A 
ATOM     52  C   UNL A   1      45.952  29.578  30.311  1.00  0.00     0.049 A 
ATOM     53  C   UNL A   1      40.284  30.611  31.296  1.00  0.00     0.074 A 
ATOM     54  C   UNL A   1      46.405  28.535  31.093  1.00  0.00     0.029 A 
ATOM     55  N   UNL A   1      45.129  30.336  31.112  1.00  0.00    -0.354 N 
ATOM     56  N   UNL A   1      40.931  30.239  32.365  1.00  0.00    -0.248 NA
ATOM     57  C   UNL A   1      41.019  31.500  30.407  1.00  0.00     0.031 C 
ATOM     58  C   UNL A   1      45.489  28.464  32.182  1.00  0.00     0.029 A 
ATOM     59  C   UNL A   1      44.568  29.505  32.047  1.00  0.00     0.049 A 
ATOM     60  H   UNL A   1      44.971  31.304  31.029  1.00  0.00     0.167 HD
ATOM     61  C   UNL A   1      42.269  30.470  32.071  1.00  0.00     0.074 A 
ATOM     62  C   UNL A   1      42.253  31.341  30.898  1.00  0.00     0.031 C 
ATOM     63  C   UNL A   1      43.256  29.704  32.627  1.00  0.00     0.031 A 
BRANCH  50  64
ATOM     64  C   UNL A   1      46.174  31.168  28.292  1.00  0.00    -0.014 A 
ATOM     65  C   UNL A   1      45.137  32.121  28.244  1.00  0.00     0.010 A 
ATOM     66  C   UNL A   1      47.327  31.436  27.522  1.00  0.00     0.010 A 
ATOM     67  C   UNL A   1      45.219  33.237  27.404  1.00  0.00     0.020 A 
ATOM     68  C   UNL A   1      47.438  32.569  26.719  1.00  0.00     0.020 A 
ATOM     69  C   UNL A   1      46.365  33.444  26.635  1.00  0.00     0.054 A 
BRANCH  69  70
ATOM     70  S   UNL A   1      46.418  34.828  25.475  1.00  0.00     0.124 S 
ATOM     71  O   UNL A   1      47.801  34.773  25.009  1.00  0.00    -0.237 OA
ATOM     72  O   UNL A   1      45.402  34.449  24.498  1.00  0.00    -0.237 OA
ATOM     73  O   UNL A   1      46.080  35.982  26.305  1.00  0.00    -0.744 OA
ENDBRANCH  69  70
ENDBRANCH  50  64
BRANCH  51  74
ATOM     74  C   UNL A   1      37.820  30.507  30.437  1.00  0.00    -0.014 A 
ATOM     75  C   UNL A   1      37.093  31.178  31.439  1.00  0.00     0.010 A 
ATOM     76  C   UNL A   1      37.417  30.700  29.099  1.00  0.00     0.010 A 
ATOM     77  C   UNL A   1      36.052  32.063  31.107  1.00  0.00     0.020 A 
ATOM     78  C   UNL A   1      36.375  31.569  28.762  1.00  0.00     0.020 A 
ATOM     79  C   UNL A   1      35.714  32.270  29.766  1.00  0.00     0.054 A 
BRANCH  79  80
ATOM     80  S   UNL A   1      34.507  33.556  29.332  1.00  0.00     0.124 S 
ATOM     81  O   UNL A   1      33.644  32.866  28.378  1.00  0.00    -0.237 OA
ATOM     82  O   UNL A   1      33.900  33.872  30.621  1.00  0.00    -0.237 OA
ATOM     83  O   UNL A   1      35.330  34.622  28.763  1.00  0.00    -0.744 OA
ENDBRANCH  79  80
ENDBRANCH  51  74
BRANCH  63  84
ATOM     84  C   UNL A   1      42.907  28.826  33.806  1.00  0.00    -0.014 A 
ATOM     85  C   UNL A   1      42.946  29.252  35.149  1.00  0.00     0.010 A 
ATOM     86  C   UNL A   1      42.385  27.552  33.523  1.00  0.00     0.010 A 
ATOM     87  C   UNL A   1      42.515  28.403  36.182  1.00  0.00     0.020 A 
ATOM     88  C   UNL A   1      41.935  26.712  34.542  1.00  0.00     0.020 A 
ATOM     89  C   UNL A   1      42.017  27.135  35.868  1.00  0.00     0.054 A 
BRANCH  89  90
ATOM     90  S   UNL A   1      41.448  26.043  37.202  1.00  0.00     0.124 S 
ATOM     91  O   UNL A   1      42.593  26.026  38.107  1.00  0.00    -0.237 OA
ATOM     92  O   UNL A   1      40.260  26.731  37.701  1.00  0.00    -0.237 OA
ATOM     93  O   UNL A   1      41.178  24.776  36.523  1.00  0.00    -0.744 OA
ENDBRANCH  89  90
ENDBRANCH  63  84
ENDBRANCH  37  38
ENDBRANCH  30  32
ENDBRANCH  29  30
ENDBRANCH  28  29
ENDBRANCH  27  28
ENDBRANCH  26  27
ENDBRANCH   1  26
TORSDOF 21
ENDMDL
MODEL 2
REMARK VINA RESULT:     -10.9      2.361      9.350
REMARK SMILES C[C@@H]1C(C(=O)OCCOCCOCCOC(=O)c2ccc(-c3c4nc(c(-c5ccc(S(=O)(=O)[O-])cc5)c5ccc([nH]5)c(-c5ccc(S(=O)(=O)[O-])cc5)c5nc(c(-c6ccc(S(=O)(=O)[O-])cc6)c6ccc3[nH]6)C=C5)C=C4)cc2)=NC2=C1C(=O)C[C@H](c1ccccc1)C2
REMARK SMILES IDX 11 1 10 2 9 3 8 4 7 5 6 6 4 7 5 8 3 9 1 10 2 11 80 12 78 13
REMARK SMILES IDX 79 14 81 15 91 16 82 17 83 18 84 19 85 20 86 21 90 22 87 23
REMARK SMILES IDX 89 24 88 25 12 26 13 27 14 28 15 29 16 30 17 31 18 32 19 33
REMARK SMILES IDX 77 34 20 35 76 36 21 37 22 38 23 39 70 40 24 41 75 42 69 43
REMARK SMILES IDX 71 44 25 45 74 46 68 47 67 48 26 50 56 51 37 52 55 53 38 54
REMARK SMILES IDX 41 55 54 56 72 57 39 58 40 59 53 61 73 62 42 63 27 64 28 65
REMARK SMILES IDX 36 66 29 67 35 68 30 69 31 70 32 71 33 72 34 73 57 74 58 75
REMARK SMILES IDX 66 76 59 77 65 78 60 79 61 80 62 81 63 82 64 83 43 84 44 85
REMARK SMILES IDX 52 86 45 87 51 88 46 89 47 90 48 91 49 92 50 93
REMARK H PARENT 71 49 41 60
REMARK Flexibility Score: inf
ROOT
ATOM      1  C   UNL A   1      33.086  34.704  28.810  1.00  0.00     0.188 C 
ENDROOT
BRANCH   1   2
ATOM      2  C   UNL A   1      34.159  33.777  28.290  1.00  0.00     0.188 C 
BRANCH   2   3
ATOM      3  O   UNL A   1      34.023  32.434  28.712  1.00  0.00    -0.376 OA
BRANCH   3   4
ATOM      4  C   UNL A   1      34.266  31.431  27.727  1.00  0.00     0.202 C 
BRANCH   4   5
ATOM      5  C   UNL A   1      33.112  30.655  27.029  1.00  0.00     0.261 C 
BRANCH   5   6
ATOM      6  O   UNL A   1      33.449  29.956  25.811  1.00  0.00    -0.459 OA
BRANCH   6   7
ATOM      7  C   UNL A   1      33.447  28.609  25.768  1.00  0.00     0.353 C 
ATOM      8  O   UNL A   1      33.888  27.862  26.620  1.00  0.00    -0.245 OA
BRANCH   7   9
ATOM      9  C   UNL A   1      32.603  28.155  24.559  1.00  0.00     0.133 C 
ATOM     10  C   UNL A   1      30.576  29.504  23.993  1.00  0.00     0.020 C 
ATOM     11  C   UNL A   1      31.081  28.200  24.599  1.00  0.00     0.078 C 
ATOM     12  C   UNL A   1      30.942  27.080  23.634  1.00  0.00     0.026 C 
ATOM     13  N   UNL A   1      33.122  27.601  23.489  1.00  0.00    -0.249 NA
ATOM     14  C   UNL A   1      32.063  26.914  22.933  1.00  0.00     0.049 C 
ATOM     15  C   UNL A   1      29.986  25.967  23.675  1.00  0.00     0.161 C 
ATOM     16  C   UNL A   1      32.219  25.735  22.021  1.00  0.00     0.065 C 
ATOM     17  O   UNL A   1      28.817  26.194  23.978  1.00  0.00    -0.294 OA
ATOM     18  C   UNL A   1      30.516  24.543  23.409  1.00  0.00     0.089 C 
ATOM     19  C   UNL A   1      31.980  24.457  22.858  1.00  0.00     0.033 C 
BRANCH  19  20
ATOM     20  C   UNL A   1      33.107  24.217  23.882  1.00  0.00    -0.044 A 
ATOM     21  C   UNL A   1      34.427  23.943  23.466  1.00  0.00     0.004 A 
ATOM     22  C   UNL A   1      32.880  24.218  25.263  1.00  0.00     0.004 A 
ATOM     23  C   UNL A   1      35.490  23.848  24.363  1.00  0.00     0.000 A 
ATOM     24  C   UNL A   1      33.945  24.106  26.170  1.00  0.00     0.000 A 
ATOM     25  C   UNL A   1      35.253  23.955  25.720  1.00  0.00     0.000 A 
ENDBRANCH  19  20
ENDBRANCH   7   9
ENDBRANCH   6   7
ENDBRANCH   5   6
ENDBRANCH   4   5
ENDBRANCH   3   4
ENDBRANCH   2   3
ENDBRANCH   1   2
BRANCH   1  26
ATOM     26  O   UNL A   1      33.603  35.816  29.535  1.00  0.00    -0.376 OA
BRANCH  26  27
ATOM     27  C   UNL A   1      32.866  36.216  30.680  1.00  0.00     0.202 C 
BRANCH  27  28
ATOM     28  C   UNL A   1      33.432  35.738  32.005  1.00  0.00     0.261 C 
BRANCH  28  29
ATOM     29  O   UNL A   1      34.690  35.087  31.886  1.00  0.00    -0.460 OA
BRANCH  29  30
ATOM     30  C   UNL A   1      34.693  33.826  32.380  1.00  0.00     0.338 C 
ATOM     31  O   UNL A   1      34.139  33.414  33.384  1.00  0.00    -0.246 OA
BRANCH  30  32
ATOM     32  C   UNL A   1      35.625  33.019  31.600  1.00  0.00     0.060 A 
ATOM     33  C   UNL A   1      35.527  31.632  31.735  1.00  0.00     0.016 A 
ATOM     34  C   UNL A   1      36.743  33.649  31.036  1.00  0.00     0.016 A 
ATOM     35  C   UNL A   1      36.648  30.882  31.484  1.00  0.00     0.010 A 
ATOM     36  C   UNL A   1      37.869  32.903  30.816  1.00  0.00     0.010 A 
ATOM     37  C   UNL A   1      37.823  31.547  31.123  1.00  0.00    -0.014 A 
BRANCH  37  38
ATOM     38  C   UNL A   1      39.031  30.769  31.031  1.00  0.00     0.031 A 
ATOM     39  C   UNL A   1      39.728  30.639  32.324  1.00  0.00     0.074 A 
ATOM     40  C   UNL A   1      39.402  30.177  29.883  1.00  0.00     0.049 A 
ATOM     41  N   UNL A   1      40.841  31.192  32.665  1.00  0.00    -0.248 NA
ATOM     42  C   UNL A   1      39.008  29.985  33.428  1.00  0.00     0.031 C 
ATOM     43  C   UNL A   1      38.625  30.033  28.648  1.00  0.00     0.029 A 
ATOM     44  N   UNL A   1      40.524  29.461  29.625  1.00  0.00    -0.354 N 
ATOM     45  C   UNL A   1      41.080  30.761  33.963  1.00  0.00     0.074 A 
ATOM     46  C   UNL A   1      39.838  30.215  34.445  1.00  0.00     0.031 C 
ATOM     47  C   UNL A   1      39.195  29.075  27.880  1.00  0.00     0.029 A 
ATOM     48  C   UNL A   1      40.430  28.637  28.513  1.00  0.00     0.049 A 
ATOM     49  H   UNL A   1      41.336  29.521  30.180  1.00  0.00     0.167 HD
ATOM     50  C   UNL A   1      42.349  30.629  34.435  1.00  0.00     0.031 A 
ATOM     51  C   UNL A   1      41.262  27.610  28.207  1.00  0.00     0.031 A 
ATOM     52  C   UNL A   1      43.300  31.311  33.596  1.00  0.00     0.049 A 
ATOM     53  C   UNL A   1      42.519  27.815  28.977  1.00  0.00     0.074 A 
ATOM     54  C   UNL A   1      43.472  32.622  33.197  1.00  0.00     0.029 A 
ATOM     55  N   UNL A   1      44.014  30.538  32.709  1.00  0.00    -0.354 N 
ATOM     56  N   UNL A   1      43.347  28.794  28.745  1.00  0.00    -0.248 NA
ATOM     57  C   UNL A   1      42.620  27.222  30.303  1.00  0.00     0.031 C 
ATOM     58  C   UNL A   1      43.907  32.542  31.843  1.00  0.00     0.029 A 
ATOM     59  C   UNL A   1      44.044  31.194  31.506  1.00  0.00     0.049 A 
ATOM     60  H   UNL A   1      44.432  29.668  32.905  1.00  0.00     0.167 HD
ATOM     61  C   UNL A   1      43.750  29.227  30.003  1.00  0.00     0.074 A 
ATOM     62  C   UNL A   1      43.353  28.157  30.915  1.00  0.00     0.031 C 
ATOM     63  C   UNL A   1      44.104  30.530  30.221  1.00  0.00     0.031 A 
BRANCH  50  64
ATOM     64  C   UNL A   1      42.758  29.532  35.383  1.00  0.00    -0.014 A 
ATOM     65  C   UNL A   1      43.705  29.828  36.384  1.00  0.00     0.010 A 
ATOM     66  C   UNL A   1      42.473  28.169  35.154  1.00  0.00     0.010 A 
ATOM     67  C   UNL A   1      44.387  28.810  37.057  1.00  0.00     0.020 A 
ATOM     68  C   UNL A   1      43.114  27.147  35.853  1.00  0.00     0.020 A 
ATOM     69  C   UNL A   1      44.097  27.475  36.775  1.00  0.00     0.054 A 
BRANCH  69  70
ATOM     70  S   UNL A   1      45.058  26.169  37.571  1.00  0.00     0.124 S 
ATOM     71  O   UNL A   1      45.855  26.928  38.530  1.00  0.00    -0.237 OA
ATOM     72  O   UNL A   1      44.013  25.322  38.140  1.00  0.00    -0.237 OA
ATOM     73  O   UNL A   1      45.804  25.572  36.466  1.00  0.00    -0.744 OA
ENDBRANCH  69  70
ENDBRANCH  50  64
BRANCH  51  74
ATOM     74  C   UNL A   1      40.912  26.316  27.567  1.00  0.00    -0.014 A 
ATOM     75  C   UNL A   1      41.763  25.726  26.614  1.00  0.00     0.010 A 
ATOM     76  C   UNL A   1      39.871  25.522  28.092  1.00  0.00     0.010 A 
ATOM     77  C   UNL A   1      41.622  24.373  26.257  1.00  0.00     0.020 A 
ATOM     78  C   UNL A   1      39.717  24.178  27.733  1.00  0.00     0.020 A 
ATOM     79  C   UNL A   1      40.612  23.601  26.837  1.00  0.00     0.054 A 
BRANCH  79  80
ATOM     80  S   UNL A   1      40.556  21.812  26.524  1.00  0.00     0.124 S 
ATOM     81  O   UNL A   1      41.713  21.610  25.657  1.00  0.00    -0.237 OA
ATOM     82  O   UNL A   1      40.666  21.250  27.867  1.00  0.00    -0.237 OA
ATOM     83  O   UNL A   1      39.258  21.616  25.880  1.00  0.00    -0.744 OA
ENDBRANCH  79  80
ENDBRANCH  51  74
BRANCH  63  84
ATOM     84  C   UNL A   1      44.368  31.413  29.024  1.00  0.00    -0.014 A 
ATOM     85  C   UNL A   1      45.451  31.244  28.139  1.00  0.00     0.010 A 
ATOM     86  C   UNL A   1      43.392  32.375  28.710  1.00  0.00     0.010 A 
ATOM     87  C   UNL A   1      45.573  32.050  26.995  1.00  0.00     0.020 A 
ATOM     88  C   UNL A   1      43.495  33.164  27.564  1.00  0.00     0.020 A 
ATOM     89  C   UNL A   1      44.594  33.009  26.720  1.00  0.00     0.054 A 
BRANCH  89  90
ATOM     90  S   UNL A   1      44.745  34.041  25.234  1.00  0.00     0.124 S 
ATOM     91  O   UNL A   1      44.374  33.116  24.168  1.00  0.00    -0.237 OA
ATOM     92  O   UNL A   1      43.795  35.121  25.491  1.00  0.00    -0.237 OA
ATOM     93  O   UNL A   1      46.149  34.451  25.237  1.00  0.00    -0.744 OA
ENDBRANCH  89  90
ENDBRANCH  63  84
ENDBRANCH  37  38
ENDBRANCH  30  32
ENDBRANCH  29  30
ENDBRANCH  28  29
ENDBRANCH  27  28
ENDBRANCH  26  27
ENDBRANCH   1  26
TORSDOF 21
ENDMDL
MODEL 3
REMARK VINA RESULT:     -10.8      1.274      2.007
REMARK SMILES C[C@@H]1C(C(=O)OCCOCCOCCOC(=O)c2ccc(-c3c4nc(c(-c5ccc(S(=O)(=O)[O-])cc5)c5ccc([nH]5)c(-c5ccc(S(=O)(=O)[O-])cc5)c5nc(c(-c6ccc(S(=O)(=O)[O-])cc6)c6ccc3[nH]6)C=C5)C=C4)cc2)=NC2=C1C(=O)C[C@H](c1ccccc1)C2
REMARK SMILES IDX 11 1 10 2 9 3 8 4 7 5 6 6 4 7 5 8 3 9 1 10 2 11 80 12 78 13
REMARK SMILES IDX 79 14 81 15 91 16 82 17 83 18 84 19 85 20 86 21 90 22 87 23
REMARK SMILES IDX 89 24 88 25 12 26 13 27 14 28 15 29 16 30 17 31 18 32 19 33
REMARK SMILES IDX 77 34 20 35 76 36 21 37 22 38 23 39 70 40 24 41 75 42 69 43
REMARK SMILES IDX 71 44 25 45 74 46 68 47 67 48 26 50 56 51 37 52 55 53 38 54
REMARK SMILES IDX 41 55 54 56 72 57 39 58 40 59 53 61 73 62 42 63 27 64 28 65
REMARK SMILES IDX 36 66 29 67 35 68 30 69 31 70 32 71 33 72 34 73 57 74 58 75
REMARK SMILES IDX 66 76 59 77 65 78 60 79 61 80 62 81 63 82 64 83 43 84 44 85
REMARK SMILES IDX 52 86 45 87 51 88 46 89 47 90 48 91 49 92 50 93
REMARK H PARENT 71 49 41 60
REMARK Flexibility Score: inf
ROOT
ATOM      1  C   UNL A   1      39.054  21.511  26.106  1.00  0.00     0.188 C 
ENDROOT
BRANCH   1   2
ATOM      2  C   UNL A   1      38.407  20.646  25.052  1.00  0.00     0.188 C 
BRANCH   2   3
ATOM      3  O   UNL A   1      37.098  21.045  24.693  1.00  0.00    -0.376 OA
BRANCH   3   4
ATOM      4  C   UNL A   1      36.536  22.123  25.440  1.00  0.00     0.202 C 
BRANCH   4   5
ATOM      5  C   UNL A   1      36.610  23.598  24.952  1.00  0.00     0.261 C 
BRANCH   5   6
ATOM      6  O   UNL A   1      35.367  24.335  24.933  1.00  0.00    -0.459 OA
BRANCH   6   7
ATOM      7  C   UNL A   1      34.291  23.884  25.606  1.00  0.00     0.353 C 
ATOM      8  O   UNL A   1      34.269  23.517  26.766  1.00  0.00    -0.245 OA
BRANCH   7   9
ATOM      9  C   UNL A   1      33.036  24.106  24.736  1.00  0.00     0.133 C 
ATOM     10  C   UNL A   1      32.725  22.612  22.756  1.00  0.00     0.020 C 
ATOM     11  C   UNL A   1      33.104  24.013  23.217  1.00  0.00     0.078 C 
ATOM     12  C   UNL A   1      31.973  24.957  23.028  1.00  0.00     0.026 C 
ATOM     13  N   UNL A   1      31.884  24.498  25.225  1.00  0.00    -0.249 NA
ATOM     14  C   UNL A   1      31.239  25.047  24.136  1.00  0.00     0.049 C 
ATOM     15  C   UNL A   1      31.848  26.027  22.031  1.00  0.00     0.161 C 
ATOM     16  C   UNL A   1      30.147  26.068  24.240  1.00  0.00     0.065 C 
ATOM     17  O   UNL A   1      32.200  25.811  20.875  1.00  0.00    -0.294 OA
ATOM     18  C   UNL A   1      31.348  27.407  22.505  1.00  0.00     0.089 C 
ATOM     19  C   UNL A   1      30.769  27.455  23.961  1.00  0.00     0.033 C 
BRANCH  19  20
ATOM     20  C   UNL A   1      31.725  27.898  25.086  1.00  0.00    -0.044 A 
ATOM     21  C   UNL A   1      31.305  27.925  26.433  1.00  0.00     0.004 A 
ATOM     22  C   UNL A   1      33.032  28.329  24.835  1.00  0.00     0.004 A 
ATOM     23  C   UNL A   1      32.180  28.197  27.484  1.00  0.00     0.000 A 
ATOM     24  C   UNL A   1      33.912  28.620  25.889  1.00  0.00     0.000 A 
ATOM     25  C   UNL A   1      33.496  28.522  27.213  1.00  0.00     0.000 A 
ENDBRANCH  19  20
ENDBRANCH   7   9
ENDBRANCH   6   7
ENDBRANCH   5   6
ENDBRANCH   4   5
ENDBRANCH   3   4
ENDBRANCH   2   3
ENDBRANCH   1   2
BRANCH   1  26
ATOM     26  O   UNL A   1      40.045  20.827  26.867  1.00  0.00    -0.376 OA
BRANCH  26  27
ATOM     27  C   UNL A   1      40.629  19.686  26.256  1.00  0.00     0.202 C 
BRANCH  27  28
ATOM     28  C   UNL A   1      42.147  19.658  26.271  1.00  0.00     0.261 C 
BRANCH  28  29
ATOM     29  O   UNL A   1      42.743  20.451  25.253  1.00  0.00    -0.460 OA
BRANCH  29  30
ATOM     30  C   UNL A   1      43.635  21.352  25.727  1.00  0.00     0.338 C 
ATOM     31  O   UNL A   1      44.852  21.286  25.703  1.00  0.00    -0.246 OA
BRANCH  30  32
ATOM     32  C   UNL A   1      42.911  22.392  26.451  1.00  0.00     0.060 A 
ATOM     33  C   UNL A   1      42.291  23.382  25.685  1.00  0.00     0.016 A 
ATOM     34  C   UNL A   1      43.142  22.530  27.827  1.00  0.00     0.016 A 
ATOM     35  C   UNL A   1      42.081  24.607  26.268  1.00  0.00     0.010 A 
ATOM     36  C   UNL A   1      42.961  23.761  28.397  1.00  0.00     0.010 A 
ATOM     37  C   UNL A   1      42.511  24.796  27.584  1.00  0.00    -0.014 A 
BRANCH  37  38
ATOM     38  C   UNL A   1      42.444  26.130  28.124  1.00  0.00     0.031 A 
ATOM     39  C   UNL A   1      43.586  26.970  27.722  1.00  0.00     0.074 A 
ATOM     40  C   UNL A   1      41.390  26.543  28.849  1.00  0.00     0.049 A 
ATOM     41  N   UNL A   1      44.552  27.377  28.471  1.00  0.00    -0.248 NA
ATOM     42  C   UNL A   1      43.784  27.215  26.284  1.00  0.00     0.031 C 
ATOM     43  C   UNL A   1      40.107  25.861  29.050  1.00  0.00     0.029 A 
ATOM     44  N   UNL A   1      41.202  27.737  29.461  1.00  0.00    -0.354 N 
ATOM     45  C   UNL A   1      45.365  28.134  27.639  1.00  0.00     0.074 A 
ATOM     46  C   UNL A   1      44.970  27.821  26.290  1.00  0.00     0.031 C 
ATOM     47  C   UNL A   1      39.205  26.754  29.518  1.00  0.00     0.029 A 
ATOM     48  C   UNL A   1      39.877  28.021  29.760  1.00  0.00     0.049 A 
ATOM     49  H   UNL A   1      41.942  28.351  29.676  1.00  0.00     0.167 HD
ATOM     50  C   UNL A   1      46.101  29.168  28.130  1.00  0.00     0.031 A 
ATOM     51  C   UNL A   1      39.374  29.239  30.085  1.00  0.00     0.031 A 
ATOM     52  C   UNL A   1      46.201  29.113  29.565  1.00  0.00     0.049 A 
ATOM     53  C   UNL A   1      40.517  30.088  30.518  1.00  0.00     0.074 A 
ATOM     54  C   UNL A   1      46.700  28.192  30.465  1.00  0.00     0.029 A 
ATOM     55  N   UNL A   1      45.365  29.940  30.279  1.00  0.00    -0.354 N 
ATOM     56  N   UNL A   1      41.192  29.874  31.612  1.00  0.00    -0.248 NA
ATOM     57  C   UNL A   1      41.210  30.878  29.510  1.00  0.00     0.031 C 
ATOM     58  C   UNL A   1      45.802  28.232  31.571  1.00  0.00     0.029 A 
ATOM     59  C   UNL A   1      44.846  29.219  31.322  1.00  0.00     0.049 A 
ATOM     60  H   UNL A   1      45.174  30.885  30.077  1.00  0.00     0.167 HD
ATOM     61  C   UNL A   1      42.517  30.107  31.267  1.00  0.00     0.074 A 
ATOM     62  C   UNL A   1      42.455  30.822  29.994  1.00  0.00     0.031 C 
ATOM     63  C   UNL A   1      43.537  29.449  31.897  1.00  0.00     0.031 A 
BRANCH  50  64
ATOM     64  C   UNL A   1      46.342  30.439  27.357  1.00  0.00    -0.014 A 
ATOM     65  C   UNL A   1      47.644  30.976  27.339  1.00  0.00     0.010 A 
ATOM     66  C   UNL A   1      45.299  31.270  26.896  1.00  0.00     0.010 A 
ATOM     67  C   UNL A   1      47.874  32.303  26.958  1.00  0.00     0.020 A 
ATOM     68  C   UNL A   1      45.524  32.578  26.470  1.00  0.00     0.020 A 
ATOM     69  C   UNL A   1      46.807  33.099  26.541  1.00  0.00     0.054 A 
BRANCH  69  70
ATOM     70  S   UNL A   1      47.096  34.840  26.154  1.00  0.00     0.124 S 
ATOM     71  O   UNL A   1      48.544  34.868  25.970  1.00  0.00    -0.237 OA
ATOM     72  O   UNL A   1      46.297  35.023  24.946  1.00  0.00    -0.237 OA
ATOM     73  O   UNL A   1      46.599  35.540  27.336  1.00  0.00    -0.744 OA
ENDBRANCH  69  70
ENDBRANCH  50  64
BRANCH  51  74
ATOM     74  C   UNL A   1      38.046  29.799  29.725  1.00  0.00    -0.014 A 
ATOM     75  C   UNL A   1      37.257  30.462  30.683  1.00  0.00     0.010 A 
ATOM     76  C   UNL A   1      37.669  29.923  28.371  1.00  0.00     0.010 A 
ATOM     77  C   UNL A   1      36.177  31.276  30.295  1.00  0.00     0.020 A 
ATOM     78  C   UNL A   1      36.590  30.721  27.977  1.00  0.00     0.020 A 
ATOM     79  C   UNL A   1      35.865  31.418  28.940  1.00  0.00     0.054 A 
BRANCH  79  80
ATOM     80  S   UNL A   1      34.601  32.619  28.430  1.00  0.00     0.124 S 
ATOM     81  O   UNL A   1      34.130  33.139  29.711  1.00  0.00    -0.237 OA
ATOM     82  O   UNL A   1      35.363  33.555  27.610  1.00  0.00    -0.237 OA
ATOM     83  O   UNL A   1      33.630  31.807  27.697  1.00  0.00    -0.744 OA
ENDBRANCH  79  80
ENDBRANCH  51  74
BRANCH  63  84
ATOM     84  C   UNL A   1      43.234  28.718  33.184  1.00  0.00    -0.014 A 
ATOM     85  C   UNL A   1      43.234  29.322  34.456  1.00  0.00     0.010 A 
ATOM     86  C   UNL A   1      42.797  27.386  33.076  1.00  0.00     0.010 A 
ATOM     87  C   UNL A   1      42.849  28.596  35.595  1.00  0.00     0.020 A 
ATOM     88  C   UNL A   1      42.393  26.664  34.200  1.00  0.00     0.020 A 
ATOM     89  C   UNL A   1      42.436  27.267  35.456  1.00  0.00     0.054 A 
BRANCH  89  90
ATOM     90  S   UNL A   1      41.925  26.331  36.925  1.00  0.00     0.124 S 
ATOM     91  O   UNL A   1      43.039  26.553  37.843  1.00  0.00    -0.237 OA
ATOM     92  O   UNL A   1      40.665  26.970  37.296  1.00  0.00    -0.237 OA
ATOM     93  O   UNL A   1      41.793  24.959  36.435  1.00  0.00    -0.744 OA
ENDBRANCH  89  90
ENDBRANCH  63  84
ENDBRANCH  37  38
ENDBRANCH  30  32
ENDBRANCH  29  30
ENDBRANCH  28  29
ENDBRANCH  27  28
ENDBRANCH  26  27
ENDBRANCH   1  26
TORSDOF 21
ENDMDL
