MODEL 1
REMARK VINA RESULT:     -14.2      0.000      0.000
REMARK SMILES Cc1cccc(OCC(=O)Nc2cc(C(=O)OCCOCCOCCOC(=O)c3ccc(-c4c5nc(c(-c6ccc(S(=O)(=O)[O-])cc6)c6ccc([nH]6)c(-c6ccc(S(=O)(=O)[O-])cc6)c6nc(c(-c7ccc(S(=O)(=O)[O-])cc7)c7ccc4[nH]7)C=C6)C=C5)cc3)c(Cl)cc2Cl)c1
REMARK SMILES IDX 21 1 20 2 19 3 18 4 17 5 15 6 16 7 14 8 12 9 13 10 92 11
REMARK SMILES IDX 91 12 93 13 89 14 90 15 11 16 9 17 10 18 8 20 7 21 6 22 1 23
REMARK SMILES IDX 2 24 3 25 94 26 4 27 5 28 22 29 23 30 24 31 25 32 26 33
REMARK SMILES IDX 27 34 28 35 29 36 30 37 88 38 31 39 87 40 32 41 33 42 34 43
REMARK SMILES IDX 81 44 35 45 86 46 80 47 82 48 36 49 85 50 79 51 78 52 37 54
REMARK SMILES IDX 67 55 48 56 66 57 49 58 52 59 65 60 83 61 50 62 51 63 64 65
REMARK SMILES IDX 84 66 53 67 38 68 39 69 47 70 40 71 46 72 41 73 42 74 43 75
REMARK SMILES IDX 44 76 45 77 68 78 69 79 77 80 70 81 76 82 71 83 72 84 73 85
REMARK SMILES IDX 74 86 75 87 54 88 55 89 63 90 56 91 62 92 57 93 58 94 59 95
REMARK SMILES IDX 60 96 61 97
REMARK H PARENT 11 19 82 53 52 64
REMARK Flexibility Score: inf
ROOT
ATOM      1  C   UNL A   1      32.199  26.987  26.534  1.00  0.00     0.188 C 
ENDROOT
BRANCH   1   2
ATOM      2  O   UNL A   1      31.015  26.194  26.669  1.00  0.00    -0.376 OA
BRANCH   2   3
ATOM      3  C   UNL A   1      30.152  26.072  25.543  1.00  0.00     0.202 C 
BRANCH   3   4
ATOM      4  C   UNL A   1      30.394  26.790  24.163  1.00  0.00     0.261 C 
BRANCH   4   5
ATOM      5  O   UNL A   1      31.709  26.824  23.342  1.00  0.00    -0.460 OA
BRANCH   5   6
ATOM      6  C   UNL A   1      33.016  26.394  22.961  1.00  0.00     0.339 C 
ATOM      7  O   UNL A   1      33.618  27.028  22.092  1.00  0.00    -0.246 OA
BRANCH   6   8
ATOM      8  C   UNL A   1      33.759  24.704  23.456  1.00  0.00     0.080 A 
ATOM      9  C   UNL A   1      34.639  23.867  25.479  1.00  0.00     0.061 A 
ATOM     10  C   UNL A   1      34.594  24.896  24.536  1.00  0.00     0.045 A 
ATOM     11  C   UNL A   1      35.002  22.602  25.050  1.00  0.00     0.066 A 
ATOM     12  C   UNL A   1      34.495  22.236  23.847  1.00  0.00     0.044 A 
ATOM     13  Cl  UNL A   1      35.548  21.381  26.132  1.00  0.00    -0.082 Cl
ATOM     14  C   UNL A   1      33.685  23.184  23.182  1.00  0.00     0.057 A 
ATOM     15  Cl  UNL A   1      32.548  22.065  22.339  1.00  0.00    -0.083 Cl
BRANCH   9  16
ATOM     16  N   UNL A   1      33.619  23.813  26.484  1.00  0.00    -0.322 N 
ATOM     17  C   UNL A   1      32.492  23.007  26.687  1.00  0.00     0.262 C 
ATOM     18  O   UNL A   1      32.084  23.051  27.865  1.00  0.00    -0.271 OA
ATOM     19  H   UNL A   1      33.737  24.492  27.187  1.00  0.00     0.170 HD
BRANCH  17  20
ATOM     20  C   UNL A   1      31.491  22.008  25.478  1.00  0.00     0.329 C 
BRANCH  20  21
ATOM     21  O   UNL A   1      31.797  19.955  25.030  1.00  0.00    -0.484 OA
BRANCH  21  22
ATOM     22  C   UNL A   1      32.986  18.993  24.345  1.00  0.00     0.120 A 
ATOM     23  C   UNL A   1      35.358  16.074  25.374  1.00  0.00     0.044 C 
ATOM     24  C   UNL A   1      34.417  16.930  24.566  1.00  0.00    -0.047 A 
ATOM     25  C   UNL A   1      33.909  16.472  23.360  1.00  0.00     0.003 A 
ATOM     26  C   UNL A   1      33.975  18.188  25.038  1.00  0.00     0.049 A 
ATOM     27  C   UNL A   1      33.103  17.325  22.591  1.00  0.00     0.004 A 
ATOM     28  C   UNL A   1      32.710  18.617  23.047  1.00  0.00     0.046 A 
ENDBRANCH  21  22
ENDBRANCH  20  21
ENDBRANCH  17  20
ENDBRANCH   9  16
ENDBRANCH   6   8
ENDBRANCH   5   6
ENDBRANCH   4   5
ENDBRANCH   3   4
ENDBRANCH   2   3
ENDBRANCH   1   2
BRANCH   1  29
ATOM     29  C   UNL A   1      32.277  28.304  27.246  1.00  0.00     0.188 C 
BRANCH  29  30
ATOM     30  O   UNL A   1      31.700  29.304  26.413  1.00  0.00    -0.376 OA
BRANCH  30  31
ATOM     31  C   UNL A   1      32.151  30.618  26.661  1.00  0.00     0.202 C 
BRANCH  31  32
ATOM     32  C   UNL A   1      33.513  30.700  27.384  1.00  0.00     0.261 C 
BRANCH  32  33
ATOM     33  O   UNL A   1      33.966  31.989  27.916  1.00  0.00    -0.460 OA
BRANCH  33  34
ATOM     34  C   UNL A   1      35.269  32.315  28.300  1.00  0.00     0.338 C 
ATOM     35  O   UNL A   1      35.560  33.458  28.624  1.00  0.00    -0.246 OA
BRANCH  34  36
ATOM     36  C   UNL A   1      36.064  31.139  28.742  1.00  0.00     0.060 A 
ATOM     37  C   UNL A   1      36.145  30.282  29.849  1.00  0.00     0.016 A 
ATOM     38  C   UNL A   1      36.667  30.614  27.683  1.00  0.00     0.016 A 
ATOM     39  C   UNL A   1      37.238  29.283  30.030  1.00  0.00     0.010 A 
ATOM     40  C   UNL A   1      37.631  29.666  27.898  1.00  0.00     0.010 A 
ATOM     41  C   UNL A   1      38.208  29.052  29.055  1.00  0.00    -0.014 A 
BRANCH  41  42
ATOM     42  C   UNL A   1      39.715  28.044  29.115  1.00  0.00     0.031 A 
ATOM     43  C   UNL A   1      40.040  26.308  28.458  1.00  0.00     0.074 A 
ATOM     44  C   UNL A   1      40.834  28.729  29.497  1.00  0.00     0.049 A 
ATOM     45  N   UNL A   1      41.473  25.684  28.754  1.00  0.00    -0.248 NA
ATOM     46  C   UNL A   1      38.954  24.817  27.514  1.00  0.00     0.031 C 
ATOM     47  C   UNL A   1      42.249  28.374  29.381  1.00  0.00     0.029 A 
ATOM     48  N   UNL A   1      40.901  30.001  30.078  1.00  0.00    -0.354 N 
ATOM     49  C   UNL A   1      41.744  24.056  28.032  1.00  0.00     0.074 A 
ATOM     50  C   UNL A   1      40.049  23.485  27.324  1.00  0.00     0.031 C 
ATOM     51  C   UNL A   1      42.998  29.251  30.076  1.00  0.00     0.029 A 
ATOM     52  C   UNL A   1      42.080  30.093  30.816  1.00  0.00     0.049 A 
ATOM     53  H   UNL A   1      40.227  30.713  29.980  1.00  0.00     0.167 HD
ATOM     54  C   UNL A   1      43.024  23.618  27.995  1.00  0.00     0.031 A 
ATOM     55  C   UNL A   1      42.021  30.281  32.160  1.00  0.00     0.031 A 
ATOM     56  C   UNL A   1      43.833  24.465  28.880  1.00  0.00     0.049 A 
ATOM     57  C   UNL A   1      42.601  29.040  32.807  1.00  0.00     0.074 A 
ATOM     58  C   UNL A   1      44.748  25.482  28.666  1.00  0.00     0.029 A 
ATOM     59  N   UNL A   1      43.476  24.573  30.237  1.00  0.00    -0.354 N 
ATOM     60  N   UNL A   1      42.658  27.878  32.194  1.00  0.00    -0.248 NA
ATOM     61  C   UNL A   1      43.335  29.033  34.065  1.00  0.00     0.031 C 
ATOM     62  C   UNL A   1      44.899  26.215  29.889  1.00  0.00     0.029 A 
ATOM     63  C   UNL A   1      44.090  25.651  30.869  1.00  0.00     0.049 A 
ATOM     64  H   UNL A   1      42.858  23.954  30.691  1.00  0.00     0.167 HD
ATOM     65  C   UNL A   1      43.539  27.055  32.830  1.00  0.00     0.074 A 
ATOM     66  C   UNL A   1      43.890  27.805  34.035  1.00  0.00     0.031 C 
ATOM     67  C   UNL A   1      43.985  25.857  32.332  1.00  0.00     0.031 A 
BRANCH  54  68
ATOM     68  C   UNL A   1      43.474  22.611  26.967  1.00  0.00    -0.014 A 
ATOM     69  C   UNL A   1      42.729  21.448  26.710  1.00  0.00     0.010 A 
ATOM     70  C   UNL A   1      44.693  22.715  26.266  1.00  0.00     0.010 A 
ATOM     71  C   UNL A   1      43.194  20.447  25.828  1.00  0.00     0.020 A 
ATOM     72  C   UNL A   1      45.192  21.717  25.419  1.00  0.00     0.020 A 
ATOM     73  C   UNL A   1      44.430  20.585  25.192  1.00  0.00     0.054 A 
BRANCH  73  74
ATOM     74  S   UNL A   1      45.024  19.308  24.050  1.00  0.00     0.124 S 
ATOM     75  O   UNL A   1      44.528  19.773  22.758  1.00  0.00    -0.237 OA
ATOM     76  O   UNL A   1      46.471  19.379  24.233  1.00  0.00    -0.237 OA
ATOM     77  O   UNL A   1      44.400  18.080  24.540  1.00  0.00    -0.744 OA
ENDBRANCH  73  74
ENDBRANCH  54  68
BRANCH  55  78
ATOM     78  C   UNL A   1      40.939  31.268  32.532  1.00  0.00    -0.014 A 
ATOM     79  C   UNL A   1      39.667  30.697  32.823  1.00  0.00     0.010 A 
ATOM     80  C   UNL A   1      41.194  32.540  33.074  1.00  0.00     0.010 A 
ATOM     81  C   UNL A   1      38.788  31.264  33.763  1.00  0.00     0.020 A 
ATOM     82  C   UNL A   1      40.281  33.141  33.987  1.00  0.00     0.020 A 
ATOM     83  C   UNL A   1      39.122  32.462  34.383  1.00  0.00     0.054 A 
BRANCH  83  84
ATOM     84  S   UNL A   1      38.107  32.978  35.817  1.00  0.00     0.124 S 
ATOM     85  O   UNL A   1      39.078  33.644  36.676  1.00  0.00    -0.237 OA
ATOM     86  O   UNL A   1      37.113  33.856  35.195  1.00  0.00    -0.237 OA
ATOM     87  O   UNL A   1      37.583  31.728  36.352  1.00  0.00    -0.744 OA
ENDBRANCH  83  84
ENDBRANCH  55  78
BRANCH  67  88
ATOM     88  C   UNL A   1      44.484  24.760  33.247  1.00  0.00    -0.014 A 
ATOM     89  C   UNL A   1      43.726  23.621  33.566  1.00  0.00     0.010 A 
ATOM     90  C   UNL A   1      45.829  24.771  33.683  1.00  0.00     0.010 A 
ATOM     91  C   UNL A   1      44.248  22.593  34.350  1.00  0.00     0.020 A 
ATOM     92  C   UNL A   1      46.388  23.709  34.393  1.00  0.00     0.020 A 
ATOM     93  C   UNL A   1      45.579  22.640  34.752  1.00  0.00     0.054 A 
BRANCH  93  94
ATOM     94  S   UNL A   1      46.246  21.266  35.710  1.00  0.00     0.124 S 
ATOM     95  O   UNL A   1      45.760  20.115  34.953  1.00  0.00    -0.237 OA
ATOM     96  O   UNL A   1      47.687  21.498  35.642  1.00  0.00    -0.237 OA
ATOM     97  O   UNL A   1      45.653  21.445  37.032  1.00  0.00    -0.744 OA
ENDBRANCH  93  94
ENDBRANCH  67  88
ENDBRANCH  41  42
ENDBRANCH  34  36
ENDBRANCH  33  34
ENDBRANCH  32  33
ENDBRANCH  31  32
ENDBRANCH  30  31
ENDBRANCH  29  30
ENDBRANCH   1  29
TORSDOF 24
ENDMDL
MODEL 2
REMARK VINA RESULT:     -12.7      2.701      3.325
REMARK SMILES Cc1cccc(OCC(=O)Nc2cc(C(=O)OCCOCCOCCOC(=O)c3ccc(-c4c5nc(c(-c6ccc(S(=O)(=O)[O-])cc6)c6ccc([nH]6)c(-c6ccc(S(=O)(=O)[O-])cc6)c6nc(c(-c7ccc(S(=O)(=O)[O-])cc7)c7ccc4[nH]7)C=C6)C=C5)cc3)c(Cl)cc2Cl)c1
REMARK SMILES IDX 21 1 20 2 19 3 18 4 17 5 15 6 16 7 14 8 12 9 13 10 92 11
REMARK SMILES IDX 91 12 93 13 89 14 90 15 11 16 9 17 10 18 8 20 7 21 6 22 1 23
REMARK SMILES IDX 2 24 3 25 94 26 4 27 5 28 22 29 23 30 24 31 25 32 26 33
REMARK SMILES IDX 27 34 28 35 29 36 30 37 88 38 31 39 87 40 32 41 33 42 34 43
REMARK SMILES IDX 81 44 35 45 86 46 80 47 82 48 36 49 85 50 79 51 78 52 37 54
REMARK SMILES IDX 67 55 48 56 66 57 49 58 52 59 65 60 83 61 50 62 51 63 64 65
REMARK SMILES IDX 84 66 53 67 38 68 39 69 47 70 40 71 46 72 41 73 42 74 43 75
REMARK SMILES IDX 44 76 45 77 68 78 69 79 77 80 70 81 76 82 71 83 72 84 73 85
REMARK SMILES IDX 74 86 75 87 54 88 55 89 63 90 56 91 62 92 57 93 58 94 59 95
REMARK SMILES IDX 60 96 61 97
REMARK H PARENT 11 19 82 53 52 64
REMARK Flexibility Score: inf
ROOT
ATOM      1  C   UNL A   1      32.337  28.162  26.382  1.00  0.00     0.188 C 
ENDROOT
BRANCH   1   2
ATOM      2  O   UNL A   1      31.340  27.135  26.384  1.00  0.00    -0.376 OA
BRANCH   2   3
ATOM      3  C   UNL A   1      30.561  26.947  25.207  1.00  0.00     0.202 C 
BRANCH   3   4
ATOM      4  C   UNL A   1      30.926  27.551  23.801  1.00  0.00     0.261 C 
BRANCH   4   5
ATOM      5  O   UNL A   1      32.199  27.268  22.960  1.00  0.00    -0.460 OA
BRANCH   5   6
ATOM      6  C   UNL A   1      33.336  26.518  22.537  1.00  0.00     0.339 C 
ATOM      7  O   UNL A   1      33.884  26.822  21.475  1.00  0.00    -0.246 OA
BRANCH   6   8
ATOM      8  C   UNL A   1      33.865  24.859  23.326  1.00  0.00     0.080 A 
ATOM      9  C   UNL A   1      34.252  24.194  25.557  1.00  0.00     0.061 A 
ATOM     10  C   UNL A   1      34.463  25.126  24.539  1.00  0.00     0.045 A 
ATOM     11  C   UNL A   1      34.626  22.881  25.329  1.00  0.00     0.066 A 
ATOM     12  C   UNL A   1      34.364  22.417  24.082  1.00  0.00     0.044 A 
ATOM     13  Cl  UNL A   1      34.864  21.754  26.606  1.00  0.00    -0.082 Cl
ATOM     14  C   UNL A   1      33.765  23.324  23.178  1.00  0.00     0.057 A 
ATOM     15  Cl  UNL A   1      32.770  22.169  22.214  1.00  0.00    -0.083 Cl
BRANCH   9  16
ATOM     16  N   UNL A   1      33.042  24.275  26.320  1.00  0.00    -0.322 N 
ATOM     17  C   UNL A   1      31.911  23.458  26.447  1.00  0.00     0.262 C 
ATOM     18  O   UNL A   1      31.262  23.705  27.482  1.00  0.00    -0.271 OA
ATOM     19  H   UNL A   1      32.996  25.084  26.881  1.00  0.00     0.170 HD
BRANCH  17  20
ATOM     20  C   UNL A   1      31.209  22.186  25.285  1.00  0.00     0.329 C 
BRANCH  20  21
ATOM     21  O   UNL A   1      31.777  20.141  25.212  1.00  0.00    -0.484 OA
BRANCH  21  22
ATOM     22  C   UNL A   1      32.901  19.188  24.414  1.00  0.00     0.120 A 
ATOM     23  C   UNL A   1      35.233  16.151  25.154  1.00  0.00     0.044 C 
ATOM     24  C   UNL A   1      34.278  17.077  24.446  1.00  0.00    -0.047 A 
ATOM     25  C   UNL A   1      33.696  16.702  23.244  1.00  0.00     0.003 A 
ATOM     26  C   UNL A   1      33.898  18.317  25.009  1.00  0.00     0.049 A 
ATOM     27  C   UNL A   1      32.879  17.619  22.566  1.00  0.00     0.004 A 
ATOM     28  C   UNL A   1      32.549  18.893  23.113  1.00  0.00     0.046 A 
ENDBRANCH  21  22
ENDBRANCH  20  21
ENDBRANCH  17  20
ENDBRANCH   9  16
ENDBRANCH   6   8
ENDBRANCH   5   6
ENDBRANCH   4   5
ENDBRANCH   3   4
ENDBRANCH   2   3
ENDBRANCH   1   2
BRANCH   1  29
ATOM     29  C   UNL A   1      32.021  29.482  27.019  1.00  0.00     0.188 C 
BRANCH  29  30
ATOM     30  O   UNL A   1      33.034  30.414  26.654  1.00  0.00    -0.376 OA
BRANCH  30  31
ATOM     31  C   UNL A   1      34.104  30.520  27.569  1.00  0.00     0.202 C 
BRANCH  31  32
ATOM     32  C   UNL A   1      34.653  31.952  27.746  1.00  0.00     0.261 C 
BRANCH  32  33
ATOM     33  O   UNL A   1      36.102  32.157  27.847  1.00  0.00    -0.460 OA
BRANCH  33  34
ATOM     34  C   UNL A   1      36.789  32.681  28.943  1.00  0.00     0.338 C 
ATOM     35  O   UNL A   1      36.227  33.415  29.744  1.00  0.00    -0.246 OA
BRANCH  34  36
ATOM     36  C   UNL A   1      38.008  31.907  29.299  1.00  0.00     0.060 A 
ATOM     37  C   UNL A   1      39.034  31.943  30.254  1.00  0.00     0.016 A 
ATOM     38  C   UNL A   1      37.942  30.720  28.711  1.00  0.00     0.016 A 
ATOM     39  C   UNL A   1      40.243  31.073  30.188  1.00  0.00     0.010 A 
ATOM     40  C   UNL A   1      39.065  29.937  28.716  1.00  0.00     0.010 A 
ATOM     41  C   UNL A   1      40.397  30.079  29.222  1.00  0.00    -0.014 A 
BRANCH  41  42
ATOM     42  C   UNL A   1      41.828  29.037  28.827  1.00  0.00     0.031 A 
ATOM     43  C   UNL A   1      41.933  27.176  28.545  1.00  0.00     0.074 A 
ATOM     44  C   UNL A   1      42.947  29.734  28.467  1.00  0.00     0.049 A 
ATOM     45  N   UNL A   1      43.381  26.569  28.291  1.00  0.00    -0.248 NA
ATOM     46  C   UNL A   1      40.640  25.559  28.610  1.00  0.00     0.031 C 
ATOM     47  C   UNL A   1      44.171  29.284  27.803  1.00  0.00     0.029 A 
ATOM     48  N   UNL A   1      43.186  31.104  28.617  1.00  0.00    -0.354 N 
ATOM     49  C   UNL A   1      43.401  24.800  27.953  1.00  0.00     0.074 A 
ATOM     50  C   UNL A   1      41.614  24.164  28.272  1.00  0.00     0.031 C 
ATOM     51  C   UNL A   1      45.094  30.264  27.834  1.00  0.00     0.029 A 
ATOM     52  C   UNL A   1      44.563  31.314  28.679  1.00  0.00     0.049 A 
ATOM     53  H   UNL A   1      42.496  31.805  28.669  1.00  0.00     0.167 HD
ATOM     54  C   UNL A   1      44.548  24.297  27.438  1.00  0.00     0.031 A 
ATOM     55  C   UNL A   1      45.115  31.835  29.806  1.00  0.00     0.031 A 
ATOM     56  C   UNL A   1      45.613  25.293  27.611  1.00  0.00     0.049 A 
ATOM     57  C   UNL A   1      46.011  30.766  30.396  1.00  0.00     0.074 A 
ATOM     58  C   UNL A   1      46.255  26.172  26.755  1.00  0.00     0.029 A 
ATOM     59  N   UNL A   1      45.912  25.757  28.906  1.00  0.00    -0.354 N 
ATOM     60  N   UNL A   1      45.860  29.486  30.134  1.00  0.00    -0.248 NA
ATOM     61  C   UNL A   1      47.240  31.034  31.131  1.00  0.00     0.031 C 
ATOM     62  C   UNL A   1      46.900  27.178  27.547  1.00  0.00     0.029 A 
ATOM     63  C   UNL A   1      46.673  26.923  28.894  1.00  0.00     0.049 A 
ATOM     64  H   UNL A   1      45.616  25.306  29.730  1.00  0.00     0.167 HD
ATOM     65  C   UNL A   1      46.989  28.801  30.474  1.00  0.00     0.074 A 
ATOM     66  C   UNL A   1      47.802  29.809  31.153  1.00  0.00     0.031 C 
ATOM     67  C   UNL A   1      47.237  27.494  30.139  1.00  0.00     0.031 A 
BRANCH  54  68
ATOM     68  C   UNL A   1      44.543  23.042  26.603  1.00  0.00    -0.014 A 
ATOM     69  C   UNL A   1      43.450  22.160  26.617  1.00  0.00     0.010 A 
ATOM     70  C   UNL A   1      45.647  22.623  25.832  1.00  0.00     0.010 A 
ATOM     71  C   UNL A   1      43.477  20.930  25.923  1.00  0.00     0.020 A 
ATOM     72  C   UNL A   1      45.712  21.390  25.170  1.00  0.00     0.020 A 
ATOM     73  C   UNL A   1      44.614  20.549  25.208  1.00  0.00     0.054 A 
BRANCH  73  74
ATOM     74  S   UNL A   1      44.649  18.975  24.306  1.00  0.00     0.124 S 
ATOM     75  O   UNL A   1      43.371  18.369  24.666  1.00  0.00    -0.237 OA
ATOM     76  O   UNL A   1      44.770  19.417  22.919  1.00  0.00    -0.237 OA
ATOM     77  O   UNL A   1      45.825  18.290  24.840  1.00  0.00    -0.744 OA
ENDBRANCH  73  74
ENDBRANCH  54  68
BRANCH  55  78
ATOM     78  C   UNL A   1      44.260  32.942  30.378  1.00  0.00    -0.014 A 
ATOM     79  C   UNL A   1      43.732  32.695  31.678  1.00  0.00     0.010 A 
ATOM     80  C   UNL A   1      44.362  34.289  29.989  1.00  0.00     0.010 A 
ATOM     81  C   UNL A   1      43.515  33.726  32.608  1.00  0.00     0.020 A 
ATOM     82  C   UNL A   1      44.093  35.338  30.914  1.00  0.00     0.020 A 
ATOM     83  C   UNL A   1      43.746  35.046  32.238  1.00  0.00     0.054 A 
BRANCH  83  84
ATOM     84  S   UNL A   1      43.758  36.302  33.571  1.00  0.00     0.124 S 
ATOM     85  O   UNL A   1      42.986  35.658  34.627  1.00  0.00    -0.237 OA
ATOM     86  O   UNL A   1      45.189  36.452  33.844  1.00  0.00    -0.237 OA
ATOM     87  O   UNL A   1      43.114  37.464  32.973  1.00  0.00    -0.744 OA
ENDBRANCH  83  84
ENDBRANCH  55  78
BRANCH  67  88
ATOM     88  C   UNL A   1      48.175  26.636  30.959  1.00  0.00    -0.014 A 
ATOM     89  C   UNL A   1      47.885  26.217  32.269  1.00  0.00     0.010 A 
ATOM     90  C   UNL A   1      49.323  26.077  30.353  1.00  0.00     0.010 A 
ATOM     91  C   UNL A   1      48.737  25.361  32.967  1.00  0.00     0.020 A 
ATOM     92  C   UNL A   1      50.135  25.153  31.010  1.00  0.00     0.020 A 
ATOM     93  C   UNL A   1      49.854  24.829  32.330  1.00  0.00     0.054 A 
BRANCH  93  94
ATOM     94  S   UNL A   1      50.901  23.675  33.235  1.00  0.00     0.124 S 
ATOM     95  O   UNL A   1      52.106  23.657  32.409  1.00  0.00    -0.237 OA
ATOM     96  O   UNL A   1      51.042  24.324  34.536  1.00  0.00    -0.237 OA
ATOM     97  O   UNL A   1      50.125  22.437  33.244  1.00  0.00    -0.744 OA
ENDBRANCH  93  94
ENDBRANCH  67  88
ENDBRANCH  41  42
ENDBRANCH  34  36
ENDBRANCH  33  34
ENDBRANCH  32  33
ENDBRANCH  31  32
ENDBRANCH  30  31
ENDBRANCH  29  30
ENDBRANCH   1  29
TORSDOF 24
ENDMDL
MODEL 3
REMARK VINA RESULT:     -11.4      4.132      6.905
REMARK SMILES Cc1cccc(OCC(=O)Nc2cc(C(=O)OCCOCCOCCOC(=O)c3ccc(-c4c5nc(c(-c6ccc(S(=O)(=O)[O-])cc6)c6ccc([nH]6)c(-c6ccc(S(=O)(=O)[O-])cc6)c6nc(c(-c7ccc(S(=O)(=O)[O-])cc7)c7ccc4[nH]7)C=C6)C=C5)cc3)c(Cl)cc2Cl)c1
REMARK SMILES IDX 21 1 20 2 19 3 18 4 17 5 15 6 16 7 14 8 12 9 13 10 92 11
REMARK SMILES IDX 91 12 93 13 89 14 90 15 11 16 9 17 10 18 8 20 7 21 6 22 1 23
REMARK SMILES IDX 2 24 3 25 94 26 4 27 5 28 22 29 23 30 24 31 25 32 26 33
REMARK SMILES IDX 27 34 28 35 29 36 30 37 88 38 31 39 87 40 32 41 33 42 34 43
REMARK SMILES IDX 81 44 35 45 86 46 80 47 82 48 36 49 85 50 79 51 78 52 37 54
REMARK SMILES IDX 67 55 48 56 66 57 49 58 52 59 65 60 83 61 50 62 51 63 64 65
REMARK SMILES IDX 84 66 53 67 38 68 39 69 47 70 40 71 46 72 41 73 42 74 43 75
REMARK SMILES IDX 44 76 45 77 68 78 69 79 77 80 70 81 76 82 71 83 72 84 73 85
REMARK SMILES IDX 74 86 75 87 54 88 55 89 63 90 56 91 62 92 57 93 58 94 59 95
REMARK SMILES IDX 60 96 61 97
REMARK H PARENT 11 19 82 53 52 64
REMARK Flexibility Score: inf
ROOT
ATOM      1  C   UNL A   1      32.436  24.437  26.860  1.00  0.00     0.188 C 
ENDROOT
BRANCH   1   2
ATOM      2  O   UNL A   1      31.603  23.536  26.123  1.00  0.00    -0.376 OA
BRANCH   2   3
ATOM      3  C   UNL A   1      32.010  22.175  26.013  1.00  0.00     0.202 C 
BRANCH   3   4
ATOM      4  C   UNL A   1      33.073  21.654  24.976  1.00  0.00     0.261 C 
BRANCH   4   5
ATOM      5  O   UNL A   1      33.624  22.408  23.738  1.00  0.00    -0.460 OA
BRANCH   5   6
ATOM      6  C   UNL A   1      34.284  23.471  23.050  1.00  0.00     0.339 C 
ATOM      7  O   UNL A   1      35.513  23.442  22.956  1.00  0.00    -0.246 OA
BRANCH   6   8
ATOM      8  C   UNL A   1      33.427  25.108  22.562  1.00  0.00     0.080 A 
ATOM      9  C   UNL A   1      31.175  25.813  22.588  1.00  0.00     0.061 A 
ATOM     10  C   UNL A   1      32.113  24.835  22.249  1.00  0.00     0.045 A 
ATOM     11  C   UNL A   1      31.341  27.085  22.069  1.00  0.00     0.066 A 
ATOM     12  C   UNL A   1      32.622  27.528  22.031  1.00  0.00     0.044 A 
ATOM     13  Cl  UNL A   1      30.059  28.231  22.008  1.00  0.00    -0.082 Cl
ATOM     14  C   UNL A   1      33.616  26.641  22.503  1.00  0.00     0.057 A 
ATOM     15  Cl  UNL A   1      34.783  27.838  23.181  1.00  0.00    -0.083 Cl
BRANCH   9  16
ATOM     16  N   UNL A   1      30.678  25.849  23.931  1.00  0.00    -0.322 N 
ATOM     17  C   UNL A   1      29.404  25.996  24.496  1.00  0.00     0.262 C 
ATOM     18  O   UNL A   1      29.363  25.607  25.680  1.00  0.00    -0.271 OA
ATOM     19  H   UNL A   1      31.387  25.746  24.606  1.00  0.00     0.170 HD
BRANCH  17  20
ATOM     20  C   UNL A   1      27.858  26.760  23.798  1.00  0.00     0.329 C 
BRANCH  20  21
ATOM     21  O   UNL A   1      27.510  28.842  23.570  1.00  0.00    -0.484 OA
BRANCH  21  22
ATOM     22  C   UNL A   1      28.269  30.163  22.872  1.00  0.00     0.120 A 
ATOM     23  C   UNL A   1      27.693  32.675  19.945  1.00  0.00     0.044 C 
ATOM     24  C   UNL A   1      28.072  32.118  21.293  1.00  0.00    -0.047 A 
ATOM     25  C   UNL A   1      28.423  32.967  22.331  1.00  0.00     0.003 A 
ATOM     26  C   UNL A   1      28.020  30.730  21.559  1.00  0.00     0.049 A 
ATOM     27  C   UNL A   1      28.851  32.416  23.548  1.00  0.00     0.004 A 
ATOM     28  C   UNL A   1      28.853  31.012  23.789  1.00  0.00     0.046 A 
ENDBRANCH  21  22
ENDBRANCH  20  21
ENDBRANCH  17  20
ENDBRANCH   9  16
ENDBRANCH   6   8
ENDBRANCH   5   6
ENDBRANCH   4   5
ENDBRANCH   3   4
ENDBRANCH   2   3
ENDBRANCH   1   2
BRANCH   1  29
ATOM     29  C   UNL A   1      33.512  25.189  26.136  1.00  0.00     0.188 C 
BRANCH  29  30
ATOM     30  O   UNL A   1      33.058  26.519  25.906  1.00  0.00    -0.376 OA
BRANCH  30  31
ATOM     31  C   UNL A   1      32.151  27.013  26.869  1.00  0.00     0.202 C 
BRANCH  31  32
ATOM     32  C   UNL A   1      31.578  28.411  26.548  1.00  0.00     0.261 C 
BRANCH  32  33
ATOM     33  O   UNL A   1      32.024  29.566  27.333  1.00  0.00    -0.460 OA
BRANCH  33  34
ATOM     34  C   UNL A   1      32.502  30.776  26.825  1.00  0.00     0.338 C 
ATOM     35  O   UNL A   1      31.761  31.539  26.221  1.00  0.00    -0.246 OA
BRANCH  34  36
ATOM     36  C   UNL A   1      33.749  31.242  27.489  1.00  0.00     0.060 A 
ATOM     37  C   UNL A   1      34.427  32.447  27.721  1.00  0.00     0.016 A 
ATOM     38  C   UNL A   1      34.181  30.284  28.297  1.00  0.00     0.016 A 
ATOM     39  C   UNL A   1      35.806  32.512  28.288  1.00  0.00     0.010 A 
ATOM     40  C   UNL A   1      35.436  30.411  28.830  1.00  0.00     0.010 A 
ATOM     41  C   UNL A   1      36.487  31.377  28.728  1.00  0.00    -0.014 A 
BRANCH  41  42
ATOM     42  C   UNL A   1      38.206  31.177  29.272  1.00  0.00     0.031 A 
ATOM     43  C   UNL A   1      39.568  30.061  28.603  1.00  0.00     0.074 A 
ATOM     44  C   UNL A   1      38.630  32.133  30.151  1.00  0.00     0.049 A 
ATOM     45  N   UNL A   1      40.957  30.079  29.377  1.00  0.00    -0.248 NA
ATOM     46  C   UNL A   1      39.754  28.614  27.131  1.00  0.00     0.031 C 
ATOM     47  C   UNL A   1      39.983  32.496  30.576  1.00  0.00     0.029 A 
ATOM     48  N   UNL A   1      37.848  33.056  30.856  1.00  0.00    -0.354 N 
ATOM     49  C   UNL A   1      42.238  29.050  28.639  1.00  0.00     0.074 A 
ATOM     50  C   UNL A   1      41.386  28.036  27.244  1.00  0.00     0.031 C 
ATOM     51  C   UNL A   1      39.921  33.354  31.613  1.00  0.00     0.029 A 
ATOM     52  C   UNL A   1      38.531  33.429  32.013  1.00  0.00     0.049 A 
ATOM     53  H   UNL A   1      36.963  33.387  30.579  1.00  0.00     0.167 HD
ATOM     54  C   UNL A   1      43.504  29.259  29.071  1.00  0.00     0.031 A 
ATOM     55  C   UNL A   1      37.998  33.148  33.230  1.00  0.00     0.031 A 
ATOM     56  C   UNL A   1      43.451  30.060  30.301  1.00  0.00     0.049 A 
ATOM     57  C   UNL A   1      38.928  32.162  33.905  1.00  0.00     0.074 A 
ATOM     58  C   UNL A   1      43.711  31.387  30.596  1.00  0.00     0.029 A 
ATOM     59  N   UNL A   1      42.717  29.576  31.400  1.00  0.00    -0.354 N 
ATOM     60  N   UNL A   1      39.761  31.396  33.235  1.00  0.00    -0.248 NA
ATOM     61  C   UNL A   1      39.157  32.095  35.342  1.00  0.00     0.031 C 
ATOM     62  C   UNL A   1      43.093  31.696  31.853  1.00  0.00     0.029 A 
ATOM     63  C   UNL A   1      42.460  30.562  32.349  1.00  0.00     0.049 A 
ATOM     64  H   UNL A   1      42.418  28.641  31.488  1.00  0.00     0.167 HD
ATOM     65  C   UNL A   1      40.715  30.898  34.071  1.00  0.00     0.074 A 
ATOM     66  C   UNL A   1      40.255  31.316  35.394  1.00  0.00     0.031 C 
ATOM     67  C   UNL A   1      41.846  30.239  33.657  1.00  0.00     0.031 A 
BRANCH  54  68
ATOM     68  C   UNL A   1      44.690  28.926  28.201  1.00  0.00    -0.014 A 
ATOM     69  C   UNL A   1      45.114  29.795  27.182  1.00  0.00     0.010 A 
ATOM     70  C   UNL A   1      45.392  27.706  28.286  1.00  0.00     0.010 A 
ATOM     71  C   UNL A   1      46.155  29.446  26.293  1.00  0.00     0.020 A 
ATOM     72  C   UNL A   1      46.398  27.323  27.391  1.00  0.00     0.020 A 
ATOM     73  C   UNL A   1      46.787  28.206  26.399  1.00  0.00     0.054 A 
BRANCH  73  74
ATOM     74  S   UNL A   1      48.132  27.759  25.267  1.00  0.00     0.124 S 
ATOM     75  O   UNL A   1      47.583  28.108  23.960  1.00  0.00    -0.237 OA
ATOM     76  O   UNL A   1      49.226  28.604  25.738  1.00  0.00    -0.237 OA
ATOM     77  O   UNL A   1      48.319  26.326  25.491  1.00  0.00    -0.744 OA
ENDBRANCH  73  74
ENDBRANCH  54  68
BRANCH  55  78
ATOM     78  C   UNL A   1      36.505  33.386  33.247  1.00  0.00    -0.014 A 
ATOM     79  C   UNL A   1      36.096  34.662  33.732  1.00  0.00     0.010 A 
ATOM     80  C   UNL A   1      35.598  32.714  32.410  1.00  0.00     0.010 A 
ATOM     81  C   UNL A   1      34.949  35.315  33.249  1.00  0.00     0.020 A 
ATOM     82  C   UNL A   1      34.407  33.354  31.960  1.00  0.00     0.020 A 
ATOM     83  C   UNL A   1      34.132  34.678  32.322  1.00  0.00     0.054 A 
BRANCH  83  84
ATOM     84  S   UNL A   1      32.850  35.690  31.496  1.00  0.00     0.124 S 
ATOM     85  O   UNL A   1      31.727  35.604  32.421  1.00  0.00    -0.237 OA
ATOM     86  O   UNL A   1      33.494  37.003  31.413  1.00  0.00    -0.237 OA
ATOM     87  O   UNL A   1      32.634  35.021  30.220  1.00  0.00    -0.744 OA
ENDBRANCH  83  84
ENDBRANCH  55  78
BRANCH  67  88
ATOM     88  C   UNL A   1      42.559  29.256  34.560  1.00  0.00    -0.014 A 
ATOM     89  C   UNL A   1      43.902  29.401  34.946  1.00  0.00     0.010 A 
ATOM     90  C   UNL A   1      41.823  28.228  35.192  1.00  0.00     0.010 A 
ATOM     91  C   UNL A   1      44.503  28.519  35.842  1.00  0.00     0.020 A 
ATOM     92  C   UNL A   1      42.391  27.394  36.156  1.00  0.00     0.020 A 
ATOM     93  C   UNL A   1      43.741  27.524  36.447  1.00  0.00     0.054 A 
BRANCH  93  94
ATOM     94  S   UNL A   1      44.530  26.439  37.652  1.00  0.00     0.124 S 
ATOM     95  O   UNL A   1      44.588  25.177  36.919  1.00  0.00    -0.237 OA
ATOM     96  O   UNL A   1      45.817  27.093  37.877  1.00  0.00    -0.237 OA
ATOM     97  O   UNL A   1      43.617  26.464  38.791  1.00  0.00    -0.744 OA
ENDBRANCH  93  94
ENDBRANCH  67  88
ENDBRANCH  41  42
ENDBRANCH  34  36
ENDBRANCH  33  34
ENDBRANCH  32  33
ENDBRANCH  31  32
ENDBRANCH  30  31
ENDBRANCH  29  30
ENDBRANCH   1  29
TORSDOF 24
ENDMDL
