MODEL 1
REMARK VINA RESULT:     -10.7      0.000      0.000
REMARK SMILES O=C(OCCOCCOCCOC(=O)[C@]1(NC(=O)C2CCN(C(=O)C3CC3)CC2)CCCc2ccccc21)c1ccc(-c2c3nc(c(-c4ccc(S(=O)(=O)[O-])cc4)c4ccc([nH]4)c(-c4ccc(S(=O)(=O)[O-])cc4)c4nc(c(-c5ccc(S(=O)(=O)[O-])cc5)c5ccc2[nH]5)C=C4)C=C3)cc1
REMARK SMILES IDX 7 1 6 2 5 3 4 4 3 5 2 6 1 7 39 8 40 9 98 10 41 11 97 12
REMARK SMILES IDX 42 13 43 14 44 15 91 16 45 17 96 18 90 19 92 20 46 21 95 22
REMARK SMILES IDX 89 23 88 24 47 26 77 27 58 28 76 29 59 30 62 31 75 32 93 33
REMARK SMILES IDX 60 34 61 35 74 37 94 38 63 39 48 40 49 41 57 42 50 43 56 44
REMARK SMILES IDX 51 45 52 46 53 47 54 48 55 49 78 50 79 51 87 52 80 53 86 54
REMARK SMILES IDX 81 55 82 56 83 57 84 58 85 59 64 60 65 61 73 62 66 63 72 64
REMARK SMILES IDX 67 65 68 66 69 67 70 68 71 69 8 70 9 71 10 72 11 73 12 74
REMARK SMILES IDX 13 75 14 76 15 77 30 78 38 79 31 80 33 81 37 82 32 83 34 84
REMARK SMILES IDX 36 85 35 86 16 87 17 88 18 90 19 91 20 92 29 93 21 94 28 95
REMARK SMILES IDX 22 96 23 97 24 98 25 99 26 100 27 101
REMARK H PARENT 92 25 62 36 16 89
REMARK Flexibility Score: inf
ROOT
ATOM      1  C   UNL A   1      34.389  31.021  27.741  1.00  0.00     0.188 C 
ENDROOT
BRANCH   1   2
ATOM      2  O   UNL A   1      35.157  32.225  27.755  1.00  0.00    -0.376 OA
BRANCH   2   3
ATOM      3  C   UNL A   1      35.031  33.068  28.895  1.00  0.00     0.202 C 
BRANCH   3   4
ATOM      4  C   UNL A   1      36.102  32.908  29.975  1.00  0.00     0.261 C 
BRANCH   4   5
ATOM      5  O   UNL A   1      35.912  31.761  30.806  1.00  0.00    -0.460 OA
BRANCH   5   6
ATOM      6  C   UNL A   1      36.666  30.637  30.877  1.00  0.00     0.338 C 
ATOM      7  O   UNL A   1      36.227  29.711  31.562  1.00  0.00    -0.246 OA
BRANCH   6   8
ATOM      8  C   UNL A   1      38.041  30.476  30.278  1.00  0.00     0.060 A 
ATOM      9  C   UNL A   1      38.363  30.256  28.931  1.00  0.00     0.016 A 
ATOM     10  C   UNL A   1      39.115  30.568  31.181  1.00  0.00     0.016 A 
ATOM     11  C   UNL A   1      39.681  30.102  28.490  1.00  0.00     0.010 A 
ATOM     12  C   UNL A   1      40.437  30.407  30.753  1.00  0.00     0.010 A 
ATOM     13  C   UNL A   1      40.722  30.139  29.404  1.00  0.00    -0.014 A 
BRANCH  13  14
ATOM     14  C   UNL A   1      42.045  29.584  29.043  1.00  0.00     0.031 A 
ATOM     15  C   UNL A   1      43.133  30.594  28.843  1.00  0.00     0.074 A 
ATOM     16  C   UNL A   1      42.298  28.269  28.914  1.00  0.00     0.049 A 
ATOM     17  N   UNL A   1      44.354  30.418  28.426  1.00  0.00    -0.248 NA
ATOM     18  C   UNL A   1      42.813  31.987  29.217  1.00  0.00     0.031 C 
ATOM     19  C   UNL A   1      41.424  27.175  29.324  1.00  0.00     0.029 A 
ATOM     20  N   UNL A   1      43.356  27.623  28.328  1.00  0.00    -0.354 N 
ATOM     21  C   UNL A   1      44.956  31.661  28.535  1.00  0.00     0.074 A 
ATOM     22  C   UNL A   1      43.949  32.605  28.954  1.00  0.00     0.031 C 
ATOM     23  C   UNL A   1      41.855  26.025  28.778  1.00  0.00     0.029 A 
ATOM     24  C   UNL A   1      43.105  26.289  28.082  1.00  0.00     0.049 A 
ATOM     25  H   UNL A   1      44.207  28.066  28.106  1.00  0.00     0.167 HD
ATOM     26  C   UNL A   1      46.257  31.972  28.356  1.00  0.00     0.031 A 
ATOM     27  C   UNL A   1      43.818  25.385  27.384  1.00  0.00     0.031 A 
ATOM     28  C   UNL A   1      47.222  31.018  27.899  1.00  0.00     0.049 A 
ATOM     29  C   UNL A   1      45.202  25.790  26.969  1.00  0.00     0.074 A 
ATOM     30  C   UNL A   1      48.565  31.201  27.643  1.00  0.00     0.029 A 
ATOM     31  N   UNL A   1      46.927  29.691  27.610  1.00  0.00    -0.354 N 
ATOM     32  N   UNL A   1      45.780  26.963  27.098  1.00  0.00    -0.248 NA
ATOM     33  C   UNL A   1      46.067  24.742  26.418  1.00  0.00     0.031 C 
ATOM     34  C   UNL A   1      49.068  29.999  27.133  1.00  0.00     0.029 A 
ATOM     35  C   UNL A   1      48.054  29.049  27.141  1.00  0.00     0.049 A 
ATOM     36  H   UNL A   1      46.044  29.271  27.723  1.00  0.00     0.167 HD
ATOM     37  C   UNL A   1      47.103  26.775  26.729  1.00  0.00     0.074 A 
ATOM     38  C   UNL A   1      47.228  25.382  26.337  1.00  0.00     0.031 C 
ATOM     39  C   UNL A   1      48.131  27.660  26.754  1.00  0.00     0.031 A 
BRANCH  26  40
ATOM     40  C   UNL A   1      46.644  33.400  28.616  1.00  0.00    -0.014 A 
ATOM     41  C   UNL A   1      46.955  33.844  29.917  1.00  0.00     0.010 A 
ATOM     42  C   UNL A   1      46.605  34.329  27.564  1.00  0.00     0.010 A 
ATOM     43  C   UNL A   1      47.153  35.203  30.171  1.00  0.00     0.020 A 
ATOM     44  C   UNL A   1      46.834  35.685  27.809  1.00  0.00     0.020 A 
ATOM     45  C   UNL A   1      47.081  36.116  29.115  1.00  0.00     0.054 A 
BRANCH  45  46
ATOM     46  S   UNL A   1      47.311  37.878  29.473  1.00  0.00     0.124 S 
ATOM     47  O   UNL A   1      48.728  38.064  29.169  1.00  0.00    -0.237 OA
ATOM     48  O   UNL A   1      46.381  38.516  28.544  1.00  0.00    -0.237 OA
ATOM     49  O   UNL A   1      46.956  37.994  30.885  1.00  0.00    -0.744 OA
ENDBRANCH  45  46
ENDBRANCH  26  40
BRANCH  27  50
ATOM     50  C   UNL A   1      43.278  24.019  27.137  1.00  0.00    -0.014 A 
ATOM     51  C   UNL A   1      42.590  23.716  25.950  1.00  0.00     0.010 A 
ATOM     52  C   UNL A   1      43.479  22.996  28.083  1.00  0.00     0.010 A 
ATOM     53  C   UNL A   1      42.099  22.426  25.720  1.00  0.00     0.020 A 
ATOM     54  C   UNL A   1      43.001  21.699  27.852  1.00  0.00     0.020 A 
ATOM     55  C   UNL A   1      42.308  21.424  26.672  1.00  0.00     0.054 A 
BRANCH  55  56
ATOM     56  S   UNL A   1      41.689  19.751  26.324  1.00  0.00     0.124 S 
ATOM     57  O   UNL A   1      42.553  19.328  25.227  1.00  0.00    -0.237 OA
ATOM     58  O   UNL A   1      41.905  19.071  27.599  1.00  0.00    -0.237 OA
ATOM     59  O   UNL A   1      40.289  19.970  25.968  1.00  0.00    -0.744 OA
ENDBRANCH  55  56
ENDBRANCH  27  50
BRANCH  39  60
ATOM     60  C   UNL A   1      49.487  27.140  26.384  1.00  0.00    -0.014 A 
ATOM     61  C   UNL A   1      50.367  26.642  27.359  1.00  0.00     0.010 A 
ATOM     62  C   UNL A   1      49.839  27.061  25.023  1.00  0.00     0.010 A 
ATOM     63  C   UNL A   1      51.586  26.084  26.978  1.00  0.00     0.020 A 
ATOM     64  C   UNL A   1      51.041  26.473  24.638  1.00  0.00     0.020 A 
ATOM     65  C   UNL A   1      51.912  25.995  25.620  1.00  0.00     0.054 A 
BRANCH  65  66
ATOM     66  S   UNL A   1      53.463  25.187  25.152  1.00  0.00     0.124 S 
ATOM     67  O   UNL A   1      53.106  23.774  25.242  1.00  0.00    -0.237 OA
ATOM     68  O   UNL A   1      53.692  25.695  23.802  1.00  0.00    -0.237 OA
ATOM     69  O   UNL A   1      54.415  25.654  26.157  1.00  0.00    -0.744 OA
ENDBRANCH  65  66
ENDBRANCH  39  60
ENDBRANCH  13  14
ENDBRANCH   6   8
ENDBRANCH   5   6
ENDBRANCH   4   5
ENDBRANCH   3   4
ENDBRANCH   2   3
ENDBRANCH   1   2
BRANCH   1  70
ATOM     70  C   UNL A   1      32.946  31.116  27.239  1.00  0.00     0.188 C 
BRANCH  70  71
ATOM     71  O   UNL A   1      32.173  29.941  27.035  1.00  0.00    -0.376 OA
BRANCH  71  72
ATOM     72  C   UNL A   1      31.761  29.616  25.724  1.00  0.00     0.202 C 
BRANCH  72  73
ATOM     73  C   UNL A   1      32.897  29.551  24.701  1.00  0.00     0.261 C 
BRANCH  73  74
ATOM     74  O   UNL A   1      33.249  28.253  24.183  1.00  0.00    -0.461 OA
BRANCH  74  75
ATOM     75  C   UNL A   1      33.754  27.365  25.094  1.00  0.00     0.336 C 
ATOM     76  O   UNL A   1      34.442  27.699  26.059  1.00  0.00    -0.249 OA
BRANCH  75  77
ATOM     77  C   UNL A   1      33.563  25.858  24.673  1.00  0.00     0.164 C 
ATOM     78  C   UNL A   1      34.157  25.489  23.289  1.00  0.00     0.046 C 
ATOM     79  C   UNL A   1      32.029  25.599  24.743  1.00  0.00    -0.008 A 
ATOM     80  C   UNL A   1      33.187  25.678  22.136  1.00  0.00     0.008 C 
ATOM     81  C   UNL A   1      31.264  25.317  23.592  1.00  0.00    -0.042 A 
ATOM     82  C   UNL A   1      31.325  25.855  25.932  1.00  0.00     0.007 A 
ATOM     83  C   UNL A   1      31.925  24.878  22.330  1.00  0.00     0.036 C 
ATOM     84  C   UNL A   1      29.866  25.431  23.602  1.00  0.00     0.004 A 
ATOM     85  C   UNL A   1      29.931  25.969  25.938  1.00  0.00     0.000 A 
ATOM     86  C   UNL A   1      29.204  25.793  24.766  1.00  0.00     0.000 A 
BRANCH  77  87
ATOM     87  N   UNL A   1      34.289  25.002  25.669  1.00  0.00    -0.336 N 
ATOM     88  C   UNL A   1      34.145  23.657  25.934  1.00  0.00     0.224 C 
ATOM     89  H   UNL A   1      34.966  25.469  26.211  1.00  0.00     0.164 HD
ATOM     90  O   UNL A   1      34.431  23.242  27.057  1.00  0.00    -0.275 OA
BRANCH  88  91
ATOM     91  C   UNL A   1      33.831  22.680  24.803  1.00  0.00     0.082 C 
ATOM     92  C   UNL A   1      32.470  21.983  24.833  1.00  0.00     0.035 C 
ATOM     93  C   UNL A   1      35.029  21.735  24.606  1.00  0.00     0.035 C 
ATOM     94  C   UNL A   1      32.478  20.657  25.574  1.00  0.00     0.120 C 
ATOM     95  C   UNL A   1      34.893  20.478  25.455  1.00  0.00     0.120 C 
ATOM     96  N   UNL A   1      33.619  19.845  25.144  1.00  0.00    -0.342 N 
ATOM     97  C   UNL A   1      33.378  18.776  24.277  1.00  0.00     0.225 C 
ATOM     98  O   UNL A   1      32.269  18.603  23.778  1.00  0.00    -0.275 OA
BRANCH  97  99
ATOM     99  C   UNL A   1      34.402  17.744  23.921  1.00  0.00     0.079 C 
ATOM    100  C   UNL A   1      34.612  16.425  24.610  1.00  0.00     0.014 C 
ATOM    101  C   UNL A   1      34.125  16.465  23.182  1.00  0.00     0.014 C 
ENDBRANCH  97  99
ENDBRANCH  88  91
ENDBRANCH  77  87
ENDBRANCH  75  77
ENDBRANCH  74  75
ENDBRANCH  73  74
ENDBRANCH  72  73
ENDBRANCH  71  72
ENDBRANCH  70  71
ENDBRANCH   1  70
TORSDOF 23
ENDMDL
MODEL 2
REMARK VINA RESULT:     -10.4      5.842     11.545
REMARK SMILES O=C(OCCOCCOCCOC(=O)[C@]1(NC(=O)C2CCN(C(=O)C3CC3)CC2)CCCc2ccccc21)c1ccc(-c2c3nc(c(-c4ccc(S(=O)(=O)[O-])cc4)c4ccc([nH]4)c(-c4ccc(S(=O)(=O)[O-])cc4)c4nc(c(-c5ccc(S(=O)(=O)[O-])cc5)c5ccc2[nH]5)C=C4)C=C3)cc1
REMARK SMILES IDX 7 1 6 2 5 3 4 4 3 5 2 6 1 7 39 8 40 9 98 10 41 11 97 12
REMARK SMILES IDX 42 13 43 14 44 15 91 16 45 17 96 18 90 19 92 20 46 21 95 22
REMARK SMILES IDX 89 23 88 24 47 26 77 27 58 28 76 29 59 30 62 31 75 32 93 33
REMARK SMILES IDX 60 34 61 35 74 37 94 38 63 39 48 40 49 41 57 42 50 43 56 44
REMARK SMILES IDX 51 45 52 46 53 47 54 48 55 49 78 50 79 51 87 52 80 53 86 54
REMARK SMILES IDX 81 55 82 56 83 57 84 58 85 59 64 60 65 61 73 62 66 63 72 64
REMARK SMILES IDX 67 65 68 66 69 67 70 68 71 69 8 70 9 71 10 72 11 73 12 74
REMARK SMILES IDX 13 75 14 76 15 77 30 78 38 79 31 80 33 81 37 82 32 83 34 84
REMARK SMILES IDX 36 85 35 86 16 87 17 88 18 90 19 91 20 92 29 93 21 94 28 95
REMARK SMILES IDX 22 96 23 97 24 98 25 99 26 100 27 101
REMARK H PARENT 92 25 62 36 16 89
REMARK Flexibility Score: inf
ROOT
ATOM      1  C   UNL A   1      42.684  22.344  28.045  1.00  0.00     0.188 C 
ENDROOT
BRANCH   1   2
ATOM      2  O   UNL A   1      43.313  23.322  27.216  1.00  0.00    -0.376 OA
BRANCH   2   3
ATOM      3  C   UNL A   1      42.568  23.817  26.108  1.00  0.00     0.202 C 
BRANCH   3   4
ATOM      4  C   UNL A   1      43.248  24.899  25.267  1.00  0.00     0.261 C 
BRANCH   4   5
ATOM      5  O   UNL A   1      42.374  25.965  24.890  1.00  0.00    -0.460 OA
BRANCH   5   6
ATOM      6  C   UNL A   1      42.278  27.207  25.427  1.00  0.00     0.338 C 
ATOM      7  O   UNL A   1      42.421  28.160  24.660  1.00  0.00    -0.246 OA
BRANCH   6   8
ATOM      8  C   UNL A   1      42.122  27.505  26.898  1.00  0.00     0.060 A 
ATOM      9  C   UNL A   1      41.284  26.856  27.814  1.00  0.00     0.016 A 
ATOM     10  C   UNL A   1      42.922  28.549  27.396  1.00  0.00     0.016 A 
ATOM     11  C   UNL A   1      41.208  27.232  29.159  1.00  0.00     0.010 A 
ATOM     12  C   UNL A   1      42.847  28.942  28.736  1.00  0.00     0.010 A 
ATOM     13  C   UNL A   1      41.960  28.302  29.619  1.00  0.00    -0.014 A 
BRANCH  13  14
ATOM     14  C   UNL A   1      41.603  28.968  30.890  1.00  0.00     0.031 A 
ATOM     15  C   UNL A   1      40.507  29.986  30.797  1.00  0.00     0.074 A 
ATOM     16  C   UNL A   1      42.184  28.692  32.072  1.00  0.00     0.049 A 
ATOM     17  N   UNL A   1      40.055  30.795  31.711  1.00  0.00    -0.248 NA
ATOM     18  C   UNL A   1      39.788  30.060  29.509  1.00  0.00     0.031 C 
ATOM     19  C   UNL A   1      43.065  27.566  32.362  1.00  0.00     0.029 A 
ATOM     20  N   UNL A   1      42.173  29.394  33.250  1.00  0.00    -0.354 N 
ATOM     21  C   UNL A   1      38.974  31.434  31.125  1.00  0.00     0.074 A 
ATOM     22  C   UNL A   1      38.897  31.004  29.751  1.00  0.00     0.031 C 
ATOM     23  C   UNL A   1      43.688  27.771  33.534  1.00  0.00     0.029 A 
ATOM     24  C   UNL A   1      43.153  28.986  34.130  1.00  0.00     0.049 A 
ATOM     25  H   UNL A   1      41.531  30.113  33.448  1.00  0.00     0.167 HD
ATOM     26  C   UNL A   1      38.086  32.266  31.708  1.00  0.00     0.031 A 
ATOM     27  C   UNL A   1      43.559  29.531  35.292  1.00  0.00     0.031 A 
ATOM     28  C   UNL A   1      38.216  32.705  33.065  1.00  0.00     0.049 A 
ATOM     29  C   UNL A   1      42.705  30.627  35.859  1.00  0.00     0.074 A 
ATOM     30  C   UNL A   1      37.411  33.571  33.775  1.00  0.00     0.029 A 
ATOM     31  N   UNL A   1      39.247  32.316  33.913  1.00  0.00    -0.354 N 
ATOM     32  N   UNL A   1      41.664  31.213  35.312  1.00  0.00    -0.248 NA
ATOM     33  C   UNL A   1      43.002  31.065  37.227  1.00  0.00     0.031 C 
ATOM     34  C   UNL A   1      37.994  33.758  35.033  1.00  0.00     0.029 A 
ATOM     35  C   UNL A   1      39.122  32.953  35.130  1.00  0.00     0.049 A 
ATOM     36  H   UNL A   1      39.961  31.680  33.679  1.00  0.00     0.167 HD
ATOM     37  C   UNL A   1      41.125  32.024  36.299  1.00  0.00     0.074 A 
ATOM     38  C   UNL A   1      41.980  31.879  37.465  1.00  0.00     0.031 C 
ATOM     39  C   UNL A   1      40.003  32.784  36.261  1.00  0.00     0.031 A 
BRANCH  26  40
ATOM     40  C   UNL A   1      36.962  32.757  30.841  1.00  0.00    -0.014 A 
ATOM     41  C   UNL A   1      37.150  33.829  29.946  1.00  0.00     0.010 A 
ATOM     42  C   UNL A   1      35.681  32.204  30.992  1.00  0.00     0.010 A 
ATOM     43  C   UNL A   1      36.062  34.381  29.267  1.00  0.00     0.020 A 
ATOM     44  C   UNL A   1      34.595  32.734  30.290  1.00  0.00     0.020 A 
ATOM     45  C   UNL A   1      34.788  33.836  29.453  1.00  0.00     0.054 A 
BRANCH  45  46
ATOM     46  S   UNL A   1      33.386  34.588  28.585  1.00  0.00     0.124 S 
ATOM     47  O   UNL A   1      32.937  33.492  27.731  1.00  0.00    -0.237 OA
ATOM     48  O   UNL A   1      32.484  34.938  29.681  1.00  0.00    -0.237 OA
ATOM     49  O   UNL A   1      33.980  35.723  27.884  1.00  0.00    -0.744 OA
ENDBRANCH  45  46
ENDBRANCH  26  40
BRANCH  27  50
ATOM     50  C   UNL A   1      44.742  28.986  36.015  1.00  0.00    -0.014 A 
ATOM     51  C   UNL A   1      44.623  27.873  36.864  1.00  0.00     0.010 A 
ATOM     52  C   UNL A   1      46.013  29.563  35.830  1.00  0.00     0.010 A 
ATOM     53  C   UNL A   1      45.743  27.359  37.528  1.00  0.00     0.020 A 
ATOM     54  C   UNL A   1      47.141  29.044  36.480  1.00  0.00     0.020 A 
ATOM     55  C   UNL A   1      46.996  27.947  37.331  1.00  0.00     0.054 A 
BRANCH  55  56
ATOM     56  S   UNL A   1      48.435  27.231  38.179  1.00  0.00     0.124 S 
ATOM     57  O   UNL A   1      48.015  25.847  38.378  1.00  0.00    -0.237 OA
ATOM     58  O   UNL A   1      49.502  27.434  37.203  1.00  0.00    -0.237 OA
ATOM     59  O   UNL A   1      48.549  28.029  39.397  1.00  0.00    -0.744 OA
ENDBRANCH  55  56
ENDBRANCH  27  50
BRANCH  39  60
ATOM     60  C   UNL A   1      39.611  33.486  37.527  1.00  0.00    -0.014 A 
ATOM     61  C   UNL A   1      38.813  32.853  38.493  1.00  0.00     0.010 A 
ATOM     62  C   UNL A   1      40.139  34.764  37.788  1.00  0.00     0.010 A 
ATOM     63  C   UNL A   1      38.537  33.496  39.699  1.00  0.00     0.020 A 
ATOM     64  C   UNL A   1      39.893  35.395  39.006  1.00  0.00     0.020 A 
ATOM     65  C   UNL A   1      39.086  34.758  39.952  1.00  0.00     0.054 A 
BRANCH  65  66
ATOM     66  S   UNL A   1      38.781  35.529  41.561  1.00  0.00     0.124 S 
ATOM     67  O   UNL A   1      37.421  35.087  41.856  1.00  0.00    -0.237 OA
ATOM     68  O   UNL A   1      39.829  34.947  42.396  1.00  0.00    -0.237 OA
ATOM     69  O   UNL A   1      38.928  36.959  41.295  1.00  0.00    -0.744 OA
ENDBRANCH  65  66
ENDBRANCH  39  60
ENDBRANCH  13  14
ENDBRANCH   6   8
ENDBRANCH   5   6
ENDBRANCH   4   5
ENDBRANCH   3   4
ENDBRANCH   2   3
ENDBRANCH   1   2
BRANCH   1  70
ATOM     70  C   UNL A   1      41.892  21.237  27.344  1.00  0.00     0.188 C 
BRANCH  70  71
ATOM     71  O   UNL A   1      40.471  21.242  27.364  1.00  0.00    -0.376 OA
BRANCH  71  72
ATOM     72  C   UNL A   1      39.772  21.241  26.136  1.00  0.00     0.202 C 
BRANCH  72  73
ATOM     73  C   UNL A   1      38.665  22.293  26.038  1.00  0.00     0.261 C 
BRANCH  73  74
ATOM     74  O   UNL A   1      37.779  22.217  24.903  1.00  0.00    -0.461 OA
BRANCH  74  75
ATOM     75  C   UNL A   1      36.720  21.360  25.031  1.00  0.00     0.336 C 
ATOM     76  O   UNL A   1      36.830  20.134  25.005  1.00  0.00    -0.249 OA
BRANCH  75  77
ATOM     77  C   UNL A   1      35.320  22.083  24.993  1.00  0.00     0.164 C 
ATOM     78  C   UNL A   1      35.122  23.176  26.076  1.00  0.00     0.046 C 
ATOM     79  C   UNL A   1      34.262  20.945  25.106  1.00  0.00    -0.008 A 
ATOM     80  C   UNL A   1      34.540  22.652  27.377  1.00  0.00     0.008 C 
ATOM     81  C   UNL A   1      33.412  20.821  26.226  1.00  0.00    -0.042 A 
ATOM     82  C   UNL A   1      34.272  19.880  24.191  1.00  0.00     0.007 A 
ATOM     83  C   UNL A   1      33.217  21.965  27.161  1.00  0.00     0.036 C 
ATOM     84  C   UNL A   1      32.724  19.627  26.487  1.00  0.00     0.004 A 
ATOM     85  C   UNL A   1      33.585  18.691  24.454  1.00  0.00     0.000 A 
ATOM     86  C   UNL A   1      32.840  18.551  25.619  1.00  0.00     0.000 A 
BRANCH  77  87
ATOM     87  N   UNL A   1      35.197  22.789  23.675  1.00  0.00    -0.336 N 
ATOM     88  C   UNL A   1      34.119  23.462  23.141  1.00  0.00     0.224 C 
ATOM     89  H   UNL A   1      36.003  22.769  23.110  1.00  0.00     0.164 HD
ATOM     90  O   UNL A   1      34.018  23.540  21.917  1.00  0.00    -0.275 OA
BRANCH  88  91
ATOM     91  C   UNL A   1      33.185  24.260  24.048  1.00  0.00     0.082 C 
ATOM     92  C   UNL A   1      31.732  23.795  24.147  1.00  0.00     0.035 C 
ATOM     93  C   UNL A   1      33.357  25.760  23.753  1.00  0.00     0.035 C 
ATOM     94  C   UNL A   1      30.810  24.444  23.130  1.00  0.00     0.120 C 
ATOM     95  C   UNL A   1      32.384  26.232  22.680  1.00  0.00     0.120 C 
ATOM     96  N   UNL A   1      31.032  25.891  23.099  1.00  0.00    -0.342 N 
ATOM     97  C   UNL A   1      30.089  26.716  23.719  1.00  0.00     0.225 C 
ATOM     98  O   UNL A   1      29.176  26.242  24.389  1.00  0.00    -0.275 OA
BRANCH  97  99
ATOM     99  C   UNL A   1      30.074  28.207  23.590  1.00  0.00     0.079 C 
ATOM    100  C   UNL A   1      30.406  28.997  22.356  1.00  0.00     0.014 C 
ATOM    101  C   UNL A   1      29.001  29.009  22.907  1.00  0.00     0.014 C 
ENDBRANCH  97  99
ENDBRANCH  88  91
ENDBRANCH  77  87
ENDBRANCH  75  77
ENDBRANCH  74  75
ENDBRANCH  73  74
ENDBRANCH  72  73
ENDBRANCH  71  72
ENDBRANCH  70  71
ENDBRANCH   1  70
TORSDOF 23
ENDMDL
MODEL 3
REMARK VINA RESULT:     -10.1      2.010      2.780
REMARK SMILES O=C(OCCOCCOCCOC(=O)[C@]1(NC(=O)C2CCN(C(=O)C3CC3)CC2)CCCc2ccccc21)c1ccc(-c2c3nc(c(-c4ccc(S(=O)(=O)[O-])cc4)c4ccc([nH]4)c(-c4ccc(S(=O)(=O)[O-])cc4)c4nc(c(-c5ccc(S(=O)(=O)[O-])cc5)c5ccc2[nH]5)C=C4)C=C3)cc1
REMARK SMILES IDX 7 1 6 2 5 3 4 4 3 5 2 6 1 7 39 8 40 9 98 10 41 11 97 12
REMARK SMILES IDX 42 13 43 14 44 15 91 16 45 17 96 18 90 19 92 20 46 21 95 22
REMARK SMILES IDX 89 23 88 24 47 26 77 27 58 28 76 29 59 30 62 31 75 32 93 33
REMARK SMILES IDX 60 34 61 35 74 37 94 38 63 39 48 40 49 41 57 42 50 43 56 44
REMARK SMILES IDX 51 45 52 46 53 47 54 48 55 49 78 50 79 51 87 52 80 53 86 54
REMARK SMILES IDX 81 55 82 56 83 57 84 58 85 59 64 60 65 61 73 62 66 63 72 64
REMARK SMILES IDX 67 65 68 66 69 67 70 68 71 69 8 70 9 71 10 72 11 73 12 74
REMARK SMILES IDX 13 75 14 76 15 77 30 78 38 79 31 80 33 81 37 82 32 83 34 84
REMARK SMILES IDX 36 85 35 86 16 87 17 88 18 90 19 91 20 92 29 93 21 94 28 95
REMARK SMILES IDX 22 96 23 97 24 98 25 99 26 100 27 101
REMARK H PARENT 92 25 62 36 16 89
REMARK Flexibility Score: inf
ROOT
ATOM      1  C   UNL A   1      34.288  31.653  27.713  1.00  0.00     0.188 C 
ENDROOT
BRANCH   1   2
ATOM      2  O   UNL A   1      34.761  32.994  27.573  1.00  0.00    -0.376 OA
BRANCH   2   3
ATOM      3  C   UNL A   1      34.096  34.004  28.324  1.00  0.00     0.202 C 
BRANCH   3   4
ATOM      4  C   UNL A   1      34.748  34.399  29.650  1.00  0.00     0.261 C 
BRANCH   4   5
ATOM      5  O   UNL A   1      34.090  33.854  30.797  1.00  0.00    -0.460 OA
BRANCH   5   6
ATOM      6  C   UNL A   1      34.552  32.929  31.674  1.00  0.00     0.338 C 
ATOM      7  O   UNL A   1      33.890  32.748  32.696  1.00  0.00    -0.246 OA
BRANCH   6   8
ATOM      8  C   UNL A   1      35.863  32.192  31.546  1.00  0.00     0.060 A 
ATOM      9  C   UNL A   1      36.783  31.908  32.565  1.00  0.00     0.016 A 
ATOM     10  C   UNL A   1      36.182  31.734  30.255  1.00  0.00     0.016 A 
ATOM     11  C   UNL A   1      37.982  31.230  32.325  1.00  0.00     0.010 A 
ATOM     12  C   UNL A   1      37.383  31.063  30.002  1.00  0.00     0.010 A 
ATOM     13  C   UNL A   1      38.306  30.837  31.036  1.00  0.00    -0.014 A 
BRANCH  13  14
ATOM     14  C   UNL A   1      39.705  30.502  30.693  1.00  0.00     0.031 A 
ATOM     15  C   UNL A   1      40.664  31.653  30.705  1.00  0.00     0.074 A 
ATOM     16  C   UNL A   1      40.130  29.258  30.403  1.00  0.00     0.049 A 
ATOM     17  N   UNL A   1      41.916  31.685  30.351  1.00  0.00    -0.248 NA
ATOM     18  C   UNL A   1      40.151  32.929  31.244  1.00  0.00     0.031 C 
ATOM     19  C   UNL A   1      39.384  28.021  30.599  1.00  0.00     0.029 A 
ATOM     20  N   UNL A   1      41.289  28.834  29.805  1.00  0.00    -0.354 N 
ATOM     21  C   UNL A   1      42.349  32.963  30.668  1.00  0.00     0.074 A 
ATOM     22  C   UNL A   1      41.211  33.710  31.144  1.00  0.00     0.031 C 
ATOM     23  C   UNL A   1      39.984  27.021  29.932  1.00  0.00     0.029 A 
ATOM     24  C   UNL A   1      41.223  27.530  29.364  1.00  0.00     0.049 A 
ATOM     25  H   UNL A   1      42.087  29.403  29.703  1.00  0.00     0.167 HD
ATOM     26  C   UNL A   1      43.607  33.449  30.621  1.00  0.00     0.031 A 
ATOM     27  C   UNL A   1      42.079  26.827  28.598  1.00  0.00     0.031 A 
ATOM     28  C   UNL A   1      44.707  32.693  30.103  1.00  0.00     0.049 A 
ATOM     29  C   UNL A   1      43.419  27.450  28.336  1.00  0.00     0.074 A 
ATOM     30  C   UNL A   1      46.027  33.069  29.965  1.00  0.00     0.029 A 
ATOM     31  N   UNL A   1      44.598  31.395  29.617  1.00  0.00    -0.354 N 
ATOM     32  N   UNL A   1      43.835  28.652  28.662  1.00  0.00    -0.248 NA
ATOM     33  C   UNL A   1      44.436  26.603  27.705  1.00  0.00     0.031 C 
ATOM     34  C   UNL A   1      46.703  32.022  29.331  1.00  0.00     0.029 A 
ATOM     35  C   UNL A   1      45.820  30.966  29.141  1.00  0.00     0.049 A 
ATOM     36  H   UNL A   1      43.771  30.861  29.612  1.00  0.00     0.167 HD
ATOM     37  C   UNL A   1      45.188  28.679  28.359  1.00  0.00     0.074 A 
ATOM     38  C   UNL A   1      45.508  27.382  27.790  1.00  0.00     0.031 C 
ATOM     39  C   UNL A   1      46.092  29.667  28.573  1.00  0.00     0.031 A 
BRANCH  26  40
ATOM     40  C   UNL A   1      43.795  34.861  31.098  1.00  0.00    -0.014 A 
ATOM     41  C   UNL A   1      43.894  35.157  32.473  1.00  0.00     0.010 A 
ATOM     42  C   UNL A   1      43.779  35.913  30.169  1.00  0.00     0.010 A 
ATOM     43  C   UNL A   1      43.905  36.482  32.911  1.00  0.00     0.020 A 
ATOM     44  C   UNL A   1      43.821  37.240  30.603  1.00  0.00     0.020 A 
ATOM     45  C   UNL A   1      43.858  37.516  31.972  1.00  0.00     0.054 A 
BRANCH  45  46
ATOM     46  S   UNL A   1      43.842  39.229  32.565  1.00  0.00     0.124 S 
ATOM     47  O   UNL A   1      45.112  39.737  32.051  1.00  0.00    -0.237 OA
ATOM     48  O   UNL A   1      42.645  39.775  31.930  1.00  0.00    -0.237 OA
ATOM     49  O   UNL A   1      43.767  39.092  34.017  1.00  0.00    -0.744 OA
ENDBRANCH  45  46
ENDBRANCH  26  40
BRANCH  27  50
ATOM     50  C   UNL A   1      41.730  25.456  28.131  1.00  0.00    -0.014 A 
ATOM     51  C   UNL A   1      40.927  25.261  26.995  1.00  0.00     0.010 A 
ATOM     52  C   UNL A   1      42.232  24.328  28.808  1.00  0.00     0.010 A 
ATOM     53  C   UNL A   1      40.616  23.968  26.555  1.00  0.00     0.020 A 
ATOM     54  C   UNL A   1      41.936  23.032  28.364  1.00  0.00     0.020 A 
ATOM     55  C   UNL A   1      41.123  22.861  27.242  1.00  0.00     0.054 A 
BRANCH  55  56
ATOM     56  S   UNL A   1      40.731  21.199  26.621  1.00  0.00     0.124 S 
ATOM     57  O   UNL A   1      41.810  20.966  25.667  1.00  0.00    -0.237 OA
ATOM     58  O   UNL A   1      40.779  20.395  27.840  1.00  0.00    -0.237 OA
ATOM     59  O   UNL A   1      39.402  21.356  26.035  1.00  0.00    -0.744 OA
ENDBRANCH  55  56
ENDBRANCH  27  50
BRANCH  39  60
ATOM     60  C   UNL A   1      47.520  29.371  28.228  1.00  0.00    -0.014 A 
ATOM     61  C   UNL A   1      48.424  28.912  29.199  1.00  0.00     0.010 A 
ATOM     62  C   UNL A   1      47.929  29.463  26.884  1.00  0.00     0.010 A 
ATOM     63  C   UNL A   1      49.723  28.561  28.832  1.00  0.00     0.020 A 
ATOM     64  C   UNL A   1      49.215  29.081  26.509  1.00  0.00     0.020 A 
ATOM     65  C   UNL A   1      50.107  28.639  27.489  1.00  0.00     0.054 A 
BRANCH  65  66
ATOM     66  S   UNL A   1      51.772  28.094  27.031  1.00  0.00     0.124 S 
ATOM     67  O   UNL A   1      51.861  26.800  27.700  1.00  0.00    -0.237 OA
ATOM     68  O   UNL A   1      51.700  28.045  25.572  1.00  0.00    -0.237 OA
ATOM     69  O   UNL A   1      52.640  29.137  27.571  1.00  0.00    -0.744 OA
ENDBRANCH  65  66
ENDBRANCH  39  60
ENDBRANCH  13  14
ENDBRANCH   6   8
ENDBRANCH   5   6
ENDBRANCH   4   5
ENDBRANCH   3   4
ENDBRANCH   2   3
ENDBRANCH   1   2
BRANCH   1  70
ATOM     70  C   UNL A   1      33.058  31.255  26.894  1.00  0.00     0.188 C 
BRANCH  70  71
ATOM     71  O   UNL A   1      32.313  30.092  27.228  1.00  0.00    -0.376 OA
BRANCH  71  72
ATOM     72  C   UNL A   1      31.752  29.320  26.188  1.00  0.00     0.202 C 
BRANCH  72  73
ATOM     73  C   UNL A   1      32.390  29.548  24.816  1.00  0.00     0.261 C 
BRANCH  73  74
ATOM     74  O   UNL A   1      32.906  28.392  24.125  1.00  0.00    -0.461 OA
BRANCH  74  75
ATOM     75  C   UNL A   1      33.707  27.565  24.865  1.00  0.00     0.336 C 
ATOM     76  O   UNL A   1      34.565  27.972  25.648  1.00  0.00    -0.249 OA
BRANCH  75  77
ATOM     77  C   UNL A   1      33.584  26.047  24.459  1.00  0.00     0.164 C 
ATOM     78  C   UNL A   1      34.048  25.719  23.016  1.00  0.00     0.046 C 
ATOM     79  C   UNL A   1      32.091  25.673  24.696  1.00  0.00    -0.008 A 
ATOM     80  C   UNL A   1      32.946  25.831  21.977  1.00  0.00     0.008 C 
ATOM     81  C   UNL A   1      31.228  25.331  23.634  1.00  0.00    -0.042 A 
ATOM     82  C   UNL A   1      31.504  25.878  25.956  1.00  0.00     0.007 A 
ATOM     83  C   UNL A   1      31.777  24.940  22.305  1.00  0.00     0.036 C 
ATOM     84  C   UNL A   1      29.834  25.340  23.799  1.00  0.00     0.004 A 
ATOM     85  C   UNL A   1      30.115  25.887  26.116  1.00  0.00     0.000 A 
ATOM     86  C   UNL A   1      29.280  25.654  25.030  1.00  0.00     0.000 A 
BRANCH  77  87
ATOM     87  N   UNL A   1      34.478  25.250  25.364  1.00  0.00    -0.336 N 
ATOM     88  C   UNL A   1      34.403  23.919  25.715  1.00  0.00     0.224 C 
ATOM     89  H   UNL A   1      35.224  25.751  25.766  1.00  0.00     0.164 HD
ATOM     90  O   UNL A   1      34.875  23.565  26.795  1.00  0.00    -0.275 OA
BRANCH  88  91
ATOM     91  C   UNL A   1      33.929  22.882  24.699  1.00  0.00     0.082 C 
ATOM     92  C   UNL A   1      32.588  22.198  24.966  1.00  0.00     0.035 C 
ATOM     93  C   UNL A   1      35.086  21.919  24.384  1.00  0.00     0.035 C 
ATOM     94  C   UNL A   1      32.704  20.916  25.772  1.00  0.00     0.120 C 
ATOM     95  C   UNL A   1      35.076  20.712  25.314  1.00  0.00     0.120 C 
ATOM     96  N   UNL A   1      33.771  20.072  25.228  1.00  0.00    -0.342 N 
ATOM     97  C   UNL A   1      33.407  18.959  24.467  1.00  0.00     0.225 C 
ATOM     98  O   UNL A   1      32.238  18.765  24.145  1.00  0.00    -0.275 OA
BRANCH  97  99
ATOM     99  C   UNL A   1      34.369  17.900  24.026  1.00  0.00     0.079 C 
ATOM    100  C   UNL A   1      34.540  16.540  24.643  1.00  0.00     0.014 C 
ATOM    101  C   UNL A   1      34.009  16.673  23.236  1.00  0.00     0.014 C 
ENDBRANCH  97  99
ENDBRANCH  88  91
ENDBRANCH  77  87
ENDBRANCH  75  77
ENDBRANCH  74  75
ENDBRANCH  73  74
ENDBRANCH  72  73
ENDBRANCH  71  72
ENDBRANCH  70  71
ENDBRANCH   1  70
TORSDOF 23
ENDMDL
