MODEL 1
REMARK VINA RESULT:     -10.0      0.000      0.000
REMARK SMILES CC(=O)Nc1cccc(-c2cc(F)ccc2C(=O)OCCOCCOCCOC(=O)c2ccc(-c3c4nc(c(-c5ccc(S(=O)(=O)[O-])cc5)c5ccc([nH]5)c(-c5ccc(S(=O)(=O)[O-])cc5)c5nc(c(-c6ccc(S(=O)(=O)[O-])cc6)c6ccc3[nH]6)C=C5)C=C4)cc2)c1
REMARK SMILES IDX 24 1 23 2 22 3 21 4 20 5 19 6 17 7 18 8 16 9 10 10 11 11
REMARK SMILES IDX 12 12 15 13 13 14 14 15 9 16 5 17 6 18 91 19 7 20 8 21 4 22
REMARK SMILES IDX 1 23 2 24 3 25 25 27 26 28 27 29 28 30 29 31 30 32 31 33
REMARK SMILES IDX 32 34 90 35 33 36 89 37 34 38 35 39 36 40 83 41 37 42 88 43
REMARK SMILES IDX 82 44 84 45 38 46 87 47 81 48 80 49 39 51 69 52 50 53 68 54
REMARK SMILES IDX 51 55 54 56 67 57 85 58 52 59 53 60 66 62 86 63 55 64 40 65
REMARK SMILES IDX 41 66 49 67 42 68 48 69 43 70 44 71 45 72 46 73 47 74 70 75
REMARK SMILES IDX 71 76 79 77 72 78 78 79 73 80 74 81 75 82 76 83 77 84 56 85
REMARK SMILES IDX 57 86 65 87 58 88 64 89 59 90 60 91 61 92 62 93 63 94
REMARK H PARENT 4 26 84 50 54 61
REMARK Flexibility Score: inf
ROOT
ATOM      1  C   UNL A   1      35.932  23.735  25.612  1.00  0.00     0.188 C 
ENDROOT
BRANCH   1   2
ATOM      2  C   UNL A   1      34.761  22.789  25.268  1.00  0.00     0.188 C 
BRANCH   2   3
ATOM      3  O   UNL A   1      34.363  22.613  23.917  1.00  0.00    -0.376 OA
BRANCH   3   4
ATOM      4  C   UNL A   1      34.183  23.765  23.097  1.00  0.00     0.202 C 
BRANCH   4   5
ATOM      5  C   UNL A   1      32.783  24.019  22.549  1.00  0.00     0.261 C 
BRANCH   5   6
ATOM      6  O   UNL A   1      32.100  24.961  23.387  1.00  0.00    -0.460 OA
BRANCH   6   7
ATOM      7  C   UNL A   1      32.230  26.256  23.034  1.00  0.00     0.338 C 
ATOM      8  O   UNL A   1      32.120  26.715  21.909  1.00  0.00    -0.246 OA
BRANCH   7   9
ATOM      9  C   UNL A   1      32.423  27.104  24.237  1.00  0.00     0.068 A 
ATOM     10  C   UNL A   1      31.476  28.048  24.718  1.00  0.00    -0.001 A 
ATOM     11  C   UNL A   1      31.805  28.731  25.907  1.00  0.00     0.048 A 
ATOM     12  C   UNL A   1      33.024  28.522  26.550  1.00  0.00     0.123 A 
ATOM     13  C   UNL A   1      33.654  26.914  24.895  1.00  0.00     0.019 A 
ATOM     14  F   UNL A   1      33.297  29.200  27.672  1.00  0.00    -0.207 F 
ATOM     15  C   UNL A   1      33.960  27.633  26.045  1.00  0.00     0.040 A 
BRANCH  10  16
ATOM     16  C   UNL A   1      30.214  28.388  24.015  1.00  0.00    -0.015 A 
ATOM     17  C   UNL A   1      28.637  30.066  23.184  1.00  0.00     0.041 A 
ATOM     18  C   UNL A   1      27.680  29.063  23.001  1.00  0.00     0.026 A 
ATOM     19  C   UNL A   1      29.906  29.711  23.646  1.00  0.00     0.034 A 
ATOM     20  C   UNL A   1      27.987  27.733  23.273  1.00  0.00     0.003 A 
ATOM     21  C   UNL A   1      29.239  27.401  23.789  1.00  0.00     0.009 A 
BRANCH  17  22
ATOM     22  N   UNL A   1      28.204  31.390  22.992  1.00  0.00    -0.326 N 
ATOM     23  C   UNL A   1      28.468  31.724  20.530  1.00  0.00     0.114 C 
ATOM     24  C   UNL A   1      28.223  32.233  21.921  1.00  0.00     0.221 C 
ATOM     25  O   UNL A   1      27.982  33.428  22.115  1.00  0.00    -0.275 OA
ATOM     26  H   UNL A   1      27.806  31.791  23.798  1.00  0.00     0.169 HD
ENDBRANCH  17  22
ENDBRANCH  10  16
ENDBRANCH   7   9
ENDBRANCH   6   7
ENDBRANCH   5   6
ENDBRANCH   4   5
ENDBRANCH   3   4
ENDBRANCH   2   3
ENDBRANCH   1   2
BRANCH   1  27
ATOM     27  O   UNL A   1      37.219  23.566  25.042  1.00  0.00    -0.376 OA
BRANCH  27  28
ATOM     28  C   UNL A   1      38.162  22.714  25.673  1.00  0.00     0.202 C 
BRANCH  28  29
ATOM     29  C   UNL A   1      39.237  23.318  26.576  1.00  0.00     0.261 C 
BRANCH  29  30
ATOM     30  O   UNL A   1      38.861  24.570  27.162  1.00  0.00    -0.460 OA
BRANCH  30  31
ATOM     31  C   UNL A   1      39.778  25.560  27.028  1.00  0.00     0.338 C 
ATOM     32  O   UNL A   1      40.481  25.791  26.059  1.00  0.00    -0.246 OA
BRANCH  31  33
ATOM     33  C   UNL A   1      39.681  26.473  28.182  1.00  0.00     0.060 A 
ATOM     34  C   UNL A   1      40.399  27.675  28.132  1.00  0.00     0.016 A 
ATOM     35  C   UNL A   1      38.931  26.136  29.311  1.00  0.00     0.016 A 
ATOM     36  C   UNL A   1      40.400  28.531  29.230  1.00  0.00     0.010 A 
ATOM     37  C   UNL A   1      38.951  26.984  30.419  1.00  0.00     0.010 A 
ATOM     38  C   UNL A   1      39.711  28.168  30.394  1.00  0.00    -0.014 A 
BRANCH  38  39
ATOM     39  C   UNL A   1      39.935  28.928  31.644  1.00  0.00     0.031 A 
ATOM     40  C   UNL A   1      38.990  30.048  31.980  1.00  0.00     0.074 A 
ATOM     41  C   UNL A   1      40.954  28.627  32.468  1.00  0.00     0.049 A 
ATOM     42  N   UNL A   1      39.012  30.874  32.992  1.00  0.00    -0.248 NA
ATOM     43  C   UNL A   1      37.870  30.264  31.046  1.00  0.00     0.031 C 
ATOM     44  C   UNL A   1      41.912  27.540  32.271  1.00  0.00     0.029 A 
ATOM     45  N   UNL A   1      41.356  29.225  33.636  1.00  0.00    -0.354 N 
ATOM     46  C   UNL A   1      37.918  31.711  32.815  1.00  0.00     0.074 A 
ATOM     47  C   UNL A   1      37.263  31.307  31.590  1.00  0.00     0.031 C 
ATOM     48  C   UNL A   1      42.803  27.559  33.279  1.00  0.00     0.029 A 
ATOM     49  C   UNL A   1      42.495  28.675  34.171  1.00  0.00     0.049 A 
ATOM     50  H   UNL A   1      40.874  29.977  34.050  1.00  0.00     0.167 HD
ATOM     51  C   UNL A   1      37.493  32.727  33.604  1.00  0.00     0.031 A 
ATOM     52  C   UNL A   1      43.218  29.046  35.247  1.00  0.00     0.031 A 
ATOM     53  C   UNL A   1      38.158  33.144  34.808  1.00  0.00     0.049 A 
ATOM     54  C   UNL A   1      42.769  30.228  36.069  1.00  0.00     0.074 A 
ATOM     55  C   UNL A   1      37.801  34.158  35.680  1.00  0.00     0.029 A 
ATOM     56  N   UNL A   1      39.323  32.580  35.303  1.00  0.00    -0.354 N 
ATOM     57  N   UNL A   1      41.715  30.992  35.907  1.00  0.00    -0.248 NA
ATOM     58  C   UNL A   1      43.604  30.591  37.222  1.00  0.00     0.031 C 
ATOM     59  C   UNL A   1      38.780  34.239  36.677  1.00  0.00     0.029 A 
ATOM     60  C   UNL A   1      39.715  33.240  36.455  1.00  0.00     0.049 A 
ATOM     61  H   UNL A   1      39.802  31.823  34.895  1.00  0.00     0.167 HD
ATOM     62  C   UNL A   1      41.747  31.910  36.952  1.00  0.00     0.074 A 
ATOM     63  C   UNL A   1      42.918  31.598  37.745  1.00  0.00     0.031 C 
ATOM     64  C   UNL A   1      40.883  32.916  37.234  1.00  0.00     0.031 A 
BRANCH  51  65
ATOM     65  C   UNL A   1      36.270  33.480  33.160  1.00  0.00    -0.014 A 
ATOM     66  C   UNL A   1      36.378  34.659  32.401  1.00  0.00     0.010 A 
ATOM     67  C   UNL A   1      34.994  32.987  33.486  1.00  0.00     0.010 A 
ATOM     68  C   UNL A   1      35.230  35.353  32.008  1.00  0.00     0.020 A 
ATOM     69  C   UNL A   1      33.843  33.665  33.074  1.00  0.00     0.020 A 
ATOM     70  C   UNL A   1      33.970  34.853  32.351  1.00  0.00     0.054 A 
BRANCH  70  71
ATOM     71  S   UNL A   1      32.496  35.764  31.814  1.00  0.00     0.124 S 
ATOM     72  O   UNL A   1      32.402  35.380  30.407  1.00  0.00    -0.237 OA
ATOM     73  O   UNL A   1      31.452  35.226  32.682  1.00  0.00    -0.237 OA
ATOM     74  O   UNL A   1      32.846  37.161  32.055  1.00  0.00    -0.744 OA
ENDBRANCH  70  71
ENDBRANCH  51  65
BRANCH  52  75
ATOM     75  C   UNL A   1      44.460  28.306  35.599  1.00  0.00    -0.014 A 
ATOM     76  C   UNL A   1      45.703  28.701  35.075  1.00  0.00     0.010 A 
ATOM     77  C   UNL A   1      44.402  27.196  36.461  1.00  0.00     0.010 A 
ATOM     78  C   UNL A   1      46.863  27.990  35.394  1.00  0.00     0.020 A 
ATOM     79  C   UNL A   1      45.563  26.497  36.801  1.00  0.00     0.020 A 
ATOM     80  C   UNL A   1      46.785  26.892  36.257  1.00  0.00     0.054 A 
BRANCH  80  81
ATOM     81  S   UNL A   1      48.311  26.014  36.697  1.00  0.00     0.124 S 
ATOM     82  O   UNL A   1      47.806  24.698  37.073  1.00  0.00    -0.237 OA
ATOM     83  O   UNL A   1      49.076  26.068  35.454  1.00  0.00    -0.237 OA
ATOM     84  O   UNL A   1      48.859  26.811  37.792  1.00  0.00    -0.744 OA
ENDBRANCH  80  81
ENDBRANCH  52  75
BRANCH  64  85
ATOM     85  C   UNL A   1      41.146  33.736  38.468  1.00  0.00    -0.014 A 
ATOM     86  C   UNL A   1      41.950  34.888  38.423  1.00  0.00     0.010 A 
ATOM     87  C   UNL A   1      40.519  33.384  39.679  1.00  0.00     0.010 A 
ATOM     88  C   UNL A   1      42.146  35.659  39.573  1.00  0.00     0.020 A 
ATOM     89  C   UNL A   1      40.692  34.166  40.823  1.00  0.00     0.020 A 
ATOM     90  C   UNL A   1      41.515  35.292  40.767  1.00  0.00     0.054 A 
BRANCH  90  91
ATOM     91  S   UNL A   1      41.743  36.335  42.233  1.00  0.00     0.124 S 
ATOM     92  O   UNL A   1      41.730  35.350  43.312  1.00  0.00    -0.237 OA
ATOM     93  O   UNL A   1      43.032  36.972  41.980  1.00  0.00    -0.237 OA
ATOM     94  O   UNL A   1      40.592  37.235  42.199  1.00  0.00    -0.744 OA
ENDBRANCH  90  91
ENDBRANCH  64  85
ENDBRANCH  38  39
ENDBRANCH  31  33
ENDBRANCH  30  31
ENDBRANCH  29  30
ENDBRANCH  28  29
ENDBRANCH  27  28
ENDBRANCH   1  27
TORSDOF 22
ENDMDL
MODEL 2
REMARK VINA RESULT:      -9.8      6.688      8.822
REMARK SMILES CC(=O)Nc1cccc(-c2cc(F)ccc2C(=O)OCCOCCOCCOC(=O)c2ccc(-c3c4nc(c(-c5ccc(S(=O)(=O)[O-])cc5)c5ccc([nH]5)c(-c5ccc(S(=O)(=O)[O-])cc5)c5nc(c(-c6ccc(S(=O)(=O)[O-])cc6)c6ccc3[nH]6)C=C5)C=C4)cc2)c1
REMARK SMILES IDX 24 1 23 2 22 3 21 4 20 5 19 6 17 7 18 8 16 9 10 10 11 11
REMARK SMILES IDX 12 12 15 13 13 14 14 15 9 16 5 17 6 18 91 19 7 20 8 21 4 22
REMARK SMILES IDX 1 23 2 24 3 25 25 27 26 28 27 29 28 30 29 31 30 32 31 33
REMARK SMILES IDX 32 34 90 35 33 36 89 37 34 38 35 39 36 40 83 41 37 42 88 43
REMARK SMILES IDX 82 44 84 45 38 46 87 47 81 48 80 49 39 51 69 52 50 53 68 54
REMARK SMILES IDX 51 55 54 56 67 57 85 58 52 59 53 60 66 62 86 63 55 64 40 65
REMARK SMILES IDX 41 66 49 67 42 68 48 69 43 70 44 71 45 72 46 73 47 74 70 75
REMARK SMILES IDX 71 76 79 77 72 78 78 79 73 80 74 81 75 82 76 83 77 84 56 85
REMARK SMILES IDX 57 86 65 87 58 88 64 89 59 90 60 91 61 92 62 93 63 94
REMARK H PARENT 4 26 84 50 54 61
REMARK Flexibility Score: inf
ROOT
ATOM      1  C   UNL A   1      36.606  22.920  24.517  1.00  0.00     0.188 C 
ENDROOT
BRANCH   1   2
ATOM      2  C   UNL A   1      35.516  23.047  25.603  1.00  0.00     0.188 C 
BRANCH   2   3
ATOM      3  O   UNL A   1      35.062  21.892  26.292  1.00  0.00    -0.376 OA
BRANCH   3   4
ATOM      4  C   UNL A   1      34.075  22.040  27.309  1.00  0.00     0.202 C 
BRANCH   4   5
ATOM      5  C   UNL A   1      33.333  23.371  27.372  1.00  0.00     0.261 C 
BRANCH   5   6
ATOM      6  O   UNL A   1      31.921  23.133  27.447  1.00  0.00    -0.460 OA
BRANCH   6   7
ATOM      7  C   UNL A   1      31.170  23.798  26.546  1.00  0.00     0.338 C 
ATOM      8  O   UNL A   1      30.188  24.482  26.784  1.00  0.00    -0.246 OA
BRANCH   7   9
ATOM      9  C   UNL A   1      31.764  23.682  25.190  1.00  0.00     0.068 A 
ATOM     10  C   UNL A   1      32.430  24.736  24.510  1.00  0.00    -0.001 A 
ATOM     11  C   UNL A   1      32.979  24.432  23.246  1.00  0.00     0.048 A 
ATOM     12  C   UNL A   1      32.830  23.169  22.676  1.00  0.00     0.123 A 
ATOM     13  C   UNL A   1      31.614  22.415  24.593  1.00  0.00     0.019 A 
ATOM     14  F   UNL A   1      33.361  22.929  21.470  1.00  0.00    -0.207 F 
ATOM     15  C   UNL A   1      32.138  22.163  23.330  1.00  0.00     0.040 A 
BRANCH  10  16
ATOM     16  C   UNL A   1      32.523  26.126  25.021  1.00  0.00    -0.015 A 
ATOM     17  C   UNL A   1      31.656  28.414  25.111  1.00  0.00     0.041 A 
ATOM     18  C   UNL A   1      32.857  28.836  25.691  1.00  0.00     0.026 A 
ATOM     19  C   UNL A   1      31.486  27.058  24.825  1.00  0.00     0.034 A 
ATOM     20  C   UNL A   1      33.865  27.921  25.979  1.00  0.00     0.003 A 
ATOM     21  C   UNL A   1      33.703  26.580  25.635  1.00  0.00     0.009 A 
BRANCH  17  22
ATOM     22  N   UNL A   1      30.743  29.421  24.752  1.00  0.00    -0.326 N 
ATOM     23  C   UNL A   1      29.950  28.691  22.498  1.00  0.00     0.114 C 
ATOM     24  C   UNL A   1      30.068  29.701  23.602  1.00  0.00     0.221 C 
ATOM     25  O   UNL A   1      29.508  30.798  23.507  1.00  0.00    -0.275 OA
ATOM     26  H   UNL A   1      30.554  30.055  25.480  1.00  0.00     0.169 HD
ENDBRANCH  17  22
ENDBRANCH  10  16
ENDBRANCH   7   9
ENDBRANCH   6   7
ENDBRANCH   5   6
ENDBRANCH   4   5
ENDBRANCH   3   4
ENDBRANCH   2   3
ENDBRANCH   1   2
BRANCH   1  27
ATOM     27  O   UNL A   1      37.499  21.820  24.482  1.00  0.00    -0.376 OA
BRANCH  27  28
ATOM     28  C   UNL A   1      38.455  21.657  25.518  1.00  0.00     0.202 C 
BRANCH  28  29
ATOM     29  C   UNL A   1      39.119  20.295  25.724  1.00  0.00     0.261 C 
BRANCH  29  30
ATOM     30  O   UNL A   1      40.090  20.282  26.777  1.00  0.00    -0.460 OA
BRANCH  30  31
ATOM     31  C   UNL A   1      41.348  19.956  26.388  1.00  0.00     0.338 C 
ATOM     32  O   UNL A   1      41.707  18.935  25.827  1.00  0.00    -0.246 OA
BRANCH  31  33
ATOM     33  C   UNL A   1      42.231  21.122  26.570  1.00  0.00     0.060 A 
ATOM     34  C   UNL A   1      42.469  21.569  27.877  1.00  0.00     0.016 A 
ATOM     35  C   UNL A   1      42.784  21.790  25.476  1.00  0.00     0.016 A 
ATOM     36  C   UNL A   1      43.233  22.712  28.094  1.00  0.00     0.010 A 
ATOM     37  C   UNL A   1      43.531  22.949  25.693  1.00  0.00     0.010 A 
ATOM     38  C   UNL A   1      43.731  23.431  26.999  1.00  0.00    -0.014 A 
BRANCH  38  39
ATOM     39  C   UNL A   1      44.298  24.783  27.209  1.00  0.00     0.031 A 
ATOM     40  C   UNL A   1      43.364  25.902  27.577  1.00  0.00     0.074 A 
ATOM     41  C   UNL A   1      45.617  25.011  27.080  1.00  0.00     0.049 A 
ATOM     42  N   UNL A   1      43.624  27.168  27.767  1.00  0.00    -0.248 NA
ATOM     43  C   UNL A   1      41.946  25.541  27.753  1.00  0.00     0.031 C 
ATOM     44  C   UNL A   1      46.626  24.001  26.766  1.00  0.00     0.029 A 
ATOM     45  N   UNL A   1      46.328  26.179  27.189  1.00  0.00    -0.354 N 
ATOM     46  C   UNL A   1      42.405  27.757  28.079  1.00  0.00     0.074 A 
ATOM     47  C   UNL A   1      41.402  26.716  28.033  1.00  0.00     0.031 C 
ATOM     48  C   UNL A   1      47.830  24.598  26.691  1.00  0.00     0.029 A 
ATOM     49  C   UNL A   1      47.668  26.033  26.923  1.00  0.00     0.049 A 
ATOM     50  H   UNL A   1      45.918  27.039  27.434  1.00  0.00     0.167 HD
ATOM     51  C   UNL A   1      42.143  29.052  28.378  1.00  0.00     0.031 A 
ATOM     52  C   UNL A   1      48.647  26.957  26.851  1.00  0.00     0.031 A 
ATOM     53  C   UNL A   1      43.135  30.091  28.399  1.00  0.00     0.049 A 
ATOM     54  C   UNL A   1      48.318  28.405  27.114  1.00  0.00     0.074 A 
ATOM     55  C   UNL A   1      42.970  31.432  28.698  1.00  0.00     0.029 A 
ATOM     56  N   UNL A   1      44.476  29.909  28.098  1.00  0.00    -0.354 N 
ATOM     57  N   UNL A   1      47.167  28.944  27.436  1.00  0.00    -0.248 NA
ATOM     58  C   UNL A   1      49.425  29.367  27.010  1.00  0.00     0.031 C 
ATOM     59  C   UNL A   1      44.204  32.071  28.529  1.00  0.00     0.029 A 
ATOM     60  C   UNL A   1      45.146  31.117  28.178  1.00  0.00     0.049 A 
ATOM     61  H   UNL A   1      44.890  29.048  27.861  1.00  0.00     0.167 HD
ATOM     62  C   UNL A   1      47.415  30.304  27.598  1.00  0.00     0.074 A 
ATOM     63  C   UNL A   1      48.828  30.502  27.349  1.00  0.00     0.031 C 
ATOM     64  C   UNL A   1      46.554  31.297  27.928  1.00  0.00     0.031 A 
BRANCH  51  65
ATOM     65  C   UNL A   1      40.713  29.417  28.667  1.00  0.00    -0.014 A 
ATOM     66  C   UNL A   1      39.740  29.401  27.651  1.00  0.00     0.010 A 
ATOM     67  C   UNL A   1      40.333  29.757  29.977  1.00  0.00     0.010 A 
ATOM     68  C   UNL A   1      38.418  29.756  27.935  1.00  0.00     0.020 A 
ATOM     69  C   UNL A   1      39.008  30.089  30.269  1.00  0.00     0.020 A 
ATOM     70  C   UNL A   1      38.062  30.102  29.242  1.00  0.00     0.054 A 
BRANCH  70  71
ATOM     71  S   UNL A   1      36.337  30.542  29.587  1.00  0.00     0.124 S 
ATOM     72  O   UNL A   1      36.242  30.286  31.022  1.00  0.00    -0.237 OA
ATOM     73  O   UNL A   1      36.279  31.948  29.195  1.00  0.00    -0.237 OA
ATOM     74  O   UNL A   1      35.571  29.630  28.741  1.00  0.00    -0.744 OA
ENDBRANCH  70  71
ENDBRANCH  51  65
BRANCH  52  75
ATOM     75  C   UNL A   1      50.032  26.547  26.492  1.00  0.00    -0.014 A 
ATOM     76  C   UNL A   1      50.950  26.175  27.488  1.00  0.00     0.010 A 
ATOM     77  C   UNL A   1      50.438  26.533  25.145  1.00  0.00     0.010 A 
ATOM     78  C   UNL A   1      52.255  25.809  27.145  1.00  0.00     0.020 A 
ATOM     79  C   UNL A   1      51.734  26.145  24.797  1.00  0.00     0.020 A 
ATOM     80  C   UNL A   1      52.639  25.797  25.800  1.00  0.00     0.054 A 
BRANCH  80  81
ATOM     81  S   UNL A   1      54.323  25.271  25.374  1.00  0.00     0.124 S 
ATOM     82  O   UNL A   1      54.107  23.901  24.921  1.00  0.00    -0.237 OA
ATOM     83  O   UNL A   1      54.699  26.229  24.337  1.00  0.00    -0.237 OA
ATOM     84  O   UNL A   1      55.051  25.409  26.633  1.00  0.00    -0.744 OA
ENDBRANCH  80  81
ENDBRANCH  52  75
BRANCH  64  85
ATOM     85  C   UNL A   1      47.115  32.687  28.076  1.00  0.00    -0.014 A 
ATOM     86  C   UNL A   1      47.640  33.136  29.300  1.00  0.00     0.010 A 
ATOM     87  C   UNL A   1      47.178  33.531  26.951  1.00  0.00     0.010 A 
ATOM     88  C   UNL A   1      48.194  34.415  29.404  1.00  0.00     0.020 A 
ATOM     89  C   UNL A   1      47.755  34.799  27.044  1.00  0.00     0.020 A 
ATOM     90  C   UNL A   1      48.247  35.239  28.274  1.00  0.00     0.054 A 
BRANCH  90  91
ATOM     91  S   UNL A   1      49.017  36.875  28.420  1.00  0.00     0.124 S 
ATOM     92  O   UNL A   1      48.341  37.425  29.592  1.00  0.00    -0.237 OA
ATOM     93  O   UNL A   1      50.430  36.553  28.603  1.00  0.00    -0.237 OA
ATOM     94  O   UNL A   1      48.692  37.525  27.152  1.00  0.00    -0.744 OA
ENDBRANCH  90  91
ENDBRANCH  64  85
ENDBRANCH  38  39
ENDBRANCH  31  33
ENDBRANCH  30  31
ENDBRANCH  29  30
ENDBRANCH  28  29
ENDBRANCH  27  28
ENDBRANCH   1  27
TORSDOF 22
ENDMDL
MODEL 3
REMARK VINA RESULT:      -9.6      6.564      8.551
REMARK SMILES CC(=O)Nc1cccc(-c2cc(F)ccc2C(=O)OCCOCCOCCOC(=O)c2ccc(-c3c4nc(c(-c5ccc(S(=O)(=O)[O-])cc5)c5ccc([nH]5)c(-c5ccc(S(=O)(=O)[O-])cc5)c5nc(c(-c6ccc(S(=O)(=O)[O-])cc6)c6ccc3[nH]6)C=C5)C=C4)cc2)c1
REMARK SMILES IDX 24 1 23 2 22 3 21 4 20 5 19 6 17 7 18 8 16 9 10 10 11 11
REMARK SMILES IDX 12 12 15 13 13 14 14 15 9 16 5 17 6 18 91 19 7 20 8 21 4 22
REMARK SMILES IDX 1 23 2 24 3 25 25 27 26 28 27 29 28 30 29 31 30 32 31 33
REMARK SMILES IDX 32 34 90 35 33 36 89 37 34 38 35 39 36 40 83 41 37 42 88 43
REMARK SMILES IDX 82 44 84 45 38 46 87 47 81 48 80 49 39 51 69 52 50 53 68 54
REMARK SMILES IDX 51 55 54 56 67 57 85 58 52 59 53 60 66 62 86 63 55 64 40 65
REMARK SMILES IDX 41 66 49 67 42 68 48 69 43 70 44 71 45 72 46 73 47 74 70 75
REMARK SMILES IDX 71 76 79 77 72 78 78 79 73 80 74 81 75 82 76 83 77 84 56 85
REMARK SMILES IDX 57 86 65 87 58 88 64 89 59 90 60 91 61 92 62 93 63 94
REMARK H PARENT 4 26 84 50 54 61
REMARK Flexibility Score: inf
ROOT
ATOM      1  C   UNL A   1      36.521  22.689  23.780  1.00  0.00     0.188 C 
ENDROOT
BRANCH   1   2
ATOM      2  C   UNL A   1      34.997  22.894  23.634  1.00  0.00     0.188 C 
BRANCH   2   3
ATOM      3  O   UNL A   1      34.459  23.381  22.414  1.00  0.00    -0.376 OA
BRANCH   3   4
ATOM      4  C   UNL A   1      33.090  23.123  22.114  1.00  0.00     0.202 C 
BRANCH   4   5
ATOM      5  C   UNL A   1      32.149  24.321  22.066  1.00  0.00     0.261 C 
BRANCH   5   6
ATOM      6  O   UNL A   1      30.922  23.999  22.736  1.00  0.00    -0.460 OA
BRANCH   6   7
ATOM      7  C   UNL A   1      30.673  24.697  23.862  1.00  0.00     0.338 C 
ATOM      8  O   UNL A   1      29.771  25.501  24.031  1.00  0.00    -0.246 OA
BRANCH   7   9
ATOM      9  C   UNL A   1      31.594  24.278  24.947  1.00  0.00     0.068 A 
ATOM     10  C   UNL A   1      32.609  25.099  25.506  1.00  0.00    -0.001 A 
ATOM     11  C   UNL A   1      33.359  24.553  26.568  1.00  0.00     0.048 A 
ATOM     12  C   UNL A   1      33.143  23.250  27.013  1.00  0.00     0.123 A 
ATOM     13  C   UNL A   1      31.396  22.959  25.404  1.00  0.00     0.019 A 
ATOM     14  F   UNL A   1      33.885  22.770  28.019  1.00  0.00    -0.207 F 
ATOM     15  C   UNL A   1      32.180  22.442  26.429  1.00  0.00     0.040 A 
BRANCH  10  16
ATOM     16  C   UNL A   1      32.954  26.450  24.999  1.00  0.00    -0.015 A 
ATOM     17  C   UNL A   1      32.540  28.863  24.941  1.00  0.00     0.041 A 
ATOM     18  C   UNL A   1      33.352  28.965  23.806  1.00  0.00     0.026 A 
ATOM     19  C   UNL A   1      32.387  27.615  25.549  1.00  0.00     0.034 A 
ATOM     20  C   UNL A   1      33.998  27.845  23.293  1.00  0.00     0.003 A 
ATOM     21  C   UNL A   1      33.789  26.597  23.877  1.00  0.00     0.009 A 
BRANCH  17  22
ATOM     22  N   UNL A   1      31.839  30.022  25.319  1.00  0.00    -0.326 N 
ATOM     23  C   UNL A   1      33.214  30.928  27.198  1.00  0.00     0.114 C 
ATOM     24  C   UNL A   1      31.970  30.894  26.358  1.00  0.00     0.221 C 
ATOM     25  O   UNL A   1      31.055  31.697  26.564  1.00  0.00    -0.275 OA
ATOM     26  H   UNL A   1      31.102  30.249  24.709  1.00  0.00     0.169 HD
ENDBRANCH  17  22
ENDBRANCH  10  16
ENDBRANCH   7   9
ENDBRANCH   6   7
ENDBRANCH   5   6
ENDBRANCH   4   5
ENDBRANCH   3   4
ENDBRANCH   2   3
ENDBRANCH   1   2
BRANCH   1  27
ATOM     27  O   UNL A   1      37.068  21.472  24.257  1.00  0.00    -0.376 OA
BRANCH  27  28
ATOM     28  C   UNL A   1      38.022  21.493  25.307  1.00  0.00     0.202 C 
BRANCH  28  29
ATOM     29  C   UNL A   1      38.918  20.276  25.536  1.00  0.00     0.261 C 
BRANCH  29  30
ATOM     30  O   UNL A   1      39.867  20.451  26.595  1.00  0.00    -0.460 OA
BRANCH  30  31
ATOM     31  C   UNL A   1      41.138  20.096  26.285  1.00  0.00     0.338 C 
ATOM     32  O   UNL A   1      41.509  19.063  25.756  1.00  0.00    -0.246 OA
BRANCH  31  33
ATOM     33  C   UNL A   1      42.033  21.245  26.512  1.00  0.00     0.060 A 
ATOM     34  C   UNL A   1      42.330  21.597  27.835  1.00  0.00     0.016 A 
ATOM     35  C   UNL A   1      42.539  21.991  25.445  1.00  0.00     0.016 A 
ATOM     36  C   UNL A   1      43.108  22.721  28.099  1.00  0.00     0.010 A 
ATOM     37  C   UNL A   1      43.299  23.130  25.712  1.00  0.00     0.010 A 
ATOM     38  C   UNL A   1      43.559  23.517  27.038  1.00  0.00    -0.014 A 
BRANCH  38  39
ATOM     39  C   UNL A   1      44.139  24.850  27.319  1.00  0.00     0.031 A 
ATOM     40  C   UNL A   1      43.219  25.952  27.766  1.00  0.00     0.074 A 
ATOM     41  C   UNL A   1      45.458  25.076  27.185  1.00  0.00     0.049 A 
ATOM     42  N   UNL A   1      43.492  27.203  28.027  1.00  0.00    -0.248 NA
ATOM     43  C   UNL A   1      41.801  25.592  27.941  1.00  0.00     0.031 C 
ATOM     44  C   UNL A   1      46.455  24.079  26.798  1.00  0.00     0.029 A 
ATOM     45  N   UNL A   1      46.180  26.231  27.352  1.00  0.00    -0.354 N 
ATOM     46  C   UNL A   1      42.282  27.781  28.390  1.00  0.00     0.074 A 
ATOM     47  C   UNL A   1      41.270  26.751  28.297  1.00  0.00     0.031 C 
ATOM     48  C   UNL A   1      47.662  24.671  26.742  1.00  0.00     0.029 A 
ATOM     49  C   UNL A   1      47.515  26.091  27.060  1.00  0.00     0.049 A 
ATOM     50  H   UNL A   1      45.780  27.078  27.654  1.00  0.00     0.167 HD
ATOM     51  C   UNL A   1      42.034  29.058  28.769  1.00  0.00     0.031 A 
ATOM     52  C   UNL A   1      48.500  27.011  27.028  1.00  0.00     0.031 A 
ATOM     53  C   UNL A   1      43.035  30.087  28.837  1.00  0.00     0.049 A 
ATOM     54  C   UNL A   1      48.186  28.443  27.381  1.00  0.00     0.074 A 
ATOM     55  C   UNL A   1      42.885  31.409  29.217  1.00  0.00     0.029 A 
ATOM     56  N   UNL A   1      44.370  29.913  28.506  1.00  0.00    -0.354 N 
ATOM     57  N   UNL A   1      47.044  28.970  27.750  1.00  0.00    -0.248 NA
ATOM     58  C   UNL A   1      49.299  29.401  27.318  1.00  0.00     0.031 C 
ATOM     59  C   UNL A   1      44.121  32.048  29.068  1.00  0.00     0.029 A 
ATOM     60  C   UNL A   1      45.051  31.110  28.648  1.00  0.00     0.049 A 
ATOM     61  H   UNL A   1      44.774  29.065  28.213  1.00  0.00     0.167 HD
ATOM     62  C   UNL A   1      47.305  30.316  27.989  1.00  0.00     0.074 A 
ATOM     63  C   UNL A   1      48.716  30.519  27.732  1.00  0.00     0.031 C 
ATOM     64  C   UNL A   1      46.457  31.294  28.389  1.00  0.00     0.031 A 
BRANCH  51  65
ATOM     65  C   UNL A   1      40.612  29.415  29.099  1.00  0.00    -0.014 A 
ATOM     66  C   UNL A   1      40.180  29.522  30.433  1.00  0.00     0.010 A 
ATOM     67  C   UNL A   1      39.700  29.670  28.059  1.00  0.00     0.010 A 
ATOM     68  C   UNL A   1      38.850  29.841  30.721  1.00  0.00     0.020 A 
ATOM     69  C   UNL A   1      38.376  30.013  28.343  1.00  0.00     0.020 A 
ATOM     70  C   UNL A   1      37.956  30.081  29.673  1.00  0.00     0.054 A 
BRANCH  70  71
ATOM     71  S   UNL A   1      36.240  30.510  30.075  1.00  0.00     0.124 S 
ATOM     72  O   UNL A   1      36.225  31.950  29.828  1.00  0.00    -0.237 OA
ATOM     73  O   UNL A   1      35.476  29.703  29.126  1.00  0.00    -0.237 OA
ATOM     74  O   UNL A   1      36.103  30.118  31.475  1.00  0.00    -0.744 OA
ENDBRANCH  70  71
ENDBRANCH  51  65
BRANCH  52  75
ATOM     75  C   UNL A   1      49.876  26.613  26.626  1.00  0.00    -0.014 A 
ATOM     76  C   UNL A   1      50.832  26.259  27.593  1.00  0.00     0.010 A 
ATOM     77  C   UNL A   1      50.237  26.592  25.266  1.00  0.00     0.010 A 
ATOM     78  C   UNL A   1      52.129  25.905  27.209  1.00  0.00     0.020 A 
ATOM     79  C   UNL A   1      51.525  26.215  24.878  1.00  0.00     0.020 A 
ATOM     80  C   UNL A   1      52.467  25.885  25.853  1.00  0.00     0.054 A 
BRANCH  80  81
ATOM     81  S   UNL A   1      54.141  25.374  25.374  1.00  0.00     0.124 S 
ATOM     82  O   UNL A   1      54.761  26.650  25.031  1.00  0.00    -0.237 OA
ATOM     83  O   UNL A   1      54.636  24.736  26.591  1.00  0.00    -0.237 OA
ATOM     84  O   UNL A   1      53.912  24.466  24.252  1.00  0.00    -0.744 OA
ENDBRANCH  80  81
ENDBRANCH  52  75
BRANCH  64  85
ATOM     85  C   UNL A   1      47.030  32.668  28.611  1.00  0.00    -0.014 A 
ATOM     86  C   UNL A   1      47.488  33.073  29.877  1.00  0.00     0.010 A 
ATOM     87  C   UNL A   1      47.175  33.543  27.517  1.00  0.00     0.010 A 
ATOM     88  C   UNL A   1      48.056  34.339  30.051  1.00  0.00     0.020 A 
ATOM     89  C   UNL A   1      47.766  34.797  27.681  1.00  0.00     0.020 A 
ATOM     90  C   UNL A   1      48.191  35.193  28.950  1.00  0.00     0.054 A 
BRANCH  90  91
ATOM     91  S   UNL A   1      48.978  36.810  29.190  1.00  0.00     0.124 S 
ATOM     92  O   UNL A   1      50.313  36.582  28.643  1.00  0.00    -0.237 OA
ATOM     93  O   UNL A   1      48.125  37.704  28.411  1.00  0.00    -0.237 OA
ATOM     94  O   UNL A   1      48.923  37.011  30.637  1.00  0.00    -0.744 OA
ENDBRANCH  90  91
ENDBRANCH  64  85
ENDBRANCH  38  39
ENDBRANCH  31  33
ENDBRANCH  30  31
ENDBRANCH  29  30
ENDBRANCH  28  29
ENDBRANCH  27  28
ENDBRANCH   1  27
TORSDOF 22
ENDMDL
