MODEL 1
REMARK VINA RESULT:     -10.0      0.000      0.000
REMARK SMILES O=C(C[C@@H]1C(=O)NCC[N@@H+]1Cc1ccc(F)c(F)c1)OCCOCCOCCOC(=O)c1ccc(-c2c3nc(c(-c4ccc(S(=O)(=O)[O-])cc4)c4ccc([nH]4)c(-c4ccc(S(=O)(=O)[O-])cc4)c4nc(c(-c5ccc(S(=O)(=O)[O-])cc5)c5ccc2[nH]5)C=C4)C=C3)cc1
REMARK SMILES IDX 24 1 23 2 22 3 21 4 20 5 2 6 1 7 3 8 4 9 5 10 10 11 6 12
REMARK SMILES IDX 7 13 9 14 8 16 11 18 12 19 13 20 19 21 14 22 17 23 15 24
REMARK SMILES IDX 18 25 16 26 25 27 26 28 27 29 28 30 29 31 30 32 31 33 32 34
REMARK SMILES IDX 33 35 91 36 34 37 90 38 35 39 36 40 37 41 84 42 38 43 89 44
REMARK SMILES IDX 83 45 85 46 39 47 88 48 82 49 81 50 40 52 70 53 51 54 69 55
REMARK SMILES IDX 52 56 55 57 68 58 86 59 53 60 54 61 67 63 87 64 56 65 41 66
REMARK SMILES IDX 42 67 50 68 43 69 49 70 44 71 45 72 46 73 47 74 48 75 71 76
REMARK SMILES IDX 72 77 80 78 73 79 79 80 74 81 75 82 76 83 77 84 78 85 57 86
REMARK SMILES IDX 58 87 66 88 59 89 65 90 60 91 61 92 62 93 63 94 64 95
REMARK H PARENT 10 15 7 17 85 51 55 62
REMARK Flexibility Score: inf
ROOT
ATOM      1  C   UNL A   1      41.240  20.548  27.576  1.00  0.00     0.188 C 
ENDROOT
BRANCH   1   2
ATOM      2  O   UNL A   1      40.039  20.392  26.860  1.00  0.00    -0.376 OA
BRANCH   2   3
ATOM      3  C   UNL A   1      39.656  21.524  26.112  1.00  0.00     0.202 C 
BRANCH   3   4
ATOM      4  C   UNL A   1      38.236  21.547  25.548  1.00  0.00     0.261 C 
BRANCH   4   5
ATOM      5  O   UNL A   1      37.378  22.683  25.710  1.00  0.00    -0.463 OA
BRANCH   5   6
ATOM      6  C   UNL A   1      36.391  22.948  24.825  1.00  0.00     0.312 C 
ATOM      7  O   UNL A   1      36.644  23.171  23.646  1.00  0.00    -0.252 OA
BRANCH   6   8
ATOM      8  C   UNL A   1      35.036  23.162  25.399  1.00  0.00     0.198 C 
BRANCH   8   9
ATOM      9  C   UNL A   1      33.761  23.074  24.530  1.00  0.00     0.285 C 
ATOM     10  C   UNL A   1      33.018  24.449  24.615  1.00  0.00     0.279 C 
ATOM     11  N   UNL A   1      32.830  21.927  24.274  1.00  0.00    -0.319 N 
ATOM     12  O   UNL A   1      33.485  25.446  25.164  1.00  0.00    -0.268 OA
ATOM     13  N   UNL A   1      31.845  24.598  23.938  1.00  0.00    -0.345 N 
ATOM     14  C   UNL A   1      31.960  22.250  23.134  1.00  0.00     0.284 C 
ATOM     15  H   UNL A   1      33.615  21.277  24.313  1.00  0.00     0.349 HD
ATOM     16  C   UNL A   1      31.104  23.501  23.386  1.00  0.00     0.177 C 
ATOM     17  H   UNL A   1      31.488  25.507  23.822  1.00  0.00     0.163 HD
BRANCH  11  18
ATOM     18  C   UNL A   1      32.356  20.836  25.144  1.00  0.00     0.299 C 
BRANCH  18  19
ATOM     19  C   UNL A   1      33.128  19.501  25.153  1.00  0.00     0.009 A 
ATOM     20  C   UNL A   1      34.438  19.399  24.666  1.00  0.00     0.013 A 
ATOM     21  C   UNL A   1      32.574  18.315  25.663  1.00  0.00     0.052 A 
ATOM     22  C   UNL A   1      35.025  18.154  24.394  1.00  0.00     0.043 A 
ATOM     23  C   UNL A   1      33.135  17.069  25.373  1.00  0.00     0.159 A 
ATOM     24  C   UNL A   1      34.335  16.990  24.692  1.00  0.00     0.158 A 
ATOM     25  F   UNL A   1      32.481  15.953  25.728  1.00  0.00    -0.204 F 
ATOM     26  F   UNL A   1      34.849  15.803  24.345  1.00  0.00    -0.204 F 
ENDBRANCH  18  19
ENDBRANCH  11  18
ENDBRANCH   8   9
ENDBRANCH   6   8
ENDBRANCH   5   6
ENDBRANCH   4   5
ENDBRANCH   3   4
ENDBRANCH   2   3
ENDBRANCH   1   2
BRANCH   1  27
ATOM     27  C   UNL A   1      42.245  19.418  27.311  1.00  0.00     0.188 C 
BRANCH  27  28
ATOM     28  O   UNL A   1      42.393  18.901  25.991  1.00  0.00    -0.376 OA
BRANCH  28  29
ATOM     29  C   UNL A   1      43.518  19.258  25.183  1.00  0.00     0.202 C 
BRANCH  29  30
ATOM     30  C   UNL A   1      44.166  20.641  25.322  1.00  0.00     0.261 C 
BRANCH  30  31
ATOM     31  O   UNL A   1      43.291  21.703  24.910  1.00  0.00    -0.460 OA
BRANCH  31  32
ATOM     32  C   UNL A   1      43.896  22.863  24.548  1.00  0.00     0.338 C 
ATOM     33  O   UNL A   1      44.562  23.062  23.559  1.00  0.00    -0.246 OA
BRANCH  32  34
ATOM     34  C   UNL A   1      43.428  23.944  25.443  1.00  0.00     0.060 A 
ATOM     35  C   UNL A   1      43.875  25.247  25.175  1.00  0.00     0.016 A 
ATOM     36  C   UNL A   1      42.556  23.698  26.504  1.00  0.00     0.016 A 
ATOM     37  C   UNL A   1      43.423  26.318  25.939  1.00  0.00     0.010 A 
ATOM     38  C   UNL A   1      42.178  24.756  27.332  1.00  0.00     0.010 A 
ATOM     39  C   UNL A   1      42.635  26.060  27.064  1.00  0.00    -0.014 A 
BRANCH  39  40
ATOM     40  C   UNL A   1      42.610  27.059  28.153  1.00  0.00     0.031 A 
ATOM     41  C   UNL A   1      43.683  26.931  29.198  1.00  0.00     0.074 A 
ATOM     42  C   UNL A   1      41.660  28.004  28.240  1.00  0.00     0.049 A 
ATOM     43  N   UNL A   1      43.835  27.578  30.321  1.00  0.00    -0.248 NA
ATOM     44  C   UNL A   1      44.724  25.917  28.943  1.00  0.00     0.031 C 
ATOM     45  C   UNL A   1      40.611  28.248  27.253  1.00  0.00     0.029 A 
ATOM     46  N   UNL A   1      41.415  28.918  29.233  1.00  0.00    -0.354 N 
ATOM     47  C   UNL A   1      44.973  27.037  30.908  1.00  0.00     0.074 A 
ATOM     48  C   UNL A   1      45.469  26.007  30.029  1.00  0.00     0.031 C 
ATOM     49  C   UNL A   1      39.807  29.225  27.711  1.00  0.00     0.029 A 
ATOM     50  C   UNL A   1      40.263  29.640  29.037  1.00  0.00     0.049 A 
ATOM     51  H   UNL A   1      42.007  29.044  30.010  1.00  0.00     0.167 HD
ATOM     52  C   UNL A   1      45.544  27.356  32.091  1.00  0.00     0.031 A 
ATOM     53  C   UNL A   1      39.632  30.501  29.861  1.00  0.00     0.031 A 
ATOM     54  C   UNL A   1      44.997  28.333  32.987  1.00  0.00     0.049 A 
ATOM     55  C   UNL A   1      40.235  30.790  31.213  1.00  0.00     0.074 A 
ATOM     56  C   UNL A   1      45.479  28.738  34.216  1.00  0.00     0.029 A 
ATOM     57  N   UNL A   1      43.825  29.039  32.756  1.00  0.00    -0.354 N 
ATOM     58  N   UNL A   1      41.326  30.294  31.752  1.00  0.00    -0.248 NA
ATOM     59  C   UNL A   1      39.529  31.756  32.066  1.00  0.00     0.031 C 
ATOM     60  C   UNL A   1      44.560  29.642  34.760  1.00  0.00     0.029 A 
ATOM     61  C   UNL A   1      43.550  29.860  33.833  1.00  0.00     0.049 A 
ATOM     62  H   UNL A   1      43.271  28.965  31.945  1.00  0.00     0.167 HD
ATOM     63  C   UNL A   1      41.456  30.912  32.992  1.00  0.00     0.074 A 
ATOM     64  C   UNL A   1      40.331  31.818  33.123  1.00  0.00     0.031 C 
ATOM     65  C   UNL A   1      42.422  30.755  33.933  1.00  0.00     0.031 A 
BRANCH  52  66
ATOM     66  C   UNL A   1      46.762  26.567  32.495  1.00  0.00    -0.014 A 
ATOM     67  C   UNL A   1      48.039  26.874  31.989  1.00  0.00     0.010 A 
ATOM     68  C   UNL A   1      46.615  25.466  33.357  1.00  0.00     0.010 A 
ATOM     69  C   UNL A   1      49.134  26.059  32.289  1.00  0.00     0.020 A 
ATOM     70  C   UNL A   1      47.714  24.670  33.689  1.00  0.00     0.020 A 
ATOM     71  C   UNL A   1      48.961  24.957  33.132  1.00  0.00     0.054 A 
BRANCH  71  72
ATOM     72  S   UNL A   1      50.394  23.906  33.494  1.00  0.00     0.124 S 
ATOM     73  O   UNL A   1      49.790  22.833  34.280  1.00  0.00    -0.237 OA
ATOM     74  O   UNL A   1      50.856  23.525  32.162  1.00  0.00    -0.237 OA
ATOM     75  O   UNL A   1      51.294  24.789  34.233  1.00  0.00    -0.744 OA
ENDBRANCH  71  72
ENDBRANCH  52  66
BRANCH  53  76
ATOM     76  C   UNL A   1      38.348  31.121  29.430  1.00  0.00    -0.014 A 
ATOM     77  C   UNL A   1      37.152  30.384  29.437  1.00  0.00     0.010 A 
ATOM     78  C   UNL A   1      38.307  32.481  29.067  1.00  0.00     0.010 A 
ATOM     79  C   UNL A   1      35.939  30.996  29.103  1.00  0.00     0.020 A 
ATOM     80  C   UNL A   1      37.092  33.104  28.756  1.00  0.00     0.020 A 
ATOM     81  C   UNL A   1      35.914  32.356  28.777  1.00  0.00     0.054 A 
BRANCH  81  82
ATOM     82  S   UNL A   1      34.315  33.150  28.452  1.00  0.00     0.124 S 
ATOM     83  O   UNL A   1      33.884  33.534  29.792  1.00  0.00    -0.237 OA
ATOM     84  O   UNL A   1      34.685  34.251  27.566  1.00  0.00    -0.237 OA
ATOM     85  O   UNL A   1      33.527  32.092  27.821  1.00  0.00    -0.744 OA
ENDBRANCH  81  82
ENDBRANCH  53  76
BRANCH  65  86
ATOM     86  C   UNL A   1      42.352  31.616  35.167  1.00  0.00    -0.014 A 
ATOM     87  C   UNL A   1      41.760  31.155  36.355  1.00  0.00     0.010 A 
ATOM     88  C   UNL A   1      42.999  32.867  35.160  1.00  0.00     0.010 A 
ATOM     89  C   UNL A   1      41.806  31.938  37.512  1.00  0.00     0.020 A 
ATOM     90  C   UNL A   1      43.072  33.637  36.321  1.00  0.00     0.020 A 
ATOM     91  C   UNL A   1      42.467  33.171  37.489  1.00  0.00     0.054 A 
BRANCH  91  92
ATOM     92  S   UNL A   1      42.579  34.131  39.024  1.00  0.00     0.124 S 
ATOM     93  O   UNL A   1      41.184  34.491  39.259  1.00  0.00    -0.237 OA
ATOM     94  O   UNL A   1      43.147  33.167  39.964  1.00  0.00    -0.237 OA
ATOM     95  O   UNL A   1      43.460  35.244  38.674  1.00  0.00    -0.744 OA
ENDBRANCH  91  92
ENDBRANCH  65  86
ENDBRANCH  39  40
ENDBRANCH  32  34
ENDBRANCH  31  32
ENDBRANCH  30  31
ENDBRANCH  29  30
ENDBRANCH  28  29
ENDBRANCH  27  28
ENDBRANCH   1  27
TORSDOF 23
ENDMDL
MODEL 2
REMARK VINA RESULT:      -9.6      2.539      3.704
REMARK SMILES O=C(C[C@@H]1C(=O)NCC[N@@H+]1Cc1ccc(F)c(F)c1)OCCOCCOCCOC(=O)c1ccc(-c2c3nc(c(-c4ccc(S(=O)(=O)[O-])cc4)c4ccc([nH]4)c(-c4ccc(S(=O)(=O)[O-])cc4)c4nc(c(-c5ccc(S(=O)(=O)[O-])cc5)c5ccc2[nH]5)C=C4)C=C3)cc1
REMARK SMILES IDX 24 1 23 2 22 3 21 4 20 5 2 6 1 7 3 8 4 9 5 10 10 11 6 12
REMARK SMILES IDX 7 13 9 14 8 16 11 18 12 19 13 20 19 21 14 22 17 23 15 24
REMARK SMILES IDX 18 25 16 26 25 27 26 28 27 29 28 30 29 31 30 32 31 33 32 34
REMARK SMILES IDX 33 35 91 36 34 37 90 38 35 39 36 40 37 41 84 42 38 43 89 44
REMARK SMILES IDX 83 45 85 46 39 47 88 48 82 49 81 50 40 52 70 53 51 54 69 55
REMARK SMILES IDX 52 56 55 57 68 58 86 59 53 60 54 61 67 63 87 64 56 65 41 66
REMARK SMILES IDX 42 67 50 68 43 69 49 70 44 71 45 72 46 73 47 74 48 75 71 76
REMARK SMILES IDX 72 77 80 78 73 79 79 80 74 81 75 82 76 83 77 84 78 85 57 86
REMARK SMILES IDX 58 87 66 88 59 89 65 90 60 91 61 92 62 93 63 94 64 95
REMARK H PARENT 10 15 7 17 85 51 55 62
REMARK Flexibility Score: inf
ROOT
ATOM      1  C   UNL A   1      40.899  20.969  27.616  1.00  0.00     0.188 C 
ENDROOT
BRANCH   1   2
ATOM      2  O   UNL A   1      39.670  20.699  26.985  1.00  0.00    -0.376 OA
BRANCH   2   3
ATOM      3  C   UNL A   1      39.515  21.316  25.726  1.00  0.00     0.202 C 
BRANCH   3   4
ATOM      4  C   UNL A   1      38.145  21.906  25.397  1.00  0.00     0.261 C 
BRANCH   4   5
ATOM      5  O   UNL A   1      37.437  22.735  26.326  1.00  0.00    -0.463 OA
BRANCH   5   6
ATOM      6  C   UNL A   1      36.235  23.271  26.014  1.00  0.00     0.312 C 
ATOM      7  O   UNL A   1      36.154  24.370  25.475  1.00  0.00    -0.252 OA
BRANCH   6   8
ATOM      8  C   UNL A   1      35.042  22.560  26.547  1.00  0.00     0.198 C 
BRANCH   8   9
ATOM      9  C   UNL A   1      33.758  22.381  25.706  1.00  0.00     0.285 C 
ATOM     10  C   UNL A   1      33.980  21.178  24.729  1.00  0.00     0.279 C 
ATOM     11  N   UNL A   1      32.793  23.393  25.169  1.00  0.00    -0.319 N 
ATOM     12  O   UNL A   1      34.962  20.437  24.768  1.00  0.00    -0.268 OA
ATOM     13  N   UNL A   1      32.978  20.846  23.868  1.00  0.00    -0.345 N 
ATOM     14  C   UNL A   1      31.572  22.711  24.714  1.00  0.00     0.284 C 
ATOM     15  H   UNL A   1      32.930  23.969  26.000  1.00  0.00     0.349 HD
ATOM     16  C   UNL A   1      31.852  21.692  23.599  1.00  0.00     0.177 C 
ATOM     17  H   UNL A   1      33.031  19.980  23.405  1.00  0.00     0.163 HD
BRANCH  11  18
ATOM     18  C   UNL A   1      32.993  24.755  24.639  1.00  0.00     0.299 C 
BRANCH  18  19
ATOM     19  C   UNL A   1      32.840  25.955  25.593  1.00  0.00     0.009 A 
ATOM     20  C   UNL A   1      31.641  26.219  26.269  1.00  0.00     0.013 A 
ATOM     21  C   UNL A   1      33.895  26.846  25.857  1.00  0.00     0.052 A 
ATOM     22  C   UNL A   1      31.404  27.455  26.888  1.00  0.00     0.043 A 
ATOM     23  C   UNL A   1      33.663  28.091  26.447  1.00  0.00     0.159 A 
ATOM     24  C   UNL A   1      32.403  28.413  26.914  1.00  0.00     0.158 A 
ATOM     25  F   UNL A   1      34.664  28.981  26.520  1.00  0.00    -0.204 F 
ATOM     26  F   UNL A   1      32.150  29.628  27.416  1.00  0.00    -0.204 F 
ENDBRANCH  18  19
ENDBRANCH  11  18
ENDBRANCH   8   9
ENDBRANCH   6   8
ENDBRANCH   5   6
ENDBRANCH   4   5
ENDBRANCH   3   4
ENDBRANCH   2   3
ENDBRANCH   1   2
BRANCH   1  27
ATOM     27  C   UNL A   1      41.888  19.798  27.523  1.00  0.00     0.188 C 
BRANCH  27  28
ATOM     28  O   UNL A   1      42.097  19.150  26.271  1.00  0.00    -0.376 OA
BRANCH  28  29
ATOM     29  C   UNL A   1      43.165  19.547  25.405  1.00  0.00     0.202 C 
BRANCH  29  30
ATOM     30  C   UNL A   1      43.792  20.940  25.535  1.00  0.00     0.261 C 
BRANCH  30  31
ATOM     31  O   UNL A   1      42.950  21.975  25.003  1.00  0.00    -0.460 OA
BRANCH  31  32
ATOM     32  C   UNL A   1      43.559  23.159  24.741  1.00  0.00     0.338 C 
ATOM     33  O   UNL A   1      44.299  23.412  23.818  1.00  0.00    -0.246 OA
BRANCH  32  34
ATOM     34  C   UNL A   1      42.998  24.192  25.639  1.00  0.00     0.060 A 
ATOM     35  C   UNL A   1      43.537  25.485  25.555  1.00  0.00     0.016 A 
ATOM     36  C   UNL A   1      41.959  23.913  26.526  1.00  0.00     0.016 A 
ATOM     37  C   UNL A   1      43.013  26.518  26.326  1.00  0.00     0.010 A 
ATOM     38  C   UNL A   1      41.497  24.924  27.370  1.00  0.00     0.010 A 
ATOM     39  C   UNL A   1      42.044  26.218  27.288  1.00  0.00    -0.014 A 
BRANCH  39  40
ATOM     40  C   UNL A   1      41.886  27.131  28.439  1.00  0.00     0.031 A 
ATOM     41  C   UNL A   1      42.784  26.876  29.619  1.00  0.00     0.074 A 
ATOM     42  C   UNL A   1      40.965  28.107  28.462  1.00  0.00     0.049 A 
ATOM     43  N   UNL A   1      42.784  27.428  30.801  1.00  0.00    -0.248 NA
ATOM     44  C   UNL A   1      43.819  25.840  29.438  1.00  0.00     0.031 C 
ATOM     45  C   UNL A   1      40.086  28.471  27.353  1.00  0.00     0.029 A 
ATOM     46  N   UNL A   1      40.602  28.952  29.480  1.00  0.00    -0.354 N 
ATOM     47  C   UNL A   1      43.803  26.794  31.504  1.00  0.00     0.074 A 
ATOM     48  C   UNL A   1      44.393  25.814  30.626  1.00  0.00     0.031 C 
ATOM     49  C   UNL A   1      39.254  29.445  27.766  1.00  0.00     0.029 A 
ATOM     50  C   UNL A   1      39.516  29.737  29.175  1.00  0.00     0.049 A 
ATOM     51  H   UNL A   1      41.072  28.992  30.344  1.00  0.00     0.167 HD
ATOM     52  C   UNL A   1      44.197  26.995  32.781  1.00  0.00     0.031 A 
ATOM     53  C   UNL A   1      38.796  30.560  29.964  1.00  0.00     0.031 A 
ATOM     54  C   UNL A   1      43.553  27.924  33.663  1.00  0.00     0.049 A 
ATOM     55  C   UNL A   1      39.195  30.717  31.410  1.00  0.00     0.074 A 
ATOM     56  C   UNL A   1      43.855  28.213  34.979  1.00  0.00     0.029 A 
ATOM     57  N   UNL A   1      42.452  28.697  33.320  1.00  0.00    -0.354 N 
ATOM     58  N   UNL A   1      40.175  30.133  32.063  1.00  0.00    -0.248 NA
ATOM     59  C   UNL A   1      38.400  31.645  32.225  1.00  0.00     0.031 C 
ATOM     60  C   UNL A   1      42.893  29.111  35.453  1.00  0.00     0.029 A 
ATOM     61  C   UNL A   1      42.043  29.444  34.408  1.00  0.00     0.049 A 
ATOM     62  H   UNL A   1      42.025  28.710  32.432  1.00  0.00     0.167 HD
ATOM     63  C   UNL A   1      40.135  30.648  33.355  1.00  0.00     0.074 A 
ATOM     64  C   UNL A   1      39.033  31.590  33.391  1.00  0.00     0.031 C 
ATOM     65  C   UNL A   1      40.943  30.378  34.412  1.00  0.00     0.031 A 
BRANCH  52  66
ATOM     66  C   UNL A   1      45.314  26.126  33.295  1.00  0.00    -0.014 A 
ATOM     67  C   UNL A   1      45.058  24.896  33.930  1.00  0.00     0.010 A 
ATOM     68  C   UNL A   1      46.643  26.574  33.184  1.00  0.00     0.010 A 
ATOM     69  C   UNL A   1      46.103  24.162  34.498  1.00  0.00     0.020 A 
ATOM     70  C   UNL A   1      47.694  25.825  33.718  1.00  0.00     0.020 A 
ATOM     71  C   UNL A   1      47.414  24.636  34.395  1.00  0.00     0.054 A 
BRANCH  71  72
ATOM     72  S   UNL A   1      48.750  23.673  35.153  1.00  0.00     0.124 S 
ATOM     73  O   UNL A   1      49.466  23.175  33.982  1.00  0.00    -0.237 OA
ATOM     74  O   UNL A   1      49.458  24.676  35.943  1.00  0.00    -0.237 OA
ATOM     75  O   UNL A   1      48.046  22.656  35.931  1.00  0.00    -0.744 OA
ENDBRANCH  71  72
ENDBRANCH  52  66
BRANCH  53  76
ATOM     76  C   UNL A   1      37.611  31.266  29.400  1.00  0.00    -0.014 A 
ATOM     77  C   UNL A   1      36.370  30.618  29.286  1.00  0.00     0.010 A 
ATOM     78  C   UNL A   1      37.709  32.621  29.028  1.00  0.00     0.010 A 
ATOM     79  C   UNL A   1      35.246  31.313  28.825  1.00  0.00     0.020 A 
ATOM     80  C   UNL A   1      36.582  33.327  28.591  1.00  0.00     0.020 A 
ATOM     81  C   UNL A   1      35.356  32.667  28.493  1.00  0.00     0.054 A 
BRANCH  81  82
ATOM     82  S   UNL A   1      33.862  33.572  28.000  1.00  0.00     0.124 S 
ATOM     83  O   UNL A   1      34.412  34.657  27.194  1.00  0.00    -0.237 OA
ATOM     84  O   UNL A   1      33.108  32.559  27.267  1.00  0.00    -0.237 OA
ATOM     85  O   UNL A   1      33.269  33.978  29.274  1.00  0.00    -0.744 OA
ENDBRANCH  81  82
ENDBRANCH  53  76
BRANCH  65  86
ATOM     86  C   UNL A   1      40.714  31.144  35.689  1.00  0.00    -0.014 A 
ATOM     87  C   UNL A   1      41.721  31.938  36.263  1.00  0.00     0.010 A 
ATOM     88  C   UNL A   1      39.425  31.154  36.253  1.00  0.00     0.010 A 
ATOM     89  C   UNL A   1      41.444  32.719  37.388  1.00  0.00     0.020 A 
ATOM     90  C   UNL A   1      39.137  31.955  37.359  1.00  0.00     0.020 A 
ATOM     91  C   UNL A   1      40.152  32.728  37.925  1.00  0.00     0.054 A 
BRANCH  91  92
ATOM     92  S   UNL A   1      39.800  33.810  39.338  1.00  0.00     0.124 S 
ATOM     93  O   UNL A   1      38.697  34.621  38.831  1.00  0.00    -0.237 OA
ATOM     94  O   UNL A   1      39.450  32.858  40.390  1.00  0.00    -0.237 OA
ATOM     95  O   UNL A   1      41.056  34.527  39.546  1.00  0.00    -0.744 OA
ENDBRANCH  91  92
ENDBRANCH  65  86
ENDBRANCH  39  40
ENDBRANCH  32  34
ENDBRANCH  31  32
ENDBRANCH  30  31
ENDBRANCH  29  30
ENDBRANCH  28  29
ENDBRANCH  27  28
ENDBRANCH   1  27
TORSDOF 23
ENDMDL
MODEL 3
REMARK VINA RESULT:      -9.3      1.770      2.312
REMARK SMILES O=C(C[C@@H]1C(=O)NCC[N@@H+]1Cc1ccc(F)c(F)c1)OCCOCCOCCOC(=O)c1ccc(-c2c3nc(c(-c4ccc(S(=O)(=O)[O-])cc4)c4ccc([nH]4)c(-c4ccc(S(=O)(=O)[O-])cc4)c4nc(c(-c5ccc(S(=O)(=O)[O-])cc5)c5ccc2[nH]5)C=C4)C=C3)cc1
REMARK SMILES IDX 24 1 23 2 22 3 21 4 20 5 2 6 1 7 3 8 4 9 5 10 10 11 6 12
REMARK SMILES IDX 7 13 9 14 8 16 11 18 12 19 13 20 19 21 14 22 17 23 15 24
REMARK SMILES IDX 18 25 16 26 25 27 26 28 27 29 28 30 29 31 30 32 31 33 32 34
REMARK SMILES IDX 33 35 91 36 34 37 90 38 35 39 36 40 37 41 84 42 38 43 89 44
REMARK SMILES IDX 83 45 85 46 39 47 88 48 82 49 81 50 40 52 70 53 51 54 69 55
REMARK SMILES IDX 52 56 55 57 68 58 86 59 53 60 54 61 67 63 87 64 56 65 41 66
REMARK SMILES IDX 42 67 50 68 43 69 49 70 44 71 45 72 46 73 47 74 48 75 71 76
REMARK SMILES IDX 72 77 80 78 73 79 79 80 74 81 75 82 76 83 77 84 78 85 57 86
REMARK SMILES IDX 58 87 66 88 59 89 65 90 60 91 61 92 62 93 63 94 64 95
REMARK H PARENT 10 15 7 17 85 51 55 62
REMARK Flexibility Score: inf
ROOT
ATOM      1  C   UNL A   1      40.505  21.241  27.447  1.00  0.00     0.188 C 
ENDROOT
BRANCH   1   2
ATOM      2  O   UNL A   1      39.464  21.143  26.505  1.00  0.00    -0.376 OA
BRANCH   2   3
ATOM      3  C   UNL A   1      38.949  22.383  26.076  1.00  0.00     0.202 C 
BRANCH   3   4
ATOM      4  C   UNL A   1      37.540  22.393  25.484  1.00  0.00     0.261 C 
BRANCH   4   5
ATOM      5  O   UNL A   1      37.084  23.457  24.640  1.00  0.00    -0.463 OA
BRANCH   5   6
ATOM      6  C   UNL A   1      35.782  23.567  24.293  1.00  0.00     0.312 C 
ATOM      7  O   UNL A   1      35.389  23.197  23.191  1.00  0.00    -0.252 OA
BRANCH   6   8
ATOM      8  C   UNL A   1      34.918  24.344  25.222  1.00  0.00     0.198 C 
BRANCH   8   9
ATOM      9  C   UNL A   1      33.452  23.942  25.498  1.00  0.00     0.285 C 
ATOM     10  C   UNL A   1      33.416  23.112  26.825  1.00  0.00     0.279 C 
ATOM     11  N   UNL A   1      32.345  23.577  24.556  1.00  0.00    -0.319 N 
ATOM     12  O   UNL A   1      34.387  22.964  27.566  1.00  0.00    -0.268 OA
ATOM     13  N   UNL A   1      32.217  22.630  27.258  1.00  0.00    -0.345 N 
ATOM     14  C   UNL A   1      31.065  23.590  25.278  1.00  0.00     0.284 C 
ATOM     15  H   UNL A   1      32.700  24.247  23.874  1.00  0.00     0.349 HD
ATOM     16  C   UNL A   1      31.038  22.588  26.443  1.00  0.00     0.177 C 
ATOM     17  H   UNL A   1      32.158  22.292  28.180  1.00  0.00     0.163 HD
BRANCH  11  18
ATOM     18  C   UNL A   1      32.347  22.834  23.282  1.00  0.00     0.299 C 
BRANCH  18  19
ATOM     19  C   UNL A   1      32.597  21.313  23.306  1.00  0.00     0.009 A 
ATOM     20  C   UNL A   1      32.185  20.476  22.261  1.00  0.00     0.013 A 
ATOM     21  C   UNL A   1      33.268  20.678  24.366  1.00  0.00     0.052 A 
ATOM     22  C   UNL A   1      32.137  19.083  22.412  1.00  0.00     0.043 A 
ATOM     23  C   UNL A   1      33.201  19.293  24.540  1.00  0.00     0.159 A 
ATOM     24  C   UNL A   1      32.588  18.503  23.586  1.00  0.00     0.158 A 
ATOM     25  F   UNL A   1      33.703  18.746  25.656  1.00  0.00    -0.204 F 
ATOM     26  F   UNL A   1      32.454  17.184  23.774  1.00  0.00    -0.204 F 
ENDBRANCH  18  19
ENDBRANCH  11  18
ENDBRANCH   8   9
ENDBRANCH   6   8
ENDBRANCH   5   6
ENDBRANCH   4   5
ENDBRANCH   3   4
ENDBRANCH   2   3
ENDBRANCH   1   2
BRANCH   1  27
ATOM     27  C   UNL A   1      41.480  20.057  27.385  1.00  0.00     0.188 C 
BRANCH  27  28
ATOM     28  O   UNL A   1      41.872  19.531  26.119  1.00  0.00    -0.376 OA
BRANCH  28  29
ATOM     29  C   UNL A   1      42.948  20.117  25.381  1.00  0.00     0.202 C 
BRANCH  29  30
ATOM     30  C   UNL A   1      43.517  21.482  25.787  1.00  0.00     0.261 C 
BRANCH  30  31
ATOM     31  O   UNL A   1      42.776  22.577  25.224  1.00  0.00    -0.460 OA
BRANCH  31  32
ATOM     32  C   UNL A   1      43.460  23.739  25.072  1.00  0.00     0.338 C 
ATOM     33  O   UNL A   1      44.300  23.988  24.237  1.00  0.00    -0.246 OA
BRANCH  32  34
ATOM     34  C   UNL A   1      42.859  24.766  25.950  1.00  0.00     0.060 A 
ATOM     35  C   UNL A   1      43.469  26.029  25.983  1.00  0.00     0.016 A 
ATOM     36  C   UNL A   1      41.715  24.510  26.707  1.00  0.00     0.016 A 
ATOM     37  C   UNL A   1      42.917  27.058  26.740  1.00  0.00     0.010 A 
ATOM     38  C   UNL A   1      41.216  25.511  27.542  1.00  0.00     0.010 A 
ATOM     39  C   UNL A   1      41.835  26.774  27.578  1.00  0.00    -0.014 A 
BRANCH  39  40
ATOM     40  C   UNL A   1      41.599  27.648  28.746  1.00  0.00     0.031 A 
ATOM     41  C   UNL A   1      42.436  27.371  29.965  1.00  0.00     0.074 A 
ATOM     42  C   UNL A   1      40.660  28.608  28.748  1.00  0.00     0.049 A 
ATOM     43  N   UNL A   1      42.363  27.886  31.161  1.00  0.00    -0.248 NA
ATOM     44  C   UNL A   1      43.497  26.358  29.809  1.00  0.00     0.031 C 
ATOM     45  C   UNL A   1      39.836  28.993  27.605  1.00  0.00     0.029 A 
ATOM     46  N   UNL A   1      40.228  29.415  29.769  1.00  0.00    -0.354 N 
ATOM     47  C   UNL A   1      43.353  27.247  31.899  1.00  0.00     0.074 A 
ATOM     48  C   UNL A   1      44.006  26.304  31.025  1.00  0.00     0.031 C 
ATOM     49  C   UNL A   1      38.966  29.940  28.001  1.00  0.00     0.029 A 
ATOM     50  C   UNL A   1      39.146  30.192  29.430  1.00  0.00     0.049 A 
ATOM     51  H   UNL A   1      40.650  29.436  30.659  1.00  0.00     0.167 HD
ATOM     52  C   UNL A   1      43.674  27.415  33.201  1.00  0.00     0.031 A 
ATOM     53  C   UNL A   1      38.370  30.977  30.203  1.00  0.00     0.031 A 
ATOM     54  C   UNL A   1      42.966  28.305  34.074  1.00  0.00     0.049 A 
ATOM     55  C   UNL A   1      38.687  31.096  31.673  1.00  0.00     0.074 A 
ATOM     56  C   UNL A   1      43.192  28.557  35.413  1.00  0.00     0.029 A 
ATOM     57  N   UNL A   1      41.872  29.070  33.695  1.00  0.00    -0.354 N 
ATOM     58  N   UNL A   1      39.641  30.508  32.360  1.00  0.00    -0.248 NA
ATOM     59  C   UNL A   1      37.833  31.985  32.471  1.00  0.00     0.031 C 
ATOM     60  C   UNL A   1      42.190  29.425  35.861  1.00  0.00     0.029 A 
ATOM     61  C   UNL A   1      41.392  29.776  34.781  1.00  0.00     0.049 A 
ATOM     62  H   UNL A   1      41.494  29.104  32.786  1.00  0.00     0.167 HD
ATOM     63  C   UNL A   1      39.523  30.982  33.663  1.00  0.00     0.074 A 
ATOM     64  C   UNL A   1      38.403  31.904  33.668  1.00  0.00     0.031 C 
ATOM     65  C   UNL A   1      40.276  30.691  34.754  1.00  0.00     0.031 A 
BRANCH  52  66
ATOM     66  C   UNL A   1      44.777  26.548  33.748  1.00  0.00    -0.014 A 
ATOM     67  C   UNL A   1      46.071  27.055  33.973  1.00  0.00     0.010 A 
ATOM     68  C   UNL A   1      44.525  25.186  33.994  1.00  0.00     0.010 A 
ATOM     69  C   UNL A   1      47.105  26.205  34.373  1.00  0.00     0.020 A 
ATOM     70  C   UNL A   1      45.548  24.340  34.430  1.00  0.00     0.020 A 
ATOM     71  C   UNL A   1      46.837  24.850  34.591  1.00  0.00     0.054 A 
BRANCH  71  72
ATOM     72  S   UNL A   1      48.199  23.764  35.095  1.00  0.00     0.124 S 
ATOM     73  O   UNL A   1      48.974  23.659  33.861  1.00  0.00    -0.237 OA
ATOM     74  O   UNL A   1      48.831  24.522  36.171  1.00  0.00    -0.237 OA
ATOM     75  O   UNL A   1      47.527  22.536  35.515  1.00  0.00    -0.744 OA
ENDBRANCH  71  72
ENDBRANCH  52  66
BRANCH  53  76
ATOM     76  C   UNL A   1      37.205  31.682  29.597  1.00  0.00    -0.014 A 
ATOM     77  C   UNL A   1      36.022  30.990  29.289  1.00  0.00     0.010 A 
ATOM     78  C   UNL A   1      37.256  33.073  29.381  1.00  0.00     0.010 A 
ATOM     79  C   UNL A   1      34.909  31.674  28.789  1.00  0.00     0.020 A 
ATOM     80  C   UNL A   1      36.137  33.766  28.905  1.00  0.00     0.020 A 
ATOM     81  C   UNL A   1      34.968  33.061  28.614  1.00  0.00     0.054 A 
BRANCH  81  82
ATOM     82  S   UNL A   1      33.477  33.939  28.067  1.00  0.00     0.124 S 
ATOM     83  O   UNL A   1      32.997  34.533  29.310  1.00  0.00    -0.237 OA
ATOM     84  O   UNL A   1      34.008  34.878  27.081  1.00  0.00    -0.237 OA
ATOM     85  O   UNL A   1      32.636  32.878  27.514  1.00  0.00    -0.744 OA
ENDBRANCH  81  82
ENDBRANCH  53  76
BRANCH  65  86
ATOM     86  C   UNL A   1      39.965  31.414  36.039  1.00  0.00    -0.014 A 
ATOM     87  C   UNL A   1      40.867  32.329  36.607  1.00  0.00     0.010 A 
ATOM     88  C   UNL A   1      38.693  31.251  36.619  1.00  0.00     0.010 A 
ATOM     89  C   UNL A   1      40.504  33.061  37.741  1.00  0.00     0.020 A 
ATOM     90  C   UNL A   1      38.317  32.002  37.734  1.00  0.00     0.020 A 
ATOM     91  C   UNL A   1      39.229  32.897  38.293  1.00  0.00     0.054 A 
BRANCH  91  92
ATOM     92  S   UNL A   1      38.756  33.915  39.718  1.00  0.00     0.124 S 
ATOM     93  O   UNL A   1      37.397  33.453  39.984  1.00  0.00    -0.237 OA
ATOM     94  O   UNL A   1      39.754  33.547  40.720  1.00  0.00    -0.237 OA
ATOM     95  O   UNL A   1      38.861  35.284  39.216  1.00  0.00    -0.744 OA
ENDBRANCH  91  92
ENDBRANCH  65  86
ENDBRANCH  39  40
ENDBRANCH  32  34
ENDBRANCH  31  32
ENDBRANCH  30  31
ENDBRANCH  29  30
ENDBRANCH  28  29
ENDBRANCH  27  28
ENDBRANCH   1  27
TORSDOF 23
ENDMDL
