MODEL 1
REMARK VINA RESULT:     -12.2      0.000      0.000
REMARK SMILES O=C(OCCOCCOCCOC(=O)c1ccc(-c2c3nc(c(-c4ccc(S(=O)(=O)[O-])cc4)c4ccc([nH]4)c(-c4ccc(S(=O)(=O)[O-])cc4)c4nc(c(-c5ccc(S(=O)(=O)[O-])cc5)c5ccc2[nH]5)C=C4)C=C3)cc1)C1=Cc2cc(Cl)cc(-c3ccccc3)c2O[C@@H]1C(F)(F)F
REMARK SMILES IDX 8 1 7 2 6 3 5 4 4 5 3 6 2 7 1 8 75 9 76 10 91 11 77 12 90 13
REMARK SMILES IDX 78 14 89 15 79 16 82 17 80 18 81 19 92 20 93 21 94 22 95 23
REMARK SMILES IDX 83 24 84 25 88 26 85 27 87 28 86 29 9 30 10 31 11 32 12 33
REMARK SMILES IDX 13 34 14 35 15 36 16 37 74 38 17 39 73 40 18 41 19 42 20 43
REMARK SMILES IDX 67 44 21 45 72 46 66 47 68 48 22 49 71 50 65 51 64 52 23 54
REMARK SMILES IDX 53 55 34 56 52 57 35 58 38 59 51 60 69 61 36 62 37 63 50 65
REMARK SMILES IDX 70 66 39 67 24 68 25 69 33 70 26 71 32 72 27 73 28 74 29 75
REMARK SMILES IDX 30 76 31 77 54 78 55 79 63 80 56 81 62 82 57 83 58 84 59 85
REMARK SMILES IDX 60 86 61 87 40 88 41 89 49 90 42 91 48 92 43 93 44 94 45 95
REMARK SMILES IDX 46 96 47 97
REMARK H PARENT 68 53 38 64
REMARK Flexibility Score: inf
ROOT
ATOM      1  C   UNL A   1      35.761  21.243  25.482  1.00  0.00     0.188 C 
ENDROOT
BRANCH   1   2
ATOM      2  C   UNL A   1      34.700  21.452  26.572  1.00  0.00     0.188 C 
BRANCH   2   3
ATOM      3  O   UNL A   1      33.917  22.743  26.737  1.00  0.00    -0.376 OA
BRANCH   3   4
ATOM      4  C   UNL A   1      32.339  22.937  27.517  1.00  0.00     0.202 C 
BRANCH   4   5
ATOM      5  C   UNL A   1      30.631  23.793  26.474  1.00  0.00     0.261 C 
BRANCH   5   6
ATOM      6  O   UNL A   1      30.655  24.460  25.101  1.00  0.00    -0.460 OA
BRANCH   6   7
ATOM      7  C   UNL A   1      30.963  23.593  24.125  1.00  0.00     0.338 C 
ATOM      8  O   UNL A   1      31.027  22.392  24.190  1.00  0.00    -0.246 OA
BRANCH   7   9
ATOM      9  C   UNL A   1      31.644  24.551  23.269  1.00  0.00     0.087 C 
ATOM     10  C   UNL A   1      30.884  25.720  22.878  1.00  0.00     0.027 C 
ATOM     11  C   UNL A   1      33.222  24.576  24.347  1.00  0.00     0.316 C 
ATOM     12  C   UNL A   1      31.102  27.339  23.603  1.00  0.00     0.019 A 
ATOM     13  O   UNL A   1      33.380  26.297  25.294  1.00  0.00    -0.475 OA
ATOM     14  C   UNL A   1      30.174  28.294  23.274  1.00  0.00     0.032 A 
ATOM     15  C   UNL A   1      32.264  27.679  24.842  1.00  0.00     0.135 A 
ATOM     16  C   UNL A   1      30.298  29.505  23.957  1.00  0.00     0.042 A 
ATOM     17  C   UNL A   1      32.338  28.928  25.434  1.00  0.00     0.026 A 
ATOM     18  Cl  UNL A   1      29.127  30.736  23.615  1.00  0.00    -0.084 Cl
ATOM     19  C   UNL A   1      31.314  29.803  24.942  1.00  0.00     0.033 A 
BRANCH  11  20
ATOM     20  C   UNL A   1      34.129  23.859  23.058  1.00  0.00     0.430 C 
ATOM     21  F   UNL A   1      33.803  24.053  21.772  1.00  0.00    -0.167 F 
ATOM     22  F   UNL A   1      35.429  24.226  23.196  1.00  0.00    -0.167 F 
ATOM     23  F   UNL A   1      34.140  22.493  23.157  1.00  0.00    -0.167 F 
ENDBRANCH  11  20
BRANCH  17  24
ATOM     24  C   UNL A   1      33.253  29.502  26.413  1.00  0.00    -0.015 A 
ATOM     25  C   UNL A   1      33.016  30.756  26.986  1.00  0.00     0.009 A 
ATOM     26  C   UNL A   1      34.515  28.913  26.630  1.00  0.00     0.009 A 
ATOM     27  C   UNL A   1      33.964  31.349  27.828  1.00  0.00     0.001 A 
ATOM     28  C   UNL A   1      35.451  29.487  27.497  1.00  0.00     0.001 A 
ATOM     29  C   UNL A   1      35.164  30.699  28.113  1.00  0.00     0.000 A 
ENDBRANCH  17  24
ENDBRANCH   7   9
ENDBRANCH   6   7
ENDBRANCH   5   6
ENDBRANCH   4   5
ENDBRANCH   3   4
ENDBRANCH   2   3
ENDBRANCH   1   2
BRANCH   1  30
ATOM     30  O   UNL A   1      37.104  21.516  25.771  1.00  0.00    -0.376 OA
BRANCH  30  31
ATOM     31  C   UNL A   1      37.438  22.887  25.783  1.00  0.00     0.202 C 
BRANCH  31  32
ATOM     32  C   UNL A   1      38.812  23.340  26.282  1.00  0.00     0.261 C 
BRANCH  32  33
ATOM     33  O   UNL A   1      38.965  24.759  26.399  1.00  0.00    -0.460 OA
BRANCH  33  34
ATOM     34  C   UNL A   1      40.240  25.208  26.472  1.00  0.00     0.338 C 
ATOM     35  O   UNL A   1      41.105  25.140  25.616  1.00  0.00    -0.246 OA
BRANCH  34  36
ATOM     36  C   UNL A   1      40.380  25.984  27.713  1.00  0.00     0.060 A 
ATOM     37  C   UNL A   1      39.371  25.926  28.686  1.00  0.00     0.016 A 
ATOM     38  C   UNL A   1      41.491  26.809  27.879  1.00  0.00     0.016 A 
ATOM     39  C   UNL A   1      39.472  26.697  29.838  1.00  0.00     0.010 A 
ATOM     40  C   UNL A   1      41.566  27.620  29.008  1.00  0.00     0.010 A 
ATOM     41  C   UNL A   1      40.542  27.586  29.972  1.00  0.00    -0.014 A 
BRANCH  41  42
ATOM     42  C   UNL A   1      40.445  28.674  30.963  1.00  0.00     0.031 A 
ATOM     43  C   UNL A   1      41.355  28.600  32.157  1.00  0.00     0.074 A 
ATOM     44  C   UNL A   1      39.585  29.692  30.803  1.00  0.00     0.049 A 
ATOM     45  N   UNL A   1      41.434  29.397  33.188  1.00  0.00    -0.248 NA
ATOM     46  C   UNL A   1      42.303  27.471  32.192  1.00  0.00     0.031 C 
ATOM     47  C   UNL A   1      38.699  29.880  29.657  1.00  0.00     0.029 A 
ATOM     48  N   UNL A   1      39.314  30.757  31.622  1.00  0.00    -0.354 N 
ATOM     49  C   UNL A   1      42.427  28.859  33.998  1.00  0.00     0.074 A 
ATOM     50  C   UNL A   1      42.904  27.657  33.356  1.00  0.00     0.031 C 
ATOM     51  C   UNL A   1      37.967  30.991  29.854  1.00  0.00     0.029 A 
ATOM     52  C   UNL A   1      38.308  31.567  31.154  1.00  0.00     0.049 A 
ATOM     53  H   UNL A   1      39.794  30.926  32.466  1.00  0.00     0.167 HD
ATOM     54  C   UNL A   1      42.893  29.328  35.177  1.00  0.00     0.031 A 
ATOM     55  C   UNL A   1      37.716  32.634  31.729  1.00  0.00     0.031 A 
ATOM     56  C   UNL A   1      42.383  30.507  35.819  1.00  0.00     0.049 A 
ATOM     57  C   UNL A   1      38.201  33.091  33.082  1.00  0.00     0.074 A 
ATOM     58  C   UNL A   1      42.789  31.081  37.010  1.00  0.00     0.029 A 
ATOM     59  N   UNL A   1      41.341  31.284  35.332  1.00  0.00    -0.354 N 
ATOM     60  N   UNL A   1      39.164  32.596  33.827  1.00  0.00    -0.248 NA
ATOM     61  C   UNL A   1      37.529  34.258  33.668  1.00  0.00     0.031 C 
ATOM     62  C   UNL A   1      41.940  32.156  37.284  1.00  0.00     0.029 A 
ATOM     63  C   UNL A   1      41.064  32.311  36.218  1.00  0.00     0.049 A 
ATOM     64  H   UNL A   1      40.868  31.128  34.483  1.00  0.00     0.167 HD
ATOM     65  C   UNL A   1      39.232  33.411  34.953  1.00  0.00     0.074 A 
ATOM     66  C   UNL A   1      38.226  34.440  34.782  1.00  0.00     0.031 C 
ATOM     67  C   UNL A   1      40.055  33.323  36.029  1.00  0.00     0.031 A 
BRANCH  54  68
ATOM     68  C   UNL A   1      43.969  28.532  35.867  1.00  0.00    -0.014 A 
ATOM     69  C   UNL A   1      45.334  28.804  35.662  1.00  0.00     0.010 A 
ATOM     70  C   UNL A   1      43.603  27.513  36.766  1.00  0.00     0.010 A 
ATOM     71  C   UNL A   1      46.312  28.054  36.320  1.00  0.00     0.020 A 
ATOM     72  C   UNL A   1      44.577  26.784  37.452  1.00  0.00     0.020 A 
ATOM     73  C   UNL A   1      45.925  27.052  37.216  1.00  0.00     0.054 A 
BRANCH  73  74
ATOM     74  S   UNL A   1      47.216  26.127  38.092  1.00  0.00     0.124 S 
ATOM     75  O   UNL A   1      46.430  25.187  38.886  1.00  0.00    -0.237 OA
ATOM     76  O   UNL A   1      47.982  25.538  36.997  1.00  0.00    -0.237 OA
ATOM     77  O   UNL A   1      47.919  27.152  38.860  1.00  0.00    -0.744 OA
ENDBRANCH  73  74
ENDBRANCH  54  68
BRANCH  55  78
ATOM     78  C   UNL A   1      36.589  33.323  31.041  1.00  0.00    -0.014 A 
ATOM     79  C   UNL A   1      35.288  33.292  31.573  1.00  0.00     0.010 A 
ATOM     80  C   UNL A   1      36.815  34.018  29.838  1.00  0.00     0.010 A 
ATOM     81  C   UNL A   1      34.234  33.928  30.908  1.00  0.00     0.020 A 
ATOM     82  C   UNL A   1      35.772  34.685  29.189  1.00  0.00     0.020 A 
ATOM     83  C   UNL A   1      34.484  34.627  29.724  1.00  0.00     0.054 A 
BRANCH  83  84
ATOM     84  S   UNL A   1      33.111  35.491  28.910  1.00  0.00     0.124 S 
ATOM     85  O   UNL A   1      33.812  36.491  28.110  1.00  0.00    -0.237 OA
ATOM     86  O   UNL A   1      32.468  34.417  28.159  1.00  0.00    -0.237 OA
ATOM     87  O   UNL A   1      32.328  36.019  30.025  1.00  0.00    -0.744 OA
ENDBRANCH  83  84
ENDBRANCH  55  78
BRANCH  67  88
ATOM     88  C   UNL A   1      39.938  34.391  37.088  1.00  0.00    -0.014 A 
ATOM     89  C   UNL A   1      40.597  35.626  36.968  1.00  0.00     0.010 A 
ATOM     90  C   UNL A   1      39.094  34.170  38.194  1.00  0.00     0.010 A 
ATOM     91  C   UNL A   1      40.446  36.606  37.954  1.00  0.00     0.020 A 
ATOM     92  C   UNL A   1      38.909  35.161  39.160  1.00  0.00     0.020 A 
ATOM     93  C   UNL A   1      39.600  36.368  39.042  1.00  0.00     0.054 A 
BRANCH  93  94
ATOM     94  S   UNL A   1      39.389  37.672  40.284  1.00  0.00     0.124 S 
ATOM     95  O   UNL A   1      40.729  38.248  40.351  1.00  0.00    -0.237 OA
ATOM     96  O   UNL A   1      38.368  38.524  39.679  1.00  0.00    -0.237 OA
ATOM     97  O   UNL A   1      38.962  36.949  41.479  1.00  0.00    -0.744 OA
ENDBRANCH  93  94
ENDBRANCH  67  88
ENDBRANCH  41  42
ENDBRANCH  34  36
ENDBRANCH  33  34
ENDBRANCH  32  33
ENDBRANCH  31  32
ENDBRANCH  30  31
ENDBRANCH   1  30
TORSDOF 22
ENDMDL
MODEL 2
REMARK VINA RESULT:     -10.7      4.889      8.785
REMARK SMILES O=C(OCCOCCOCCOC(=O)c1ccc(-c2c3nc(c(-c4ccc(S(=O)(=O)[O-])cc4)c4ccc([nH]4)c(-c4ccc(S(=O)(=O)[O-])cc4)c4nc(c(-c5ccc(S(=O)(=O)[O-])cc5)c5ccc2[nH]5)C=C4)C=C3)cc1)C1=Cc2cc(Cl)cc(-c3ccccc3)c2O[C@@H]1C(F)(F)F
REMARK SMILES IDX 8 1 7 2 6 3 5 4 4 5 3 6 2 7 1 8 75 9 76 10 91 11 77 12 90 13
REMARK SMILES IDX 78 14 89 15 79 16 82 17 80 18 81 19 92 20 93 21 94 22 95 23
REMARK SMILES IDX 83 24 84 25 88 26 85 27 87 28 86 29 9 30 10 31 11 32 12 33
REMARK SMILES IDX 13 34 14 35 15 36 16 37 74 38 17 39 73 40 18 41 19 42 20 43
REMARK SMILES IDX 67 44 21 45 72 46 66 47 68 48 22 49 71 50 65 51 64 52 23 54
REMARK SMILES IDX 53 55 34 56 52 57 35 58 38 59 51 60 69 61 36 62 37 63 50 65
REMARK SMILES IDX 70 66 39 67 24 68 25 69 33 70 26 71 32 72 27 73 28 74 29 75
REMARK SMILES IDX 30 76 31 77 54 78 55 79 63 80 56 81 62 82 57 83 58 84 59 85
REMARK SMILES IDX 60 86 61 87 40 88 41 89 49 90 42 91 48 92 43 93 44 94 45 95
REMARK SMILES IDX 46 96 47 97
REMARK H PARENT 68 53 38 64
REMARK Flexibility Score: inf
ROOT
ATOM      1  C   UNL A   1      35.826  21.513  25.169  1.00  0.00     0.188 C 
ENDROOT
BRANCH   1   2
ATOM      2  C   UNL A   1      34.525  21.460  25.982  1.00  0.00     0.188 C 
BRANCH   2   3
ATOM      3  O   UNL A   1      34.062  22.587  26.890  1.00  0.00    -0.376 OA
BRANCH   3   4
ATOM      4  C   UNL A   1      32.464  22.769  27.630  1.00  0.00     0.202 C 
BRANCH   4   5
ATOM      5  C   UNL A   1      30.834  23.801  26.621  1.00  0.00     0.261 C 
BRANCH   5   6
ATOM      6  O   UNL A   1      30.928  24.559  25.300  1.00  0.00    -0.460 OA
BRANCH   6   7
ATOM      7  C   UNL A   1      31.109  23.735  24.257  1.00  0.00     0.338 C 
ATOM      8  O   UNL A   1      31.114  22.530  24.254  1.00  0.00    -0.246 OA
BRANCH   7   9
ATOM      9  C   UNL A   1      31.770  24.704  23.399  1.00  0.00     0.087 C 
ATOM     10  C   UNL A   1      31.013  25.894  23.068  1.00  0.00     0.027 C 
ATOM     11  C   UNL A   1      33.390  24.679  24.413  1.00  0.00     0.316 C 
ATOM     12  C   UNL A   1      31.284  27.490  23.824  1.00  0.00     0.019 A 
ATOM     13  O   UNL A   1      33.611  26.373  25.396  1.00  0.00    -0.475 OA
ATOM     14  C   UNL A   1      30.359  28.466  23.557  1.00  0.00     0.032 A 
ATOM     15  C   UNL A   1      32.500  27.782  25.024  1.00  0.00     0.135 A 
ATOM     16  C   UNL A   1      30.528  29.657  24.265  1.00  0.00     0.042 A 
ATOM     17  C   UNL A   1      32.616  29.015  25.644  1.00  0.00     0.026 A 
ATOM     18  Cl  UNL A   1      29.363  30.914  24.001  1.00  0.00    -0.084 Cl
ATOM     19  C   UNL A   1      31.586  29.915  25.215  1.00  0.00     0.033 A 
BRANCH  11  20
ATOM     20  C   UNL A   1      34.235  23.983  23.071  1.00  0.00     0.430 C 
ATOM     21  F   UNL A   1      35.573  23.900  23.046  1.00  0.00    -0.167 F 
ATOM     22  F   UNL A   1      33.757  22.729  22.870  1.00  0.00    -0.167 F 
ATOM     23  F   UNL A   1      33.958  24.653  21.908  1.00  0.00    -0.167 F 
ENDBRANCH  11  20
BRANCH  17  24
ATOM     24  C   UNL A   1      33.577  29.550  26.599  1.00  0.00    -0.015 A 
ATOM     25  C   UNL A   1      33.405  30.812  27.179  1.00  0.00     0.009 A 
ATOM     26  C   UNL A   1      34.820  28.910  26.784  1.00  0.00     0.009 A 
ATOM     27  C   UNL A   1      34.398  31.365  27.996  1.00  0.00     0.001 A 
ATOM     28  C   UNL A   1      35.800  29.446  27.628  1.00  0.00     0.001 A 
ATOM     29  C   UNL A   1      35.578  30.667  28.250  1.00  0.00     0.000 A 
ENDBRANCH  17  24
ENDBRANCH   7   9
ENDBRANCH   6   7
ENDBRANCH   5   6
ENDBRANCH   4   5
ENDBRANCH   3   4
ENDBRANCH   2   3
ENDBRANCH   1   2
BRANCH   1  30
ATOM     30  O   UNL A   1      36.798  20.524  25.366  1.00  0.00    -0.376 OA
BRANCH  30  31
ATOM     31  C   UNL A   1      38.121  20.934  25.096  1.00  0.00     0.202 C 
BRANCH  31  32
ATOM     32  C   UNL A   1      38.955  21.611  26.186  1.00  0.00     0.261 C 
BRANCH  32  33
ATOM     33  O   UNL A   1      39.453  22.908  25.837  1.00  0.00    -0.460 OA
BRANCH  33  34
ATOM     34  C   UNL A   1      38.815  23.955  26.410  1.00  0.00     0.338 C 
ATOM     35  O   UNL A   1      37.626  24.061  26.655  1.00  0.00    -0.246 OA
BRANCH  34  36
ATOM     36  C   UNL A   1      39.833  24.907  26.879  1.00  0.00     0.060 A 
ATOM     37  C   UNL A   1      40.203  24.917  28.233  1.00  0.00     0.016 A 
ATOM     38  C   UNL A   1      40.375  25.824  25.980  1.00  0.00     0.016 A 
ATOM     39  C   UNL A   1      41.125  25.849  28.694  1.00  0.00     0.010 A 
ATOM     40  C   UNL A   1      41.260  26.789  26.452  1.00  0.00     0.010 A 
ATOM     41  C   UNL A   1      41.610  26.820  27.814  1.00  0.00    -0.014 A 
BRANCH  41  42
ATOM     42  C   UNL A   1      42.250  28.028  28.369  1.00  0.00     0.031 A 
ATOM     43  C   UNL A   1      41.346  29.095  28.919  1.00  0.00     0.074 A 
ATOM     44  C   UNL A   1      43.585  28.166  28.390  1.00  0.00     0.049 A 
ATOM     45  N   UNL A   1      41.651  30.263  29.416  1.00  0.00    -0.248 NA
ATOM     46  C   UNL A   1      39.900  28.804  28.901  1.00  0.00     0.031 C 
ATOM     47  C   UNL A   1      44.547  27.167  27.929  1.00  0.00     0.029 A 
ATOM     48  N   UNL A   1      44.359  29.216  28.812  1.00  0.00    -0.354 N 
ATOM     49  C   UNL A   1      40.438  30.850  29.756  1.00  0.00     0.074 A 
ATOM     50  C   UNL A   1      39.392  29.925  29.387  1.00  0.00     0.031 C 
ATOM     51  C   UNL A   1      45.790  27.662  28.080  1.00  0.00     0.029 A 
ATOM     52  C   UNL A   1      45.704  29.021  28.611  1.00  0.00     0.049 A 
ATOM     53  H   UNL A   1      43.987  30.031  29.220  1.00  0.00     0.167 HD
ATOM     54  C   UNL A   1      40.220  32.058  30.323  1.00  0.00     0.031 A 
ATOM     55  C   UNL A   1      46.740  29.861  28.811  1.00  0.00     0.031 A 
ATOM     56  C   UNL A   1      41.271  32.981  30.651  1.00  0.00     0.049 A 
ATOM     57  C   UNL A   1      46.464  31.235  29.371  1.00  0.00     0.074 A 
ATOM     58  C   UNL A   1      41.166  34.228  31.239  1.00  0.00     0.029 A 
ATOM     59  N   UNL A   1      42.620  32.764  30.404  1.00  0.00    -0.354 N 
ATOM     60  N   UNL A   1      45.316  31.770  29.721  1.00  0.00    -0.248 NA
ATOM     61  C   UNL A   1      47.622  32.115  29.572  1.00  0.00     0.031 C 
ATOM     62  C   UNL A   1      42.440  34.799  31.272  1.00  0.00     0.029 A 
ATOM     63  C   UNL A   1      43.354  33.871  30.792  1.00  0.00     0.049 A 
ATOM     64  H   UNL A   1      42.997  31.945  30.009  1.00  0.00     0.167 HD
ATOM     65  C   UNL A   1      45.620  33.035  30.215  1.00  0.00     0.074 A 
ATOM     66  C   UNL A   1      47.060  33.178  30.133  1.00  0.00     0.031 C 
ATOM     67  C   UNL A   1      44.788  33.992  30.698  1.00  0.00     0.031 A 
BRANCH  54  68
ATOM     68  C   UNL A   1      38.791  32.465  30.569  1.00  0.00    -0.014 A 
ATOM     69  C   UNL A   1      38.107  32.086  31.737  1.00  0.00     0.010 A 
ATOM     70  C   UNL A   1      38.133  33.272  29.623  1.00  0.00     0.010 A 
ATOM     71  C   UNL A   1      36.784  32.483  31.944  1.00  0.00     0.020 A 
ATOM     72  C   UNL A   1      36.821  33.701  29.841  1.00  0.00     0.020 A 
ATOM     73  C   UNL A   1      36.151  33.293  30.995  1.00  0.00     0.054 A 
BRANCH  73  74
ATOM     74  S   UNL A   1      34.449  33.832  31.312  1.00  0.00     0.124 S 
ATOM     75  O   UNL A   1      34.657  35.103  32.002  1.00  0.00    -0.237 OA
ATOM     76  O   UNL A   1      33.893  33.932  29.966  1.00  0.00    -0.237 OA
ATOM     77  O   UNL A   1      33.893  32.763  32.137  1.00  0.00    -0.744 OA
ENDBRANCH  73  74
ENDBRANCH  54  68
BRANCH  55  78
ATOM     78  C   UNL A   1      48.123  29.438  28.457  1.00  0.00    -0.014 A 
ATOM     79  C   UNL A   1      48.950  28.799  29.398  1.00  0.00     0.010 A 
ATOM     80  C   UNL A   1      48.625  29.677  27.163  1.00  0.00     0.010 A 
ATOM     81  C   UNL A   1      50.254  28.423  29.058  1.00  0.00     0.020 A 
ATOM     82  C   UNL A   1      49.915  29.271  26.809  1.00  0.00     0.020 A 
ATOM     83  C   UNL A   1      50.726  28.655  27.764  1.00  0.00     0.054 A 
BRANCH  83  84
ATOM     84  S   UNL A   1      52.401  28.107  27.331  1.00  0.00     0.124 S 
ATOM     85  O   UNL A   1      52.452  26.777  27.929  1.00  0.00    -0.237 OA
ATOM     86  O   UNL A   1      52.374  28.144  25.871  1.00  0.00    -0.237 OA
ATOM     87  O   UNL A   1      53.263  29.108  27.957  1.00  0.00    -0.744 OA
ENDBRANCH  83  84
ENDBRANCH  55  78
BRANCH  67  88
ATOM     88  C   UNL A   1      45.411  35.263  31.220  1.00  0.00    -0.014 A 
ATOM     89  C   UNL A   1      45.838  35.383  32.553  1.00  0.00     0.010 A 
ATOM     90  C   UNL A   1      45.631  36.334  30.332  1.00  0.00     0.010 A 
ATOM     91  C   UNL A   1      46.437  36.564  33.000  1.00  0.00     0.020 A 
ATOM     92  C   UNL A   1      46.265  37.500  30.763  1.00  0.00     0.020 A 
ATOM     93  C   UNL A   1      46.650  37.614  32.100  1.00  0.00     0.054 A 
BRANCH  93  94
ATOM     94  S   UNL A   1      47.468  39.119  32.695  1.00  0.00     0.124 S 
ATOM     95  O   UNL A   1      46.335  39.931  33.128  1.00  0.00    -0.237 OA
ATOM     96  O   UNL A   1      48.325  38.613  33.765  1.00  0.00    -0.237 OA
ATOM     97  O   UNL A   1      48.178  39.618  31.519  1.00  0.00    -0.744 OA
ENDBRANCH  93  94
ENDBRANCH  67  88
ENDBRANCH  41  42
ENDBRANCH  34  36
ENDBRANCH  33  34
ENDBRANCH  32  33
ENDBRANCH  31  32
ENDBRANCH  30  31
ENDBRANCH   1  30
TORSDOF 22
ENDMDL
MODEL 3
REMARK VINA RESULT:     -10.0     10.099     15.815
REMARK SMILES O=C(OCCOCCOCCOC(=O)c1ccc(-c2c3nc(c(-c4ccc(S(=O)(=O)[O-])cc4)c4ccc([nH]4)c(-c4ccc(S(=O)(=O)[O-])cc4)c4nc(c(-c5ccc(S(=O)(=O)[O-])cc5)c5ccc2[nH]5)C=C4)C=C3)cc1)C1=Cc2cc(Cl)cc(-c3ccccc3)c2O[C@@H]1C(F)(F)F
REMARK SMILES IDX 8 1 7 2 6 3 5 4 4 5 3 6 2 7 1 8 75 9 76 10 91 11 77 12 90 13
REMARK SMILES IDX 78 14 89 15 79 16 82 17 80 18 81 19 92 20 93 21 94 22 95 23
REMARK SMILES IDX 83 24 84 25 88 26 85 27 87 28 86 29 9 30 10 31 11 32 12 33
REMARK SMILES IDX 13 34 14 35 15 36 16 37 74 38 17 39 73 40 18 41 19 42 20 43
REMARK SMILES IDX 67 44 21 45 72 46 66 47 68 48 22 49 71 50 65 51 64 52 23 54
REMARK SMILES IDX 53 55 34 56 52 57 35 58 38 59 51 60 69 61 36 62 37 63 50 65
REMARK SMILES IDX 70 66 39 67 24 68 25 69 33 70 26 71 32 72 27 73 28 74 29 75
REMARK SMILES IDX 30 76 31 77 54 78 55 79 63 80 56 81 62 82 57 83 58 84 59 85
REMARK SMILES IDX 60 86 61 87 40 88 41 89 49 90 42 91 48 92 43 93 44 94 45 95
REMARK SMILES IDX 46 96 47 97
REMARK H PARENT 68 53 38 64
REMARK Flexibility Score: inf
ROOT
ATOM      1  C   UNL A   1      50.129  41.862  28.966  1.00  0.00     0.188 C 
ENDROOT
BRANCH   1   2
ATOM      2  C   UNL A   1      49.026  42.552  29.781  1.00  0.00     0.188 C 
BRANCH   2   3
ATOM      3  O   UNL A   1      47.610  42.013  29.893  1.00  0.00    -0.376 OA
BRANCH   3   4
ATOM      4  C   UNL A   1      47.052  40.695  30.935  1.00  0.00     0.202 C 
BRANCH   4   5
ATOM      5  C   UNL A   1      45.992  38.965  30.145  1.00  0.00     0.261 C 
BRANCH   5   6
ATOM      6  O   UNL A   1      44.753  38.997  29.254  1.00  0.00    -0.460 OA
BRANCH   6   7
ATOM      7  C   UNL A   1      45.017  39.509  28.042  1.00  0.00     0.338 C 
ATOM      8  O   UNL A   1      46.019  39.385  27.385  1.00  0.00    -0.246 OA
BRANCH   7   9
ATOM      9  C   UNL A   1      44.022  40.567  28.096  1.00  0.00     0.087 C 
ATOM     10  C   UNL A   1      44.489  41.870  28.523  1.00  0.00     0.027 C 
ATOM     11  C   UNL A   1      43.323  40.164  26.363  1.00  0.00     0.316 C 
ATOM     12  C   UNL A   1      44.796  43.233  27.409  1.00  0.00     0.019 A 
ATOM     13  O   UNL A   1      43.810  41.579  25.080  1.00  0.00    -0.475 OA
ATOM     14  C   UNL A   1      45.427  44.332  27.934  1.00  0.00     0.032 A 
ATOM     15  C   UNL A   1      44.548  43.139  25.697  1.00  0.00     0.135 A 
ATOM     16  C   UNL A   1      45.768  45.322  27.011  1.00  0.00     0.042 A 
ATOM     17  C   UNL A   1      44.881  44.193  24.863  1.00  0.00     0.026 A 
ATOM     18  Cl  UNL A   1      46.606  46.716  27.611  1.00  0.00    -0.084 Cl
ATOM     19  C   UNL A   1      45.496  45.264  25.593  1.00  0.00     0.033 A 
BRANCH  11  20
ATOM     20  C   UNL A   1      41.814  39.689  27.067  1.00  0.00     0.430 C 
ATOM     21  F   UNL A   1      41.112  40.515  27.857  1.00  0.00    -0.167 F 
ATOM     22  F   UNL A   1      40.983  39.295  26.070  1.00  0.00    -0.167 F 
ATOM     23  F   UNL A   1      41.962  38.580  27.858  1.00  0.00    -0.167 F 
ENDBRANCH  11  20
BRANCH  17  24
ATOM     24  C   UNL A   1      44.703  44.414  23.433  1.00  0.00    -0.015 A 
ATOM     25  C   UNL A   1      43.691  43.767  22.716  1.00  0.00     0.009 A 
ATOM     26  C   UNL A   1      45.688  45.102  22.698  1.00  0.00     0.009 A 
ATOM     27  C   UNL A   1      43.611  43.890  21.324  1.00  0.00     0.001 A 
ATOM     28  C   UNL A   1      45.591  45.255  21.310  1.00  0.00     0.001 A 
ATOM     29  C   UNL A   1      44.537  44.663  20.626  1.00  0.00     0.000 A 
ENDBRANCH  17  24
ENDBRANCH   7   9
ENDBRANCH   6   7
ENDBRANCH   5   6
ENDBRANCH   4   5
ENDBRANCH   3   4
ENDBRANCH   2   3
ENDBRANCH   1   2
BRANCH   1  30
ATOM     30  O   UNL A   1      50.428  40.518  29.218  1.00  0.00    -0.376 OA
BRANCH  30  31
ATOM     31  C   UNL A   1      49.724  39.595  28.414  1.00  0.00     0.202 C 
BRANCH  31  32
ATOM     32  C   UNL A   1      49.137  38.325  29.034  1.00  0.00     0.261 C 
BRANCH  32  33
ATOM     33  O   UNL A   1      48.945  37.246  28.113  1.00  0.00    -0.460 OA
BRANCH  33  34
ATOM     34  C   UNL A   1      49.640  36.116  28.379  1.00  0.00     0.338 C 
ATOM     35  O   UNL A   1      50.817  36.017  28.676  1.00  0.00    -0.246 OA
BRANCH  34  36
ATOM     36  C   UNL A   1      48.685  34.998  28.444  1.00  0.00     0.060 A 
ATOM     37  C   UNL A   1      48.710  34.126  29.542  1.00  0.00     0.016 A 
ATOM     38  C   UNL A   1      47.806  34.791  27.382  1.00  0.00     0.016 A 
ATOM     39  C   UNL A   1      47.847  33.037  29.585  1.00  0.00     0.010 A 
ATOM     40  C   UNL A   1      46.977  33.673  27.401  1.00  0.00     0.010 A 
ATOM     41  C   UNL A   1      47.020  32.780  28.487  1.00  0.00    -0.014 A 
BRANCH  41  42
ATOM     42  C   UNL A   1      46.419  31.440  28.347  1.00  0.00     0.031 A 
ATOM     43  C   UNL A   1      47.278  30.359  27.754  1.00  0.00     0.074 A 
ATOM     44  C   UNL A   1      45.160  31.194  28.740  1.00  0.00     0.049 A 
ATOM     45  N   UNL A   1      46.976  29.118  27.482  1.00  0.00    -0.248 NA
ATOM     46  C   UNL A   1      48.665  30.731  27.421  1.00  0.00     0.031 C 
ATOM     47  C   UNL A   1      44.265  32.161  29.373  1.00  0.00     0.029 A 
ATOM     48  N   UNL A   1      44.414  30.047  28.652  1.00  0.00    -0.354 N 
ATOM     49  C   UNL A   1      48.128  28.567  26.934  1.00  0.00     0.074 A 
ATOM     50  C   UNL A   1      49.126  29.611  26.888  1.00  0.00     0.031 C 
ATOM     51  C   UNL A   1      43.080  31.568  29.603  1.00  0.00     0.029 A 
ATOM     52  C   UNL A   1      43.124  30.196  29.100  1.00  0.00     0.049 A 
ATOM     53  H   UNL A   1      44.769  29.198  28.301  1.00  0.00     0.167 HD
ATOM     54  C   UNL A   1      48.331  27.302  26.504  1.00  0.00     0.031 A 
ATOM     55  C   UNL A   1      42.093  29.326  29.077  1.00  0.00     0.031 A 
ATOM     56  C   UNL A   1      47.316  26.285  26.525  1.00  0.00     0.049 A 
ATOM     57  C   UNL A   1      42.323  27.943  28.518  1.00  0.00     0.074 A 
ATOM     58  C   UNL A   1      47.414  24.966  26.124  1.00  0.00     0.029 A 
ATOM     59  N   UNL A   1      46.010  26.481  26.955  1.00  0.00    -0.354 N 
ATOM     60  N   UNL A   1      43.425  27.420  28.032  1.00  0.00    -0.248 NA
ATOM     61  C   UNL A   1      41.172  27.030  28.515  1.00  0.00     0.031 C 
ATOM     62  C   UNL A   1      46.148  24.385  26.235  1.00  0.00     0.029 A 
ATOM     63  C   UNL A   1      45.282  25.315  26.793  1.00  0.00     0.049 A 
ATOM     64  H   UNL A   1      45.655  27.323  27.320  1.00  0.00     0.167 HD
ATOM     65  C   UNL A   1      43.108  26.106  27.697  1.00  0.00     0.074 A 
ATOM     66  C   UNL A   1      41.716  25.913  28.051  1.00  0.00     0.031 C 
ATOM     67  C   UNL A   1      43.895  25.145  27.151  1.00  0.00     0.031 A 
BRANCH  54  68
ATOM     68  C   UNL A   1      49.681  26.970  25.926  1.00  0.00    -0.014 A 
ATOM     69  C   UNL A   1      49.972  27.176  24.566  1.00  0.00     0.010 A 
ATOM     70  C   UNL A   1      50.689  26.471  26.772  1.00  0.00     0.010 A 
ATOM     71  C   UNL A   1      51.235  26.864  24.056  1.00  0.00     0.020 A 
ATOM     72  C   UNL A   1      51.964  26.192  26.275  1.00  0.00     0.020 A 
ATOM     73  C   UNL A   1      52.225  26.379  24.918  1.00  0.00     0.054 A 
BRANCH  73  74
ATOM     74  S   UNL A   1      53.869  26.030  24.238  1.00  0.00     0.124 S 
ATOM     75  O   UNL A   1      54.025  24.608  24.537  1.00  0.00    -0.237 OA
ATOM     76  O   UNL A   1      53.705  26.360  22.825  1.00  0.00    -0.237 OA
ATOM     77  O   UNL A   1      54.752  26.921  24.986  1.00  0.00    -0.744 OA
ENDBRANCH  73  74
ENDBRANCH  54  68
BRANCH  55  78
ATOM     78  C   UNL A   1      40.753  29.744  29.573  1.00  0.00    -0.014 A 
ATOM     79  C   UNL A   1      39.768  30.218  28.688  1.00  0.00     0.010 A 
ATOM     80  C   UNL A   1      40.454  29.670  30.947  1.00  0.00     0.010 A 
ATOM     81  C   UNL A   1      38.518  30.624  29.169  1.00  0.00     0.020 A 
ATOM     82  C   UNL A   1      39.194  30.041  31.427  1.00  0.00     0.020 A 
ATOM     83  C   UNL A   1      38.237  30.527  30.534  1.00  0.00     0.054 A 
BRANCH  83  84
ATOM     84  S   UNL A   1      36.590  31.007  31.126  1.00  0.00     0.124 S 
ATOM     85  O   UNL A   1      35.789  30.913  29.910  1.00  0.00    -0.237 OA
ATOM     86  O   UNL A   1      36.317  29.997  32.144  1.00  0.00    -0.237 OA
ATOM     87  O   UNL A   1      36.791  32.361  31.639  1.00  0.00    -0.744 OA
ENDBRANCH  83  84
ENDBRANCH  55  78
BRANCH  67  88
ATOM     88  C   UNL A   1      43.289  23.780  26.942  1.00  0.00    -0.014 A 
ATOM     89  C   UNL A   1      42.830  23.359  25.682  1.00  0.00     0.010 A 
ATOM     90  C   UNL A   1      43.241  22.878  28.023  1.00  0.00     0.010 A 
ATOM     91  C   UNL A   1      42.299  22.077  25.515  1.00  0.00     0.020 A 
ATOM     92  C   UNL A   1      42.748  21.584  27.852  1.00  0.00     0.020 A 
ATOM     93  C   UNL A   1      42.265  21.196  26.601  1.00  0.00     0.054 A 
BRANCH  93  94
ATOM     94  S   UNL A   1      41.610  19.525  26.347  1.00  0.00     0.124 S 
ATOM     95  O   UNL A   1      42.367  19.075  25.182  1.00  0.00    -0.237 OA
ATOM     96  O   UNL A   1      41.939  18.860  27.606  1.00  0.00    -0.237 OA
ATOM     97  O   UNL A   1      40.184  19.741  26.116  1.00  0.00    -0.744 OA
ENDBRANCH  93  94
ENDBRANCH  67  88
ENDBRANCH  41  42
ENDBRANCH  34  36
ENDBRANCH  33  34
ENDBRANCH  32  33
ENDBRANCH  31  32
ENDBRANCH  30  31
ENDBRANCH   1  30
TORSDOF 22
ENDMDL
