MODEL 1
REMARK VINA RESULT:      -7.4      0.000      0.000
REMARK SMILES CC(C)CCc1cc2c(cc1Cl)C=C(C(=O)OCCOCCOCCOC(=O)c1ccc(-c3c4nc(c(-c5ccc(S(=O)(=O)[O-])cc5)c5ccc([nH]5)c(-c5ccc(S(=O)(=O)[O-])cc5)c5nc(c(-c6ccc(S(=O)(=O)[O-])cc6)c6ccc3[nH]6)C=C5)C=C4)cc1)[C@@H](C(F)(F)F)O2
REMARK SMILES IDX 21 1 20 2 19 3 18 4 17 5 15 6 16 7 14 8 6 9 7 10 11 11 8 12
REMARK SMILES IDX 10 13 12 14 9 15 94 16 13 17 89 18 5 19 4 20 2 21 1 22 3 23
REMARK SMILES IDX 90 24 91 25 92 26 93 27 22 28 23 29 24 30 25 31 26 32 27 33
REMARK SMILES IDX 28 34 29 35 30 36 88 37 31 38 87 39 32 40 33 41 34 42 81 43
REMARK SMILES IDX 35 44 86 45 80 46 82 47 36 48 85 49 79 50 78 51 37 53 67 54
REMARK SMILES IDX 48 55 66 56 49 57 52 58 65 59 83 60 50 61 51 62 64 64 84 65
REMARK SMILES IDX 53 66 38 67 39 68 47 69 40 70 46 71 41 72 42 73 43 74 44 75
REMARK SMILES IDX 45 76 68 77 69 78 77 79 70 80 76 81 71 82 72 83 73 84 74 85
REMARK SMILES IDX 75 86 54 87 55 88 63 89 56 90 62 91 57 92 58 93 59 94 60 95
REMARK SMILES IDX 61 96
REMARK H PARENT 82 52 52 63
REMARK Flexibility Score: inf
ROOT
ATOM      1  C   UNL A   1      47.175  24.446  26.199  1.00  0.00     0.188 C 
ENDROOT
BRANCH   1   2
ATOM      2  O   UNL A   1      46.402  23.267  26.342  1.00  0.00    -0.376 OA
BRANCH   2   3
ATOM      3  C   UNL A   1      45.233  23.166  25.547  1.00  0.00     0.202 C 
BRANCH   3   4
ATOM      4  C   UNL A   1      44.368  21.920  25.779  1.00  0.00     0.261 C 
BRANCH   4   5
ATOM      5  O   UNL A   1      42.994  22.181  26.099  1.00  0.00    -0.460 OA
BRANCH   5   6
ATOM      6  C   UNL A   1      42.706  22.486  27.382  1.00  0.00     0.338 C 
ATOM      7  O   UNL A   1      43.048  21.861  28.370  1.00  0.00    -0.246 OA
BRANCH   6   8
ATOM      8  C   UNL A   1      42.000  23.788  27.405  1.00  0.00     0.087 C 
ATOM      9  C   UNL A   1      40.160  28.316  28.570  1.00  0.00    -0.026 A 
ATOM     10  C   UNL A   1      39.903  27.376  27.557  1.00  0.00     0.052 A 
ATOM     11  C   UNL A   1      41.316  28.137  29.348  1.00  0.00     0.045 A 
ATOM     12  C   UNL A   1      40.667  26.212  27.440  1.00  0.00     0.128 A 
ATOM     13  C   UNL A   1      42.098  26.982  29.213  1.00  0.00     0.032 A 
ATOM     14  Cl  UNL A   1      41.825  29.302  30.518  1.00  0.00    -0.084 Cl
ATOM     15  C   UNL A   1      41.743  25.991  28.295  1.00  0.00     0.019 A 
ATOM     16  O   UNL A   1      40.272  25.339  26.470  1.00  0.00    -0.475 OA
ATOM     17  C   UNL A   1      42.450  24.721  28.253  1.00  0.00     0.027 C 
ATOM     18  C   UNL A   1      40.852  24.007  26.450  1.00  0.00     0.316 C 
BRANCH   9  19
ATOM     19  C   UNL A   1      39.195  29.463  28.803  1.00  0.00     0.037 C 
BRANCH  19  20
ATOM     20  C   UNL A   1      37.876  29.094  29.513  1.00  0.00     0.008 C 
BRANCH  20  21
ATOM     21  C   UNL A   1      37.841  29.358  31.035  1.00  0.00    -0.017 C 
ATOM     22  C   UNL A   1      38.363  28.174  31.847  1.00  0.00     0.007 C 
ATOM     23  C   UNL A   1      38.648  30.616  31.366  1.00  0.00     0.007 C 
ENDBRANCH  20  21
ENDBRANCH  19  20
ENDBRANCH   9  19
BRANCH  18  24
ATOM     24  C   UNL A   1      39.725  22.982  26.643  1.00  0.00     0.430 C 
ATOM     25  F   UNL A   1      38.508  23.543  26.427  1.00  0.00    -0.167 F 
ATOM     26  F   UNL A   1      39.830  21.948  25.776  1.00  0.00    -0.167 F 
ATOM     27  F   UNL A   1      39.713  22.464  27.892  1.00  0.00    -0.167 F 
ENDBRANCH  18  24
ENDBRANCH   6   8
ENDBRANCH   5   6
ENDBRANCH   4   5
ENDBRANCH   3   4
ENDBRANCH   2   3
ENDBRANCH   1   2
BRANCH   1  28
ATOM     28  C   UNL A   1      46.867  25.207  24.892  1.00  0.00     0.188 C 
BRANCH  28  29
ATOM     29  O   UNL A   1      47.604  24.903  23.713  1.00  0.00    -0.376 OA
BRANCH  29  30
ATOM     30  C   UNL A   1      48.650  25.781  23.314  1.00  0.00     0.202 C 
BRANCH  30  31
ATOM     31  C   UNL A   1      48.341  27.280  23.212  1.00  0.00     0.261 C 
BRANCH  31  32
ATOM     32  O   UNL A   1      49.281  28.123  23.900  1.00  0.00    -0.460 OA
BRANCH  32  33
ATOM     33  C   UNL A   1      49.608  27.734  25.159  1.00  0.00     0.338 C 
ATOM     34  O   UNL A   1      50.593  27.103  25.502  1.00  0.00    -0.246 OA
BRANCH  33  35
ATOM     35  C   UNL A   1      48.688  28.382  26.118  1.00  0.00     0.060 A 
ATOM     36  C   UNL A   1      47.306  28.349  25.930  1.00  0.00     0.016 A 
ATOM     37  C   UNL A   1      49.237  29.034  27.231  1.00  0.00     0.016 A 
ATOM     38  C   UNL A   1      46.470  28.953  26.875  1.00  0.00     0.010 A 
ATOM     39  C   UNL A   1      48.402  29.657  28.161  1.00  0.00     0.010 A 
ATOM     40  C   UNL A   1      47.012  29.603  27.999  1.00  0.00    -0.014 A 
BRANCH  40  41
ATOM     41  C   UNL A   1      46.121  30.070  29.089  1.00  0.00     0.031 A 
ATOM     42  C   UNL A   1      45.484  31.424  29.068  1.00  0.00     0.074 A 
ATOM     43  C   UNL A   1      45.897  29.231  30.119  1.00  0.00     0.049 A 
ATOM     44  N   UNL A   1      44.606  31.923  29.900  1.00  0.00    -0.248 NA
ATOM     45  C   UNL A   1      45.876  32.336  27.983  1.00  0.00     0.031 C 
ATOM     46  C   UNL A   1      46.479  27.894  30.247  1.00  0.00     0.029 A 
ATOM     47  N   UNL A   1      45.117  29.367  31.240  1.00  0.00    -0.354 N 
ATOM     48  C   UNL A   1      44.313  33.196  29.427  1.00  0.00     0.074 A 
ATOM     49  C   UNL A   1      45.144  33.411  28.261  1.00  0.00     0.031 C 
ATOM     50  C   UNL A   1      46.018  27.323  31.368  1.00  0.00     0.029 A 
ATOM     51  C   UNL A   1      45.125  28.256  32.051  1.00  0.00     0.049 A 
ATOM     52  H   UNL A   1      44.601  30.180  31.444  1.00  0.00     0.167 HD
ATOM     53  C   UNL A   1      43.415  34.086  29.916  1.00  0.00     0.031 A 
ATOM     54  C   UNL A   1      44.478  28.004  33.206  1.00  0.00     0.031 A 
ATOM     55  C   UNL A   1      42.613  33.865  31.094  1.00  0.00     0.049 A 
ATOM     56  C   UNL A   1      43.529  29.030  33.756  1.00  0.00     0.074 A 
ATOM     57  C   UNL A   1      41.649  34.696  31.638  1.00  0.00     0.029 A 
ATOM     58  N   UNL A   1      42.687  32.750  31.917  1.00  0.00    -0.354 N 
ATOM     59  N   UNL A   1      43.201  30.195  33.251  1.00  0.00    -0.248 NA
ATOM     60  C   UNL A   1      42.849  28.705  35.017  1.00  0.00     0.031 C 
ATOM     61  C   UNL A   1      41.192  34.119  32.826  1.00  0.00     0.029 A 
ATOM     62  C   UNL A   1      41.812  32.891  32.983  1.00  0.00     0.049 A 
ATOM     63  H   UNL A   1      43.272  31.973  31.766  1.00  0.00     0.167 HD
ATOM     64  C   UNL A   1      42.261  30.734  34.120  1.00  0.00     0.074 A 
ATOM     65  C   UNL A   1      42.062  29.764  35.176  1.00  0.00     0.031 C 
ATOM     66  C   UNL A   1      41.620  31.926  34.041  1.00  0.00     0.031 A 
BRANCH  53  67
ATOM     67  C   UNL A   1      43.214  35.385  29.178  1.00  0.00    -0.014 A 
ATOM     68  C   UNL A   1      43.890  36.546  29.597  1.00  0.00     0.010 A 
ATOM     69  C   UNL A   1      42.236  35.492  28.173  1.00  0.00     0.010 A 
ATOM     70  C   UNL A   1      43.568  37.793  29.053  1.00  0.00     0.020 A 
ATOM     71  C   UNL A   1      41.928  36.733  27.607  1.00  0.00     0.020 A 
ATOM     72  C   UNL A   1      42.579  37.880  28.070  1.00  0.00     0.054 A 
BRANCH  72  73
ATOM     73  S   UNL A   1      42.142  39.511  27.405  1.00  0.00     0.124 S 
ATOM     74  O   UNL A   1      41.664  40.212  28.593  1.00  0.00    -0.237 OA
ATOM     75  O   UNL A   1      43.414  39.984  26.861  1.00  0.00    -0.237 OA
ATOM     76  O   UNL A   1      41.122  39.209  26.403  1.00  0.00    -0.744 OA
ENDBRANCH  72  73
ENDBRANCH  53  67
BRANCH  54  77
ATOM     77  C   UNL A   1      44.680  26.687  33.866  1.00  0.00    -0.014 A 
ATOM     78  C   UNL A   1      45.578  26.561  34.943  1.00  0.00     0.010 A 
ATOM     79  C   UNL A   1      44.068  25.533  33.348  1.00  0.00     0.010 A 
ATOM     80  C   UNL A   1      45.907  25.302  35.450  1.00  0.00     0.020 A 
ATOM     81  C   UNL A   1      44.372  24.272  33.872  1.00  0.00     0.020 A 
ATOM     82  C   UNL A   1      45.314  24.164  34.897  1.00  0.00     0.054 A 
BRANCH  82  83
ATOM     83  S   UNL A   1      45.810  22.534  35.521  1.00  0.00     0.124 S 
ATOM     84  O   UNL A   1      46.206  22.847  36.891  1.00  0.00    -0.237 OA
ATOM     85  O   UNL A   1      44.583  21.753  35.384  1.00  0.00    -0.237 OA
ATOM     86  O   UNL A   1      46.898  22.143  34.629  1.00  0.00    -0.744 OA
ENDBRANCH  82  83
ENDBRANCH  54  77
BRANCH  66  87
ATOM     87  C   UNL A   1      40.634  32.283  35.123  1.00  0.00    -0.014 A 
ATOM     88  C   UNL A   1      41.097  32.818  36.340  1.00  0.00     0.010 A 
ATOM     89  C   UNL A   1      39.272  31.954  34.995  1.00  0.00     0.010 A 
ATOM     90  C   UNL A   1      40.229  32.974  37.424  1.00  0.00     0.020 A 
ATOM     91  C   UNL A   1      38.395  32.136  36.069  1.00  0.00     0.020 A 
ATOM     92  C   UNL A   1      38.886  32.617  37.286  1.00  0.00     0.054 A 
BRANCH  92  93
ATOM     93  S   UNL A   1      37.787  32.772  38.721  1.00  0.00     0.124 S 
ATOM     94  O   UNL A   1      36.472  32.556  38.125  1.00  0.00    -0.237 OA
ATOM     95  O   UNL A   1      38.259  31.709  39.604  1.00  0.00    -0.237 OA
ATOM     96  O   UNL A   1      38.038  34.129  39.202  1.00  0.00    -0.744 OA
ENDBRANCH  92  93
ENDBRANCH  66  87
ENDBRANCH  40  41
ENDBRANCH  33  35
ENDBRANCH  32  33
ENDBRANCH  31  32
ENDBRANCH  30  31
ENDBRANCH  29  30
ENDBRANCH  28  29
ENDBRANCH   1  28
TORSDOF 24
ENDMDL
MODEL 2
REMARK VINA RESULT:      -7.3      5.357      9.302
REMARK SMILES CC(C)CCc1cc2c(cc1Cl)C=C(C(=O)OCCOCCOCCOC(=O)c1ccc(-c3c4nc(c(-c5ccc(S(=O)(=O)[O-])cc5)c5ccc([nH]5)c(-c5ccc(S(=O)(=O)[O-])cc5)c5nc(c(-c6ccc(S(=O)(=O)[O-])cc6)c6ccc3[nH]6)C=C5)C=C4)cc1)[C@@H](C(F)(F)F)O2
REMARK SMILES IDX 21 1 20 2 19 3 18 4 17 5 15 6 16 7 14 8 6 9 7 10 11 11 8 12
REMARK SMILES IDX 10 13 12 14 9 15 94 16 13 17 89 18 5 19 4 20 2 21 1 22 3 23
REMARK SMILES IDX 90 24 91 25 92 26 93 27 22 28 23 29 24 30 25 31 26 32 27 33
REMARK SMILES IDX 28 34 29 35 30 36 88 37 31 38 87 39 32 40 33 41 34 42 81 43
REMARK SMILES IDX 35 44 86 45 80 46 82 47 36 48 85 49 79 50 78 51 37 53 67 54
REMARK SMILES IDX 48 55 66 56 49 57 52 58 65 59 83 60 50 61 51 62 64 64 84 65
REMARK SMILES IDX 53 66 38 67 39 68 47 69 40 70 46 71 41 72 42 73 43 74 44 75
REMARK SMILES IDX 45 76 68 77 69 78 77 79 70 80 76 81 71 82 72 83 73 84 74 85
REMARK SMILES IDX 75 86 54 87 55 88 63 89 56 90 62 91 57 92 58 93 59 94 60 95
REMARK SMILES IDX 61 96
REMARK H PARENT 82 52 52 63
REMARK Flexibility Score: inf
ROOT
ATOM      1  C   UNL A   1      40.745  26.844  27.157  1.00  0.00     0.188 C 
ENDROOT
BRANCH   1   2
ATOM      2  O   UNL A   1      39.575  27.563  27.509  1.00  0.00    -0.376 OA
BRANCH   2   3
ATOM      3  C   UNL A   1      39.574  28.956  27.249  1.00  0.00     0.202 C 
BRANCH   3   4
ATOM      4  C   UNL A   1      38.545  29.784  28.028  1.00  0.00     0.261 C 
BRANCH   4   5
ATOM      5  O   UNL A   1      37.219  29.785  27.478  1.00  0.00    -0.460 OA
BRANCH   5   6
ATOM      6  C   UNL A   1      36.197  29.565  28.332  1.00  0.00     0.338 C 
ATOM      7  O   UNL A   1      36.260  29.549  29.549  1.00  0.00    -0.246 OA
BRANCH   6   8
ATOM      8  C   UNL A   1      34.946  29.464  27.546  1.00  0.00     0.087 C 
ATOM      9  C   UNL A   1      31.445  28.620  24.041  1.00  0.00    -0.026 A 
ATOM     10  C   UNL A   1      31.472  29.313  25.264  1.00  0.00     0.052 A 
ATOM     11  C   UNL A   1      32.521  27.763  23.753  1.00  0.00     0.045 A 
ATOM     12  C   UNL A   1      32.603  29.289  26.083  1.00  0.00     0.128 A 
ATOM     13  C   UNL A   1      33.644  27.719  24.589  1.00  0.00     0.032 A 
ATOM     14  Cl  UNL A   1      32.533  26.741  22.360  1.00  0.00    -0.084 Cl
ATOM     15  C   UNL A   1      33.711  28.524  25.728  1.00  0.00     0.019 A 
ATOM     16  O   UNL A   1      32.540  30.063  27.204  1.00  0.00    -0.475 OA
ATOM     17  C   UNL A   1      34.930  28.607  26.517  1.00  0.00     0.027 C 
ATOM     18  C   UNL A   1      33.755  30.288  27.969  1.00  0.00     0.316 C 
BRANCH   9  19
ATOM     19  C   UNL A   1      30.292  28.826  23.078  1.00  0.00     0.037 C 
BRANCH  19  20
ATOM     20  C   UNL A   1      29.583  30.194  23.166  1.00  0.00     0.008 C 
BRANCH  20  21
ATOM     21  C   UNL A   1      28.139  30.234  22.615  1.00  0.00    -0.017 C 
ATOM     22  C   UNL A   1      27.280  29.085  23.144  1.00  0.00     0.007 C 
ATOM     23  C   UNL A   1      27.487  31.575  22.954  1.00  0.00     0.007 C 
ENDBRANCH  20  21
ENDBRANCH  19  20
ENDBRANCH   9  19
BRANCH  18  24
ATOM     24  C   UNL A   1      34.056  31.794  27.974  1.00  0.00     0.430 C 
ATOM     25  F   UNL A   1      33.022  32.503  27.455  1.00  0.00    -0.167 F 
ATOM     26  F   UNL A   1      34.252  32.264  29.228  1.00  0.00    -0.167 F 
ATOM     27  F   UNL A   1      35.156  32.098  27.250  1.00  0.00    -0.167 F 
ENDBRANCH  18  24
ENDBRANCH   6   8
ENDBRANCH   5   6
ENDBRANCH   4   5
ENDBRANCH   3   4
ENDBRANCH   2   3
ENDBRANCH   1   2
BRANCH   1  28
ATOM     28  C   UNL A   1      41.170  25.830  28.239  1.00  0.00     0.188 C 
BRANCH  28  29
ATOM     29  O   UNL A   1      42.107  24.809  27.914  1.00  0.00    -0.376 OA
BRANCH  29  30
ATOM     30  C   UNL A   1      41.843  23.968  26.796  1.00  0.00     0.202 C 
BRANCH  30  31
ATOM     31  C   UNL A   1      43.008  23.173  26.193  1.00  0.00     0.261 C 
BRANCH  31  32
ATOM     32  O   UNL A   1      43.829  23.928  25.288  1.00  0.00    -0.460 OA
BRANCH  32  33
ATOM     33  C   UNL A   1      45.066  24.253  25.745  1.00  0.00     0.338 C 
ATOM     34  O   UNL A   1      46.108  23.659  25.533  1.00  0.00    -0.246 OA
BRANCH  33  35
ATOM     35  C   UNL A   1      45.009  25.586  26.382  1.00  0.00     0.060 A 
ATOM     36  C   UNL A   1      45.483  25.791  27.677  1.00  0.00     0.016 A 
ATOM     37  C   UNL A   1      44.464  26.651  25.648  1.00  0.00     0.016 A 
ATOM     38  C   UNL A   1      45.432  27.074  28.232  1.00  0.00     0.010 A 
ATOM     39  C   UNL A   1      44.393  27.926  26.213  1.00  0.00     0.010 A 
ATOM     40  C   UNL A   1      44.895  28.150  27.501  1.00  0.00    -0.014 A 
BRANCH  40  41
ATOM     41  C   UNL A   1      45.021  29.535  28.016  1.00  0.00     0.031 A 
ATOM     42  C   UNL A   1      46.255  30.354  27.797  1.00  0.00     0.074 A 
ATOM     43  C   UNL A   1      43.980  30.047  28.701  1.00  0.00     0.049 A 
ATOM     44  N   UNL A   1      46.463  31.610  28.101  1.00  0.00    -0.248 NA
ATOM     45  C   UNL A   1      47.400  29.689  27.157  1.00  0.00     0.031 C 
ATOM     46  C   UNL A   1      42.736  29.330  28.986  1.00  0.00     0.029 A 
ATOM     47  N   UNL A   1      43.794  31.283  29.269  1.00  0.00    -0.354 N 
ATOM     48  C   UNL A   1      47.749  31.899  27.665  1.00  0.00     0.074 A 
ATOM     49  C   UNL A   1      48.292  30.674  27.118  1.00  0.00     0.031 C 
ATOM     50  C   UNL A   1      41.906  30.145  29.651  1.00  0.00     0.029 A 
ATOM     51  C   UNL A   1      42.562  31.433  29.861  1.00  0.00     0.049 A 
ATOM     52  H   UNL A   1      44.476  31.993  29.253  1.00  0.00     0.167 HD
ATOM     53  C   UNL A   1      48.399  33.088  27.703  1.00  0.00     0.031 A 
ATOM     54  C   UNL A   1      42.011  32.490  30.490  1.00  0.00     0.031 A 
ATOM     55  C   UNL A   1      47.852  34.294  28.275  1.00  0.00     0.049 A 
ATOM     56  C   UNL A   1      42.774  33.781  30.566  1.00  0.00     0.074 A 
ATOM     57  C   UNL A   1      48.426  35.553  28.320  1.00  0.00     0.029 A 
ATOM     58  N   UNL A   1      46.623  34.394  28.911  1.00  0.00    -0.354 N 
ATOM     59  N   UNL A   1      43.957  34.061  30.075  1.00  0.00    -0.248 NA
ATOM     60  C   UNL A   1      42.128  34.902  31.262  1.00  0.00     0.031 C 
ATOM     61  C   UNL A   1      47.578  36.395  29.045  1.00  0.00     0.029 A 
ATOM     62  C   UNL A   1      46.439  35.684  29.384  1.00  0.00     0.049 A 
ATOM     63  H   UNL A   1      45.977  33.658  29.011  1.00  0.00     0.167 HD
ATOM     64  C   UNL A   1      44.189  35.396  30.383  1.00  0.00     0.074 A 
ATOM     65  C   UNL A   1      43.019  35.872  31.092  1.00  0.00     0.031 C 
ATOM     66  C   UNL A   1      45.275  36.155  30.097  1.00  0.00     0.031 A 
BRANCH  53  67
ATOM     67  C   UNL A   1      49.775  33.176  27.091  1.00  0.00    -0.014 A 
ATOM     68  C   UNL A   1      50.916  33.009  27.896  1.00  0.00     0.010 A 
ATOM     69  C   UNL A   1      49.936  33.585  25.755  1.00  0.00     0.010 A 
ATOM     70  C   UNL A   1      52.191  33.282  27.389  1.00  0.00     0.020 A 
ATOM     71  C   UNL A   1      51.211  33.833  25.235  1.00  0.00     0.020 A 
ATOM     72  C   UNL A   1      52.329  33.704  26.065  1.00  0.00     0.054 A 
BRANCH  72  73
ATOM     73  S   UNL A   1      53.985  34.096  25.435  1.00  0.00     0.124 S 
ATOM     74  O   UNL A   1      54.110  33.182  24.304  1.00  0.00    -0.237 OA
ATOM     75  O   UNL A   1      53.869  35.512  25.093  1.00  0.00    -0.237 OA
ATOM     76  O   UNL A   1      54.859  33.808  26.571  1.00  0.00    -0.744 OA
ENDBRANCH  72  73
ENDBRANCH  53  67
BRANCH  54  77
ATOM     77  C   UNL A   1      40.633  32.358  31.035  1.00  0.00    -0.014 A 
ATOM     78  C   UNL A   1      39.522  32.734  30.256  1.00  0.00     0.010 A 
ATOM     79  C   UNL A   1      40.432  31.968  32.370  1.00  0.00     0.010 A 
ATOM     80  C   UNL A   1      38.245  32.782  30.819  1.00  0.00     0.020 A 
ATOM     81  C   UNL A   1      39.150  31.986  32.929  1.00  0.00     0.020 A 
ATOM     82  C   UNL A   1      38.071  32.424  32.159  1.00  0.00     0.054 A 
BRANCH  82  83
ATOM     83  S   UNL A   1      36.417  32.563  32.890  1.00  0.00     0.124 S 
ATOM     84  O   UNL A   1      35.608  31.795  31.947  1.00  0.00    -0.237 OA
ATOM     85  O   UNL A   1      36.597  31.955  34.206  1.00  0.00    -0.237 OA
ATOM     86  O   UNL A   1      36.167  34.002  32.900  1.00  0.00    -0.744 OA
ENDBRANCH  82  83
ENDBRANCH  54  77
BRANCH  66  87
ATOM     87  C   UNL A   1      45.283  37.594  30.546  1.00  0.00    -0.014 A 
ATOM     88  C   UNL A   1      44.773  38.593  29.695  1.00  0.00     0.010 A 
ATOM     89  C   UNL A   1      45.925  37.973  31.738  1.00  0.00     0.010 A 
ATOM     90  C   UNL A   1      44.945  39.945  30.003  1.00  0.00     0.020 A 
ATOM     91  C   UNL A   1      46.074  39.325  32.064  1.00  0.00     0.020 A 
ATOM     92  C   UNL A   1      45.609  40.302  31.179  1.00  0.00     0.054 A 
BRANCH  92  93
ATOM     93  S   UNL A   1      45.875  42.062  31.535  1.00  0.00     0.124 S 
ATOM     94  O   UNL A   1      45.775  42.099  32.990  1.00  0.00    -0.237 OA
ATOM     95  O   UNL A   1      47.209  42.302  30.989  1.00  0.00    -0.237 OA
ATOM     96  O   UNL A   1      44.789  42.725  30.817  1.00  0.00    -0.744 OA
ENDBRANCH  92  93
ENDBRANCH  66  87
ENDBRANCH  40  41
ENDBRANCH  33  35
ENDBRANCH  32  33
ENDBRANCH  31  32
ENDBRANCH  30  31
ENDBRANCH  29  30
ENDBRANCH  28  29
ENDBRANCH   1  28
TORSDOF 24
ENDMDL
MODEL 3
REMARK VINA RESULT:      -7.3      6.837     10.784
REMARK SMILES CC(C)CCc1cc2c(cc1Cl)C=C(C(=O)OCCOCCOCCOC(=O)c1ccc(-c3c4nc(c(-c5ccc(S(=O)(=O)[O-])cc5)c5ccc([nH]5)c(-c5ccc(S(=O)(=O)[O-])cc5)c5nc(c(-c6ccc(S(=O)(=O)[O-])cc6)c6ccc3[nH]6)C=C5)C=C4)cc1)[C@@H](C(F)(F)F)O2
REMARK SMILES IDX 21 1 20 2 19 3 18 4 17 5 15 6 16 7 14 8 6 9 7 10 11 11 8 12
REMARK SMILES IDX 10 13 12 14 9 15 94 16 13 17 89 18 5 19 4 20 2 21 1 22 3 23
REMARK SMILES IDX 90 24 91 25 92 26 93 27 22 28 23 29 24 30 25 31 26 32 27 33
REMARK SMILES IDX 28 34 29 35 30 36 88 37 31 38 87 39 32 40 33 41 34 42 81 43
REMARK SMILES IDX 35 44 86 45 80 46 82 47 36 48 85 49 79 50 78 51 37 53 67 54
REMARK SMILES IDX 48 55 66 56 49 57 52 58 65 59 83 60 50 61 51 62 64 64 84 65
REMARK SMILES IDX 53 66 38 67 39 68 47 69 40 70 46 71 41 72 42 73 43 74 44 75
REMARK SMILES IDX 45 76 68 77 69 78 77 79 70 80 76 81 71 82 72 83 73 84 74 85
REMARK SMILES IDX 75 86 54 87 55 88 63 89 56 90 62 91 57 92 58 93 59 94 60 95
REMARK SMILES IDX 61 96
REMARK H PARENT 82 52 52 63
REMARK Flexibility Score: inf
ROOT
ATOM      1  C   UNL A   1      34.639  31.108  28.241  1.00  0.00     0.188 C 
ENDROOT
BRANCH   1   2
ATOM      2  O   UNL A   1      33.928  30.931  27.028  1.00  0.00    -0.376 OA
BRANCH   2   3
ATOM      3  C   UNL A   1      32.630  30.370  27.121  1.00  0.00     0.202 C 
BRANCH   3   4
ATOM      4  C   UNL A   1      32.566  28.878  27.471  1.00  0.00     0.261 C 
BRANCH   4   5
ATOM      5  O   UNL A   1      33.636  28.080  26.942  1.00  0.00    -0.460 OA
BRANCH   5   6
ATOM      6  C   UNL A   1      33.568  27.745  25.636  1.00  0.00     0.338 C 
ATOM      7  O   UNL A   1      33.855  28.458  24.690  1.00  0.00    -0.246 OA
BRANCH   6   8
ATOM      8  C   UNL A   1      33.198  26.315  25.539  1.00  0.00     0.087 C 
ATOM      9  C   UNL A   1      33.105  21.340  24.835  1.00  0.00    -0.026 A 
ATOM     10  C   UNL A   1      32.133  22.318  25.113  1.00  0.00     0.052 A 
ATOM     11  C   UNL A   1      34.454  21.703  24.981  1.00  0.00     0.045 A 
ATOM     12  C   UNL A   1      32.492  23.646  25.353  1.00  0.00     0.128 A 
ATOM     13  C   UNL A   1      34.814  23.031  25.248  1.00  0.00     0.032 A 
ATOM     14  Cl  UNL A   1      35.736  20.555  24.819  1.00  0.00    -0.084 Cl
ATOM     15  C   UNL A   1      33.834  24.016  25.380  1.00  0.00     0.019 A 
ATOM     16  O   UNL A   1      31.457  24.517  25.532  1.00  0.00    -0.475 OA
ATOM     17  C   UNL A   1      34.194  25.420  25.501  1.00  0.00     0.027 C 
ATOM     18  C   UNL A   1      31.736  25.942  25.535  1.00  0.00     0.316 C 
BRANCH   9  19
ATOM     19  C   UNL A   1      32.681  19.958  24.378  1.00  0.00     0.037 C 
BRANCH  19  20
ATOM     20  C   UNL A   1      32.800  18.838  25.434  1.00  0.00     0.008 C 
BRANCH  20  21
ATOM     21  C   UNL A   1      33.408  17.509  24.930  1.00  0.00    -0.017 C 
ATOM     22  C   UNL A   1      32.668  16.286  25.470  1.00  0.00     0.007 C 
ATOM     23  C   UNL A   1      33.414  17.484  23.400  1.00  0.00     0.007 C 
ENDBRANCH  20  21
ENDBRANCH  19  20
ENDBRANCH   9  19
BRANCH  18  24
ATOM     24  C   UNL A   1      30.968  26.592  24.375  1.00  0.00     0.430 C 
ATOM     25  F   UNL A   1      31.711  26.601  23.239  1.00  0.00    -0.167 F 
ATOM     26  F   UNL A   1      29.830  25.920  24.084  1.00  0.00    -0.167 F 
ATOM     27  F   UNL A   1      30.626  27.873  24.642  1.00  0.00    -0.167 F 
ENDBRANCH  18  24
ENDBRANCH   6   8
ENDBRANCH   5   6
ENDBRANCH   4   5
ENDBRANCH   3   4
ENDBRANCH   2   3
ENDBRANCH   1   2
BRANCH   1  28
ATOM     28  C   UNL A   1      34.506  32.538  28.806  1.00  0.00     0.188 C 
BRANCH  28  29
ATOM     29  O   UNL A   1      34.877  32.795  30.156  1.00  0.00    -0.376 OA
BRANCH  29  30
ATOM     30  C   UNL A   1      35.482  31.751  30.911  1.00  0.00     0.202 C 
BRANCH  30  31
ATOM     31  C   UNL A   1      36.326  32.134  32.134  1.00  0.00     0.261 C 
BRANCH  31  32
ATOM     32  O   UNL A   1      37.643  32.612  31.813  1.00  0.00    -0.460 OA
BRANCH  32  33
ATOM     33  C   UNL A   1      38.510  31.680  31.340  1.00  0.00     0.338 C 
ATOM     34  O   UNL A   1      38.646  31.321  30.183  1.00  0.00    -0.246 OA
BRANCH  33  35
ATOM     35  C   UNL A   1      39.442  31.296  32.422  1.00  0.00     0.060 A 
ATOM     36  C   UNL A   1      40.807  31.572  32.333  1.00  0.00     0.016 A 
ATOM     37  C   UNL A   1      38.921  30.646  33.549  1.00  0.00     0.016 A 
ATOM     38  C   UNL A   1      41.650  31.213  33.390  1.00  0.00     0.010 A 
ATOM     39  C   UNL A   1      39.767  30.268  34.594  1.00  0.00     0.010 A 
ATOM     40  C   UNL A   1      41.134  30.567  34.530  1.00  0.00    -0.014 A 
BRANCH  40  41
ATOM     41  C   UNL A   1      41.993  30.366  35.722  1.00  0.00     0.031 A 
ATOM     42  C   UNL A   1      42.080  31.384  36.817  1.00  0.00     0.074 A 
ATOM     43  C   UNL A   1      42.707  29.227  35.797  1.00  0.00     0.049 A 
ATOM     44  N   UNL A   1      42.709  31.295  37.962  1.00  0.00    -0.248 NA
ATOM     45  C   UNL A   1      41.379  32.659  36.609  1.00  0.00     0.031 C 
ATOM     46  C   UNL A   1      42.707  28.175  34.778  1.00  0.00     0.029 A 
ATOM     47  N   UNL A   1      43.555  28.756  36.767  1.00  0.00    -0.354 N 
ATOM     48  C   UNL A   1      42.457  32.487  38.628  1.00  0.00     0.074 A 
ATOM     49  C   UNL A   1      41.658  33.304  37.739  1.00  0.00     0.031 C 
ATOM     50  C   UNL A   1      43.496  27.172  35.187  1.00  0.00     0.029 A 
ATOM     51  C   UNL A   1      44.074  27.514  36.485  1.00  0.00     0.049 A 
ATOM     52  H   UNL A   1      43.771  29.258  37.586  1.00  0.00     0.167 HD
ATOM     53  C   UNL A   1      42.844  32.848  39.876  1.00  0.00     0.031 A 
ATOM     54  C   UNL A   1      44.910  26.727  37.191  1.00  0.00     0.031 A 
ATOM     55  C   UNL A   1      43.663  32.032  40.739  1.00  0.00     0.049 A 
ATOM     56  C   UNL A   1      45.368  27.174  38.550  1.00  0.00     0.074 A 
ATOM     57  C   UNL A   1      44.070  32.302  42.034  1.00  0.00     0.029 A 
ATOM     58  N   UNL A   1      44.211  30.804  40.398  1.00  0.00    -0.354 N 
ATOM     59  N   UNL A   1      45.053  28.268  39.200  1.00  0.00    -0.248 NA
ATOM     60  C   UNL A   1      46.276  26.279  39.279  1.00  0.00     0.031 C 
ATOM     61  C   UNL A   1      44.920  31.275  42.450  1.00  0.00     0.029 A 
ATOM     62  C   UNL A   1      44.982  30.323  41.445  1.00  0.00     0.049 A 
ATOM     63  H   UNL A   1      44.073  30.341  39.540  1.00  0.00     0.167 HD
ATOM     64  C   UNL A   1      45.707  28.185  40.423  1.00  0.00     0.074 A 
ATOM     65  C   UNL A   1      46.425  26.927  40.429  1.00  0.00     0.031 C 
ATOM     66  C   UNL A   1      45.704  29.073  41.447  1.00  0.00     0.031 A 
BRANCH  53  67
ATOM     67  C   UNL A   1      42.378  34.175  40.419  1.00  0.00    -0.014 A 
ATOM     68  C   UNL A   1      41.099  34.291  40.995  1.00  0.00     0.010 A 
ATOM     69  C   UNL A   1      43.140  35.339  40.213  1.00  0.00     0.010 A 
ATOM     70  C   UNL A   1      40.576  35.546  41.322  1.00  0.00     0.020 A 
ATOM     71  C   UNL A   1      42.633  36.594  40.562  1.00  0.00     0.020 A 
ATOM     72  C   UNL A   1      41.342  36.692  41.091  1.00  0.00     0.054 A 
BRANCH  72  73
ATOM     73  S   UNL A   1      40.634  38.316  41.480  1.00  0.00     0.124 S 
ATOM     74  O   UNL A   1      39.242  37.985  41.771  1.00  0.00    -0.237 OA
ATOM     75  O   UNL A   1      41.433  38.746  42.626  1.00  0.00    -0.237 OA
ATOM     76  O   UNL A   1      40.852  39.086  40.257  1.00  0.00    -0.744 OA
ENDBRANCH  72  73
ENDBRANCH  53  67
BRANCH  54  77
ATOM     77  C   UNL A   1      45.300  25.408  36.625  1.00  0.00    -0.014 A 
ATOM     78  C   UNL A   1      44.391  24.333  36.636  1.00  0.00     0.010 A 
ATOM     79  C   UNL A   1      46.614  25.189  36.180  1.00  0.00     0.010 A 
ATOM     80  C   UNL A   1      44.806  23.050  36.271  1.00  0.00     0.020 A 
ATOM     81  C   UNL A   1      47.026  23.911  35.785  1.00  0.00     0.020 A 
ATOM     82  C   UNL A   1      46.127  22.845  35.866  1.00  0.00     0.054 A 
BRANCH  82  83
ATOM     83  S   UNL A   1      46.664  21.159  35.467  1.00  0.00     0.124 S 
ATOM     84  O   UNL A   1      47.666  21.401  34.433  1.00  0.00    -0.237 OA
ATOM     85  O   UNL A   1      47.182  20.678  36.745  1.00  0.00    -0.237 OA
ATOM     86  O   UNL A   1      45.438  20.509  35.010  1.00  0.00    -0.744 OA
ENDBRANCH  82  83
ENDBRANCH  54  77
BRANCH  66  87
ATOM     87  C   UNL A   1      46.504  28.746  42.682  1.00  0.00    -0.014 A 
ATOM     88  C   UNL A   1      47.890  28.990  42.700  1.00  0.00     0.010 A 
ATOM     89  C   UNL A   1      45.916  28.064  43.762  1.00  0.00     0.010 A 
ATOM     90  C   UNL A   1      48.682  28.519  43.751  1.00  0.00     0.020 A 
ATOM     91  C   UNL A   1      46.701  27.617  44.830  1.00  0.00     0.020 A 
ATOM     92  C   UNL A   1      48.083  27.821  44.802  1.00  0.00     0.054 A 
BRANCH  92  93
ATOM     93  S   UNL A   1      49.133  27.167  46.129  1.00  0.00     0.124 S 
ATOM     94  O   UNL A   1      50.318  26.732  45.397  1.00  0.00    -0.237 OA
ATOM     95  O   UNL A   1      49.320  28.330  46.995  1.00  0.00    -0.237 OA
ATOM     96  O   UNL A   1      48.328  26.094  46.708  1.00  0.00    -0.744 OA
ENDBRANCH  92  93
ENDBRANCH  66  87
ENDBRANCH  40  41
ENDBRANCH  33  35
ENDBRANCH  32  33
ENDBRANCH  31  32
ENDBRANCH  30  31
ENDBRANCH  29  30
ENDBRANCH  28  29
ENDBRANCH   1  28
TORSDOF 24
ENDMDL
