MODEL 1
REMARK VINA RESULT:      -8.8      0.000      0.000
REMARK SMILES COc1ccc(C(=O)OCCOCCOCCOC(=O)c2ccc(-c3c4nc(c(-c5ccc(S(=O)(=O)[O-])cc5)c5ccc([nH]5)c(-c5ccc(S(=O)(=O)[O-])cc5)c5nc(c(-c6ccc(S(=O)(=O)[O-])cc6)c6ccc3[nH]6)C=C5)C=C4)cc2)cc1CN1CC(=O)N(C)CC1=O
REMARK SMILES IDX 14 1 13 2 12 3 11 4 10 5 9 6 7 7 8 8 6 9 3 10 4 11 82 12
REMARK SMILES IDX 5 13 81 14 2 15 1 16 83 17 84 18 85 19 91 20 86 21 90 22
REMARK SMILES IDX 92 23 87 24 88 25 89 26 15 27 16 28 17 29 18 30 19 31 20 32
REMARK SMILES IDX 21 33 22 34 80 35 23 36 79 37 24 38 25 39 26 40 73 41 27 42
REMARK SMILES IDX 78 43 72 44 74 45 28 46 77 47 71 48 70 49 29 51 59 52 40 53
REMARK SMILES IDX 58 54 41 55 44 56 57 57 75 58 42 59 43 60 56 62 76 63 45 64
REMARK SMILES IDX 30 65 31 66 39 67 32 68 38 69 33 70 34 71 35 72 36 73 37 74
REMARK SMILES IDX 60 75 61 76 69 77 62 78 68 79 63 80 64 81 65 82 66 83 67 84
REMARK SMILES IDX 46 85 47 86 55 87 48 88 54 89 49 90 50 91 51 92 52 93 53 94
REMARK H PARENT 74 50 44 61
REMARK Flexibility Score: inf
ROOT
ATOM      1  C   UNL A   1      38.106  34.051  31.584  1.00  0.00     0.188 C 
ENDROOT
BRANCH   1   2
ATOM      2  C   UNL A   1      37.364  33.956  30.233  1.00  0.00     0.188 C 
BRANCH   2   3
ATOM      3  O   UNL A   1      36.890  32.670  29.916  1.00  0.00    -0.376 OA
BRANCH   3   4
ATOM      4  C   UNL A   1      36.930  32.200  28.582  1.00  0.00     0.202 C 
BRANCH   4   5
ATOM      5  C   UNL A   1      36.321  30.878  28.074  1.00  0.00     0.261 C 
BRANCH   5   6
ATOM      6  O   UNL A   1      35.339  30.932  27.039  1.00  0.00    -0.460 OA
BRANCH   6   7
ATOM      7  C   UNL A   1      34.044  30.816  27.427  1.00  0.00     0.338 C 
ATOM      8  O   UNL A   1      33.508  31.383  28.361  1.00  0.00    -0.246 OA
BRANCH   7   9
ATOM      9  C   UNL A   1      33.319  29.996  26.428  1.00  0.00     0.060 A 
ATOM     10  C   UNL A   1      31.959  28.510  24.502  1.00  0.00     0.123 A 
ATOM     11  C   UNL A   1      31.384  29.676  25.019  1.00  0.00     0.047 A 
ATOM     12  C   UNL A   1      33.233  28.089  24.906  1.00  0.00     0.014 A 
ATOM     13  C   UNL A   1      32.058  30.413  25.995  1.00  0.00     0.019 A 
ATOM     14  C   UNL A   1      33.904  28.848  25.882  1.00  0.00     0.025 A 
BRANCH  10  15
ATOM     15  O   UNL A   1      31.266  27.828  23.538  1.00  0.00    -0.496 OA
ATOM     16  C   UNL A   1      30.144  27.150  24.108  1.00  0.00     0.278 C 
ENDBRANCH  10  15
BRANCH  12  17
ATOM     17  C   UNL A   1      33.937  26.913  24.272  1.00  0.00     0.159 C 
BRANCH  17  18
ATOM     18  N   UNL A   1      33.249  25.669  24.576  1.00  0.00    -0.327 N 
ATOM     19  C   UNL A   1      32.962  25.365  25.972  1.00  0.00     0.220 C 
ATOM     20  C   UNL A   1      33.203  24.658  23.626  1.00  0.00     0.242 C 
ATOM     21  C   UNL A   1      32.010  24.202  26.260  1.00  0.00     0.242 C 
ATOM     22  C   UNL A   1      32.065  23.667  23.857  1.00  0.00     0.219 C 
ATOM     23  O   UNL A   1      33.835  24.691  22.574  1.00  0.00    -0.273 OA
ATOM     24  O   UNL A   1      31.560  24.017  27.391  1.00  0.00    -0.273 OA
ATOM     25  N   UNL A   1      31.910  23.257  25.246  1.00  0.00    -0.335 N 
ATOM     26  C   UNL A   1      31.200  22.024  25.518  1.00  0.00     0.147 C 
ENDBRANCH  17  18
ENDBRANCH  12  17
ENDBRANCH   7   9
ENDBRANCH   6   7
ENDBRANCH   5   6
ENDBRANCH   4   5
ENDBRANCH   3   4
ENDBRANCH   2   3
ENDBRANCH   1   2
BRANCH   1  27
ATOM     27  O   UNL A   1      37.395  34.247  32.798  1.00  0.00    -0.376 OA
BRANCH  27  28
ATOM     28  C   UNL A   1      36.656  33.177  33.368  1.00  0.00     0.202 C 
BRANCH  28  29
ATOM     29  C   UNL A   1      37.270  31.782  33.587  1.00  0.00     0.261 C 
BRANCH  29  30
ATOM     30  O   UNL A   1      37.085  30.822  32.539  1.00  0.00    -0.460 OA
BRANCH  30  31
ATOM     31  C   UNL A   1      37.715  29.638  32.715  1.00  0.00     0.338 C 
ATOM     32  O   UNL A   1      37.253  28.621  33.216  1.00  0.00    -0.246 OA
BRANCH  31  33
ATOM     33  C   UNL A   1      39.026  29.680  32.042  1.00  0.00     0.060 A 
ATOM     34  C   UNL A   1      39.071  29.995  30.678  1.00  0.00     0.016 A 
ATOM     35  C   UNL A   1      40.197  29.371  32.737  1.00  0.00     0.016 A 
ATOM     36  C   UNL A   1      40.287  29.993  29.997  1.00  0.00     0.010 A 
ATOM     37  C   UNL A   1      41.413  29.342  32.046  1.00  0.00     0.010 A 
ATOM     38  C   UNL A   1      41.459  29.627  30.668  1.00  0.00    -0.014 A 
BRANCH  38  39
ATOM     39  C   UNL A   1      42.699  29.376  29.896  1.00  0.00     0.031 A 
ATOM     40  C   UNL A   1      42.886  28.034  29.247  1.00  0.00     0.074 A 
ATOM     41  C   UNL A   1      43.640  30.329  29.764  1.00  0.00     0.049 A 
ATOM     42  N   UNL A   1      43.904  27.578  28.565  1.00  0.00    -0.248 NA
ATOM     43  C   UNL A   1      41.776  27.078  29.391  1.00  0.00     0.031 C 
ATOM     44  C   UNL A   1      43.556  31.682  30.309  1.00  0.00     0.029 A 
ATOM     45  N   UNL A   1      44.859  30.290  29.136  1.00  0.00    -0.354 N 
ATOM     46  C   UNL A   1      43.566  26.276  28.212  1.00  0.00     0.074 A 
ATOM     47  C   UNL A   1      42.263  26.009  28.780  1.00  0.00     0.031 C 
ATOM     48  C   UNL A   1      44.686  32.344  30.003  1.00  0.00     0.029 A 
ATOM     49  C   UNL A   1      45.586  31.448  29.276  1.00  0.00     0.049 A 
ATOM     50  H   UNL A   1      45.183  29.508  28.633  1.00  0.00     0.167 HD
ATOM     51  C   UNL A   1      44.276  25.383  27.481  1.00  0.00     0.031 A 
ATOM     52  C   UNL A   1      46.842  31.745  28.886  1.00  0.00     0.031 A 
ATOM     53  C   UNL A   1      45.585  25.645  26.942  1.00  0.00     0.049 A 
ATOM     54  C   UNL A   1      47.647  30.713  28.139  1.00  0.00     0.074 A 
ATOM     55  C   UNL A   1      46.381  24.815  26.172  1.00  0.00     0.029 A 
ATOM     56  N   UNL A   1      46.301  26.819  27.132  1.00  0.00    -0.354 N 
ATOM     57  N   UNL A   1      47.305  29.498  27.782  1.00  0.00    -0.248 NA
ATOM     58  C   UNL A   1      49.007  31.098  27.734  1.00  0.00     0.031 C 
ATOM     59  C   UNL A   1      47.603  25.459  25.956  1.00  0.00     0.029 A 
ATOM     60  C   UNL A   1      47.542  26.722  26.525  1.00  0.00     0.049 A 
ATOM     61  H   UNL A   1      45.974  27.606  27.625  1.00  0.00     0.167 HD
ATOM     62  C   UNL A   1      48.396  28.982  27.088  1.00  0.00     0.074 A 
ATOM     63  C   UNL A   1      49.402  30.023  27.065  1.00  0.00     0.031 C 
ATOM     64  C   UNL A   1      48.544  27.760  26.517  1.00  0.00     0.031 A 
BRANCH  51  65
ATOM     65  C   UNL A   1      43.666  24.020  27.277  1.00  0.00    -0.014 A 
ATOM     66  C   UNL A   1      43.224  23.592  26.012  1.00  0.00     0.010 A 
ATOM     67  C   UNL A   1      43.531  23.152  28.377  1.00  0.00     0.010 A 
ATOM     68  C   UNL A   1      42.600  22.349  25.863  1.00  0.00     0.020 A 
ATOM     69  C   UNL A   1      42.940  21.894  28.225  1.00  0.00     0.020 A 
ATOM     70  C   UNL A   1      42.455  21.512  26.973  1.00  0.00     0.054 A 
BRANCH  70  71
ATOM     71  S   UNL A   1      41.629  19.912  26.756  1.00  0.00     0.124 S 
ATOM     72  O   UNL A   1      40.249  20.236  27.112  1.00  0.00    -0.237 OA
ATOM     73  O   UNL A   1      41.860  19.622  25.343  1.00  0.00    -0.237 OA
ATOM     74  O   UNL A   1      42.323  19.032  27.692  1.00  0.00    -0.744 OA
ENDBRANCH  70  71
ENDBRANCH  51  65
BRANCH  52  75
ATOM     75  C   UNL A   1      47.415  33.079  29.215  1.00  0.00    -0.014 A 
ATOM     76  C   UNL A   1      48.086  33.293  30.431  1.00  0.00     0.010 A 
ATOM     77  C   UNL A   1      47.323  34.135  28.289  1.00  0.00     0.010 A 
ATOM     78  C   UNL A   1      48.660  34.537  30.713  1.00  0.00     0.020 A 
ATOM     79  C   UNL A   1      47.921  35.370  28.554  1.00  0.00     0.020 A 
ATOM     80  C   UNL A   1      48.584  35.564  29.766  1.00  0.00     0.054 A 
BRANCH  80  81
ATOM     81  S   UNL A   1      49.418  37.138  30.117  1.00  0.00     0.124 S 
ATOM     82  O   UNL A   1      50.483  37.147  29.119  1.00  0.00    -0.237 OA
ATOM     83  O   UNL A   1      48.348  38.111  29.910  1.00  0.00    -0.237 OA
ATOM     84  O   UNL A   1      49.859  36.991  31.502  1.00  0.00    -0.744 OA
ENDBRANCH  80  81
ENDBRANCH  52  75
BRANCH  64  85
ATOM     85  C   UNL A   1      49.833  27.483  25.783  1.00  0.00    -0.014 A 
ATOM     86  C   UNL A   1      51.014  27.148  26.471  1.00  0.00     0.010 A 
ATOM     87  C   UNL A   1      49.846  27.498  24.376  1.00  0.00     0.010 A 
ATOM     88  C   UNL A   1      52.188  26.864  25.766  1.00  0.00     0.020 A 
ATOM     89  C   UNL A   1      51.008  27.184  23.667  1.00  0.00     0.020 A 
ATOM     90  C   UNL A   1      52.177  26.883  24.367  1.00  0.00     0.054 A 
BRANCH  90  91
ATOM     91  S   UNL A   1      53.701  26.470  23.475  1.00  0.00     0.124 S 
ATOM     92  O   UNL A   1      53.189  26.044  22.177  1.00  0.00    -0.237 OA
ATOM     93  O   UNL A   1      54.428  27.738  23.480  1.00  0.00    -0.237 OA
ATOM     94  O   UNL A   1      54.303  25.412  24.285  1.00  0.00    -0.744 OA
ENDBRANCH  90  91
ENDBRANCH  64  85
ENDBRANCH  38  39
ENDBRANCH  31  33
ENDBRANCH  30  31
ENDBRANCH  29  30
ENDBRANCH  28  29
ENDBRANCH  27  28
ENDBRANCH   1  27
TORSDOF 23
ENDMDL
MODEL 2
REMARK VINA RESULT:      -8.8      5.328      8.406
REMARK SMILES COc1ccc(C(=O)OCCOCCOCCOC(=O)c2ccc(-c3c4nc(c(-c5ccc(S(=O)(=O)[O-])cc5)c5ccc([nH]5)c(-c5ccc(S(=O)(=O)[O-])cc5)c5nc(c(-c6ccc(S(=O)(=O)[O-])cc6)c6ccc3[nH]6)C=C5)C=C4)cc2)cc1CN1CC(=O)N(C)CC1=O
REMARK SMILES IDX 14 1 13 2 12 3 11 4 10 5 9 6 7 7 8 8 6 9 3 10 4 11 82 12
REMARK SMILES IDX 5 13 81 14 2 15 1 16 83 17 84 18 85 19 91 20 86 21 90 22
REMARK SMILES IDX 92 23 87 24 88 25 89 26 15 27 16 28 17 29 18 30 19 31 20 32
REMARK SMILES IDX 21 33 22 34 80 35 23 36 79 37 24 38 25 39 26 40 73 41 27 42
REMARK SMILES IDX 78 43 72 44 74 45 28 46 77 47 71 48 70 49 29 51 59 52 40 53
REMARK SMILES IDX 58 54 41 55 44 56 57 57 75 58 42 59 43 60 56 62 76 63 45 64
REMARK SMILES IDX 30 65 31 66 39 67 32 68 38 69 33 70 34 71 35 72 36 73 37 74
REMARK SMILES IDX 60 75 61 76 69 77 62 78 68 79 63 80 64 81 65 82 66 83 67 84
REMARK SMILES IDX 46 85 47 86 55 87 48 88 54 89 49 90 50 91 51 92 52 93 53 94
REMARK H PARENT 74 50 44 61
REMARK Flexibility Score: inf
ROOT
ATOM      1  C   UNL A   1      32.005  26.747  26.497  1.00  0.00     0.188 C 
ENDROOT
BRANCH   1   2
ATOM      2  C   UNL A   1      30.789  26.221  25.705  1.00  0.00     0.188 C 
BRANCH   2   3
ATOM      3  O   UNL A   1      29.917  25.403  26.448  1.00  0.00    -0.376 OA
BRANCH   3   4
ATOM      4  C   UNL A   1      30.208  24.032  26.637  1.00  0.00     0.202 C 
BRANCH   4   5
ATOM      5  C   UNL A   1      31.616  23.422  26.789  1.00  0.00     0.261 C 
BRANCH   5   6
ATOM      6  O   UNL A   1      31.909  22.201  26.110  1.00  0.00    -0.460 OA
BRANCH   6   7
ATOM      7  C   UNL A   1      32.857  22.259  25.141  1.00  0.00     0.338 C 
ATOM      8  O   UNL A   1      33.280  23.260  24.594  1.00  0.00    -0.246 OA
BRANCH   7   9
ATOM      9  C   UNL A   1      33.425  20.904  24.949  1.00  0.00     0.060 A 
ATOM     10  C   UNL A   1      34.467  18.355  24.517  1.00  0.00     0.123 A 
ATOM     11  C   UNL A   1      33.083  18.560  24.477  1.00  0.00     0.047 A 
ATOM     12  C   UNL A   1      35.351  19.420  24.734  1.00  0.00     0.014 A 
ATOM     13  C   UNL A   1      32.559  19.834  24.708  1.00  0.00     0.019 A 
ATOM     14  C   UNL A   1      34.809  20.699  24.954  1.00  0.00     0.025 A 
BRANCH  10  15
ATOM     15  O   UNL A   1      34.933  17.092  24.273  1.00  0.00    -0.496 OA
ATOM     16  C   UNL A   1      34.531  16.195  25.311  1.00  0.00     0.278 C 
ENDBRANCH  10  15
BRANCH  12  17
ATOM     17  C   UNL A   1      36.850  19.258  24.651  1.00  0.00     0.159 C 
BRANCH  17  18
ATOM     18  N   UNL A   1      37.531  20.454  25.120  1.00  0.00    -0.327 N 
ATOM     19  C   UNL A   1      36.969  21.749  24.763  1.00  0.00     0.220 C 
ATOM     20  C   UNL A   1      38.843  20.370  25.566  1.00  0.00     0.242 C 
ATOM     21  C   UNL A   1      37.526  22.982  25.479  1.00  0.00     0.242 C 
ATOM     22  C   UNL A   1      39.244  21.528  26.475  1.00  0.00     0.219 C 
ATOM     23  O   UNL A   1      39.529  19.356  25.459  1.00  0.00    -0.273 OA
ATOM     24  O   UNL A   1      36.967  24.076  25.385  1.00  0.00    -0.273 OA
ATOM     25  N   UNL A   1      38.805  22.833  26.001  1.00  0.00    -0.335 N 
ATOM     26  C   UNL A   1      39.487  24.007  26.504  1.00  0.00     0.147 C 
ENDBRANCH  17  18
ENDBRANCH  12  17
ENDBRANCH   7   9
ENDBRANCH   6   7
ENDBRANCH   5   6
ENDBRANCH   4   5
ENDBRANCH   3   4
ENDBRANCH   2   3
ENDBRANCH   1   2
BRANCH   1  27
ATOM     27  O   UNL A   1      32.590  28.005  26.191  1.00  0.00    -0.376 OA
BRANCH  27  28
ATOM     28  C   UNL A   1      31.841  29.198  26.374  1.00  0.00     0.202 C 
BRANCH  28  29
ATOM     29  C   UNL A   1      32.493  30.508  26.856  1.00  0.00     0.261 C 
BRANCH  29  30
ATOM     30  O   UNL A   1      33.917  30.502  27.013  1.00  0.00    -0.460 OA
BRANCH  30  31
ATOM     31  C   UNL A   1      34.411  31.405  27.893  1.00  0.00     0.338 C 
ATOM     32  O   UNL A   1      33.836  32.385  28.347  1.00  0.00    -0.246 OA
BRANCH  31  33
ATOM     33  C   UNL A   1      35.721  30.939  28.383  1.00  0.00     0.060 A 
ATOM     34  C   UNL A   1      35.767  29.797  29.192  1.00  0.00     0.016 A 
ATOM     35  C   UNL A   1      36.888  31.646  28.085  1.00  0.00     0.016 A 
ATOM     36  C   UNL A   1      36.982  29.359  29.717  1.00  0.00     0.010 A 
ATOM     37  C   UNL A   1      38.101  31.221  28.636  1.00  0.00     0.010 A 
ATOM     38  C   UNL A   1      38.149  30.091  29.475  1.00  0.00    -0.014 A 
BRANCH  38  39
ATOM     39  C   UNL A   1      39.383  29.778  30.233  1.00  0.00     0.031 A 
ATOM     40  C   UNL A   1      40.263  28.658  29.751  1.00  0.00     0.074 A 
ATOM     41  C   UNL A   1      39.724  30.483  31.327  1.00  0.00     0.049 A 
ATOM     42  N   UNL A   1      41.360  28.180  30.278  1.00  0.00    -0.248 NA
ATOM     43  C   UNL A   1      39.843  27.987  28.511  1.00  0.00     0.031 C 
ATOM     44  C   UNL A   1      38.979  31.617  31.868  1.00  0.00     0.029 A 
ATOM     45  N   UNL A   1      40.786  30.333  32.183  1.00  0.00    -0.354 N 
ATOM     46  C   UNL A   1      41.754  27.141  29.444  1.00  0.00     0.074 A 
ATOM     47  C   UNL A   1      40.763  27.041  28.395  1.00  0.00     0.031 C 
ATOM     48  C   UNL A   1      39.600  32.054  32.978  1.00  0.00     0.029 A 
ATOM     49  C   UNL A   1      40.763  31.207  33.245  1.00  0.00     0.049 A 
ATOM     50  H   UNL A   1      41.497  29.665  32.052  1.00  0.00     0.167 HD
ATOM     51  C   UNL A   1      42.844  26.341  29.541  1.00  0.00     0.031 A 
ATOM     52  C   UNL A   1      41.570  31.296  34.321  1.00  0.00     0.031 A 
ATOM     53  C   UNL A   1      43.811  26.426  30.603  1.00  0.00     0.049 A 
ATOM     54  C   UNL A   1      42.734  30.348  34.454  1.00  0.00     0.074 A 
ATOM     55  C   UNL A   1      44.960  25.675  30.784  1.00  0.00     0.029 A 
ATOM     56  N   UNL A   1      43.736  27.303  31.677  1.00  0.00    -0.354 N 
ATOM     57  N   UNL A   1      43.116  29.392  33.641  1.00  0.00    -0.248 NA
ATOM     58  C   UNL A   1      43.582  30.501  35.645  1.00  0.00     0.031 C 
ATOM     59  C   UNL A   1      45.540  26.049  32.000  1.00  0.00     0.029 A 
ATOM     60  C   UNL A   1      44.796  27.088  32.541  1.00  0.00     0.049 A 
ATOM     61  H   UNL A   1      43.032  27.979  31.804  1.00  0.00     0.167 HD
ATOM     62  C   UNL A   1      44.263  28.844  34.210  1.00  0.00     0.074 A 
ATOM     63  C   UNL A   1      44.518  29.587  35.426  1.00  0.00     0.031 C 
ATOM     64  C   UNL A   1      45.037  27.825  33.758  1.00  0.00     0.031 A 
BRANCH  51  65
ATOM     65  C   UNL A   1      43.005  25.266  28.496  1.00  0.00    -0.014 A 
ATOM     66  C   UNL A   1      42.525  23.960  28.702  1.00  0.00     0.010 A 
ATOM     67  C   UNL A   1      43.653  25.572  27.285  1.00  0.00     0.010 A 
ATOM     68  C   UNL A   1      42.747  22.965  27.745  1.00  0.00     0.020 A 
ATOM     69  C   UNL A   1      43.846  24.589  26.310  1.00  0.00     0.020 A 
ATOM     70  C   UNL A   1      43.413  23.285  26.559  1.00  0.00     0.054 A 
BRANCH  70  71
ATOM     71  S   UNL A   1      43.702  21.972  25.341  1.00  0.00     0.124 S 
ATOM     72  O   UNL A   1      45.080  21.586  25.635  1.00  0.00    -0.237 OA
ATOM     73  O   UNL A   1      42.685  20.983  25.690  1.00  0.00    -0.237 OA
ATOM     74  O   UNL A   1      43.503  22.639  24.057  1.00  0.00    -0.744 OA
ENDBRANCH  70  71
ENDBRANCH  51  65
BRANCH  52  75
ATOM     75  C   UNL A   1      41.285  32.318  35.366  1.00  0.00    -0.014 A 
ATOM     76  C   UNL A   1      41.821  33.613  35.269  1.00  0.00     0.010 A 
ATOM     77  C   UNL A   1      40.440  32.007  36.448  1.00  0.00     0.010 A 
ATOM     78  C   UNL A   1      41.513  34.581  36.231  1.00  0.00     0.020 A 
ATOM     79  C   UNL A   1      40.106  32.979  37.394  1.00  0.00     0.020 A 
ATOM     80  C   UNL A   1      40.647  34.261  37.281  1.00  0.00     0.054 A 
BRANCH  80  81
ATOM     81  S   UNL A   1      40.188  35.560  38.462  1.00  0.00     0.124 S 
ATOM     82  O   UNL A   1      38.795  35.235  38.747  1.00  0.00    -0.237 OA
ATOM     83  O   UNL A   1      41.129  35.332  39.557  1.00  0.00    -0.237 OA
ATOM     84  O   UNL A   1      40.403  36.796  37.712  1.00  0.00    -0.744 OA
ENDBRANCH  80  81
ENDBRANCH  52  75
BRANCH  64  85
ATOM     85  C   UNL A   1      46.260  27.465  34.565  1.00  0.00    -0.014 A 
ATOM     86  C   UNL A   1      47.518  28.030  34.287  1.00  0.00     0.010 A 
ATOM     87  C   UNL A   1      46.133  26.591  35.660  1.00  0.00     0.010 A 
ATOM     88  C   UNL A   1      48.629  27.703  35.070  1.00  0.00     0.020 A 
ATOM     89  C   UNL A   1      47.234  26.287  36.465  1.00  0.00     0.020 A 
ATOM     90  C   UNL A   1      48.480  26.834  36.156  1.00  0.00     0.054 A 
BRANCH  90  91
ATOM     91  S   UNL A   1      49.928  26.460  37.182  1.00  0.00     0.124 S 
ATOM     92  O   UNL A   1      49.429  26.737  38.526  1.00  0.00    -0.237 OA
ATOM     93  O   UNL A   1      50.176  25.051  36.882  1.00  0.00    -0.237 OA
ATOM     94  O   UNL A   1      50.949  27.384  36.694  1.00  0.00    -0.744 OA
ENDBRANCH  90  91
ENDBRANCH  64  85
ENDBRANCH  38  39
ENDBRANCH  31  33
ENDBRANCH  30  31
ENDBRANCH  29  30
ENDBRANCH  28  29
ENDBRANCH  27  28
ENDBRANCH   1  27
TORSDOF 23
ENDMDL
MODEL 3
REMARK VINA RESULT:      -8.7      5.064     10.155
REMARK SMILES COc1ccc(C(=O)OCCOCCOCCOC(=O)c2ccc(-c3c4nc(c(-c5ccc(S(=O)(=O)[O-])cc5)c5ccc([nH]5)c(-c5ccc(S(=O)(=O)[O-])cc5)c5nc(c(-c6ccc(S(=O)(=O)[O-])cc6)c6ccc3[nH]6)C=C5)C=C4)cc2)cc1CN1CC(=O)N(C)CC1=O
REMARK SMILES IDX 14 1 13 2 12 3 11 4 10 5 9 6 7 7 8 8 6 9 3 10 4 11 82 12
REMARK SMILES IDX 5 13 81 14 2 15 1 16 83 17 84 18 85 19 91 20 86 21 90 22
REMARK SMILES IDX 92 23 87 24 88 25 89 26 15 27 16 28 17 29 18 30 19 31 20 32
REMARK SMILES IDX 21 33 22 34 80 35 23 36 79 37 24 38 25 39 26 40 73 41 27 42
REMARK SMILES IDX 78 43 72 44 74 45 28 46 77 47 71 48 70 49 29 51 59 52 40 53
REMARK SMILES IDX 58 54 41 55 44 56 57 57 75 58 42 59 43 60 56 62 76 63 45 64
REMARK SMILES IDX 30 65 31 66 39 67 32 68 38 69 33 70 34 71 35 72 36 73 37 74
REMARK SMILES IDX 60 75 61 76 69 77 62 78 68 79 63 80 64 81 65 82 66 83 67 84
REMARK SMILES IDX 46 85 47 86 55 87 48 88 54 89 49 90 50 91 51 92 52 93 53 94
REMARK H PARENT 74 50 44 61
REMARK Flexibility Score: inf
ROOT
ATOM      1  C   UNL A   1      32.528  25.306  26.555  1.00  0.00     0.188 C 
ENDROOT
BRANCH   1   2
ATOM      2  C   UNL A   1      31.657  24.067  26.255  1.00  0.00     0.188 C 
BRANCH   2   3
ATOM      3  O   UNL A   1      31.249  23.349  27.394  1.00  0.00    -0.376 OA
BRANCH   3   4
ATOM      4  C   UNL A   1      32.104  22.383  27.976  1.00  0.00     0.202 C 
BRANCH   4   5
ATOM      5  C   UNL A   1      33.427  21.872  27.373  1.00  0.00     0.261 C 
BRANCH   5   6
ATOM      6  O   UNL A   1      33.513  20.505  26.972  1.00  0.00    -0.460 OA
BRANCH   6   7
ATOM      7  C   UNL A   1      33.043  20.206  25.735  1.00  0.00     0.338 C 
ATOM      8  O   UNL A   1      32.327  19.269  25.433  1.00  0.00    -0.246 OA
BRANCH   7   9
ATOM      9  C   UNL A   1      33.412  21.300  24.807  1.00  0.00     0.060 A 
ATOM     10  C   UNL A   1      34.051  23.401  23.091  1.00  0.00     0.123 A 
ATOM     11  C   UNL A   1      32.810  22.763  22.982  1.00  0.00     0.047 A 
ATOM     12  C   UNL A   1      34.973  23.030  24.078  1.00  0.00     0.014 A 
ATOM     13  C   UNL A   1      32.495  21.700  23.832  1.00  0.00     0.019 A 
ATOM     14  C   UNL A   1      34.637  21.965  24.934  1.00  0.00     0.025 A 
BRANCH  10  15
ATOM     15  O   UNL A   1      34.309  24.445  22.244  1.00  0.00    -0.496 OA
ATOM     16  C   UNL A   1      33.381  25.511  22.457  1.00  0.00     0.278 C 
ENDBRANCH  10  15
BRANCH  12  17
ATOM     17  C   UNL A   1      36.262  23.784  24.308  1.00  0.00     0.159 C 
BRANCH  17  18
ATOM     18  N   UNL A   1      37.267  22.925  24.913  1.00  0.00    -0.327 N 
ATOM     19  C   UNL A   1      37.216  21.498  24.625  1.00  0.00     0.220 C 
ATOM     20  C   UNL A   1      38.003  23.384  25.997  1.00  0.00     0.242 C 
ATOM     21  C   UNL A   1      38.422  20.651  25.038  1.00  0.00     0.242 C 
ATOM     22  C   UNL A   1      39.316  22.632  26.193  1.00  0.00     0.219 C 
ATOM     23  O   UNL A   1      37.762  24.439  26.578  1.00  0.00    -0.273 OA
ATOM     24  O   UNL A   1      38.543  19.489  24.649  1.00  0.00    -0.273 OA
ATOM     25  N   UNL A   1      39.196  21.187  26.059  1.00  0.00    -0.335 N 
ATOM     26  C   UNL A   1      40.225  20.359  26.653  1.00  0.00     0.147 C 
ENDBRANCH  17  18
ENDBRANCH  12  17
ENDBRANCH   7   9
ENDBRANCH   6   7
ENDBRANCH   5   6
ENDBRANCH   4   5
ENDBRANCH   3   4
ENDBRANCH   2   3
ENDBRANCH   1   2
BRANCH   1  27
ATOM     27  O   UNL A   1      32.259  26.558  25.940  1.00  0.00    -0.376 OA
BRANCH  27  28
ATOM     28  C   UNL A   1      31.579  27.573  26.664  1.00  0.00     0.202 C 
BRANCH  28  29
ATOM     29  C   UNL A   1      32.328  28.727  27.357  1.00  0.00     0.261 C 
BRANCH  29  30
ATOM     30  O   UNL A   1      33.754  28.750  27.213  1.00  0.00    -0.460 OA
BRANCH  30  31
ATOM     31  C   UNL A   1      34.327  29.973  27.295  1.00  0.00     0.338 C 
ATOM     32  O   UNL A   1      33.844  31.042  26.945  1.00  0.00    -0.246 OA
BRANCH  31  33
ATOM     33  C   UNL A   1      35.589  29.869  28.050  1.00  0.00     0.060 A 
ATOM     34  C   UNL A   1      36.796  30.080  27.372  1.00  0.00     0.016 A 
ATOM     35  C   UNL A   1      35.587  29.523  29.403  1.00  0.00     0.016 A 
ATOM     36  C   UNL A   1      38.011  29.937  28.041  1.00  0.00     0.010 A 
ATOM     37  C   UNL A   1      36.806  29.353  30.066  1.00  0.00     0.010 A 
ATOM     38  C   UNL A   1      38.023  29.533  29.381  1.00  0.00    -0.014 A 
BRANCH  38  39
ATOM     39  C   UNL A   1      39.302  29.135  30.016  1.00  0.00     0.031 A 
ATOM     40  C   UNL A   1      39.760  29.874  31.243  1.00  0.00     0.074 A 
ATOM     41  C   UNL A   1      40.041  28.127  29.518  1.00  0.00     0.049 A 
ATOM     42  N   UNL A   1      40.860  29.729  31.934  1.00  0.00    -0.248 NA
ATOM     43  C   UNL A   1      38.856  30.918  31.751  1.00  0.00     0.031 C 
ATOM     44  C   UNL A   1      39.683  27.308  28.362  1.00  0.00     0.029 A 
ATOM     45  N   UNL A   1      41.254  27.633  29.923  1.00  0.00    -0.354 N 
ATOM     46  C   UNL A   1      40.790  30.674  32.952  1.00  0.00     0.074 A 
ATOM     47  C   UNL A   1      39.554  31.403  32.767  1.00  0.00     0.031 C 
ATOM     48  C   UNL A   1      40.667  26.418  28.140  1.00  0.00     0.029 A 
ATOM     49  C   UNL A   1      41.738  26.632  29.114  1.00  0.00     0.049 A 
ATOM     50  H   UNL A   1      41.734  27.962  30.717  1.00  0.00     0.167 HD
ATOM     51  C   UNL A   1      41.674  30.913  33.950  1.00  0.00     0.031 A 
ATOM     52  C   UNL A   1      42.918  25.981  29.139  1.00  0.00     0.031 A 
ATOM     53  C   UNL A   1      42.915  30.204  34.113  1.00  0.00     0.049 A 
ATOM     54  C   UNL A   1      43.923  26.313  30.211  1.00  0.00     0.074 A 
ATOM     55  C   UNL A   1      43.872  30.357  35.101  1.00  0.00     0.029 A 
ATOM     56  N   UNL A   1      43.384  29.218  33.254  1.00  0.00    -0.354 N 
ATOM     57  N   UNL A   1      43.832  27.184  31.187  1.00  0.00    -0.248 NA
ATOM     58  C   UNL A   1      45.188  25.564  30.191  1.00  0.00     0.031 C 
ATOM     59  C   UNL A   1      44.948  29.516  34.801  1.00  0.00     0.029 A 
ATOM     60  C   UNL A   1      44.630  28.781  33.669  1.00  0.00     0.049 A 
ATOM     61  H   UNL A   1      42.900  28.880  32.466  1.00  0.00     0.167 HD
ATOM     62  C   UNL A   1      45.015  27.072  31.912  1.00  0.00     0.074 A 
ATOM     63  C   UNL A   1      45.798  26.037  31.269  1.00  0.00     0.031 C 
ATOM     64  C   UNL A   1      45.410  27.758  33.015  1.00  0.00     0.031 A 
BRANCH  51  65
ATOM     65  C   UNL A   1      41.346  32.032  34.906  1.00  0.00    -0.014 A 
ATOM     66  C   UNL A   1      40.648  31.797  36.105  1.00  0.00     0.010 A 
ATOM     67  C   UNL A   1      41.743  33.346  34.595  1.00  0.00     0.010 A 
ATOM     68  C   UNL A   1      40.298  32.862  36.941  1.00  0.00     0.020 A 
ATOM     69  C   UNL A   1      41.426  34.409  35.446  1.00  0.00     0.020 A 
ATOM     70  C   UNL A   1      40.683  34.161  36.602  1.00  0.00     0.054 A 
BRANCH  70  71
ATOM     71  S   UNL A   1      40.202  35.526  37.696  1.00  0.00     0.124 S 
ATOM     72  O   UNL A   1      38.989  34.999  38.319  1.00  0.00    -0.237 OA
ATOM     73  O   UNL A   1      41.359  35.650  38.580  1.00  0.00    -0.237 OA
ATOM     74  O   UNL A   1      39.996  36.647  36.783  1.00  0.00    -0.744 OA
ENDBRANCH  70  71
ENDBRANCH  51  65
BRANCH  52  75
ATOM     75  C   UNL A   1      43.212  24.959  28.097  1.00  0.00    -0.014 A 
ATOM     76  C   UNL A   1      43.945  25.297  26.946  1.00  0.00     0.010 A 
ATOM     77  C   UNL A   1      42.791  23.628  28.273  1.00  0.00     0.010 A 
ATOM     78  C   UNL A   1      44.256  24.321  25.993  1.00  0.00     0.020 A 
ATOM     79  C   UNL A   1      43.125  22.645  27.338  1.00  0.00     0.020 A 
ATOM     80  C   UNL A   1      43.854  22.998  26.202  1.00  0.00     0.054 A 
BRANCH  80  81
ATOM     81  S   UNL A   1      44.351  21.734  24.998  1.00  0.00     0.124 S 
ATOM     82  O   UNL A   1      44.084  22.401  23.728  1.00  0.00    -0.237 OA
ATOM     83  O   UNL A   1      45.761  21.531  25.324  1.00  0.00    -0.237 OA
ATOM     84  O   UNL A   1      43.479  20.603  25.309  1.00  0.00    -0.744 OA
ENDBRANCH  80  81
ENDBRANCH  52  75
BRANCH  64  85
ATOM     85  C   UNL A   1      46.741  27.395  33.625  1.00  0.00    -0.014 A 
ATOM     86  C   UNL A   1      46.856  26.377  34.589  1.00  0.00     0.010 A 
ATOM     87  C   UNL A   1      47.907  28.044  33.177  1.00  0.00     0.010 A 
ATOM     88  C   UNL A   1      48.108  26.038  35.115  1.00  0.00     0.020 A 
ATOM     89  C   UNL A   1      49.162  27.687  33.677  1.00  0.00     0.020 A 
ATOM     90  C   UNL A   1      49.253  26.695  34.654  1.00  0.00     0.054 A 
BRANCH  90  91
ATOM     91  S   UNL A   1      50.868  26.208  35.321  1.00  0.00     0.124 S 
ATOM     92  O   UNL A   1      51.153  24.990  34.569  1.00  0.00    -0.237 OA
ATOM     93  O   UNL A   1      51.708  27.359  34.996  1.00  0.00    -0.237 OA
ATOM     94  O   UNL A   1      50.612  26.014  36.747  1.00  0.00    -0.744 OA
ENDBRANCH  90  91
ENDBRANCH  64  85
ENDBRANCH  38  39
ENDBRANCH  31  33
ENDBRANCH  30  31
ENDBRANCH  29  30
ENDBRANCH  28  29
ENDBRANCH  27  28
ENDBRANCH   1  27
TORSDOF 23
ENDMDL
