MODEL 1
REMARK VINA RESULT:     -10.0      0.000      0.000
REMARK SMILES CCCc1nc(C)cc(N2CCC(C(=O)OCCOCCOCCOC(=O)c3ccc(-c4c5nc(c(-c6ccc(S(=O)(=O)[O-])cc6)c6ccc([nH]6)c(-c6ccc(S(=O)(=O)[O-])cc6)c6nc(c(-c7ccc(S(=O)(=O)[O-])cc7)c7ccc4[nH]7)C=C6)C=C5)cc3)(n3ccc(C(C)C)n3)CC2)n1
REMARK SMILES IDX 20 1 19 2 18 3 17 4 16 5 14 6 15 7 13 8 10 9 11 10 97 11
REMARK SMILES IDX 12 12 96 13 9 14 4 15 5 16 98 17 6 18 7 19 8 20 3 21 2 22
REMARK SMILES IDX 1 23 88 24 89 25 95 26 90 27 91 28 92 29 93 30 94 31 21 32
REMARK SMILES IDX 22 33 23 34 24 35 25 36 26 37 27 38 28 39 29 40 87 41 30 42
REMARK SMILES IDX 86 43 31 44 32 45 33 46 80 47 34 48 85 49 79 50 81 51 35 52
REMARK SMILES IDX 84 53 78 54 77 55 36 57 66 58 47 59 65 60 48 61 51 62 64 63
REMARK SMILES IDX 82 64 49 65 50 66 63 68 83 69 52 70 37 71 38 72 46 73 39 74
REMARK SMILES IDX 45 75 40 76 41 77 42 78 43 79 44 80 67 81 68 82 76 83 69 84
REMARK SMILES IDX 75 85 70 86 71 87 72 88 73 89 74 90 53 91 54 92 62 93 55 94
REMARK SMILES IDX 61 95 56 96 57 97 58 98 59 99 60 100
REMARK H PARENT 81 56 51 67
REMARK Flexibility Score: inf
ROOT
ATOM      1  C   UNL A   1      40.633  21.837  27.142  1.00  0.00     0.188 C 
ENDROOT
BRANCH   1   2
ATOM      2  O   UNL A   1      39.544  21.305  26.395  1.00  0.00    -0.376 OA
BRANCH   2   3
ATOM      3  C   UNL A   1      38.481  22.177  26.023  1.00  0.00     0.202 C 
BRANCH   3   4
ATOM      4  C   UNL A   1      37.418  21.680  25.026  1.00  0.00     0.261 C 
BRANCH   4   5
ATOM      5  O   UNL A   1      36.152  22.383  25.053  1.00  0.00    -0.461 OA
BRANCH   5   6
ATOM      6  C   UNL A   1      35.648  22.784  23.846  1.00  0.00     0.334 C 
ATOM      7  O   UNL A   1      36.366  22.977  22.867  1.00  0.00    -0.249 OA
BRANCH   6   8
ATOM      8  C   UNL A   1      34.133  23.156  23.864  1.00  0.00     0.163 C 
ATOM      9  N   UNL A   1      32.308  25.403  23.969  1.00  0.00    -0.356 N 
ATOM     10  C   UNL A   1      32.304  24.495  25.095  1.00  0.00     0.121 C 
ATOM     11  C   UNL A   1      32.796  25.030  22.661  1.00  0.00     0.121 C 
ATOM     12  C   UNL A   1      33.612  23.726  25.203  1.00  0.00     0.064 C 
ATOM     13  C   UNL A   1      34.099  24.268  22.783  1.00  0.00     0.064 C 
BRANCH   9  14
ATOM     14  C   UNL A   1      31.836  26.676  24.175  1.00  0.00     0.132 A 
ATOM     15  C   UNL A   1      32.235  28.762  25.041  1.00  0.00     0.130 A 
ATOM     16  N   UNL A   1      31.116  29.286  24.506  1.00  0.00    -0.238 NA
ATOM     17  N   UNL A   1      32.589  27.478  24.931  1.00  0.00    -0.216 NA
ATOM     18  C   UNL A   1      30.334  28.443  23.800  1.00  0.00     0.043 A 
ATOM     19  C   UNL A   1      29.070  29.000  23.219  1.00  0.00     0.067 C 
ATOM     20  C   UNL A   1      30.675  27.125  23.586  1.00  0.00     0.070 A 
BRANCH  15  21
ATOM     21  C   UNL A   1      33.203  29.701  25.712  1.00  0.00     0.077 C 
BRANCH  21  22
ATOM     22  C   UNL A   1      33.694  29.290  27.109  1.00  0.00     0.005 C 
ATOM     23  C   UNL A   1      35.139  29.680  27.417  1.00  0.00     0.004 C 
ENDBRANCH  21  22
ENDBRANCH  15  21
ENDBRANCH   9  14
BRANCH   8  24
ATOM     24  N   UNL A   1      33.320  21.976  23.485  1.00  0.00    -0.255 N 
ATOM     25  C   UNL A   1      32.431  21.870  22.446  1.00  0.00     0.110 A 
ATOM     26  N   UNL A   1      33.282  20.872  24.270  1.00  0.00    -0.177 NA
ATOM     27  C   UNL A   1      31.980  20.580  22.432  1.00  0.00     0.045 A 
ATOM     28  C   UNL A   1      32.564  19.983  23.565  1.00  0.00     0.065 A 
BRANCH  28  29
ATOM     29  C   UNL A   1      32.435  18.543  23.979  1.00  0.00     0.034 C 
ATOM     30  C   UNL A   1      33.374  17.634  23.176  1.00  0.00     0.014 C 
ATOM     31  C   UNL A   1      32.724  18.372  25.472  1.00  0.00     0.014 C 
ENDBRANCH  28  29
ENDBRANCH   8  24
ENDBRANCH   6   8
ENDBRANCH   5   6
ENDBRANCH   4   5
ENDBRANCH   3   4
ENDBRANCH   2   3
ENDBRANCH   1   2
BRANCH   1  32
ATOM     32  C   UNL A   1      42.050  21.589  26.610  1.00  0.00     0.188 C 
BRANCH  32  33
ATOM     33  O   UNL A   1      43.048  22.392  27.200  1.00  0.00    -0.376 OA
BRANCH  33  34
ATOM     34  C   UNL A   1      44.130  22.840  26.408  1.00  0.00     0.202 C 
BRANCH  34  35
ATOM     35  C   UNL A   1      43.908  23.957  25.375  1.00  0.00     0.261 C 
BRANCH  35  36
ATOM     36  O   UNL A   1      43.265  25.155  25.838  1.00  0.00    -0.460 OA
BRANCH  36  37
ATOM     37  C   UNL A   1      44.025  26.270  25.958  1.00  0.00     0.338 C 
ATOM     38  O   UNL A   1      44.778  26.733  25.117  1.00  0.00    -0.246 OA
BRANCH  37  39
ATOM     39  C   UNL A   1      43.581  26.967  27.192  1.00  0.00     0.060 A 
ATOM     40  C   UNL A   1      43.882  28.325  27.347  1.00  0.00     0.016 A 
ATOM     41  C   UNL A   1      42.804  26.311  28.151  1.00  0.00     0.016 A 
ATOM     42  C   UNL A   1      43.391  29.029  28.451  1.00  0.00     0.010 A 
ATOM     43  C   UNL A   1      42.339  27.012  29.271  1.00  0.00     0.010 A 
ATOM     44  C   UNL A   1      42.626  28.377  29.431  1.00  0.00    -0.014 A 
BRANCH  44  45
ATOM     45  C   UNL A   1      42.225  29.085  30.676  1.00  0.00     0.031 A 
ATOM     46  C   UNL A   1      40.906  29.805  30.710  1.00  0.00     0.074 A 
ATOM     47  C   UNL A   1      43.010  29.089  31.772  1.00  0.00     0.049 A 
ATOM     48  N   UNL A   1      40.372  30.507  31.676  1.00  0.00    -0.248 NA
ATOM     49  C   UNL A   1      40.091  29.737  29.488  1.00  0.00     0.031 C 
ATOM     50  C   UNL A   1      44.286  28.389  31.892  1.00  0.00     0.029 A 
ATOM     51  N   UNL A   1      42.819  29.653  33.013  1.00  0.00    -0.354 N 
ATOM     52  C   UNL A   1      39.188  31.017  31.159  1.00  0.00     0.074 A 
ATOM     53  C   UNL A   1      39.062  30.506  29.809  1.00  0.00     0.031 C 
ATOM     54  C   UNL A   1      44.720  28.491  33.162  1.00  0.00     0.029 A 
ATOM     55  C   UNL A   1      43.791  29.319  33.932  1.00  0.00     0.049 A 
ATOM     56  H   UNL A   1      42.059  30.241  33.225  1.00  0.00     0.167 HD
ATOM     57  C   UNL A   1      38.308  31.869  31.736  1.00  0.00     0.031 A 
ATOM     58  C   UNL A   1      43.910  29.636  35.240  1.00  0.00     0.031 A 
ATOM     59  C   UNL A   1      38.444  32.404  33.066  1.00  0.00     0.049 A 
ATOM     60  C   UNL A   1      42.912  30.586  35.862  1.00  0.00     0.074 A 
ATOM     61  C   UNL A   1      37.622  33.310  33.713  1.00  0.00     0.029 A 
ATOM     62  N   UNL A   1      39.468  32.094  33.947  1.00  0.00    -0.354 N 
ATOM     63  N   UNL A   1      41.806  31.076  35.354  1.00  0.00    -0.248 NA
ATOM     64  C   UNL A   1      43.207  31.064  37.224  1.00  0.00     0.031 C 
ATOM     65  C   UNL A   1      38.182  33.597  34.960  1.00  0.00     0.029 A 
ATOM     66  C   UNL A   1      39.316  32.816  35.119  1.00  0.00     0.049 A 
ATOM     67  H   UNL A   1      40.195  31.456  33.766  1.00  0.00     0.167 HD
ATOM     68  C   UNL A   1      41.290  31.934  36.322  1.00  0.00     0.074 A 
ATOM     69  C   UNL A   1      42.169  31.853  37.468  1.00  0.00     0.031 C 
ATOM     70  C   UNL A   1      40.202  32.740  36.254  1.00  0.00     0.031 A 
BRANCH  57  71
ATOM     71  C   UNL A   1      37.170  32.363  30.885  1.00  0.00    -0.014 A 
ATOM     72  C   UNL A   1      35.861  31.876  31.043  1.00  0.00     0.010 A 
ATOM     73  C   UNL A   1      37.422  33.355  29.919  1.00  0.00     0.010 A 
ATOM     74  C   UNL A   1      34.832  32.347  30.224  1.00  0.00     0.020 A 
ATOM     75  C   UNL A   1      36.391  33.849  29.118  1.00  0.00     0.020 A 
ATOM     76  C   UNL A   1      35.105  33.328  29.264  1.00  0.00     0.054 A 
BRANCH  76  77
ATOM     77  S   UNL A   1      33.748  33.929  28.222  1.00  0.00     0.124 S 
ATOM     78  O   UNL A   1      32.862  34.543  29.208  1.00  0.00    -0.237 OA
ATOM     79  O   UNL A   1      34.425  34.858  27.321  1.00  0.00    -0.237 OA
ATOM     80  O   UNL A   1      33.232  32.717  27.591  1.00  0.00    -0.744 OA
ENDBRANCH  76  77
ENDBRANCH  57  71
BRANCH  58  81
ATOM     81  C   UNL A   1      45.029  29.087  36.065  1.00  0.00    -0.014 A 
ATOM     82  C   UNL A   1      46.308  29.676  36.016  1.00  0.00     0.010 A 
ATOM     83  C   UNL A   1      44.842  27.953  36.877  1.00  0.00     0.010 A 
ATOM     84  C   UNL A   1      47.374  29.133  36.743  1.00  0.00     0.020 A 
ATOM     85  C   UNL A   1      45.894  27.431  37.636  1.00  0.00     0.020 A 
ATOM     86  C   UNL A   1      47.159  28.014  37.551  1.00  0.00     0.054 A 
BRANCH  86  87
ATOM     87  S   UNL A   1      48.542  27.347  38.519  1.00  0.00     0.124 S 
ATOM     88  O   UNL A   1      49.094  26.349  37.609  1.00  0.00    -0.237 OA
ATOM     89  O   UNL A   1      49.373  28.527  38.743  1.00  0.00    -0.237 OA
ATOM     90  O   UNL A   1      47.894  26.814  39.715  1.00  0.00    -0.744 OA
ENDBRANCH  86  87
ENDBRANCH  58  81
BRANCH  70  91
ATOM     91  C   UNL A   1      39.900  33.628  37.437  1.00  0.00    -0.014 A 
ATOM     92  C   UNL A   1      39.019  33.205  38.449  1.00  0.00     0.010 A 
ATOM     93  C   UNL A   1      40.579  34.851  37.593  1.00  0.00     0.010 A 
ATOM     94  C   UNL A   1      38.812  33.993  39.585  1.00  0.00     0.020 A 
ATOM     95  C   UNL A   1      40.395  35.630  38.740  1.00  0.00     0.020 A 
ATOM     96  C   UNL A   1      39.506  35.198  39.727  1.00  0.00     0.054 A 
BRANCH  96  97
ATOM     97  S   UNL A   1      39.275  36.163  41.247  1.00  0.00     0.124 S 
ATOM     98  O   UNL A   1      38.496  35.248  42.076  1.00  0.00    -0.237 OA
ATOM     99  O   UNL A   1      40.649  36.396  41.689  1.00  0.00    -0.237 OA
ATOM    100  O   UNL A   1      38.562  37.356  40.796  1.00  0.00    -0.744 OA
ENDBRANCH  96  97
ENDBRANCH  70  91
ENDBRANCH  44  45
ENDBRANCH  37  39
ENDBRANCH  36  37
ENDBRANCH  35  36
ENDBRANCH  34  35
ENDBRANCH  33  34
ENDBRANCH  32  33
ENDBRANCH   1  32
TORSDOF 25
ENDMDL
MODEL 2
REMARK VINA RESULT:      -8.7      1.868      2.894
REMARK SMILES CCCc1nc(C)cc(N2CCC(C(=O)OCCOCCOCCOC(=O)c3ccc(-c4c5nc(c(-c6ccc(S(=O)(=O)[O-])cc6)c6ccc([nH]6)c(-c6ccc(S(=O)(=O)[O-])cc6)c6nc(c(-c7ccc(S(=O)(=O)[O-])cc7)c7ccc4[nH]7)C=C6)C=C5)cc3)(n3ccc(C(C)C)n3)CC2)n1
REMARK SMILES IDX 20 1 19 2 18 3 17 4 16 5 14 6 15 7 13 8 10 9 11 10 97 11
REMARK SMILES IDX 12 12 96 13 9 14 4 15 5 16 98 17 6 18 7 19 8 20 3 21 2 22
REMARK SMILES IDX 1 23 88 24 89 25 95 26 90 27 91 28 92 29 93 30 94 31 21 32
REMARK SMILES IDX 22 33 23 34 24 35 25 36 26 37 27 38 28 39 29 40 87 41 30 42
REMARK SMILES IDX 86 43 31 44 32 45 33 46 80 47 34 48 85 49 79 50 81 51 35 52
REMARK SMILES IDX 84 53 78 54 77 55 36 57 66 58 47 59 65 60 48 61 51 62 64 63
REMARK SMILES IDX 82 64 49 65 50 66 63 68 83 69 52 70 37 71 38 72 46 73 39 74
REMARK SMILES IDX 45 75 40 76 41 77 42 78 43 79 44 80 67 81 68 82 76 83 69 84
REMARK SMILES IDX 75 85 70 86 71 87 72 88 73 89 74 90 53 91 54 92 62 93 55 94
REMARK SMILES IDX 61 95 56 96 57 97 58 98 59 99 60 100
REMARK H PARENT 81 56 51 67
REMARK Flexibility Score: inf
ROOT
ATOM      1  C   UNL A   1      40.913  22.425  27.563  1.00  0.00     0.188 C 
ENDROOT
BRANCH   1   2
ATOM      2  O   UNL A   1      39.698  23.166  27.576  1.00  0.00    -0.376 OA
BRANCH   2   3
ATOM      3  C   UNL A   1      39.176  23.642  26.339  1.00  0.00     0.202 C 
BRANCH   3   4
ATOM      4  C   UNL A   1      37.823  23.102  25.840  1.00  0.00     0.261 C 
BRANCH   4   5
ATOM      5  O   UNL A   1      37.048  24.008  25.017  1.00  0.00    -0.461 OA
BRANCH   5   6
ATOM      6  C   UNL A   1      36.093  23.444  24.216  1.00  0.00     0.334 C 
ATOM      7  O   UNL A   1      36.375  22.865  23.168  1.00  0.00    -0.249 OA
BRANCH   6   8
ATOM      8  C   UNL A   1      34.624  23.758  24.634  1.00  0.00     0.163 C 
ATOM      9  N   UNL A   1      32.618  25.848  24.632  1.00  0.00    -0.356 N 
ATOM     10  C   UNL A   1      33.099  25.395  25.919  1.00  0.00     0.121 C 
ATOM     11  C   UNL A   1      32.719  25.052  23.431  1.00  0.00     0.121 C 
ATOM     12  C   UNL A   1      34.472  24.749  25.810  1.00  0.00     0.064 C 
ATOM     13  C   UNL A   1      34.091  24.417  23.334  1.00  0.00     0.064 C 
BRANCH   9  14
ATOM     14  C   UNL A   1      32.054  27.099  24.566  1.00  0.00     0.132 A 
ATOM     15  C   UNL A   1      30.395  28.421  23.694  1.00  0.00     0.130 A 
ATOM     16  N   UNL A   1      30.717  29.474  24.469  1.00  0.00    -0.238 NA
ATOM     17  N   UNL A   1      31.060  27.262  23.690  1.00  0.00    -0.216 NA
ATOM     18  C   UNL A   1      31.767  29.311  25.301  1.00  0.00     0.043 A 
ATOM     19  C   UNL A   1      32.158  30.481  26.152  1.00  0.00     0.067 C 
ATOM     20  C   UNL A   1      32.452  28.119  25.400  1.00  0.00     0.070 A 
BRANCH  15  21
ATOM     21  C   UNL A   1      29.144  28.514  22.860  1.00  0.00     0.077 C 
BRANCH  21  22
ATOM     22  C   UNL A   1      28.484  29.900  22.774  1.00  0.00     0.005 C 
ATOM     23  C   UNL A   1      28.201  30.384  21.353  1.00  0.00     0.004 C 
ENDBRANCH  21  22
ENDBRANCH  15  21
ENDBRANCH   9  14
BRANCH   8  24
ATOM     24  N   UNL A   1      33.914  22.499  24.960  1.00  0.00    -0.255 N 
ATOM     25  C   UNL A   1      32.948  22.305  25.915  1.00  0.00     0.110 A 
ATOM     26  N   UNL A   1      34.282  21.322  24.397  1.00  0.00    -0.177 NA
ATOM     27  C   UNL A   1      32.525  21.011  25.802  1.00  0.00     0.045 A 
ATOM     28  C   UNL A   1      33.357  20.444  24.819  1.00  0.00     0.065 A 
BRANCH  28  29
ATOM     29  C   UNL A   1      33.269  19.045  24.274  1.00  0.00     0.034 C 
ATOM     30  C   UNL A   1      32.747  18.057  25.326  1.00  0.00     0.014 C 
ATOM     31  C   UNL A   1      32.367  18.990  23.040  1.00  0.00     0.014 C 
ENDBRANCH  28  29
ENDBRANCH   8  24
ENDBRANCH   6   8
ENDBRANCH   5   6
ENDBRANCH   4   5
ENDBRANCH   3   4
ENDBRANCH   2   3
ENDBRANCH   1   2
BRANCH   1  32
ATOM     32  C   UNL A   1      41.389  21.860  26.219  1.00  0.00     0.188 C 
BRANCH  32  33
ATOM     33  O   UNL A   1      42.148  20.675  26.315  1.00  0.00    -0.376 OA
BRANCH  33  34
ATOM     34  C   UNL A   1      43.353  20.567  25.583  1.00  0.00     0.202 C 
BRANCH  34  35
ATOM     35  C   UNL A   1      44.397  21.694  25.663  1.00  0.00     0.261 C 
BRANCH  35  36
ATOM     36  O   UNL A   1      44.516  22.384  26.917  1.00  0.00    -0.460 OA
BRANCH  36  37
ATOM     37  C   UNL A   1      45.527  23.276  27.050  1.00  0.00     0.338 C 
ATOM     38  O   UNL A   1      46.464  23.435  26.286  1.00  0.00    -0.246 OA
BRANCH  37  39
ATOM     39  C   UNL A   1      45.150  24.196  28.153  1.00  0.00     0.060 A 
ATOM     40  C   UNL A   1      45.558  25.534  28.087  1.00  0.00     0.016 A 
ATOM     41  C   UNL A   1      44.332  23.768  29.203  1.00  0.00     0.016 A 
ATOM     42  C   UNL A   1      45.134  26.443  29.061  1.00  0.00     0.010 A 
ATOM     43  C   UNL A   1      43.934  24.675  30.193  1.00  0.00     0.010 A 
ATOM     44  C   UNL A   1      44.330  26.021  30.130  1.00  0.00    -0.014 A 
BRANCH  44  45
ATOM     45  C   UNL A   1      43.996  26.951  31.243  1.00  0.00     0.031 A 
ATOM     46  C   UNL A   1      42.712  27.730  31.179  1.00  0.00     0.074 A 
ATOM     47  C   UNL A   1      44.812  27.104  32.305  1.00  0.00     0.049 A 
ATOM     48  N   UNL A   1      42.239  28.613  32.020  1.00  0.00    -0.248 NA
ATOM     49  C   UNL A   1      41.860  27.493  30.004  1.00  0.00     0.031 C 
ATOM     50  C   UNL A   1      46.059  26.374  32.518  1.00  0.00     0.029 A 
ATOM     51  N   UNL A   1      44.683  27.882  33.434  1.00  0.00    -0.354 N 
ATOM     52  C   UNL A   1      41.064  29.084  31.448  1.00  0.00     0.074 A 
ATOM     53  C   UNL A   1      40.876  28.356  30.209  1.00  0.00     0.031 C 
ATOM     54  C   UNL A   1      46.533  26.671  33.742  1.00  0.00     0.029 A 
ATOM     55  C   UNL A   1      45.664  27.663  34.376  1.00  0.00     0.049 A 
ATOM     56  H   UNL A   1      43.956  28.534  33.557  1.00  0.00     0.167 HD
ATOM     57  C   UNL A   1      40.240  30.065  31.887  1.00  0.00     0.031 A 
ATOM     58  C   UNL A   1      45.835  28.193  35.607  1.00  0.00     0.031 A 
ATOM     59  C   UNL A   1      40.438  30.812  33.101  1.00  0.00     0.049 A 
ATOM     60  C   UNL A   1      44.900  29.284  36.077  1.00  0.00     0.074 A 
ATOM     61  C   UNL A   1      39.676  31.855  33.599  1.00  0.00     0.029 A 
ATOM     62  N   UNL A   1      41.472  30.608  34.002  1.00  0.00    -0.354 N 
ATOM     63  N   UNL A   1      43.802  29.733  35.514  1.00  0.00    -0.248 NA
ATOM     64  C   UNL A   1      45.255  29.973  37.329  1.00  0.00     0.031 C 
ATOM     65  C   UNL A   1      40.285  32.323  34.767  1.00  0.00     0.029 A 
ATOM     66  C   UNL A   1      41.387  31.527  35.034  1.00  0.00     0.049 A 
ATOM     67  H   UNL A   1      42.165  29.913  33.919  1.00  0.00     0.167 HD
ATOM     68  C   UNL A   1      43.353  30.769  36.330  1.00  0.00     0.074 A 
ATOM     69  C   UNL A   1      44.261  30.842  37.455  1.00  0.00     0.031 C 
ATOM     70  C   UNL A   1      42.301  31.604  36.147  1.00  0.00     0.031 A 
BRANCH  57  71
ATOM     71  C   UNL A   1      39.101  30.460  30.988  1.00  0.00    -0.014 A 
ATOM     72  C   UNL A   1      39.237  31.469  30.020  1.00  0.00     0.010 A 
ATOM     73  C   UNL A   1      37.873  29.782  31.106  1.00  0.00     0.010 A 
ATOM     74  C   UNL A   1      38.152  31.819  29.212  1.00  0.00     0.020 A 
ATOM     75  C   UNL A   1      36.795  30.109  30.282  1.00  0.00     0.020 A 
ATOM     76  C   UNL A   1      36.936  31.139  29.351  1.00  0.00     0.054 A 
BRANCH  76  77
ATOM     77  S   UNL A   1      35.549  31.607  28.283  1.00  0.00     0.124 S 
ATOM     78  O   UNL A   1      35.437  30.441  27.408  1.00  0.00    -0.237 OA
ATOM     79  O   UNL A   1      34.457  31.784  29.237  1.00  0.00    -0.237 OA
ATOM     80  O   UNL A   1      36.008  32.831  27.631  1.00  0.00    -0.744 OA
ENDBRANCH  76  77
ENDBRANCH  57  71
BRANCH  58  81
ATOM     81  C   UNL A   1      46.953  27.740  36.491  1.00  0.00    -0.014 A 
ATOM     82  C   UNL A   1      46.752  26.696  37.416  1.00  0.00     0.010 A 
ATOM     83  C   UNL A   1      48.211  28.368  36.447  1.00  0.00     0.010 A 
ATOM     84  C   UNL A   1      47.778  26.304  38.285  1.00  0.00     0.020 A 
ATOM     85  C   UNL A   1      49.250  27.953  37.285  1.00  0.00     0.020 A 
ATOM     86  C   UNL A   1      49.022  26.935  38.213  1.00  0.00     0.054 A 
BRANCH  86  87
ATOM     87  S   UNL A   1      50.353  26.388  39.320  1.00  0.00     0.124 S 
ATOM     88  O   UNL A   1      51.109  25.485  38.459  1.00  0.00    -0.237 OA
ATOM     89  O   UNL A   1      51.019  27.642  39.661  1.00  0.00    -0.237 OA
ATOM     90  O   UNL A   1      49.638  25.750  40.422  1.00  0.00    -0.744 OA
ENDBRANCH  86  87
ENDBRANCH  58  81
BRANCH  70  91
ATOM     91  C   UNL A   1      42.074  32.695  37.164  1.00  0.00    -0.014 A 
ATOM     92  C   UNL A   1      41.289  32.460  38.309  1.00  0.00     0.010 A 
ATOM     93  C   UNL A   1      42.730  33.933  37.031  1.00  0.00     0.010 A 
ATOM     94  C   UNL A   1      41.155  33.446  39.291  1.00  0.00     0.020 A 
ATOM     95  C   UNL A   1      42.620  34.911  38.024  1.00  0.00     0.020 A 
ATOM     96  C   UNL A   1      41.827  34.663  39.147  1.00  0.00     0.054 A 
BRANCH  96  97
ATOM     97  S   UNL A   1      41.695  35.894  40.474  1.00  0.00     0.124 S 
ATOM     98  O   UNL A   1      40.837  36.908  39.867  1.00  0.00    -0.237 OA
ATOM     99  O   UNL A   1      41.089  35.128  41.561  1.00  0.00    -0.237 OA
ATOM    100  O   UNL A   1      43.077  36.305  40.705  1.00  0.00    -0.744 OA
ENDBRANCH  96  97
ENDBRANCH  70  91
ENDBRANCH  44  45
ENDBRANCH  37  39
ENDBRANCH  36  37
ENDBRANCH  35  36
ENDBRANCH  34  35
ENDBRANCH  33  34
ENDBRANCH  32  33
ENDBRANCH   1  32
TORSDOF 25
ENDMDL
MODEL 3
REMARK VINA RESULT:      -8.3      5.125      7.467
REMARK SMILES CCCc1nc(C)cc(N2CCC(C(=O)OCCOCCOCCOC(=O)c3ccc(-c4c5nc(c(-c6ccc(S(=O)(=O)[O-])cc6)c6ccc([nH]6)c(-c6ccc(S(=O)(=O)[O-])cc6)c6nc(c(-c7ccc(S(=O)(=O)[O-])cc7)c7ccc4[nH]7)C=C6)C=C5)cc3)(n3ccc(C(C)C)n3)CC2)n1
REMARK SMILES IDX 20 1 19 2 18 3 17 4 16 5 14 6 15 7 13 8 10 9 11 10 97 11
REMARK SMILES IDX 12 12 96 13 9 14 4 15 5 16 98 17 6 18 7 19 8 20 3 21 2 22
REMARK SMILES IDX 1 23 88 24 89 25 95 26 90 27 91 28 92 29 93 30 94 31 21 32
REMARK SMILES IDX 22 33 23 34 24 35 25 36 26 37 27 38 28 39 29 40 87 41 30 42
REMARK SMILES IDX 86 43 31 44 32 45 33 46 80 47 34 48 85 49 79 50 81 51 35 52
REMARK SMILES IDX 84 53 78 54 77 55 36 57 66 58 47 59 65 60 48 61 51 62 64 63
REMARK SMILES IDX 82 64 49 65 50 66 63 68 83 69 52 70 37 71 38 72 46 73 39 74
REMARK SMILES IDX 45 75 40 76 41 77 42 78 43 79 44 80 67 81 68 82 76 83 69 84
REMARK SMILES IDX 75 85 70 86 71 87 72 88 73 89 74 90 53 91 54 92 62 93 55 94
REMARK SMILES IDX 61 95 56 96 57 97 58 98 59 99 60 100
REMARK H PARENT 81 56 51 67
REMARK Flexibility Score: inf
ROOT
ATOM      1  C   UNL A   1      41.637  22.594  27.947  1.00  0.00     0.188 C 
ENDROOT
BRANCH   1   2
ATOM      2  O   UNL A   1      40.363  23.224  27.866  1.00  0.00    -0.376 OA
BRANCH   2   3
ATOM      3  C   UNL A   1      39.679  23.221  26.616  1.00  0.00     0.202 C 
BRANCH   3   4
ATOM      4  C   UNL A   1      38.927  21.951  26.177  1.00  0.00     0.261 C 
BRANCH   4   5
ATOM      5  O   UNL A   1      37.881  22.146  25.195  1.00  0.00    -0.461 OA
BRANCH   5   6
ATOM      6  C   UNL A   1      37.008  21.108  25.014  1.00  0.00     0.334 C 
ATOM      7  O   UNL A   1      37.391  19.970  24.748  1.00  0.00    -0.249 OA
BRANCH   6   8
ATOM      8  C   UNL A   1      35.504  21.519  24.982  1.00  0.00     0.163 C 
ATOM      9  N   UNL A   1      33.738  23.803  24.733  1.00  0.00    -0.356 N 
ATOM     10  C   UNL A   1      33.724  23.090  25.993  1.00  0.00     0.121 C 
ATOM     11  C   UNL A   1      34.201  23.209  23.500  1.00  0.00     0.121 C 
ATOM     12  C   UNL A   1      35.013  22.314  26.214  1.00  0.00     0.064 C 
ATOM     13  C   UNL A   1      35.486  22.441  23.735  1.00  0.00     0.064 C 
BRANCH   9  14
ATOM     14  C   UNL A   1      33.301  25.104  24.732  1.00  0.00     0.132 A 
ATOM     15  C   UNL A   1      31.744  26.613  23.983  1.00  0.00     0.130 A 
ATOM     16  N   UNL A   1      32.206  27.602  24.772  1.00  0.00    -0.238 NA
ATOM     17  N   UNL A   1      32.289  25.395  23.912  1.00  0.00    -0.216 NA
ATOM     18  C   UNL A   1      33.272  27.308  25.545  1.00  0.00     0.043 A 
ATOM     19  C   UNL A   1      33.818  28.403  26.410  1.00  0.00     0.067 C 
ATOM     20  C   UNL A   1      33.837  26.051  25.575  1.00  0.00     0.070 A 
BRANCH  15  21
ATOM     21  C   UNL A   1      30.472  26.858  23.215  1.00  0.00     0.077 C 
BRANCH  21  22
ATOM     22  C   UNL A   1      30.418  28.148  22.379  1.00  0.00     0.005 C 
ATOM     23  C   UNL A   1      29.148  28.976  22.568  1.00  0.00     0.004 C 
ENDBRANCH  21  22
ENDBRANCH  15  21
ENDBRANCH   9  14
BRANCH   8  24
ATOM     24  N   UNL A   1      34.657  20.316  24.807  1.00  0.00    -0.255 N 
ATOM     25  C   UNL A   1      33.295  20.265  24.658  1.00  0.00     0.110 A 
ATOM     26  N   UNL A   1      35.178  19.071  24.926  1.00  0.00    -0.177 NA
ATOM     27  C   UNL A   1      32.961  18.957  24.447  1.00  0.00     0.045 A 
ATOM     28  C   UNL A   1      34.170  18.251  24.585  1.00  0.00     0.065 A 
BRANCH  28  29
ATOM     29  C   UNL A   1      34.367  16.773  24.390  1.00  0.00     0.034 C 
ATOM     30  C   UNL A   1      35.545  16.242  25.216  1.00  0.00     0.014 C 
ATOM     31  C   UNL A   1      33.102  15.995  24.759  1.00  0.00     0.014 C 
ENDBRANCH  28  29
ENDBRANCH   8  24
ENDBRANCH   6   8
ENDBRANCH   5   6
ENDBRANCH   4   5
ENDBRANCH   3   4
ENDBRANCH   2   3
ENDBRANCH   1   2
BRANCH   1  32
ATOM     32  C   UNL A   1      42.607  22.793  26.776  1.00  0.00     0.188 C 
BRANCH  32  33
ATOM     33  O   UNL A   1      43.893  22.252  26.979  1.00  0.00    -0.376 OA
BRANCH  33  34
ATOM     34  C   UNL A   1      45.027  23.020  26.631  1.00  0.00     0.202 C 
BRANCH  34  35
ATOM     35  C   UNL A   1      45.697  23.914  27.688  1.00  0.00     0.261 C 
BRANCH  35  36
ATOM     36  O   UNL A   1      44.963  25.068  28.126  1.00  0.00    -0.460 OA
BRANCH  36  37
ATOM     37  C   UNL A   1      44.521  25.084  29.407  1.00  0.00     0.338 C 
ATOM     38  O   UNL A   1      44.438  24.130  30.161  1.00  0.00    -0.246 OA
BRANCH  37  39
ATOM     39  C   UNL A   1      44.401  26.510  29.806  1.00  0.00     0.060 A 
ATOM     40  C   UNL A   1      45.304  27.027  30.743  1.00  0.00     0.016 A 
ATOM     41  C   UNL A   1      43.463  27.352  29.203  1.00  0.00     0.016 A 
ATOM     42  C   UNL A   1      45.278  28.388  31.062  1.00  0.00     0.010 A 
ATOM     43  C   UNL A   1      43.420  28.709  29.547  1.00  0.00     0.010 A 
ATOM     44  C   UNL A   1      44.327  29.240  30.479  1.00  0.00    -0.014 A 
BRANCH  44  45
ATOM     45  C   UNL A   1      44.202  30.654  30.922  1.00  0.00     0.031 A 
ATOM     46  C   UNL A   1      44.927  31.724  30.153  1.00  0.00     0.074 A 
ATOM     47  C   UNL A   1      43.452  30.998  31.987  1.00  0.00     0.049 A 
ATOM     48  N   UNL A   1      44.980  33.011  30.378  1.00  0.00    -0.248 NA
ATOM     49  C   UNL A   1      45.705  31.279  28.987  1.00  0.00     0.031 C 
ATOM     50  C   UNL A   1      42.658  30.071  32.789  1.00  0.00     0.029 A 
ATOM     51  N   UNL A   1      43.187  32.230  32.542  1.00  0.00    -0.354 N 
ATOM     52  C   UNL A   1      45.846  33.524  29.421  1.00  0.00     0.074 A 
ATOM     53  C   UNL A   1      46.260  32.413  28.588  1.00  0.00     0.031 C 
ATOM     54  C   UNL A   1      41.927  30.775  33.673  1.00  0.00     0.029 A 
ATOM     55  C   UNL A   1      42.249  32.197  33.551  1.00  0.00     0.049 A 
ATOM     56  H   UNL A   1      43.628  33.059  32.245  1.00  0.00     0.167 HD
ATOM     57  C   UNL A   1      46.296  34.793  29.277  1.00  0.00     0.031 A 
ATOM     58  C   UNL A   1      41.708  33.197  34.282  1.00  0.00     0.031 A 
ATOM     59  C   UNL A   1      45.913  35.894  30.121  1.00  0.00     0.049 A 
ATOM     60  C   UNL A   1      42.224  34.606  34.099  1.00  0.00     0.074 A 
ATOM     61  C   UNL A   1      46.355  37.205  30.073  1.00  0.00     0.029 A 
ATOM     62  N   UNL A   1      45.009  35.816  31.169  1.00  0.00    -0.354 N 
ATOM     63  N   UNL A   1      43.059  35.073  33.201  1.00  0.00    -0.248 NA
ATOM     64  C   UNL A   1      41.756  35.617  35.062  1.00  0.00     0.031 C 
ATOM     65  C   UNL A   1      45.769  37.904  31.132  1.00  0.00     0.029 A 
ATOM     66  C   UNL A   1      44.906  37.047  31.796  1.00  0.00     0.049 A 
ATOM     67  H   UNL A   1      44.514  35.006  31.430  1.00  0.00     0.167 HD
ATOM     68  C   UNL A   1      43.234  36.420  33.507  1.00  0.00     0.074 A 
ATOM     69  C   UNL A   1      42.373  36.710  34.634  1.00  0.00     0.031 C 
ATOM     70  C   UNL A   1      44.056  37.328  32.926  1.00  0.00     0.031 A 
BRANCH  57  71
ATOM     71  C   UNL A   1      47.342  35.037  28.223  1.00  0.00    -0.014 A 
ATOM     72  C   UNL A   1      47.001  35.266  26.880  1.00  0.00     0.010 A 
ATOM     73  C   UNL A   1      48.698  35.056  28.602  1.00  0.00     0.010 A 
ATOM     74  C   UNL A   1      48.001  35.474  25.927  1.00  0.00     0.020 A 
ATOM     75  C   UNL A   1      49.699  35.291  27.658  1.00  0.00     0.020 A 
ATOM     76  C   UNL A   1      49.344  35.481  26.321  1.00  0.00     0.054 A 
BRANCH  76  77
ATOM     77  S   UNL A   1      50.620  35.763  25.065  1.00  0.00     0.124 S 
ATOM     78  O   UNL A   1      50.007  36.804  24.243  1.00  0.00    -0.237 OA
ATOM     79  O   UNL A   1      51.767  36.187  25.864  1.00  0.00    -0.237 OA
ATOM     80  O   UNL A   1      50.763  34.462  24.416  1.00  0.00    -0.744 OA
ENDBRANCH  76  77
ENDBRANCH  57  71
BRANCH  58  81
ATOM     81  C   UNL A   1      40.636  32.921  35.287  1.00  0.00    -0.014 A 
ATOM     82  C   UNL A   1      39.286  32.854  34.889  1.00  0.00     0.010 A 
ATOM     83  C   UNL A   1      40.945  32.761  36.650  1.00  0.00     0.010 A 
ATOM     84  C   UNL A   1      38.272  32.652  35.834  1.00  0.00     0.020 A 
ATOM     85  C   UNL A   1      39.939  32.519  37.591  1.00  0.00     0.020 A 
ATOM     86  C   UNL A   1      38.606  32.484  37.179  1.00  0.00     0.054 A 
BRANCH  86  87
ATOM     87  S   UNL A   1      37.283  32.183  38.385  1.00  0.00     0.124 S 
ATOM     88  O   UNL A   1      37.088  30.742  38.266  1.00  0.00    -0.237 OA
ATOM     89  O   UNL A   1      37.882  32.639  39.637  1.00  0.00    -0.237 OA
ATOM     90  O   UNL A   1      36.181  33.007  37.893  1.00  0.00    -0.744 OA
ENDBRANCH  86  87
ENDBRANCH  58  81
BRANCH  70  91
ATOM     91  C   UNL A   1      44.097  38.721  33.503  1.00  0.00    -0.014 A 
ATOM     92  C   UNL A   1      43.258  39.734  33.003  1.00  0.00     0.010 A 
ATOM     93  C   UNL A   1      44.907  38.999  34.621  1.00  0.00     0.010 A 
ATOM     94  C   UNL A   1      43.238  40.999  33.599  1.00  0.00     0.020 A 
ATOM     95  C   UNL A   1      44.869  40.254  35.237  1.00  0.00     0.020 A 
ATOM     96  C   UNL A   1      44.038  41.249  34.717  1.00  0.00     0.054 A 
BRANCH  96  97
ATOM     97  S   UNL A   1      43.935  42.875  35.517  1.00  0.00     0.124 S 
ATOM     98  O   UNL A   1      43.738  42.516  36.918  1.00  0.00    -0.237 OA
ATOM     99  O   UNL A   1      45.230  43.471  35.196  1.00  0.00    -0.237 OA
ATOM    100  O   UNL A   1      42.788  43.509  34.870  1.00  0.00    -0.744 OA
ENDBRANCH  96  97
ENDBRANCH  70  91
ENDBRANCH  44  45
ENDBRANCH  37  39
ENDBRANCH  36  37
ENDBRANCH  35  36
ENDBRANCH  34  35
ENDBRANCH  33  34
ENDBRANCH  32  33
ENDBRANCH   1  32
TORSDOF 25
ENDMDL
