MODEL 1
REMARK VINA RESULT:      -8.9      0.000      0.000
REMARK SMILES O=C(OCCOCCOCCOC(=O)[C@@H](F)Oc1ccc(F)c(Cl)c1)c1ccc(-c2c3nc(c(-c4ccc(S(=O)(=O)[O-])cc4)c4ccc([nH]4)c(-c4ccc(S(=O)(=O)[O-])cc4)c4nc(c(-c5ccc(S(=O)(=O)[O-])cc5)c5ccc2[nH]5)C=C4)C=C3)cc1
REMARK SMILES IDX 7 1 6 2 5 3 4 4 3 5 2 6 1 7 26 8 27 9 85 10 28 11 84 12
REMARK SMILES IDX 29 13 30 14 31 15 78 16 32 17 83 18 77 19 79 20 33 21 82 22
REMARK SMILES IDX 76 23 75 24 34 26 64 27 45 28 63 29 46 30 49 31 62 32 80 33
REMARK SMILES IDX 47 34 48 35 61 37 81 38 50 39 35 40 36 41 44 42 37 43 43 44
REMARK SMILES IDX 38 45 39 46 40 47 41 48 42 49 65 50 66 51 74 52 67 53 73 54
REMARK SMILES IDX 68 55 69 56 70 57 71 58 72 59 51 60 52 61 60 62 53 63 59 64
REMARK SMILES IDX 54 65 55 66 56 67 57 68 58 69 8 70 9 71 10 72 11 73 12 74
REMARK SMILES IDX 13 75 14 76 15 77 16 78 17 79 18 80 19 81 25 82 20 83 23 84
REMARK SMILES IDX 21 85 24 86 22 87
REMARK H PARENT 79 25 49 36
REMARK Flexibility Score: inf
ROOT
ATOM      1  C   UNL A   1      31.925  29.509  24.180  1.00  0.00     0.188 C 
ENDROOT
BRANCH   1   2
ATOM      2  O   UNL A   1      31.141  29.691  25.361  1.00  0.00    -0.376 OA
BRANCH   2   3
ATOM      3  C   UNL A   1      31.664  30.629  26.311  1.00  0.00     0.202 C 
BRANCH   3   4
ATOM      4  C   UNL A   1      33.187  30.645  26.558  1.00  0.00     0.261 C 
BRANCH   4   5
ATOM      5  O   UNL A   1      33.588  30.387  27.912  1.00  0.00    -0.460 OA
BRANCH   5   6
ATOM      6  C   UNL A   1      34.615  30.918  28.619  1.00  0.00     0.338 C 
ATOM      7  O   UNL A   1      34.453  32.024  29.135  1.00  0.00    -0.246 OA
BRANCH   6   8
ATOM      8  C   UNL A   1      35.954  30.270  28.764  1.00  0.00     0.060 A 
ATOM      9  C   UNL A   1      36.440  29.674  29.928  1.00  0.00     0.016 A 
ATOM     10  C   UNL A   1      36.747  30.191  27.607  1.00  0.00     0.016 A 
ATOM     11  C   UNL A   1      37.700  29.096  29.986  1.00  0.00     0.010 A 
ATOM     12  C   UNL A   1      38.008  29.593  27.644  1.00  0.00     0.010 A 
ATOM     13  C   UNL A   1      38.499  29.086  28.852  1.00  0.00    -0.014 A 
BRANCH  13  14
ATOM     14  C   UNL A   1      39.919  28.746  29.006  1.00  0.00     0.031 A 
ATOM     15  C   UNL A   1      40.816  29.805  29.565  1.00  0.00     0.074 A 
ATOM     16  C   UNL A   1      40.359  27.510  28.725  1.00  0.00     0.049 A 
ATOM     17  N   UNL A   1      42.113  29.821  29.671  1.00  0.00    -0.248 NA
ATOM     18  C   UNL A   1      40.152  31.021  30.071  1.00  0.00     0.031 C 
ATOM     19  C   UNL A   1      39.514  26.391  28.301  1.00  0.00     0.029 A 
ATOM     20  N   UNL A   1      41.622  26.988  28.751  1.00  0.00    -0.354 N 
ATOM     21  C   UNL A   1      42.426  31.067  30.198  1.00  0.00     0.074 A 
ATOM     22  C   UNL A   1      41.185  31.779  30.396  1.00  0.00     0.031 C 
ATOM     23  C   UNL A   1      40.291  25.319  28.087  1.00  0.00     0.029 A 
ATOM     24  C   UNL A   1      41.685  25.691  28.303  1.00  0.00     0.049 A 
ATOM     25  H   UNL A   1      42.410  27.492  29.059  1.00  0.00     0.167 HD
ATOM     26  C   UNL A   1      43.652  31.573  30.463  1.00  0.00     0.031 A 
ATOM     27  C   UNL A   1      42.757  24.917  28.047  1.00  0.00     0.031 A 
ATOM     28  C   UNL A   1      44.856  30.832  30.220  1.00  0.00     0.049 A 
ATOM     29  C   UNL A   1      44.117  25.517  28.281  1.00  0.00     0.074 A 
ATOM     30  C   UNL A   1      46.168  31.230  30.388  1.00  0.00     0.029 A 
ATOM     31  N   UNL A   1      44.885  29.525  29.743  1.00  0.00    -0.354 N 
ATOM     32  N   UNL A   1      44.417  26.721  28.717  1.00  0.00    -0.248 NA
ATOM     33  C   UNL A   1      45.280  24.675  27.984  1.00  0.00     0.031 C 
ATOM     34  C   UNL A   1      46.989  30.184  29.952  1.00  0.00     0.029 A 
ATOM     35  C   UNL A   1      46.192  29.106  29.590  1.00  0.00     0.049 A 
ATOM     36  H   UNL A   1      44.090  28.980  29.542  1.00  0.00     0.167 HD
ATOM     37  C   UNL A   1      45.804  26.775  28.768  1.00  0.00     0.074 A 
ATOM     38  C   UNL A   1      46.281  25.478  28.324  1.00  0.00     0.031 C 
ATOM     39  C   UNL A   1      46.611  27.796  29.150  1.00  0.00     0.031 A 
BRANCH  26  40
ATOM     40  C   UNL A   1      43.714  33.006  30.921  1.00  0.00    -0.014 A 
ATOM     41  C   UNL A   1      43.836  34.075  30.013  1.00  0.00     0.010 A 
ATOM     42  C   UNL A   1      43.731  33.281  32.300  1.00  0.00     0.010 A 
ATOM     43  C   UNL A   1      44.048  35.377  30.477  1.00  0.00     0.020 A 
ATOM     44  C   UNL A   1      43.908  34.585  32.768  1.00  0.00     0.020 A 
ATOM     45  C   UNL A   1      44.095  35.621  31.852  1.00  0.00     0.054 A 
BRANCH  45  46
ATOM     46  S   UNL A   1      44.415  37.311  32.428  1.00  0.00     0.124 S 
ATOM     47  O   UNL A   1      43.638  37.359  33.664  1.00  0.00    -0.237 OA
ATOM     48  O   UNL A   1      45.866  37.322  32.600  1.00  0.00    -0.237 OA
ATOM     49  O   UNL A   1      43.913  38.150  31.343  1.00  0.00    -0.744 OA
ENDBRANCH  45  46
ENDBRANCH  26  40
BRANCH  27  50
ATOM     50  C   UNL A   1      42.568  23.542  27.505  1.00  0.00    -0.014 A 
ATOM     51  C   UNL A   1      42.690  23.280  26.131  1.00  0.00     0.010 A 
ATOM     52  C   UNL A   1      42.339  22.462  28.381  1.00  0.00     0.010 A 
ATOM     53  C   UNL A   1      42.617  21.968  25.647  1.00  0.00     0.020 A 
ATOM     54  C   UNL A   1      42.289  21.149  27.906  1.00  0.00     0.020 A 
ATOM     55  C   UNL A   1      42.431  20.909  26.540  1.00  0.00     0.054 A 
BRANCH  55  56
ATOM     56  S   UNL A   1      42.436  19.209  25.900  1.00  0.00     0.124 S 
ATOM     57  O   UNL A   1      41.012  18.942  25.730  1.00  0.00    -0.237 OA
ATOM     58  O   UNL A   1      43.210  19.340  24.668  1.00  0.00    -0.237 OA
ATOM     59  O   UNL A   1      43.093  18.448  26.961  1.00  0.00    -0.744 OA
ENDBRANCH  55  56
ENDBRANCH  27  50
BRANCH  39  60
ATOM     60  C   UNL A   1      48.091  27.537  29.159  1.00  0.00    -0.014 A 
ATOM     61  C   UNL A   1      48.877  27.747  28.015  1.00  0.00     0.010 A 
ATOM     62  C   UNL A   1      48.710  27.205  30.378  1.00  0.00     0.010 A 
ATOM     63  C   UNL A   1      50.266  27.630  28.092  1.00  0.00     0.020 A 
ATOM     64  C   UNL A   1      50.098  27.117  30.464  1.00  0.00     0.020 A 
ATOM     65  C   UNL A   1      50.867  27.328  29.319  1.00  0.00     0.054 A 
BRANCH  65  66
ATOM     66  S   UNL A   1      52.677  27.288  29.414  1.00  0.00     0.124 S 
ATOM     67  O   UNL A   1      53.057  28.255  28.389  1.00  0.00    -0.237 OA
ATOM     68  O   UNL A   1      52.932  27.697  30.793  1.00  0.00    -0.237 OA
ATOM     69  O   UNL A   1      53.009  25.897  29.113  1.00  0.00    -0.744 OA
ENDBRANCH  65  66
ENDBRANCH  39  60
ENDBRANCH  13  14
ENDBRANCH   6   8
ENDBRANCH   5   6
ENDBRANCH   4   5
ENDBRANCH   3   4
ENDBRANCH   2   3
ENDBRANCH   1   2
BRANCH   1  70
ATOM     70  C   UNL A   1      31.378  28.458  23.214  1.00  0.00     0.188 C 
BRANCH  70  71
ATOM     71  O   UNL A   1      30.341  27.615  23.712  1.00  0.00    -0.376 OA
BRANCH  71  72
ATOM     72  C   UNL A   1      30.730  26.329  24.175  1.00  0.00     0.202 C 
BRANCH  72  73
ATOM     73  C   UNL A   1      31.221  25.334  23.122  1.00  0.00     0.261 C 
BRANCH  73  74
ATOM     74  O   UNL A   1      32.467  24.699  23.441  1.00  0.00    -0.458 OA
BRANCH  74  75
ATOM     75  C   UNL A   1      32.437  23.339  23.621  1.00  0.00     0.381 C 
ATOM     76  O   UNL A   1      32.389  22.523  22.715  1.00  0.00    -0.244 OA
BRANCH  75  77
ATOM     77  C   UNL A   1      32.391  22.989  25.117  1.00  0.00     0.461 C 
ATOM     78  F   UNL A   1      31.125  22.780  25.597  1.00  0.00    -0.189 F 
BRANCH  77  79
ATOM     79  O   UNL A   1      33.210  21.889  25.508  1.00  0.00    -0.451 OA
BRANCH  79  80
ATOM     80  C   UNL A   1      34.556  22.121  25.579  1.00  0.00     0.125 A 
ATOM     81  C   UNL A   1      35.138  23.319  26.004  1.00  0.00     0.050 A 
ATOM     82  C   UNL A   1      35.383  21.043  25.253  1.00  0.00     0.070 A 
ATOM     83  C   UNL A   1      36.523  23.472  26.027  1.00  0.00     0.044 A 
ATOM     84  C   UNL A   1      36.771  21.196  25.276  1.00  0.00     0.080 A 
ATOM     85  C   UNL A   1      37.333  22.413  25.652  1.00  0.00     0.142 A 
ATOM     86  Cl  UNL A   1      37.793  19.884  24.851  1.00  0.00    -0.081 Cl
ATOM     87  F   UNL A   1      38.662  22.587  25.681  1.00  0.00    -0.205 F 
ENDBRANCH  79  80
ENDBRANCH  77  79
ENDBRANCH  75  77
ENDBRANCH  74  75
ENDBRANCH  73  74
ENDBRANCH  72  73
ENDBRANCH  71  72
ENDBRANCH  70  71
ENDBRANCH   1  70
TORSDOF 22
ENDMDL
MODEL 2
REMARK VINA RESULT:      -8.9      3.708      8.853
REMARK SMILES O=C(OCCOCCOCCOC(=O)[C@@H](F)Oc1ccc(F)c(Cl)c1)c1ccc(-c2c3nc(c(-c4ccc(S(=O)(=O)[O-])cc4)c4ccc([nH]4)c(-c4ccc(S(=O)(=O)[O-])cc4)c4nc(c(-c5ccc(S(=O)(=O)[O-])cc5)c5ccc2[nH]5)C=C4)C=C3)cc1
REMARK SMILES IDX 7 1 6 2 5 3 4 4 3 5 2 6 1 7 26 8 27 9 85 10 28 11 84 12
REMARK SMILES IDX 29 13 30 14 31 15 78 16 32 17 83 18 77 19 79 20 33 21 82 22
REMARK SMILES IDX 76 23 75 24 34 26 64 27 45 28 63 29 46 30 49 31 62 32 80 33
REMARK SMILES IDX 47 34 48 35 61 37 81 38 50 39 35 40 36 41 44 42 37 43 43 44
REMARK SMILES IDX 38 45 39 46 40 47 41 48 42 49 65 50 66 51 74 52 67 53 73 54
REMARK SMILES IDX 68 55 69 56 70 57 71 58 72 59 51 60 52 61 60 62 53 63 59 64
REMARK SMILES IDX 54 65 55 66 56 67 57 68 58 69 8 70 9 71 10 72 11 73 12 74
REMARK SMILES IDX 13 75 14 76 15 77 16 78 17 79 18 80 19 81 25 82 20 83 23 84
REMARK SMILES IDX 21 85 24 86 22 87
REMARK H PARENT 79 25 49 36
REMARK Flexibility Score: inf
ROOT
ATOM      1  C   UNL A   1      31.578  26.993  26.622  1.00  0.00     0.188 C 
ENDROOT
BRANCH   1   2
ATOM      2  O   UNL A   1      32.009  27.834  25.550  1.00  0.00    -0.376 OA
BRANCH   2   3
ATOM      3  C   UNL A   1      33.087  28.726  25.860  1.00  0.00     0.202 C 
BRANCH   3   4
ATOM      4  C   UNL A   1      32.849  29.817  26.923  1.00  0.00     0.261 C 
BRANCH   4   5
ATOM      5  O   UNL A   1      33.801  30.891  26.920  1.00  0.00    -0.460 OA
BRANCH   5   6
ATOM      6  C   UNL A   1      34.477  31.442  27.957  1.00  0.00     0.338 C 
ATOM      7  O   UNL A   1      34.033  32.477  28.456  1.00  0.00    -0.246 OA
BRANCH   6   8
ATOM      8  C   UNL A   1      35.763  30.903  28.499  1.00  0.00     0.060 A 
ATOM      9  C   UNL A   1      35.923  29.656  29.104  1.00  0.00     0.016 A 
ATOM     10  C   UNL A   1      36.909  31.690  28.306  1.00  0.00     0.016 A 
ATOM     11  C   UNL A   1      37.150  29.227  29.588  1.00  0.00     0.010 A 
ATOM     12  C   UNL A   1      38.156  31.262  28.767  1.00  0.00     0.010 A 
ATOM     13  C   UNL A   1      38.261  30.046  29.450  1.00  0.00    -0.014 A 
BRANCH  13  14
ATOM     14  C   UNL A   1      39.468  29.715  30.219  1.00  0.00     0.031 A 
ATOM     15  C   UNL A   1      40.357  28.646  29.663  1.00  0.00     0.074 A 
ATOM     16  C   UNL A   1      39.783  30.404  31.325  1.00  0.00     0.049 A 
ATOM     17  N   UNL A   1      41.392  28.068  30.201  1.00  0.00    -0.248 NA
ATOM     18  C   UNL A   1      40.024  28.159  28.312  1.00  0.00     0.031 C 
ATOM     19  C   UNL A   1      39.029  31.546  31.849  1.00  0.00     0.029 A 
ATOM     20  N   UNL A   1      40.814  30.247  32.209  1.00  0.00    -0.354 N 
ATOM     21  C   UNL A   1      41.798  27.109  29.282  1.00  0.00     0.074 A 
ATOM     22  C   UNL A   1      40.903  27.184  28.151  1.00  0.00     0.031 C 
ATOM     23  C   UNL A   1      39.617  31.971  32.978  1.00  0.00     0.029 A 
ATOM     24  C   UNL A   1      40.747  31.101  33.283  1.00  0.00     0.049 A 
ATOM     25  H   UNL A   1      41.534  29.586  32.088  1.00  0.00     0.167 HD
ATOM     26  C   UNL A   1      42.816  26.227  29.398  1.00  0.00     0.031 A 
ATOM     27  C   UNL A   1      41.486  31.133  34.408  1.00  0.00     0.031 A 
ATOM     28  C   UNL A   1      43.658  26.175  30.558  1.00  0.00     0.049 A 
ATOM     29  C   UNL A   1      42.572  30.101  34.554  1.00  0.00     0.074 A 
ATOM     30  C   UNL A   1      44.692  25.304  30.841  1.00  0.00     0.029 A 
ATOM     31  N   UNL A   1      43.548  27.042  31.641  1.00  0.00    -0.354 N 
ATOM     32  N   UNL A   1      42.915  29.148  33.714  1.00  0.00    -0.248 NA
ATOM     33  C   UNL A   1      43.362  30.130  35.788  1.00  0.00     0.031 C 
ATOM     34  C   UNL A   1      45.164  25.607  32.124  1.00  0.00     0.029 A 
ATOM     35  C   UNL A   1      44.481  26.716  32.605  1.00  0.00     0.049 A 
ATOM     36  H   UNL A   1      42.898  27.779  31.710  1.00  0.00     0.167 HD
ATOM     37  C   UNL A   1      43.976  28.478  34.308  1.00  0.00     0.074 A 
ATOM     38  C   UNL A   1      44.220  29.140  35.577  1.00  0.00     0.031 C 
ATOM     39  C   UNL A   1      44.687  27.417  33.851  1.00  0.00     0.031 A 
BRANCH  26  40
ATOM     40  C   UNL A   1      42.965  25.208  28.299  1.00  0.00    -0.014 A 
ATOM     41  C   UNL A   1      42.281  23.978  28.324  1.00  0.00     0.010 A 
ATOM     42  C   UNL A   1      43.874  25.459  27.255  1.00  0.00     0.010 A 
ATOM     43  C   UNL A   1      42.560  22.993  27.371  1.00  0.00     0.020 A 
ATOM     44  C   UNL A   1      44.130  24.492  26.281  1.00  0.00     0.020 A 
ATOM     45  C   UNL A   1      43.493  23.253  26.363  1.00  0.00     0.054 A 
BRANCH  45  46
ATOM     46  S   UNL A   1      43.870  21.944  25.165  1.00  0.00     0.124 S 
ATOM     47  O   UNL A   1      43.505  22.579  23.901  1.00  0.00    -0.237 OA
ATOM     48  O   UNL A   1      45.301  21.728  25.366  1.00  0.00    -0.237 OA
ATOM     49  O   UNL A   1      43.012  20.836  25.577  1.00  0.00    -0.744 OA
ENDBRANCH  45  46
ENDBRANCH  26  40
BRANCH  27  50
ATOM     50  C   UNL A   1      41.181  32.133  35.469  1.00  0.00    -0.014 A 
ATOM     51  C   UNL A   1      42.006  33.250  35.673  1.00  0.00     0.010 A 
ATOM     52  C   UNL A   1      40.005  32.012  36.237  1.00  0.00     0.010 A 
ATOM     53  C   UNL A   1      41.652  34.238  36.599  1.00  0.00     0.020 A 
ATOM     54  C   UNL A   1      39.634  33.008  37.145  1.00  0.00     0.020 A 
ATOM     55  C   UNL A   1      40.460  34.118  37.320  1.00  0.00     0.054 A 
BRANCH  55  56
ATOM     56  S   UNL A   1      39.973  35.459  38.443  1.00  0.00     0.124 S 
ATOM     57  O   UNL A   1      39.411  36.441  37.521  1.00  0.00    -0.237 OA
ATOM     58  O   UNL A   1      39.016  34.796  39.326  1.00  0.00    -0.237 OA
ATOM     59  O   UNL A   1      41.230  35.845  39.080  1.00  0.00    -0.744 OA
ENDBRANCH  55  56
ENDBRANCH  27  50
BRANCH  39  60
ATOM     60  C   UNL A   1      45.833  26.940  34.697  1.00  0.00    -0.014 A 
ATOM     61  C   UNL A   1      45.667  25.913  35.640  1.00  0.00     0.010 A 
ATOM     62  C   UNL A   1      47.119  27.448  34.439  1.00  0.00     0.010 A 
ATOM     63  C   UNL A   1      46.777  25.398  36.312  1.00  0.00     0.020 A 
ATOM     64  C   UNL A   1      48.232  26.915  35.087  1.00  0.00     0.020 A 
ATOM     65  C   UNL A   1      48.053  25.895  36.022  1.00  0.00     0.054 A 
BRANCH  65  66
ATOM     66  S   UNL A   1      49.486  25.135  36.831  1.00  0.00     0.124 S 
ATOM     67  O   UNL A   1      50.546  26.094  36.534  1.00  0.00    -0.237 OA
ATOM     68  O   UNL A   1      49.066  25.072  38.229  1.00  0.00    -0.237 OA
ATOM     69  O   UNL A   1      49.613  23.840  36.166  1.00  0.00    -0.744 OA
ENDBRANCH  65  66
ENDBRANCH  39  60
ENDBRANCH  13  14
ENDBRANCH   6   8
ENDBRANCH   5   6
ENDBRANCH   4   5
ENDBRANCH   3   4
ENDBRANCH   2   3
ENDBRANCH   1   2
BRANCH   1  70
ATOM     70  C   UNL A   1      30.550  25.935  26.221  1.00  0.00     0.188 C 
BRANCH  70  71
ATOM     71  O   UNL A   1      30.685  24.653  26.833  1.00  0.00    -0.376 OA
BRANCH  71  72
ATOM     72  C   UNL A   1      30.843  23.542  25.960  1.00  0.00     0.202 C 
BRANCH  72  73
ATOM     73  C   UNL A   1      32.254  22.966  25.822  1.00  0.00     0.261 C 
BRANCH  73  74
ATOM     74  O   UNL A   1      32.434  22.102  24.693  1.00  0.00    -0.458 OA
BRANCH  74  75
ATOM     75  C   UNL A   1      32.723  20.788  24.962  1.00  0.00     0.381 C 
ATOM     76  O   UNL A   1      31.886  19.930  25.196  1.00  0.00    -0.244 OA
BRANCH  75  77
ATOM     77  C   UNL A   1      34.243  20.563  25.009  1.00  0.00     0.461 C 
ATOM     78  F   UNL A   1      34.623  19.284  24.699  1.00  0.00    -0.189 F 
BRANCH  77  79
ATOM     79  O   UNL A   1      35.013  21.468  24.222  1.00  0.00    -0.451 OA
BRANCH  79  80
ATOM     80  C   UNL A   1      36.009  22.148  24.866  1.00  0.00     0.125 A 
ATOM     81  C   UNL A   1      35.911  23.466  25.322  1.00  0.00     0.050 A 
ATOM     82  C   UNL A   1      37.177  21.426  25.127  1.00  0.00     0.070 A 
ATOM     83  C   UNL A   1      36.986  24.086  25.955  1.00  0.00     0.044 A 
ATOM     84  C   UNL A   1      38.255  22.048  25.761  1.00  0.00     0.080 A 
ATOM     85  C   UNL A   1      38.158  23.377  26.161  1.00  0.00     0.142 A 
ATOM     86  Cl  UNL A   1      39.703  21.175  26.060  1.00  0.00    -0.081 Cl
ATOM     87  F   UNL A   1      39.178  23.998  26.770  1.00  0.00    -0.205 F 
ENDBRANCH  79  80
ENDBRANCH  77  79
ENDBRANCH  75  77
ENDBRANCH  74  75
ENDBRANCH  73  74
ENDBRANCH  72  73
ENDBRANCH  71  72
ENDBRANCH  70  71
ENDBRANCH   1  70
TORSDOF 22
ENDMDL
MODEL 3
REMARK VINA RESULT:      -8.8      3.382      9.731
REMARK SMILES O=C(OCCOCCOCCOC(=O)[C@@H](F)Oc1ccc(F)c(Cl)c1)c1ccc(-c2c3nc(c(-c4ccc(S(=O)(=O)[O-])cc4)c4ccc([nH]4)c(-c4ccc(S(=O)(=O)[O-])cc4)c4nc(c(-c5ccc(S(=O)(=O)[O-])cc5)c5ccc2[nH]5)C=C4)C=C3)cc1
REMARK SMILES IDX 7 1 6 2 5 3 4 4 3 5 2 6 1 7 26 8 27 9 85 10 28 11 84 12
REMARK SMILES IDX 29 13 30 14 31 15 78 16 32 17 83 18 77 19 79 20 33 21 82 22
REMARK SMILES IDX 76 23 75 24 34 26 64 27 45 28 63 29 46 30 49 31 62 32 80 33
REMARK SMILES IDX 47 34 48 35 61 37 81 38 50 39 35 40 36 41 44 42 37 43 43 44
REMARK SMILES IDX 38 45 39 46 40 47 41 48 42 49 65 50 66 51 74 52 67 53 73 54
REMARK SMILES IDX 68 55 69 56 70 57 71 58 72 59 51 60 52 61 60 62 53 63 59 64
REMARK SMILES IDX 54 65 55 66 56 67 57 68 58 69 8 70 9 71 10 72 11 73 12 74
REMARK SMILES IDX 13 75 14 76 15 77 16 78 17 79 18 80 19 81 25 82 20 83 23 84
REMARK SMILES IDX 21 85 24 86 22 87
REMARK H PARENT 79 25 49 36
REMARK Flexibility Score: inf
ROOT
ATOM      1  C   UNL A   1      34.204  19.798  25.125  1.00  0.00     0.188 C 
ENDROOT
BRANCH   1   2
ATOM      2  O   UNL A   1      35.525  20.139  24.700  1.00  0.00    -0.376 OA
BRANCH   2   3
ATOM      3  C   UNL A   1      36.197  21.121  25.500  1.00  0.00     0.202 C 
BRANCH   3   4
ATOM      4  C   UNL A   1      37.700  21.362  25.248  1.00  0.00     0.261 C 
BRANCH   4   5
ATOM      5  O   UNL A   1      38.179  22.663  25.620  1.00  0.00    -0.460 OA
BRANCH   5   6
ATOM      6  C   UNL A   1      39.352  23.012  26.203  1.00  0.00     0.338 C 
ATOM      7  O   UNL A   1      40.247  22.168  26.255  1.00  0.00    -0.246 OA
BRANCH   6   8
ATOM      8  C   UNL A   1      39.608  24.341  26.839  1.00  0.00     0.060 A 
ATOM      9  C   UNL A   1      40.304  25.397  26.249  1.00  0.00     0.016 A 
ATOM     10  C   UNL A   1      39.029  24.560  28.099  1.00  0.00     0.016 A 
ATOM     11  C   UNL A   1      40.506  26.601  26.906  1.00  0.00     0.010 A 
ATOM     12  C   UNL A   1      39.205  25.775  28.764  1.00  0.00     0.010 A 
ATOM     13  C   UNL A   1      39.984  26.779  28.180  1.00  0.00    -0.014 A 
BRANCH  13  14
ATOM     14  C   UNL A   1      40.453  27.926  28.968  1.00  0.00     0.031 A 
ATOM     15  C   UNL A   1      41.823  27.829  29.562  1.00  0.00     0.074 A 
ATOM     16  C   UNL A   1      39.702  29.033  29.074  1.00  0.00     0.049 A 
ATOM     17  N   UNL A   1      42.417  28.623  30.406  1.00  0.00    -0.248 NA
ATOM     18  C   UNL A   1      42.632  26.668  29.149  1.00  0.00     0.031 C 
ATOM     19  C   UNL A   1      38.414  29.244  28.410  1.00  0.00     0.029 A 
ATOM     20  N   UNL A   1      39.912  30.186  29.778  1.00  0.00    -0.354 N 
ATOM     21  C   UNL A   1      43.644  28.028  30.671  1.00  0.00     0.074 A 
ATOM     22  C   UNL A   1      43.713  26.811  29.897  1.00  0.00     0.031 C 
ATOM     23  C   UNL A   1      37.940  30.449  28.759  1.00  0.00     0.029 A 
ATOM     24  C   UNL A   1      38.859  31.065  29.709  1.00  0.00     0.049 A 
ATOM     25  H   UNL A   1      40.736  30.368  30.286  1.00  0.00     0.167 HD
ATOM     26  C   UNL A   1      44.610  28.458  31.513  1.00  0.00     0.031 A 
ATOM     27  C   UNL A   1      38.646  32.211  30.384  1.00  0.00     0.031 A 
ATOM     28  C   UNL A   1      44.477  29.662  32.283  1.00  0.00     0.049 A 
ATOM     29  C   UNL A   1      39.699  32.642  31.369  1.00  0.00     0.074 A 
ATOM     30  C   UNL A   1      45.346  30.195  33.215  1.00  0.00     0.029 A 
ATOM     31  N   UNL A   1      43.385  30.520  32.206  1.00  0.00    -0.354 N 
ATOM     32  N   UNL A   1      40.831  32.045  31.671  1.00  0.00    -0.248 NA
ATOM     33  C   UNL A   1      39.452  33.881  32.113  1.00  0.00     0.031 C 
ATOM     34  C   UNL A   1      44.747  31.344  33.746  1.00  0.00     0.029 A 
ATOM     35  C   UNL A   1      43.545  31.570  33.087  1.00  0.00     0.049 A 
ATOM     36  H   UNL A   1      42.611  30.395  31.610  1.00  0.00     0.167 HD
ATOM     37  C   UNL A   1      41.444  32.847  32.624  1.00  0.00     0.074 A 
ATOM     38  C   UNL A   1      40.557  33.975  32.843  1.00  0.00     0.031 C 
ATOM     39  C   UNL A   1      42.630  32.675  33.259  1.00  0.00     0.031 A 
BRANCH  26  40
ATOM     40  C   UNL A   1      45.799  27.554  31.706  1.00  0.00    -0.014 A 
ATOM     41  C   UNL A   1      45.838  26.578  32.720  1.00  0.00     0.010 A 
ATOM     42  C   UNL A   1      46.936  27.743  30.900  1.00  0.00     0.010 A 
ATOM     43  C   UNL A   1      47.014  25.864  32.970  1.00  0.00     0.020 A 
ATOM     44  C   UNL A   1      48.102  27.007  31.124  1.00  0.00     0.020 A 
ATOM     45  C   UNL A   1      48.143  26.093  32.178  1.00  0.00     0.054 A 
BRANCH  45  46
ATOM     46  S   UNL A   1      49.669  25.186  32.550  1.00  0.00     0.124 S 
ATOM     47  O   UNL A   1      50.155  24.853  31.214  1.00  0.00    -0.237 OA
ATOM     48  O   UNL A   1      50.461  26.177  33.276  1.00  0.00    -0.237 OA
ATOM     49  O   UNL A   1      49.214  24.051  33.349  1.00  0.00    -0.744 OA
ENDBRANCH  45  46
ENDBRANCH  26  40
BRANCH  27  50
ATOM     50  C   UNL A   1      37.382  32.972  30.175  1.00  0.00    -0.014 A 
ATOM     51  C   UNL A   1      37.238  33.858  29.095  1.00  0.00     0.010 A 
ATOM     52  C   UNL A   1      36.276  32.751  31.020  1.00  0.00     0.010 A 
ATOM     53  C   UNL A   1      36.011  34.485  28.846  1.00  0.00     0.020 A 
ATOM     54  C   UNL A   1      35.042  33.356  30.761  1.00  0.00     0.020 A 
ATOM     55  C   UNL A   1      34.916  34.219  29.673  1.00  0.00     0.054 A 
BRANCH  55  56
ATOM     56  S   UNL A   1      33.311  34.967  29.275  1.00  0.00     0.124 S 
ATOM     57  O   UNL A   1      32.635  34.947  30.567  1.00  0.00    -0.237 OA
ATOM     58  O   UNL A   1      33.694  36.287  28.779  1.00  0.00    -0.237 OA
ATOM     59  O   UNL A   1      32.756  34.068  28.264  1.00  0.00    -0.744 OA
ENDBRANCH  55  56
ENDBRANCH  27  50
BRANCH  39  60
ATOM     60  C   UNL A   1      43.068  33.755  34.207  1.00  0.00    -0.014 A 
ATOM     61  C   UNL A   1      43.760  34.889  33.752  1.00  0.00     0.010 A 
ATOM     62  C   UNL A   1      42.657  33.682  35.550  1.00  0.00     0.010 A 
ATOM     63  C   UNL A   1      44.032  35.938  34.633  1.00  0.00     0.020 A 
ATOM     64  C   UNL A   1      42.902  34.740  36.423  1.00  0.00     0.020 A 
ATOM     65  C   UNL A   1      43.591  35.861  35.958  1.00  0.00     0.054 A 
BRANCH  65  66
ATOM     66  S   UNL A   1      43.864  37.282  37.050  1.00  0.00     0.124 S 
ATOM     67  O   UNL A   1      45.035  36.858  37.813  1.00  0.00    -0.237 OA
ATOM     68  O   UNL A   1      44.088  38.372  36.104  1.00  0.00    -0.237 OA
ATOM     69  O   UNL A   1      42.622  37.375  37.814  1.00  0.00    -0.744 OA
ENDBRANCH  65  66
ENDBRANCH  39  60
ENDBRANCH  13  14
ENDBRANCH   6   8
ENDBRANCH   5   6
ENDBRANCH   4   5
ENDBRANCH   3   4
ENDBRANCH   2   3
ENDBRANCH   1   2
BRANCH   1  70
ATOM     70  C   UNL A   1      33.097  20.629  24.475  1.00  0.00     0.188 C 
BRANCH  70  71
ATOM     71  O   UNL A   1      31.928  20.855  25.260  1.00  0.00    -0.376 OA
BRANCH  71  72
ATOM     72  C   UNL A   1      31.500  22.204  25.395  1.00  0.00     0.202 C 
BRANCH  72  73
ATOM     73  C   UNL A   1      32.544  23.215  25.874  1.00  0.00     0.261 C 
BRANCH  73  74
ATOM     74  O   UNL A   1      32.717  24.344  25.007  1.00  0.00    -0.458 OA
BRANCH  74  75
ATOM     75  C   UNL A   1      33.915  24.433  24.343  1.00  0.00     0.381 C 
ATOM     76  O   UNL A   1      34.995  24.596  24.886  1.00  0.00    -0.244 OA
BRANCH  75  77
ATOM     77  C   UNL A   1      33.699  24.381  22.822  1.00  0.00     0.461 C 
ATOM     78  F   UNL A   1      32.518  23.796  22.450  1.00  0.00    -0.189 F 
BRANCH  77  79
ATOM     79  O   UNL A   1      33.814  25.635  22.151  1.00  0.00    -0.451 OA
BRANCH  79  80
ATOM     80  C   UNL A   1      33.198  26.704  22.740  1.00  0.00     0.125 A 
ATOM     81  C   UNL A   1      33.858  27.733  23.418  1.00  0.00     0.050 A 
ATOM     82  C   UNL A   1      31.811  26.776  22.583  1.00  0.00     0.070 A 
ATOM     83  C   UNL A   1      33.145  28.776  24.003  1.00  0.00     0.044 A 
ATOM     84  C   UNL A   1      31.096  27.823  23.170  1.00  0.00     0.080 A 
ATOM     85  C   UNL A   1      31.765  28.810  23.886  1.00  0.00     0.142 A 
ATOM     86  Cl  UNL A   1      29.389  27.903  23.004  1.00  0.00    -0.081 Cl
ATOM     87  F   UNL A   1      31.102  29.825  24.460  1.00  0.00    -0.205 F 
ENDBRANCH  79  80
ENDBRANCH  77  79
ENDBRANCH  75  77
ENDBRANCH  74  75
ENDBRANCH  73  74
ENDBRANCH  72  73
ENDBRANCH  71  72
ENDBRANCH  70  71
ENDBRANCH   1  70
TORSDOF 22
ENDMDL
