MODEL 1
REMARK VINA RESULT:     -10.6      0.000      0.000
REMARK SMILES CS(=O)(=O)c1ccc(N2N=C(C(=O)OCCOCCOCCOC(=O)c3ccc(-c4c5nc(c(-c6ccc(S(=O)(=O)[O-])cc6)c6ccc([nH]6)c(-c6ccc(S(=O)(=O)[O-])cc6)c6nc(c(-c7ccc(S(=O)(=O)[O-])cc7)c7ccc4[nH]7)C=C6)C=C5)cc3)C[C@H]2c2ccco2)cc1
REMARK SMILES IDX 19 1 18 2 17 3 16 4 15 5 14 6 12 7 13 8 11 9 9 10 10 11
REMARK SMILES IDX 87 12 86 13 8 14 5 15 6 16 94 17 7 18 93 19 2 20 1 21 3 22
REMARK SMILES IDX 4 23 88 24 89 25 92 26 90 27 91 28 20 29 21 30 22 31 23 32
REMARK SMILES IDX 24 33 25 34 26 35 27 36 85 37 28 38 84 39 29 40 30 41 31 42
REMARK SMILES IDX 78 43 32 44 83 45 77 46 79 47 33 48 82 49 76 50 75 51 34 53
REMARK SMILES IDX 64 54 45 55 63 56 46 57 49 58 62 59 80 60 47 61 48 62 61 64
REMARK SMILES IDX 81 65 50 66 35 67 36 68 44 69 37 70 43 71 38 72 39 73 40 74
REMARK SMILES IDX 41 75 42 76 65 77 66 78 74 79 67 80 73 81 68 82 69 83 70 84
REMARK SMILES IDX 71 85 72 86 51 87 52 88 60 89 53 90 59 91 54 92 55 93 56 94
REMARK SMILES IDX 57 95 58 96
REMARK H PARENT 79 52 49 63
REMARK Flexibility Score: inf
ROOT
ATOM      1  C   UNL A   1      31.798  28.646  26.572  1.00  0.00     0.188 C 
ENDROOT
BRANCH   1   2
ATOM      2  C   UNL A   1      32.034  28.411  25.065  1.00  0.00     0.188 C 
BRANCH   2   3
ATOM      3  O   UNL A   1      30.997  28.677  24.138  1.00  0.00    -0.376 OA
BRANCH   3   4
ATOM      4  C   UNL A   1      30.519  27.639  23.293  1.00  0.00     0.202 C 
BRANCH   4   5
ATOM      5  C   UNL A   1      31.409  27.096  22.175  1.00  0.00     0.261 C 
BRANCH   5   6
ATOM      6  O   UNL A   1      31.420  25.664  22.158  1.00  0.00    -0.459 OA
BRANCH   6   7
ATOM      7  C   UNL A   1      32.602  25.118  21.795  1.00  0.00     0.354 C 
ATOM      8  O   UNL A   1      33.262  25.357  20.814  1.00  0.00    -0.245 OA
BRANCH   7   9
ATOM      9  C   UNL A   1      33.052  24.174  22.880  1.00  0.00     0.148 C 
ATOM     10  N   UNL A   1      33.533  22.398  23.915  1.00  0.00    -0.254 N 
ATOM     11  N   UNL A   1      33.165  22.892  22.700  1.00  0.00    -0.169 NA
ATOM     12  C   UNL A   1      33.398  23.386  25.000  1.00  0.00     0.180 C 
ATOM     13  C   UNL A   1      33.489  24.699  24.209  1.00  0.00     0.101 C 
BRANCH  10  14
ATOM     14  C   UNL A   1      33.647  21.030  24.111  1.00  0.00     0.060 A 
ATOM     15  C   UNL A   1      33.937  18.236  24.295  1.00  0.00     0.067 A 
ATOM     16  C   UNL A   1      32.776  18.776  23.739  1.00  0.00     0.022 A 
ATOM     17  C   UNL A   1      34.930  19.075  24.804  1.00  0.00     0.022 A 
ATOM     18  C   UNL A   1      32.635  20.168  23.659  1.00  0.00     0.029 A 
ATOM     19  C   UNL A   1      34.771  20.461  24.723  1.00  0.00     0.029 A 
BRANCH  15  20
ATOM     20  S   UNL A   1      34.202  16.478  24.256  1.00  0.00     0.175 S 
ATOM     21  C   UNL A   1      32.827  15.771  25.121  1.00  0.00     0.163 C 
ATOM     22  O   UNL A   1      35.401  16.200  25.028  1.00  0.00    -0.224 OA
ATOM     23  O   UNL A   1      34.123  16.086  22.861  1.00  0.00    -0.224 OA
ENDBRANCH  15  20
ENDBRANCH  10  14
BRANCH  12  24
ATOM     24  C   UNL A   1      32.148  23.335  25.837  1.00  0.00     0.128 A 
ATOM     25  C   UNL A   1      30.804  23.431  25.529  1.00  0.00     0.048 A 
ATOM     26  O   UNL A   1      32.289  23.126  27.182  1.00  0.00    -0.467 OA
ATOM     27  C   UNL A   1      30.097  23.292  26.748  1.00  0.00     0.042 A 
ATOM     28  C   UNL A   1      31.046  23.097  27.721  1.00  0.00     0.195 A 
ENDBRANCH  12  24
ENDBRANCH   7   9
ENDBRANCH   6   7
ENDBRANCH   5   6
ENDBRANCH   4   5
ENDBRANCH   3   4
ENDBRANCH   2   3
ENDBRANCH   1   2
BRANCH   1  29
ATOM     29  O   UNL A   1      32.274  29.806  27.225  1.00  0.00    -0.376 OA
BRANCH  29  30
ATOM     30  C   UNL A   1      33.496  30.402  26.819  1.00  0.00     0.202 C 
BRANCH  30  31
ATOM     31  C   UNL A   1      34.468  31.067  27.803  1.00  0.00     0.261 C 
BRANCH  31  32
ATOM     32  O   UNL A   1      35.409  30.193  28.430  1.00  0.00    -0.460 OA
BRANCH  32  33
ATOM     33  C   UNL A   1      36.337  30.817  29.198  1.00  0.00     0.338 C 
ATOM     34  O   UNL A   1      36.150  31.700  30.017  1.00  0.00    -0.246 OA
BRANCH  33  35
ATOM     35  C   UNL A   1      37.628  30.132  29.030  1.00  0.00     0.060 A 
ATOM     36  C   UNL A   1      38.398  29.863  30.169  1.00  0.00     0.016 A 
ATOM     37  C   UNL A   1      38.083  29.790  27.757  1.00  0.00     0.016 A 
ATOM     38  C   UNL A   1      39.645  29.257  30.036  1.00  0.00     0.010 A 
ATOM     39  C   UNL A   1      39.343  29.208  27.624  1.00  0.00     0.010 A 
ATOM     40  C   UNL A   1      40.137  28.961  28.759  1.00  0.00    -0.014 A 
BRANCH  40  41
ATOM     41  C   UNL A   1      41.544  28.545  28.578  1.00  0.00     0.031 A 
ATOM     42  C   UNL A   1      42.613  29.599  28.631  1.00  0.00     0.074 A 
ATOM     43  C   UNL A   1      41.862  27.260  28.339  1.00  0.00     0.049 A 
ATOM     44  N   UNL A   1      43.890  29.493  28.383  1.00  0.00    -0.248 NA
ATOM     45  C   UNL A   1      42.179  30.954  29.015  1.00  0.00     0.031 C 
ATOM     46  C   UNL A   1      40.916  26.143  28.316  1.00  0.00     0.029 A 
ATOM     47  N   UNL A   1      43.072  26.686  28.045  1.00  0.00    -0.354 N 
ATOM     48  C   UNL A   1      44.413  30.769  28.559  1.00  0.00     0.074 A 
ATOM     49  C   UNL A   1      43.314  31.633  28.927  1.00  0.00     0.031 C 
ATOM     50  C   UNL A   1      41.581  25.020  27.993  1.00  0.00     0.029 A 
ATOM     51  C   UNL A   1      42.986  25.346  27.751  1.00  0.00     0.049 A 
ATOM     52  H   UNL A   1      43.921  27.185  28.046  1.00  0.00     0.167 HD
ATOM     53  C   UNL A   1      45.694  31.182  28.419  1.00  0.00     0.031 A 
ATOM     54  C   UNL A   1      43.926  24.492  27.300  1.00  0.00     0.031 A 
ATOM     55  C   UNL A   1      46.777  30.324  28.029  1.00  0.00     0.049 A 
ATOM     56  C   UNL A   1      45.329  24.995  27.072  1.00  0.00     0.074 A 
ATOM     57  C   UNL A   1      48.115  30.644  27.872  1.00  0.00     0.029 A 
ATOM     58  N   UNL A   1      46.648  28.978  27.719  1.00  0.00    -0.354 N 
ATOM     59  N   UNL A   1      45.817  26.197  27.267  1.00  0.00    -0.248 NA
ATOM     60  C   UNL A   1      46.309  24.023  26.563  1.00  0.00     0.031 C 
ATOM     61  C   UNL A   1      48.784  29.503  27.417  1.00  0.00     0.029 A 
ATOM     62  C   UNL A   1      47.875  28.459  27.348  1.00  0.00     0.049 A 
ATOM     63  H   UNL A   1      45.806  28.469  27.759  1.00  0.00     0.167 HD
ATOM     64  C   UNL A   1      47.165  26.119  26.933  1.00  0.00     0.074 A 
ATOM     65  C   UNL A   1      47.419  24.751  26.531  1.00  0.00     0.031 C 
ATOM     66  C   UNL A   1      48.110  27.091  26.962  1.00  0.00     0.031 A 
BRANCH  53  67
ATOM     67  C   UNL A   1      45.980  32.640  28.652  1.00  0.00    -0.014 A 
ATOM     68  C   UNL A   1      45.785  33.592  27.636  1.00  0.00     0.010 A 
ATOM     69  C   UNL A   1      46.420  33.068  29.918  1.00  0.00     0.010 A 
ATOM     70  C   UNL A   1      46.058  34.942  27.871  1.00  0.00     0.020 A 
ATOM     71  C   UNL A   1      46.670  34.420  30.165  1.00  0.00     0.020 A 
ATOM     72  C   UNL A   1      46.502  35.346  29.135  1.00  0.00     0.054 A 
BRANCH  72  73
ATOM     73  S   UNL A   1      46.827  37.107  29.420  1.00  0.00     0.124 S 
ATOM     74  O   UNL A   1      47.495  37.494  28.180  1.00  0.00    -0.237 OA
ATOM     75  O   UNL A   1      45.485  37.654  29.607  1.00  0.00    -0.237 OA
ATOM     76  O   UNL A   1      47.671  37.116  30.612  1.00  0.00    -0.744 OA
ENDBRANCH  72  73
ENDBRANCH  53  67
BRANCH  54  77
ATOM     77  C   UNL A   1      43.568  23.080  26.998  1.00  0.00    -0.014 A 
ATOM     78  C   UNL A   1      43.755  22.552  25.709  1.00  0.00     0.010 A 
ATOM     79  C   UNL A   1      43.026  22.255  28.002  1.00  0.00     0.010 A 
ATOM     80  C   UNL A   1      43.389  21.234  25.423  1.00  0.00     0.020 A 
ATOM     81  C   UNL A   1      42.683  20.928  27.727  1.00  0.00     0.020 A 
ATOM     82  C   UNL A   1      42.855  20.430  26.435  1.00  0.00     0.054 A 
BRANCH  82  83
ATOM     83  S   UNL A   1      42.421  18.709  26.051  1.00  0.00     0.124 S 
ATOM     84  O   UNL A   1      43.335  18.405  24.955  1.00  0.00    -0.237 OA
ATOM     85  O   UNL A   1      42.694  18.025  27.312  1.00  0.00    -0.237 OA
ATOM     86  O   UNL A   1      41.008  18.787  25.686  1.00  0.00    -0.744 OA
ENDBRANCH  82  83
ENDBRANCH  54  77
BRANCH  66  87
ATOM     87  C   UNL A   1      49.520  26.710  26.593  1.00  0.00    -0.014 A 
ATOM     88  C   UNL A   1      50.136  27.218  25.437  1.00  0.00     0.010 A 
ATOM     89  C   UNL A   1      50.265  25.898  27.469  1.00  0.00     0.010 A 
ATOM     90  C   UNL A   1      51.469  26.906  25.153  1.00  0.00     0.020 A 
ATOM     91  C   UNL A   1      51.604  25.605  27.202  1.00  0.00     0.020 A 
ATOM     92  C   UNL A   1      52.196  26.104  26.040  1.00  0.00     0.054 A 
BRANCH  92  93
ATOM     93  S   UNL A   1      53.943  25.769  25.685  1.00  0.00     0.124 S 
ATOM     94  O   UNL A   1      54.465  27.110  25.437  1.00  0.00    -0.237 OA
ATOM     95  O   UNL A   1      54.405  25.131  26.916  1.00  0.00    -0.237 OA
ATOM     96  O   UNL A   1      53.898  24.891  24.517  1.00  0.00    -0.744 OA
ENDBRANCH  92  93
ENDBRANCH  66  87
ENDBRANCH  40  41
ENDBRANCH  33  35
ENDBRANCH  32  33
ENDBRANCH  31  32
ENDBRANCH  30  31
ENDBRANCH  29  30
ENDBRANCH   1  29
TORSDOF 23
ENDMDL
MODEL 2
REMARK VINA RESULT:     -10.3      3.009      9.005
REMARK SMILES CS(=O)(=O)c1ccc(N2N=C(C(=O)OCCOCCOCCOC(=O)c3ccc(-c4c5nc(c(-c6ccc(S(=O)(=O)[O-])cc6)c6ccc([nH]6)c(-c6ccc(S(=O)(=O)[O-])cc6)c6nc(c(-c7ccc(S(=O)(=O)[O-])cc7)c7ccc4[nH]7)C=C6)C=C5)cc3)C[C@H]2c2ccco2)cc1
REMARK SMILES IDX 19 1 18 2 17 3 16 4 15 5 14 6 12 7 13 8 11 9 9 10 10 11
REMARK SMILES IDX 87 12 86 13 8 14 5 15 6 16 94 17 7 18 93 19 2 20 1 21 3 22
REMARK SMILES IDX 4 23 88 24 89 25 92 26 90 27 91 28 20 29 21 30 22 31 23 32
REMARK SMILES IDX 24 33 25 34 26 35 27 36 85 37 28 38 84 39 29 40 30 41 31 42
REMARK SMILES IDX 78 43 32 44 83 45 77 46 79 47 33 48 82 49 76 50 75 51 34 53
REMARK SMILES IDX 64 54 45 55 63 56 46 57 49 58 62 59 80 60 47 61 48 62 61 64
REMARK SMILES IDX 81 65 50 66 35 67 36 68 44 69 37 70 43 71 38 72 39 73 40 74
REMARK SMILES IDX 41 75 42 76 65 77 66 78 74 79 67 80 73 81 68 82 69 83 70 84
REMARK SMILES IDX 71 85 72 86 51 87 52 88 60 89 53 90 59 91 54 92 55 93 56 94
REMARK SMILES IDX 57 95 58 96
REMARK H PARENT 79 52 49 63
REMARK Flexibility Score: inf
ROOT
ATOM      1  C   UNL A   1      36.500  21.221  25.382  1.00  0.00     0.188 C 
ENDROOT
BRANCH   1   2
ATOM      2  C   UNL A   1      36.198  22.718  25.598  1.00  0.00     0.188 C 
BRANCH   2   3
ATOM      3  O   UNL A   1      35.228  23.112  26.553  1.00  0.00    -0.376 OA
BRANCH   3   4
ATOM      4  C   UNL A   1      34.532  22.126  27.302  1.00  0.00     0.202 C 
BRANCH   4   5
ATOM      5  C   UNL A   1      33.007  22.177  27.397  1.00  0.00     0.261 C 
BRANCH   5   6
ATOM      6  O   UNL A   1      32.427  22.803  26.247  1.00  0.00    -0.459 OA
BRANCH   6   7
ATOM      7  C   UNL A   1      31.408  23.647  26.523  1.00  0.00     0.354 C 
ATOM      8  O   UNL A   1      30.470  23.465  27.258  1.00  0.00    -0.245 OA
BRANCH   7   9
ATOM      9  C   UNL A   1      31.655  24.952  25.809  1.00  0.00     0.148 C 
ATOM     10  N   UNL A   1      31.329  26.828  24.900  1.00  0.00    -0.254 N 
ATOM     11  N   UNL A   1      30.726  25.841  25.620  1.00  0.00    -0.169 NA
ATOM     12  C   UNL A   1      32.649  26.433  24.377  1.00  0.00     0.180 C 
ATOM     13  C   UNL A   1      33.033  25.325  25.367  1.00  0.00     0.101 C 
BRANCH  10  14
ATOM     14  C   UNL A   1      30.590  27.905  24.432  1.00  0.00     0.060 A 
ATOM     15  C   UNL A   1      29.245  30.116  23.326  1.00  0.00     0.067 A 
ATOM     16  C   UNL A   1      30.327  30.322  24.183  1.00  0.00     0.022 A 
ATOM     17  C   UNL A   1      28.796  28.822  23.057  1.00  0.00     0.022 A 
ATOM     18  C   UNL A   1      30.986  29.216  24.736  1.00  0.00     0.029 A 
ATOM     19  C   UNL A   1      29.461  27.730  23.622  1.00  0.00     0.029 A 
BRANCH  15  20
ATOM     20  S   UNL A   1      28.502  31.499  22.490  1.00  0.00     0.175 S 
ATOM     21  C   UNL A   1      28.065  30.902  20.880  1.00  0.00     0.163 C 
ATOM     22  O   UNL A   1      29.529  32.512  22.322  1.00  0.00    -0.224 OA
ATOM     23  O   UNL A   1      27.283  31.806  23.216  1.00  0.00    -0.224 OA
ENDBRANCH  15  20
ENDBRANCH  10  14
BRANCH  12  24
ATOM     24  C   UNL A   1      32.715  25.945  22.955  1.00  0.00     0.128 A 
ATOM     25  C   UNL A   1      32.703  26.594  21.734  1.00  0.00     0.048 A 
ATOM     26  O   UNL A   1      32.841  24.599  22.748  1.00  0.00    -0.467 OA
ATOM     27  C   UNL A   1      32.809  25.592  20.740  1.00  0.00     0.042 A 
ATOM     28  C   UNL A   1      32.902  24.397  21.409  1.00  0.00     0.195 A 
ENDBRANCH  12  24
ENDBRANCH   7   9
ENDBRANCH   6   7
ENDBRANCH   5   6
ENDBRANCH   4   5
ENDBRANCH   3   4
ENDBRANCH   2   3
ENDBRANCH   1   2
BRANCH   1  29
ATOM     29  O   UNL A   1      37.695  20.788  24.763  1.00  0.00    -0.376 OA
BRANCH  29  30
ATOM     30  C   UNL A   1      38.187  19.477  24.999  1.00  0.00     0.202 C 
BRANCH  30  31
ATOM     31  C   UNL A   1      39.510  19.201  25.725  1.00  0.00     0.261 C 
BRANCH  31  32
ATOM     32  O   UNL A   1      40.015  20.274  26.523  1.00  0.00    -0.460 OA
BRANCH  32  33
ATOM     33  C   UNL A   1      41.361  20.271  26.691  1.00  0.00     0.338 C 
ATOM     34  O   UNL A   1      42.136  19.359  26.460  1.00  0.00    -0.246 OA
BRANCH  33  35
ATOM     35  C   UNL A   1      41.797  21.633  27.036  1.00  0.00     0.060 A 
ATOM     36  C   UNL A   1      41.783  22.615  26.036  1.00  0.00     0.016 A 
ATOM     37  C   UNL A   1      42.245  21.925  28.324  1.00  0.00     0.016 A 
ATOM     38  C   UNL A   1      42.232  23.902  26.321  1.00  0.00     0.010 A 
ATOM     39  C   UNL A   1      42.720  23.206  28.600  1.00  0.00     0.010 A 
ATOM     40  C   UNL A   1      42.737  24.191  27.595  1.00  0.00    -0.014 A 
BRANCH  40  41
ATOM     41  C   UNL A   1      43.439  25.468  27.849  1.00  0.00     0.031 A 
ATOM     42  C   UNL A   1      42.635  26.640  28.336  1.00  0.00     0.074 A 
ATOM     43  C   UNL A   1      44.758  25.591  27.618  1.00  0.00     0.049 A 
ATOM     44  N   UNL A   1      43.005  27.880  28.509  1.00  0.00    -0.248 NA
ATOM     45  C   UNL A   1      41.225  26.374  28.671  1.00  0.00     0.031 C 
ATOM     46  C   UNL A   1      45.649  24.511  27.192  1.00  0.00     0.029 A 
ATOM     47  N   UNL A   1      45.570  26.694  27.686  1.00  0.00    -0.354 N 
ATOM     48  C   UNL A   1      41.871  28.550  28.953  1.00  0.00     0.074 A 
ATOM     49  C   UNL A   1      40.799  27.581  29.016  1.00  0.00     0.031 C 
ATOM     50  C   UNL A   1      46.882  25.015  27.010  1.00  0.00     0.029 A 
ATOM     51  C   UNL A   1      46.857  26.454  27.267  1.00  0.00     0.049 A 
ATOM     52  H   UNL A   1      45.262  27.573  28.006  1.00  0.00     0.167 HD
ATOM     53  C   UNL A   1      41.736  29.858  29.274  1.00  0.00     0.031 A 
ATOM     54  C   UNL A   1      47.884  27.306  27.076  1.00  0.00     0.031 A 
ATOM     55  C   UNL A   1      42.798  30.821  29.187  1.00  0.00     0.049 A 
ATOM     56  C   UNL A   1      47.685  28.773  27.361  1.00  0.00     0.074 A 
ATOM     57  C   UNL A   1      42.765  32.168  29.501  1.00  0.00     0.029 A 
ATOM     58  N   UNL A   1      44.081  30.544  28.739  1.00  0.00    -0.354 N 
ATOM     59  N   UNL A   1      46.617  29.390  27.806  1.00  0.00    -0.248 NA
ATOM     60  C   UNL A   1      48.834  29.659  27.119  1.00  0.00     0.031 C 
ATOM     61  C   UNL A   1      44.015  32.717  29.194  1.00  0.00     0.029 A 
ATOM     62  C   UNL A   1      44.842  31.699  28.745  1.00  0.00     0.049 A 
ATOM     63  H   UNL A   1      44.402  29.656  28.458  1.00  0.00     0.167 HD
ATOM     64  C   UNL A   1      46.973  30.730  27.924  1.00  0.00     0.074 A 
ATOM     65  C   UNL A   1      48.358  30.834  27.512  1.00  0.00     0.031 C 
ATOM     66  C   UNL A   1      46.223  31.780  28.341  1.00  0.00     0.031 A 
BRANCH  53  67
ATOM     67  C   UNL A   1      40.376  30.326  29.710  1.00  0.00    -0.014 A 
ATOM     68  C   UNL A   1      40.071  30.520  31.069  1.00  0.00     0.010 A 
ATOM     69  C   UNL A   1      39.395  30.609  28.741  1.00  0.00     0.010 A 
ATOM     70  C   UNL A   1      38.801  30.955  31.454  1.00  0.00     0.020 A 
ATOM     71  C   UNL A   1      38.131  31.068  29.120  1.00  0.00     0.020 A 
ATOM     72  C   UNL A   1      37.837  31.223  30.475  1.00  0.00     0.054 A 
BRANCH  72  73
ATOM     73  S   UNL A   1      36.203  31.808  31.001  1.00  0.00     0.124 S 
ATOM     74  O   UNL A   1      35.343  31.287  29.941  1.00  0.00    -0.237 OA
ATOM     75  O   UNL A   1      36.042  31.176  32.308  1.00  0.00    -0.237 OA
ATOM     76  O   UNL A   1      36.348  33.261  31.029  1.00  0.00    -0.744 OA
ENDBRANCH  72  73
ENDBRANCH  53  67
BRANCH  54  77
ATOM     77  C   UNL A   1      49.183  26.803  26.555  1.00  0.00    -0.014 A 
ATOM     78  C   UNL A   1      50.177  26.337  27.432  1.00  0.00     0.010 A 
ATOM     79  C   UNL A   1      49.438  26.798  25.170  1.00  0.00     0.010 A 
ATOM     80  C   UNL A   1      51.407  25.894  26.939  1.00  0.00     0.020 A 
ATOM     81  C   UNL A   1      50.657  26.331  24.670  1.00  0.00     0.020 A 
ATOM     82  C   UNL A   1      51.639  25.894  25.560  1.00  0.00     0.054 A 
BRANCH  82  83
ATOM     83  S   UNL A   1      53.230  25.279  24.939  1.00  0.00     0.124 S 
ATOM     84  O   UNL A   1      54.179  26.160  25.611  1.00  0.00    -0.237 OA
ATOM     85  O   UNL A   1      53.229  23.889  25.387  1.00  0.00    -0.237 OA
ATOM     86  O   UNL A   1      53.124  25.459  23.492  1.00  0.00    -0.744 OA
ENDBRANCH  82  83
ENDBRANCH  54  77
BRANCH  66  87
ATOM     87  C   UNL A   1      46.888  33.129  28.421  1.00  0.00    -0.014 A 
ATOM     88  C   UNL A   1      46.826  34.039  27.352  1.00  0.00     0.010 A 
ATOM     89  C   UNL A   1      47.510  33.520  29.621  1.00  0.00     0.010 A 
ATOM     90  C   UNL A   1      47.391  35.312  27.476  1.00  0.00     0.020 A 
ATOM     91  C   UNL A   1      48.052  34.800  29.758  1.00  0.00     0.020 A 
ATOM     92  C   UNL A   1      47.997  35.686  28.680  1.00  0.00     0.054 A 
BRANCH  92  93
ATOM     93  S   UNL A   1      48.662  37.366  28.841  1.00  0.00     0.124 S 
ATOM     94  O   UNL A   1      50.099  37.137  28.720  1.00  0.00    -0.237 OA
ATOM     95  O   UNL A   1      48.041  38.066  27.719  1.00  0.00    -0.237 OA
ATOM     96  O   UNL A   1      48.207  37.795  30.162  1.00  0.00    -0.744 OA
ENDBRANCH  92  93
ENDBRANCH  66  87
ENDBRANCH  40  41
ENDBRANCH  33  35
ENDBRANCH  32  33
ENDBRANCH  31  32
ENDBRANCH  30  31
ENDBRANCH  29  30
ENDBRANCH   1  29
TORSDOF 23
ENDMDL
MODEL 3
REMARK VINA RESULT:     -10.0      6.698     12.316
REMARK SMILES CS(=O)(=O)c1ccc(N2N=C(C(=O)OCCOCCOCCOC(=O)c3ccc(-c4c5nc(c(-c6ccc(S(=O)(=O)[O-])cc6)c6ccc([nH]6)c(-c6ccc(S(=O)(=O)[O-])cc6)c6nc(c(-c7ccc(S(=O)(=O)[O-])cc7)c7ccc4[nH]7)C=C6)C=C5)cc3)C[C@H]2c2ccco2)cc1
REMARK SMILES IDX 19 1 18 2 17 3 16 4 15 5 14 6 12 7 13 8 11 9 9 10 10 11
REMARK SMILES IDX 87 12 86 13 8 14 5 15 6 16 94 17 7 18 93 19 2 20 1 21 3 22
REMARK SMILES IDX 4 23 88 24 89 25 92 26 90 27 91 28 20 29 21 30 22 31 23 32
REMARK SMILES IDX 24 33 25 34 26 35 27 36 85 37 28 38 84 39 29 40 30 41 31 42
REMARK SMILES IDX 78 43 32 44 83 45 77 46 79 47 33 48 82 49 76 50 75 51 34 53
REMARK SMILES IDX 64 54 45 55 63 56 46 57 49 58 62 59 80 60 47 61 48 62 61 64
REMARK SMILES IDX 81 65 50 66 35 67 36 68 44 69 37 70 43 71 38 72 39 73 40 74
REMARK SMILES IDX 41 75 42 76 65 77 66 78 74 79 67 80 73 81 68 82 69 83 70 84
REMARK SMILES IDX 71 85 72 86 51 87 52 88 60 89 53 90 59 91 54 92 55 93 56 94
REMARK SMILES IDX 57 95 58 96
REMARK H PARENT 79 52 49 63
REMARK Flexibility Score: inf
ROOT
ATOM      1  C   UNL A   1      37.147  22.179  24.241  1.00  0.00     0.188 C 
ENDROOT
BRANCH   1   2
ATOM      2  C   UNL A   1      35.929  23.114  24.394  1.00  0.00     0.188 C 
BRANCH   2   3
ATOM      3  O   UNL A   1      35.451  23.840  23.276  1.00  0.00    -0.376 OA
BRANCH   3   4
ATOM      4  C   UNL A   1      34.314  23.372  22.562  1.00  0.00     0.202 C 
BRANCH   4   5
ATOM      5  C   UNL A   1      32.952  24.028  22.785  1.00  0.00     0.261 C 
BRANCH   5   6
ATOM      6  O   UNL A   1      32.440  24.605  21.578  1.00  0.00    -0.459 OA
BRANCH   6   7
ATOM      7  C   UNL A   1      32.725  25.917  21.422  1.00  0.00     0.354 C 
ATOM      8  O   UNL A   1      33.223  26.462  20.469  1.00  0.00    -0.245 OA
BRANCH   7   9
ATOM      9  C   UNL A   1      32.238  26.665  22.637  1.00  0.00     0.148 C 
ATOM     10  N   UNL A   1      32.205  27.905  24.345  1.00  0.00    -0.254 N 
ATOM     11  N   UNL A   1      32.984  27.492  23.305  1.00  0.00    -0.169 NA
ATOM     12  C   UNL A   1      30.979  27.103  24.497  1.00  0.00     0.180 C 
ATOM     13  C   UNL A   1      30.812  26.556  23.072  1.00  0.00     0.101 C 
BRANCH  10  14
ATOM     14  C   UNL A   1      32.730  28.731  25.328  1.00  0.00     0.060 A 
ATOM     15  C   UNL A   1      33.883  30.527  27.163  1.00  0.00     0.067 A 
ATOM     16  C   UNL A   1      34.668  29.528  26.586  1.00  0.00     0.022 A 
ATOM     17  C   UNL A   1      32.520  30.607  26.872  1.00  0.00     0.022 A 
ATOM     18  C   UNL A   1      34.085  28.632  25.680  1.00  0.00     0.029 A 
ATOM     19  C   UNL A   1      31.952  29.701  25.972  1.00  0.00     0.029 A 
BRANCH  15  20
ATOM     20  S   UNL A   1      34.640  31.770  28.186  1.00  0.00     0.175 S 
ATOM     21  C   UNL A   1      33.724  33.256  27.885  1.00  0.00     0.163 C 
ATOM     22  O   UNL A   1      35.991  31.976  27.695  1.00  0.00    -0.224 OA
ATOM     23  O   UNL A   1      34.416  31.356  29.559  1.00  0.00    -0.224 OA
ENDBRANCH  15  20
ENDBRANCH  10  14
BRANCH  12  24
ATOM     24  C   UNL A   1      30.996  25.992  25.513  1.00  0.00     0.128 A 
ATOM     25  C   UNL A   1      31.987  25.474  26.325  1.00  0.00     0.048 A 
ATOM     26  O   UNL A   1      29.823  25.331  25.755  1.00  0.00    -0.467 OA
ATOM     27  C   UNL A   1      31.390  24.438  27.084  1.00  0.00     0.042 A 
ATOM     28  C   UNL A   1      30.070  24.400  26.707  1.00  0.00     0.195 A 
ENDBRANCH  12  24
ENDBRANCH   7   9
ENDBRANCH   6   7
ENDBRANCH   5   6
ENDBRANCH   4   5
ENDBRANCH   3   4
ENDBRANCH   2   3
ENDBRANCH   1   2
BRANCH   1  29
ATOM     29  O   UNL A   1      37.923  21.784  25.355  1.00  0.00    -0.376 OA
BRANCH  29  30
ATOM     30  C   UNL A   1      38.218  22.715  26.385  1.00  0.00     0.202 C 
BRANCH  30  31
ATOM     31  C   UNL A   1      39.568  23.436  26.497  1.00  0.00     0.261 C 
BRANCH  31  32
ATOM     32  O   UNL A   1      39.634  24.481  27.468  1.00  0.00    -0.460 OA
BRANCH  32  33
ATOM     33  C   UNL A   1      40.159  25.647  27.013  1.00  0.00     0.338 C 
ATOM     34  O   UNL A   1      40.539  25.897  25.883  1.00  0.00    -0.246 OA
BRANCH  33  35
ATOM     35  C   UNL A   1      40.038  26.663  28.069  1.00  0.00     0.060 A 
ATOM     36  C   UNL A   1      40.742  27.867  27.925  1.00  0.00     0.016 A 
ATOM     37  C   UNL A   1      39.264  26.414  29.202  1.00  0.00     0.016 A 
ATOM     38  C   UNL A   1      40.683  28.829  28.930  1.00  0.00     0.010 A 
ATOM     39  C   UNL A   1      39.228  27.368  30.219  1.00  0.00     0.010 A 
ATOM     40  C   UNL A   1      39.955  28.567  30.097  1.00  0.00    -0.014 A 
BRANCH  40  41
ATOM     41  C   UNL A   1      40.074  29.461  31.269  1.00  0.00     0.031 A 
ATOM     42  C   UNL A   1      41.207  29.233  32.228  1.00  0.00     0.074 A 
ATOM     43  C   UNL A   1      39.173  30.434  31.492  1.00  0.00     0.049 A 
ATOM     44  N   UNL A   1      41.443  29.805  33.378  1.00  0.00    -0.248 NA
ATOM     45  C   UNL A   1      42.205  28.222  31.837  1.00  0.00     0.031 C 
ATOM     46  C   UNL A   1      38.062  30.781  30.605  1.00  0.00     0.029 A 
ATOM     47  N   UNL A   1      39.041  31.293  32.553  1.00  0.00    -0.354 N 
ATOM     48  C   UNL A   1      42.604  29.212  33.860  1.00  0.00     0.074 A 
ATOM     49  C   UNL A   1      43.020  28.231  32.882  1.00  0.00     0.031 C 
ATOM     50  C   UNL A   1      37.344  31.764  31.175  1.00  0.00     0.029 A 
ATOM     51  C   UNL A   1      37.920  32.086  32.480  1.00  0.00     0.049 A 
ATOM     52  H   UNL A   1      39.687  31.339  33.294  1.00  0.00     0.167 HD
ATOM     53  C   UNL A   1      43.260  29.461  35.017  1.00  0.00     0.031 A 
ATOM     54  C   UNL A   1      37.400  32.942  33.381  1.00  0.00     0.031 A 
ATOM     55  C   UNL A   1      42.828  30.419  35.996  1.00  0.00     0.049 A 
ATOM     56  C   UNL A   1      38.104  33.140  34.700  1.00  0.00     0.074 A 
ATOM     57  C   UNL A   1      43.431  30.753  37.196  1.00  0.00     0.029 A 
ATOM     58  N   UNL A   1      41.678  31.187  35.897  1.00  0.00    -0.354 N 
ATOM     59  N   UNL A   1      39.215  32.594  35.132  1.00  0.00    -0.248 NA
ATOM     60  C   UNL A   1      37.482  34.074  35.651  1.00  0.00     0.031 C 
ATOM     61  C   UNL A   1      42.617  31.687  37.846  1.00  0.00     0.029 A 
ATOM     62  C   UNL A   1      41.539  31.976  37.024  1.00  0.00     0.049 A 
ATOM     63  H   UNL A   1      41.053  31.172  35.136  1.00  0.00     0.167 HD
ATOM     64  C   UNL A   1      39.441  33.139  36.393  1.00  0.00     0.074 A 
ATOM     65  C   UNL A   1      38.356  34.063  36.650  1.00  0.00     0.031 C 
ATOM     66  C   UNL A   1      40.457  32.900  37.258  1.00  0.00     0.031 A 
BRANCH  53  67
ATOM     67  C   UNL A   1      44.493  28.649  35.301  1.00  0.00    -0.014 A 
ATOM     68  C   UNL A   1      45.759  29.061  34.848  1.00  0.00     0.010 A 
ATOM     69  C   UNL A   1      44.388  27.470  36.063  1.00  0.00     0.010 A 
ATOM     70  C   UNL A   1      46.893  28.293  35.121  1.00  0.00     0.020 A 
ATOM     71  C   UNL A   1      45.523  26.711  36.360  1.00  0.00     0.020 A 
ATOM     72  C   UNL A   1      46.766  27.119  35.874  1.00  0.00     0.054 A 
BRANCH  72  73
ATOM     73  S   UNL A   1      48.257  26.152  36.234  1.00  0.00     0.124 S 
ATOM     74  O   UNL A   1      47.806  25.305  37.335  1.00  0.00    -0.237 OA
ATOM     75  O   UNL A   1      48.503  25.461  34.970  1.00  0.00    -0.237 OA
ATOM     76  O   UNL A   1      49.249  27.163  36.590  1.00  0.00    -0.744 OA
ENDBRANCH  72  73
ENDBRANCH  53  67
BRANCH  54  77
ATOM     77  C   UNL A   1      36.126  33.652  33.087  1.00  0.00    -0.014 A 
ATOM     78  C   UNL A   1      36.127  35.011  32.730  1.00  0.00     0.010 A 
ATOM     79  C   UNL A   1      34.897  32.969  33.172  1.00  0.00     0.010 A 
ATOM     80  C   UNL A   1      34.925  35.680  32.484  1.00  0.00     0.020 A 
ATOM     81  C   UNL A   1      33.695  33.627  32.901  1.00  0.00     0.020 A 
ATOM     82  C   UNL A   1      33.715  34.983  32.571  1.00  0.00     0.054 A 
BRANCH  82  83
ATOM     83  S   UNL A   1      32.169  35.863  32.211  1.00  0.00     0.124 S 
ATOM     84  O   UNL A   1      32.087  35.749  30.759  1.00  0.00    -0.237 OA
ATOM     85  O   UNL A   1      31.184  35.092  32.964  1.00  0.00    -0.237 OA
ATOM     86  O   UNL A   1      32.417  37.210  32.721  1.00  0.00    -0.744 OA
ENDBRANCH  82  83
ENDBRANCH  54  77
BRANCH  66  87
ATOM     87  C   UNL A   1      40.480  33.677  38.546  1.00  0.00    -0.014 A 
ATOM     88  C   UNL A   1      41.076  34.947  38.624  1.00  0.00     0.010 A 
ATOM     89  C   UNL A   1      39.815  33.161  39.675  1.00  0.00     0.010 A 
ATOM     90  C   UNL A   1      41.022  35.681  39.813  1.00  0.00     0.020 A 
ATOM     91  C   UNL A   1      39.737  33.901  40.856  1.00  0.00     0.020 A 
ATOM     92  C   UNL A   1      40.350  35.154  40.921  1.00  0.00     0.054 A 
BRANCH  92  93
ATOM     93  S   UNL A   1      40.236  36.153  42.432  1.00  0.00     0.124 S 
ATOM     94  O   UNL A   1      41.639  36.445  42.709  1.00  0.00    -0.237 OA
ATOM     95  O   UNL A   1      39.428  37.292  42.003  1.00  0.00    -0.237 OA
ATOM     96  O   UNL A   1      39.583  35.261  43.388  1.00  0.00    -0.744 OA
ENDBRANCH  92  93
ENDBRANCH  66  87
ENDBRANCH  40  41
ENDBRANCH  33  35
ENDBRANCH  32  33
ENDBRANCH  31  32
ENDBRANCH  30  31
ENDBRANCH  29  30
ENDBRANCH   1  29
TORSDOF 23
ENDMDL
