MODEL 1
REMARK VINA RESULT:      -9.7      0.000      0.000
REMARK SMILES Nc1c(CC(=O)OCCOCCOCCOC(=O)c2ccc(-c3c4nc(c(-c5ccc(S(=O)(=O)[O-])cc5)c5ccc([nH]5)c(-c5ccc(S(=O)(=O)[O-])cc5)c5nc(c(-c6ccc(S(=O)(=O)[O-])cc6)c6ccc3[nH]6)C=C5)C=C4)cc2)cccc1C(=O)c1ccc(Br)cc1
REMARK SMILES IDX 11 1 10 2 9 3 8 4 7 5 5 6 6 7 4 8 3 9 2 10 82 11 79 12 81 13
REMARK SMILES IDX 80 14 1 15 83 18 84 19 85 20 86 21 91 22 87 23 90 24 88 25
REMARK SMILES IDX 89 26 12 27 13 28 14 29 15 30 16 31 17 32 18 33 19 34 20 35
REMARK SMILES IDX 78 36 21 37 77 38 22 39 23 40 24 41 71 42 25 43 76 44 70 45
REMARK SMILES IDX 72 46 26 47 75 48 69 49 68 50 27 52 57 53 38 54 56 55 39 56
REMARK SMILES IDX 42 57 55 58 73 59 40 60 41 61 54 63 74 64 43 65 28 66 29 67
REMARK SMILES IDX 37 68 30 69 36 70 31 71 32 72 33 73 34 74 35 75 58 76 59 77
REMARK SMILES IDX 67 78 60 79 66 80 61 81 62 82 63 83 64 84 65 85 44 86 45 87
REMARK SMILES IDX 53 88 46 89 52 90 47 91 48 92 49 93 50 94 51 95
REMARK H PARENT 1 16 1 17 72 51 42 62
REMARK Flexibility Score: inf
ROOT
ATOM      1  C   UNL A   1      32.845  28.024  24.895  1.00  0.00     0.188 C 
ENDROOT
BRANCH   1   2
ATOM      2  O   UNL A   1      31.664  27.445  25.455  1.00  0.00    -0.376 OA
BRANCH   2   3
ATOM      3  C   UNL A   1      30.536  27.231  24.616  1.00  0.00     0.202 C 
BRANCH   3   4
ATOM      4  C   UNL A   1      29.626  26.058  24.998  1.00  0.00     0.261 C 
BRANCH   4   5
ATOM      5  O   UNL A   1      30.350  24.822  25.156  1.00  0.00    -0.463 OA
BRANCH   5   6
ATOM      6  C   UNL A   1      30.917  24.292  24.047  1.00  0.00     0.310 C 
ATOM      7  O   UNL A   1      30.280  23.925  23.064  1.00  0.00    -0.252 OA
BRANCH   6   8
ATOM      8  C   UNL A   1      32.435  24.323  24.041  1.00  0.00     0.160 C 
BRANCH   8   9
ATOM      9  C   UNL A   1      33.230  23.370  24.920  1.00  0.00    -0.013 A 
ATOM     10  C   UNL A   1      33.645  22.093  24.489  1.00  0.00     0.047 A 
ATOM     11  C   UNL A   1      34.493  21.331  25.345  1.00  0.00     0.046 A 
ATOM     12  C   UNL A   1      33.650  23.835  26.185  1.00  0.00     0.006 A 
ATOM     13  C   UNL A   1      34.807  21.782  26.636  1.00  0.00     0.014 A 
ATOM     14  C   UNL A   1      34.387  23.035  27.055  1.00  0.00     0.001 A 
BRANCH  10  15
ATOM     15  N   UNL A   1      33.218  21.627  23.250  1.00  0.00    -0.398 N 
ATOM     16  H   UNL A   1      33.632  21.974  22.426  1.00  0.00     0.156 HD
ATOM     17  H   UNL A   1      32.503  20.953  23.198  1.00  0.00     0.156 HD
ENDBRANCH  10  15
BRANCH  11  18
ATOM     18  C   UNL A   1      35.171  20.062  24.939  1.00  0.00     0.195 C 
ATOM     19  O   UNL A   1      36.353  20.054  24.604  1.00  0.00    -0.289 OA
BRANCH  18  20
ATOM     20  C   UNL A   1      34.425  18.784  24.918  1.00  0.00     0.023 A 
ATOM     21  C   UNL A   1      35.114  17.630  24.531  1.00  0.00     0.013 A 
ATOM     22  C   UNL A   1      33.106  18.703  25.381  1.00  0.00     0.013 A 
ATOM     23  C   UNL A   1      34.517  16.382  24.702  1.00  0.00     0.016 A 
ATOM     24  C   UNL A   1      32.512  17.451  25.552  1.00  0.00     0.016 A 
ATOM     25  C   UNL A   1      33.228  16.298  25.233  1.00  0.00     0.018 A 
ATOM     26  Br  UNL A   1      32.464  14.601  25.561  1.00  0.00    -0.051 Br
ENDBRANCH  18  20
ENDBRANCH  11  18
ENDBRANCH   8   9
ENDBRANCH   6   8
ENDBRANCH   5   6
ENDBRANCH   4   5
ENDBRANCH   3   4
ENDBRANCH   2   3
ENDBRANCH   1   2
BRANCH   1  27
ATOM     27  C   UNL A   1      33.052  29.546  24.995  1.00  0.00     0.188 C 
BRANCH  27  28
ATOM     28  O   UNL A   1      31.971  30.167  25.665  1.00  0.00    -0.376 OA
BRANCH  28  29
ATOM     29  C   UNL A   1      32.295  30.875  26.840  1.00  0.00     0.202 C 
BRANCH  29  30
ATOM     30  C   UNL A   1      33.523  30.310  27.562  1.00  0.00     0.261 C 
BRANCH  30  31
ATOM     31  O   UNL A   1      34.656  31.191  27.675  1.00  0.00    -0.460 OA
BRANCH  31  32
ATOM     32  C   UNL A   1      35.160  31.408  28.906  1.00  0.00     0.338 C 
ATOM     33  O   UNL A   1      34.589  31.943  29.851  1.00  0.00    -0.246 OA
BRANCH  32  34
ATOM     34  C   UNL A   1      36.470  30.732  28.990  1.00  0.00     0.060 A 
ATOM     35  C   UNL A   1      37.012  30.412  30.242  1.00  0.00     0.016 A 
ATOM     36  C   UNL A   1      37.170  30.424  27.824  1.00  0.00     0.016 A 
ATOM     37  C   UNL A   1      38.264  29.794  30.336  1.00  0.00     0.010 A 
ATOM     38  C   UNL A   1      38.429  29.829  27.918  1.00  0.00     0.010 A 
ATOM     39  C   UNL A   1      38.995  29.530  29.172  1.00  0.00    -0.014 A 
BRANCH  39  40
ATOM     40  C   UNL A   1      40.417  29.108  29.220  1.00  0.00     0.031 A 
ATOM     41  C   UNL A   1      41.456  30.160  29.492  1.00  0.00     0.074 A 
ATOM     42  C   UNL A   1      40.789  27.843  28.954  1.00  0.00     0.049 A 
ATOM     43  N   UNL A   1      42.751  30.110  29.330  1.00  0.00    -0.248 NA
ATOM     44  C   UNL A   1      40.958  31.449  30.001  1.00  0.00     0.031 C 
ATOM     45  C   UNL A   1      39.882  26.713  28.756  1.00  0.00     0.029 A 
ATOM     46  N   UNL A   1      42.041  27.305  28.772  1.00  0.00    -0.354 N 
ATOM     47  C   UNL A   1      43.221  31.371  29.681  1.00  0.00     0.074 A 
ATOM     48  C   UNL A   1      42.071  32.165  30.056  1.00  0.00     0.031 C 
ATOM     49  C   UNL A   1      40.607  25.622  28.449  1.00  0.00     0.029 A 
ATOM     50  C   UNL A   1      42.020  25.991  28.366  1.00  0.00     0.049 A 
ATOM     51  H   UNL A   1      42.872  27.813  28.917  1.00  0.00     0.167 HD
ATOM     52  C   UNL A   1      44.496  31.827  29.680  1.00  0.00     0.031 A 
ATOM     53  C   UNL A   1      43.018  25.196  27.927  1.00  0.00     0.031 A 
ATOM     54  C   UNL A   1      45.628  31.030  29.290  1.00  0.00     0.049 A 
ATOM     55  C   UNL A   1      44.418  25.752  27.834  1.00  0.00     0.074 A 
ATOM     56  C   UNL A   1      46.962  31.396  29.247  1.00  0.00     0.029 A 
ATOM     57  N   UNL A   1      45.559  29.710  28.873  1.00  0.00    -0.354 N 
ATOM     58  N   UNL A   1      44.852  26.949  28.148  1.00  0.00    -0.248 NA
ATOM     59  C   UNL A   1      45.464  24.851  27.326  1.00  0.00     0.031 C 
ATOM     60  C   UNL A   1      47.692  30.315  28.748  1.00  0.00     0.029 A 
ATOM     61  C   UNL A   1      46.824  29.251  28.554  1.00  0.00     0.049 A 
ATOM     62  H   UNL A   1      44.733  29.178  28.813  1.00  0.00     0.167 HD
ATOM     63  C   UNL A   1      46.225  26.929  27.919  1.00  0.00     0.074 A 
ATOM     64  C   UNL A   1      46.551  25.605  27.436  1.00  0.00     0.031 C 
ATOM     65  C   UNL A   1      47.135  27.917  28.104  1.00  0.00     0.031 A 
BRANCH  52  66
ATOM     66  C   UNL A   1      44.725  33.265  30.062  1.00  0.00    -0.014 A 
ATOM     67  C   UNL A   1      44.771  34.282  29.091  1.00  0.00     0.010 A 
ATOM     68  C   UNL A   1      44.860  33.608  31.419  1.00  0.00     0.010 A 
ATOM     69  C   UNL A   1      44.987  35.609  29.470  1.00  0.00     0.020 A 
ATOM     70  C   UNL A   1      45.045  34.937  31.805  1.00  0.00     0.020 A 
ATOM     71  C   UNL A   1      45.124  35.928  30.825  1.00  0.00     0.054 A 
BRANCH  71  72
ATOM     72  S   UNL A   1      45.383  37.663  31.287  1.00  0.00     0.124 S 
ATOM     73  O   UNL A   1      45.120  37.634  32.724  1.00  0.00    -0.237 OA
ATOM     74  O   UNL A   1      46.775  37.888  30.909  1.00  0.00    -0.237 OA
ATOM     75  O   UNL A   1      44.397  38.386  30.489  1.00  0.00    -0.744 OA
ENDBRANCH  71  72
ENDBRANCH  52  66
BRANCH  53  76
ATOM     76  C   UNL A   1      42.729  23.796  27.503  1.00  0.00    -0.014 A 
ATOM     77  C   UNL A   1      42.428  23.504  26.161  1.00  0.00     0.010 A 
ATOM     78  C   UNL A   1      42.743  22.746  28.441  1.00  0.00     0.010 A 
ATOM     79  C   UNL A   1      42.131  22.195  25.768  1.00  0.00     0.020 A 
ATOM     80  C   UNL A   1      42.479  21.431  28.046  1.00  0.00     0.020 A 
ATOM     81  C   UNL A   1      42.163  21.165  26.713  1.00  0.00     0.054 A 
BRANCH  81  82
ATOM     82  S   UNL A   1      41.820  19.469  26.168  1.00  0.00     0.124 S 
ATOM     83  O   UNL A   1      42.147  18.694  27.361  1.00  0.00    -0.237 OA
ATOM     84  O   UNL A   1      40.402  19.531  25.823  1.00  0.00    -0.237 OA
ATOM     85  O   UNL A   1      42.722  19.284  25.035  1.00  0.00    -0.744 OA
ENDBRANCH  81  82
ENDBRANCH  53  76
BRANCH  65  86
ATOM     86  C   UNL A   1      48.590  27.601  27.868  1.00  0.00    -0.014 A 
ATOM     87  C   UNL A   1      49.293  28.129  26.772  1.00  0.00     0.010 A 
ATOM     88  C   UNL A   1      49.290  26.862  28.841  1.00  0.00     0.010 A 
ATOM     89  C   UNL A   1      50.672  27.922  26.655  1.00  0.00     0.020 A 
ATOM     90  C   UNL A   1      50.671  26.677  28.742  1.00  0.00     0.020 A 
ATOM     91  C   UNL A   1      51.352  27.208  27.647  1.00  0.00     0.054 A 
BRANCH  91  92
ATOM     92  S   UNL A   1      53.156  27.044  27.525  1.00  0.00     0.124 S 
ATOM     93  O   UNL A   1      53.488  28.070  26.539  1.00  0.00    -0.237 OA
ATOM     94  O   UNL A   1      53.594  27.320  28.891  1.00  0.00    -0.237 OA
ATOM     95  O   UNL A   1      53.351  25.667  27.079  1.00  0.00    -0.744 OA
ENDBRANCH  91  92
ENDBRANCH  65  86
ENDBRANCH  39  40
ENDBRANCH  32  34
ENDBRANCH  31  32
ENDBRANCH  30  31
ENDBRANCH  29  30
ENDBRANCH  28  29
ENDBRANCH  27  28
ENDBRANCH   1  27
TORSDOF 24
ENDMDL
MODEL 2
REMARK VINA RESULT:      -9.4      2.761      8.800
REMARK SMILES Nc1c(CC(=O)OCCOCCOCCOC(=O)c2ccc(-c3c4nc(c(-c5ccc(S(=O)(=O)[O-])cc5)c5ccc([nH]5)c(-c5ccc(S(=O)(=O)[O-])cc5)c5nc(c(-c6ccc(S(=O)(=O)[O-])cc6)c6ccc3[nH]6)C=C5)C=C4)cc2)cccc1C(=O)c1ccc(Br)cc1
REMARK SMILES IDX 11 1 10 2 9 3 8 4 7 5 5 6 6 7 4 8 3 9 2 10 82 11 79 12 81 13
REMARK SMILES IDX 80 14 1 15 83 18 84 19 85 20 86 21 91 22 87 23 90 24 88 25
REMARK SMILES IDX 89 26 12 27 13 28 14 29 15 30 16 31 17 32 18 33 19 34 20 35
REMARK SMILES IDX 78 36 21 37 77 38 22 39 23 40 24 41 71 42 25 43 76 44 70 45
REMARK SMILES IDX 72 46 26 47 75 48 69 49 68 50 27 52 57 53 38 54 56 55 39 56
REMARK SMILES IDX 42 57 55 58 73 59 40 60 41 61 54 63 74 64 43 65 28 66 29 67
REMARK SMILES IDX 37 68 30 69 36 70 31 71 32 72 33 73 34 74 35 75 58 76 59 77
REMARK SMILES IDX 67 78 60 79 66 80 61 81 62 82 63 83 64 84 65 85 44 86 45 87
REMARK SMILES IDX 53 88 46 89 52 90 47 91 48 92 49 93 50 94 51 95
REMARK H PARENT 1 16 1 17 72 51 42 62
REMARK Flexibility Score: inf
ROOT
ATOM      1  C   UNL A   1      35.256  32.388  27.888  1.00  0.00     0.188 C 
ENDROOT
BRANCH   1   2
ATOM      2  O   UNL A   1      35.897  31.115  27.998  1.00  0.00    -0.376 OA
BRANCH   2   3
ATOM      3  C   UNL A   1      35.406  30.027  27.226  1.00  0.00     0.202 C 
BRANCH   3   4
ATOM      4  C   UNL A   1      34.161  29.320  27.773  1.00  0.00     0.261 C 
BRANCH   4   5
ATOM      5  O   UNL A   1      33.403  28.652  26.745  1.00  0.00    -0.463 OA
BRANCH   5   6
ATOM      6  C   UNL A   1      32.392  29.348  26.174  1.00  0.00     0.310 C 
ATOM      7  O   UNL A   1      32.033  30.461  26.549  1.00  0.00    -0.252 OA
BRANCH   6   8
ATOM      8  C   UNL A   1      31.819  28.711  24.920  1.00  0.00     0.160 C 
BRANCH   8   9
ATOM      9  C   UNL A   1      31.727  27.198  24.797  1.00  0.00    -0.013 A 
ATOM     10  C   UNL A   1      32.553  26.446  23.935  1.00  0.00     0.047 A 
ATOM     11  C   UNL A   1      32.470  25.024  23.988  1.00  0.00     0.046 A 
ATOM     12  C   UNL A   1      30.840  26.519  25.659  1.00  0.00     0.006 A 
ATOM     13  C   UNL A   1      31.508  24.386  24.785  1.00  0.00     0.014 A 
ATOM     14  C   UNL A   1      30.693  25.134  25.621  1.00  0.00     0.001 A 
BRANCH  10  15
ATOM     15  N   UNL A   1      33.414  27.114  23.073  1.00  0.00    -0.398 N 
ATOM     16  H   UNL A   1      33.731  28.019  23.299  1.00  0.00     0.156 HD
ATOM     17  H   UNL A   1      33.707  26.684  22.238  1.00  0.00     0.156 HD
ENDBRANCH  10  15
BRANCH  11  18
ATOM     18  C   UNL A   1      33.419  24.103  23.290  1.00  0.00     0.195 C 
ATOM     19  O   UNL A   1      33.098  23.530  22.252  1.00  0.00    -0.289 OA
BRANCH  18  20
ATOM     20  C   UNL A   1      34.767  23.849  23.846  1.00  0.00     0.023 A 
ATOM     21  C   UNL A   1      35.069  24.388  25.101  1.00  0.00     0.013 A 
ATOM     22  C   UNL A   1      35.674  23.001  23.199  1.00  0.00     0.013 A 
ATOM     23  C   UNL A   1      36.238  23.999  25.754  1.00  0.00     0.016 A 
ATOM     24  C   UNL A   1      36.843  22.613  23.856  1.00  0.00     0.016 A 
ATOM     25  C   UNL A   1      37.106  23.095  25.138  1.00  0.00     0.018 A 
ATOM     26  Br  UNL A   1      38.635  22.490  26.070  1.00  0.00    -0.051 Br
ENDBRANCH  18  20
ENDBRANCH  11  18
ENDBRANCH   8   9
ENDBRANCH   6   8
ENDBRANCH   5   6
ENDBRANCH   4   5
ENDBRANCH   3   4
ENDBRANCH   2   3
ENDBRANCH   1   2
BRANCH   1  27
ATOM     27  C   UNL A   1      34.743  33.081  29.163  1.00  0.00     0.188 C 
BRANCH  27  28
ATOM     28  O   UNL A   1      35.810  33.626  29.914  1.00  0.00    -0.376 OA
BRANCH  28  29
ATOM     29  C   UNL A   1      35.722  33.479  31.313  1.00  0.00     0.202 C 
BRANCH  29  30
ATOM     30  C   UNL A   1      35.435  32.038  31.748  1.00  0.00     0.261 C 
BRANCH  30  31
ATOM     31  O   UNL A   1      36.468  31.073  31.475  1.00  0.00    -0.460 OA
BRANCH  31  32
ATOM     32  C   UNL A   1      37.564  31.090  32.259  1.00  0.00     0.338 C 
ATOM     33  O   UNL A   1      37.606  31.331  33.461  1.00  0.00    -0.246 OA
BRANCH  32  34
ATOM     34  C   UNL A   1      38.704  30.597  31.461  1.00  0.00     0.060 A 
ATOM     35  C   UNL A   1      39.800  30.002  32.102  1.00  0.00     0.016 A 
ATOM     36  C   UNL A   1      38.695  30.734  30.073  1.00  0.00     0.016 A 
ATOM     37  C   UNL A   1      40.898  29.552  31.359  1.00  0.00     0.010 A 
ATOM     38  C   UNL A   1      39.799  30.307  29.335  1.00  0.00     0.010 A 
ATOM     39  C   UNL A   1      40.917  29.734  29.972  1.00  0.00    -0.014 A 
BRANCH  39  40
ATOM     40  C   UNL A   1      42.144  29.506  29.169  1.00  0.00     0.031 A 
ATOM     41  C   UNL A   1      42.388  28.122  28.633  1.00  0.00     0.074 A 
ATOM     42  C   UNL A   1      43.057  30.475  28.982  1.00  0.00     0.049 A 
ATOM     43  N   UNL A   1      43.481  27.604  28.140  1.00  0.00    -0.248 NA
ATOM     44  C   UNL A   1      41.244  27.197  28.677  1.00  0.00     0.031 C 
ATOM     45  C   UNL A   1      42.907  31.874  29.377  1.00  0.00     0.029 A 
ATOM     46  N   UNL A   1      44.318  30.413  28.436  1.00  0.00    -0.354 N 
ATOM     47  C   UNL A   1      43.169  26.280  27.849  1.00  0.00     0.074 A 
ATOM     48  C   UNL A   1      41.788  26.075  28.228  1.00  0.00     0.031 C 
ATOM     49  C   UNL A   1      44.043  32.533  29.088  1.00  0.00     0.029 A 
ATOM     50  C   UNL A   1      45.022  31.590  28.549  1.00  0.00     0.049 A 
ATOM     51  H   UNL A   1      44.680  29.605  28.008  1.00  0.00     0.167 HD
ATOM     52  C   UNL A   1      43.966  25.321  27.323  1.00  0.00     0.031 A 
ATOM     53  C   UNL A   1      46.321  31.858  28.297  1.00  0.00     0.031 A 
ATOM     54  C   UNL A   1      45.342  25.536  26.965  1.00  0.00     0.049 A 
ATOM     55  C   UNL A   1      47.222  30.751  27.807  1.00  0.00     0.074 A 
ATOM     56  C   UNL A   1      46.241  24.630  26.429  1.00  0.00     0.029 A 
ATOM     57  N   UNL A   1      46.019  26.737  27.108  1.00  0.00    -0.354 N 
ATOM     58  N   UNL A   1      46.926  29.498  27.554  1.00  0.00    -0.248 NA
ATOM     59  C   UNL A   1      48.633  31.091  27.572  1.00  0.00     0.031 C 
ATOM     60  C   UNL A   1      47.477  25.270  26.303  1.00  0.00     0.029 A 
ATOM     61  C   UNL A   1      47.328  26.593  26.688  1.00  0.00     0.049 A 
ATOM     62  H   UNL A   1      45.625  27.569  27.457  1.00  0.00     0.167 HD
ATOM     63  C   UNL A   1      48.101  28.916  27.087  1.00  0.00     0.074 A 
ATOM     64  C   UNL A   1      49.114  29.949  27.097  1.00  0.00     0.031 C 
ATOM     65  C   UNL A   1      48.317  27.642  26.676  1.00  0.00     0.031 A 
BRANCH  52  66
ATOM     66  C   UNL A   1      43.385  23.943  27.154  1.00  0.00    -0.014 A 
ATOM     67  C   UNL A   1      42.953  23.479  25.898  1.00  0.00     0.010 A 
ATOM     68  C   UNL A   1      43.304  23.084  28.265  1.00  0.00     0.010 A 
ATOM     69  C   UNL A   1      42.415  22.197  25.766  1.00  0.00     0.020 A 
ATOM     70  C   UNL A   1      42.797  21.790  28.132  1.00  0.00     0.020 A 
ATOM     71  C   UNL A   1      42.339  21.360  26.885  1.00  0.00     0.054 A 
BRANCH  71  72
ATOM     72  S   UNL A   1      41.655  19.693  26.678  1.00  0.00     0.124 S 
ATOM     73  O   UNL A   1      40.734  19.604  27.809  1.00  0.00    -0.237 OA
ATOM     74  O   UNL A   1      41.027  19.768  25.362  1.00  0.00    -0.237 OA
ATOM     75  O   UNL A   1      42.826  18.824  26.759  1.00  0.00    -0.744 OA
ENDBRANCH  71  72
ENDBRANCH  52  66
BRANCH  53  76
ATOM     76  C   UNL A   1      46.862  33.226  28.538  1.00  0.00    -0.014 A 
ATOM     77  C   UNL A   1      47.327  33.596  29.812  1.00  0.00     0.010 A 
ATOM     78  C   UNL A   1      46.909  34.172  27.496  1.00  0.00     0.010 A 
ATOM     79  C   UNL A   1      47.812  34.887  30.045  1.00  0.00     0.020 A 
ATOM     80  C   UNL A   1      47.423  35.454  27.717  1.00  0.00     0.020 A 
ATOM     81  C   UNL A   1      47.861  35.807  28.994  1.00  0.00     0.054 A 
BRANCH  81  82
ATOM     82  S   UNL A   1      48.537  37.461  29.311  1.00  0.00     0.124 S 
ATOM     83  O   UNL A   1      48.731  37.436  30.758  1.00  0.00    -0.237 OA
ATOM     84  O   UNL A   1      49.757  37.460  28.508  1.00  0.00    -0.237 OA
ATOM     85  O   UNL A   1      47.487  38.357  28.836  1.00  0.00    -0.744 OA
ENDBRANCH  81  82
ENDBRANCH  53  76
BRANCH  65  86
ATOM     86  C   UNL A   1      49.673  27.292  26.120  1.00  0.00    -0.014 A 
ATOM     87  C   UNL A   1      50.564  26.458  26.815  1.00  0.00     0.010 A 
ATOM     88  C   UNL A   1      50.000  27.709  24.815  1.00  0.00     0.010 A 
ATOM     89  C   UNL A   1      51.759  26.047  26.214  1.00  0.00     0.020 A 
ATOM     90  C   UNL A   1      51.178  27.278  24.201  1.00  0.00     0.020 A 
ATOM     91  C   UNL A   1      52.052  26.451  24.907  1.00  0.00     0.054 A 
BRANCH  91  92
ATOM     92  S   UNL A   1      53.556  25.819  24.113  1.00  0.00     0.124 S 
ATOM     93  O   UNL A   1      53.189  25.844  22.700  1.00  0.00    -0.237 OA
ATOM     94  O   UNL A   1      54.564  26.796  24.517  1.00  0.00    -0.237 OA
ATOM     95  O   UNL A   1      53.721  24.487  24.690  1.00  0.00    -0.744 OA
ENDBRANCH  91  92
ENDBRANCH  65  86
ENDBRANCH  39  40
ENDBRANCH  32  34
ENDBRANCH  31  32
ENDBRANCH  30  31
ENDBRANCH  29  30
ENDBRANCH  28  29
ENDBRANCH  27  28
ENDBRANCH   1  27
TORSDOF 24
ENDMDL
MODEL 3
REMARK VINA RESULT:      -8.7      4.581      7.559
REMARK SMILES Nc1c(CC(=O)OCCOCCOCCOC(=O)c2ccc(-c3c4nc(c(-c5ccc(S(=O)(=O)[O-])cc5)c5ccc([nH]5)c(-c5ccc(S(=O)(=O)[O-])cc5)c5nc(c(-c6ccc(S(=O)(=O)[O-])cc6)c6ccc3[nH]6)C=C5)C=C4)cc2)cccc1C(=O)c1ccc(Br)cc1
REMARK SMILES IDX 11 1 10 2 9 3 8 4 7 5 5 6 6 7 4 8 3 9 2 10 82 11 79 12 81 13
REMARK SMILES IDX 80 14 1 15 83 18 84 19 85 20 86 21 91 22 87 23 90 24 88 25
REMARK SMILES IDX 89 26 12 27 13 28 14 29 15 30 16 31 17 32 18 33 19 34 20 35
REMARK SMILES IDX 78 36 21 37 77 38 22 39 23 40 24 41 71 42 25 43 76 44 70 45
REMARK SMILES IDX 72 46 26 47 75 48 69 49 68 50 27 52 57 53 38 54 56 55 39 56
REMARK SMILES IDX 42 57 55 58 73 59 40 60 41 61 54 63 74 64 43 65 28 66 29 67
REMARK SMILES IDX 37 68 30 69 36 70 31 71 32 72 33 73 34 74 35 75 58 76 59 77
REMARK SMILES IDX 67 78 60 79 66 80 61 81 62 82 63 83 64 84 65 85 44 86 45 87
REMARK SMILES IDX 53 88 46 89 52 90 47 91 48 92 49 93 50 94 51 95
REMARK H PARENT 1 16 1 17 72 51 42 62
REMARK Flexibility Score: inf
ROOT
ATOM      1  C   UNL A   1      34.553  35.449  32.231  1.00  0.00     0.188 C 
ENDROOT
BRANCH   1   2
ATOM      2  O   UNL A   1      33.606  36.427  31.795  1.00  0.00    -0.376 OA
BRANCH   2   3
ATOM      3  C   UNL A   1      32.660  36.072  30.794  1.00  0.00     0.202 C 
BRANCH   3   4
ATOM      4  C   UNL A   1      33.207  35.940  29.368  1.00  0.00     0.261 C 
BRANCH   4   5
ATOM      5  O   UNL A   1      32.821  34.704  28.736  1.00  0.00    -0.463 OA
BRANCH   5   6
ATOM      6  C   UNL A   1      33.815  33.917  28.261  1.00  0.00     0.310 C 
ATOM      7  O   UNL A   1      34.559  34.241  27.340  1.00  0.00    -0.252 OA
BRANCH   6   8
ATOM      8  C   UNL A   1      34.047  32.646  29.058  1.00  0.00     0.160 C 
BRANCH   8   9
ATOM      9  C   UNL A   1      34.483  31.366  28.361  1.00  0.00    -0.013 A 
ATOM     10  C   UNL A   1      33.696  30.716  27.387  1.00  0.00     0.047 A 
ATOM     11  C   UNL A   1      34.253  29.594  26.706  1.00  0.00     0.046 A 
ATOM     12  C   UNL A   1      35.775  30.872  28.638  1.00  0.00     0.006 A 
ATOM     13  C   UNL A   1      35.501  29.071  27.077  1.00  0.00     0.014 A 
ATOM     14  C   UNL A   1      36.262  29.711  28.043  1.00  0.00     0.001 A 
BRANCH  10  15
ATOM     15  N   UNL A   1      32.416  31.191  27.126  1.00  0.00    -0.398 N 
ATOM     16  H   UNL A   1      32.289  31.943  26.503  1.00  0.00     0.156 HD
ATOM     17  H   UNL A   1      31.639  30.777  27.565  1.00  0.00     0.156 HD
ENDBRANCH  10  15
BRANCH  11  18
ATOM     18  C   UNL A   1      33.624  28.939  25.518  1.00  0.00     0.195 C 
ATOM     19  O   UNL A   1      33.352  29.583  24.509  1.00  0.00    -0.289 OA
BRANCH  18  20
ATOM     20  C   UNL A   1      33.300  27.495  25.541  1.00  0.00     0.023 A 
ATOM     21  C   UNL A   1      32.418  27.037  26.525  1.00  0.00     0.013 A 
ATOM     22  C   UNL A   1      33.764  26.629  24.542  1.00  0.00     0.013 A 
ATOM     23  C   UNL A   1      31.921  25.736  26.452  1.00  0.00     0.016 A 
ATOM     24  C   UNL A   1      33.263  25.328  24.472  1.00  0.00     0.016 A 
ATOM     25  C   UNL A   1      32.328  24.897  25.413  1.00  0.00     0.018 A 
ATOM     26  Br  UNL A   1      31.572  23.171  25.258  1.00  0.00    -0.051 Br
ENDBRANCH  18  20
ENDBRANCH  11  18
ENDBRANCH   8   9
ENDBRANCH   6   8
ENDBRANCH   5   6
ENDBRANCH   4   5
ENDBRANCH   3   4
ENDBRANCH   2   3
ENDBRANCH   1   2
BRANCH   1  27
ATOM     27  C   UNL A   1      34.585  35.049  33.717  1.00  0.00     0.188 C 
BRANCH  27  28
ATOM     28  O   UNL A   1      35.104  33.743  33.884  1.00  0.00    -0.376 OA
BRANCH  28  29
ATOM     29  C   UNL A   1      36.107  33.354  32.974  1.00  0.00     0.202 C 
BRANCH  29  30
ATOM     30  C   UNL A   1      35.965  31.901  32.508  1.00  0.00     0.261 C 
BRANCH  30  31
ATOM     31  O   UNL A   1      36.820  30.939  33.153  1.00  0.00    -0.460 OA
BRANCH  31  32
ATOM     32  C   UNL A   1      37.511  30.090  32.367  1.00  0.00     0.338 C 
ATOM     33  O   UNL A   1      37.120  29.018  31.918  1.00  0.00    -0.246 OA
BRANCH  32  34
ATOM     34  C   UNL A   1      38.777  30.748  31.987  1.00  0.00     0.060 A 
ATOM     35  C   UNL A   1      38.978  31.162  30.662  1.00  0.00     0.016 A 
ATOM     36  C   UNL A   1      39.774  30.945  32.941  1.00  0.00     0.016 A 
ATOM     37  C   UNL A   1      40.183  31.764  30.283  1.00  0.00     0.010 A 
ATOM     38  C   UNL A   1      40.985  31.525  32.558  1.00  0.00     0.010 A 
ATOM     39  C   UNL A   1      41.207  31.918  31.224  1.00  0.00    -0.014 A 
BRANCH  39  40
ATOM     40  C   UNL A   1      42.580  32.319  30.829  1.00  0.00     0.031 A 
ATOM     41  C   UNL A   1      42.999  33.741  31.079  1.00  0.00     0.074 A 
ATOM     42  C   UNL A   1      43.410  31.471  30.197  1.00  0.00     0.049 A 
ATOM     43  N   UNL A   1      44.020  34.402  30.603  1.00  0.00    -0.248 NA
ATOM     44  C   UNL A   1      42.134  34.525  31.977  1.00  0.00     0.031 C 
ATOM     45  C   UNL A   1      43.161  30.049  29.967  1.00  0.00     0.029 A 
ATOM     46  N   UNL A   1      44.627  31.699  29.599  1.00  0.00    -0.354 N 
ATOM     47  C   UNL A   1      43.902  35.691  31.111  1.00  0.00     0.074 A 
ATOM     48  C   UNL A   1      42.706  35.720  31.926  1.00  0.00     0.031 C 
ATOM     49  C   UNL A   1      44.179  29.538  29.251  1.00  0.00     0.029 A 
ATOM     50  C   UNL A   1      45.117  30.609  28.918  1.00  0.00     0.049 A 
ATOM     51  H   UNL A   1      45.101  32.561  29.653  1.00  0.00     0.167 HD
ATOM     52  C   UNL A   1      44.712  36.756  30.908  1.00  0.00     0.031 A 
ATOM     53  C   UNL A   1      46.170  30.503  28.080  1.00  0.00     0.031 A 
ATOM     54  C   UNL A   1      45.890  36.717  30.084  1.00  0.00     0.049 A 
ATOM     55  C   UNL A   1      47.004  31.726  27.783  1.00  0.00     0.074 A 
ATOM     56  C   UNL A   1      46.779  37.741  29.807  1.00  0.00     0.029 A 
ATOM     57  N   UNL A   1      46.341  35.597  29.403  1.00  0.00    -0.354 N 
ATOM     58  N   UNL A   1      46.874  32.945  28.252  1.00  0.00    -0.248 NA
ATOM     59  C   UNL A   1      48.123  31.561  26.845  1.00  0.00     0.031 C 
ATOM     60  C   UNL A   1      47.734  37.255  28.911  1.00  0.00     0.029 A 
ATOM     61  C   UNL A   1      47.485  35.909  28.691  1.00  0.00     0.049 A 
ATOM     62  H   UNL A   1      45.911  34.712  29.422  1.00  0.00     0.167 HD
ATOM     63  C   UNL A   1      47.923  33.678  27.700  1.00  0.00     0.074 A 
ATOM     64  C   UNL A   1      48.673  32.769  26.860  1.00  0.00     0.031 C 
ATOM     65  C   UNL A   1      48.239  34.983  27.883  1.00  0.00     0.031 A 
BRANCH  52  66
ATOM     66  C   UNL A   1      44.323  38.063  31.546  1.00  0.00    -0.014 A 
ATOM     67  C   UNL A   1      43.554  39.015  30.853  1.00  0.00     0.010 A 
ATOM     68  C   UNL A   1      44.703  38.327  32.874  1.00  0.00     0.010 A 
ATOM     69  C   UNL A   1      43.207  40.223  31.464  1.00  0.00     0.020 A 
ATOM     70  C   UNL A   1      44.332  39.519  33.500  1.00  0.00     0.020 A 
ATOM     71  C   UNL A   1      43.599  40.467  32.785  1.00  0.00     0.054 A 
BRANCH  71  72
ATOM     72  S   UNL A   1      43.116  42.034  33.558  1.00  0.00     0.124 S 
ATOM     73  O   UNL A   1      44.079  42.140  34.652  1.00  0.00    -0.237 OA
ATOM     74  O   UNL A   1      43.293  42.994  32.472  1.00  0.00    -0.237 OA
ATOM     75  O   UNL A   1      41.732  41.808  33.968  1.00  0.00    -0.744 OA
ENDBRANCH  71  72
ENDBRANCH  52  66
BRANCH  53  76
ATOM     76  C   UNL A   1      46.478  29.199  27.427  1.00  0.00    -0.014 A 
ATOM     77  C   UNL A   1      46.006  28.920  26.132  1.00  0.00     0.010 A 
ATOM     78  C   UNL A   1      47.239  28.224  28.099  1.00  0.00     0.010 A 
ATOM     79  C   UNL A   1      46.273  27.687  25.528  1.00  0.00     0.020 A 
ATOM     80  C   UNL A   1      47.536  27.002  27.486  1.00  0.00     0.020 A 
ATOM     81  C   UNL A   1      47.041  26.736  26.209  1.00  0.00     0.054 A 
BRANCH  81  82
ATOM     82  S   UNL A   1      47.413  25.162  25.385  1.00  0.00     0.124 S 
ATOM     83  O   UNL A   1      48.756  25.401  24.866  1.00  0.00    -0.237 OA
ATOM     84  O   UNL A   1      47.320  24.204  26.484  1.00  0.00    -0.237 OA
ATOM     85  O   UNL A   1      46.363  25.048  24.377  1.00  0.00    -0.744 OA
ENDBRANCH  81  82
ENDBRANCH  53  76
BRANCH  65  86
ATOM     86  C   UNL A   1      49.495  35.510  27.238  1.00  0.00    -0.014 A 
ATOM     87  C   UNL A   1      50.772  35.160  27.708  1.00  0.00     0.010 A 
ATOM     88  C   UNL A   1      49.384  36.269  26.057  1.00  0.00     0.010 A 
ATOM     89  C   UNL A   1      51.915  35.560  27.008  1.00  0.00     0.020 A 
ATOM     90  C   UNL A   1      50.521  36.646  25.340  1.00  0.00     0.020 A 
ATOM     91  C   UNL A   1      51.780  36.291  25.822  1.00  0.00     0.054 A 
BRANCH  91  92
ATOM     92  S   UNL A   1      53.273  36.706  24.878  1.00  0.00     0.124 S 
ATOM     93  O   UNL A   1      53.284  38.165  24.951  1.00  0.00    -0.237 OA
ATOM     94  O   UNL A   1      54.326  36.032  25.634  1.00  0.00    -0.237 OA
ATOM     95  O   UNL A   1      53.012  36.151  23.552  1.00  0.00    -0.744 OA
ENDBRANCH  91  92
ENDBRANCH  65  86
ENDBRANCH  39  40
ENDBRANCH  32  34
ENDBRANCH  31  32
ENDBRANCH  30  31
ENDBRANCH  29  30
ENDBRANCH  28  29
ENDBRANCH  27  28
ENDBRANCH   1  27
TORSDOF 24
ENDMDL
