MODEL 1
REMARK VINA RESULT:      -9.1      0.000      0.000
REMARK SMILES CC(C)=CC[N@H+]1CCCC[C@H]1C(=O)OCCOCCOCCOC(=O)c1ccc(-c2c3nc(c(-c4ccc(S(=O)(=O)[O-])cc4)c4ccc([nH]4)c(-c4ccc(S(=O)(=O)[O-])cc4)c4nc(c(-c5ccc(S(=O)(=O)[O-])cc5)c5ccc2[nH]5)C=C4)C=C3)cc1
REMARK SMILES IDX 19 1 18 2 17 3 16 4 15 5 14 6 12 7 13 8 11 9 6 10 7 11 8 13
REMARK SMILES IDX 10 14 9 15 5 16 4 17 1 18 2 19 3 20 20 21 21 22 22 23 23 24
REMARK SMILES IDX 24 25 25 26 26 27 27 28 85 29 28 30 84 31 29 32 30 33 31 34
REMARK SMILES IDX 78 35 32 36 83 37 77 38 79 39 33 40 82 41 76 42 75 43 34 45
REMARK SMILES IDX 64 46 45 47 63 48 46 49 49 50 62 51 80 52 47 53 48 54 61 56
REMARK SMILES IDX 81 57 50 58 35 59 36 60 44 61 37 62 43 63 38 64 39 65 40 66
REMARK SMILES IDX 41 67 42 68 65 69 66 70 74 71 67 72 73 73 68 74 69 75 70 76
REMARK SMILES IDX 71 77 72 78 51 79 52 80 60 81 53 82 59 83 54 84 55 85 56 86
REMARK SMILES IDX 57 87 58 88
REMARK H PARENT 6 12 79 44 49 55
REMARK Flexibility Score: inf
ROOT
ATOM      1  C   UNL A   1      32.772  29.387  25.176  1.00  0.00     0.188 C 
ENDROOT
BRANCH   1   2
ATOM      2  C   UNL A   1      31.501  29.204  24.338  1.00  0.00     0.188 C 
BRANCH   2   3
ATOM      3  O   UNL A   1      31.032  27.878  24.104  1.00  0.00    -0.376 OA
BRANCH   3   4
ATOM      4  C   UNL A   1      31.214  27.321  22.810  1.00  0.00     0.202 C 
BRANCH   4   5
ATOM      5  C   UNL A   1      32.342  26.299  22.687  1.00  0.00     0.261 C 
BRANCH   5   6
ATOM      6  O   UNL A   1      33.288  26.354  23.777  1.00  0.00    -0.459 OA
BRANCH   6   7
ATOM      7  C   UNL A   1      33.150  25.372  24.708  1.00  0.00     0.364 C 
ATOM      8  O   UNL A   1      33.901  25.248  25.671  1.00  0.00    -0.245 OA
BRANCH   7   9
ATOM      9  C   UNL A   1      31.979  24.399  24.447  1.00  0.00     0.295 C 
ATOM     10  N   UNL A   1      32.348  22.982  24.246  1.00  0.00    -0.320 N 
ATOM     11  C   UNL A   1      32.155  22.052  25.340  1.00  0.00     0.263 C 
ATOM     12  H   UNL A   1      31.574  22.746  23.625  1.00  0.00     0.349 HD
ATOM     13  C   UNL A   1      30.792  22.200  26.000  1.00  0.00     0.062 C 
ATOM     14  C   UNL A   1      30.765  24.628  25.374  1.00  0.00     0.078 C 
ATOM     15  C   UNL A   1      30.596  23.617  26.504  1.00  0.00     0.013 C 
BRANCH  10  16
ATOM     16  C   UNL A   1      33.548  22.714  23.455  1.00  0.00     0.291 C 
BRANCH  16  17
ATOM     17  C   UNL A   1      34.522  21.895  24.246  1.00  0.00     0.032 C 
ATOM     18  C   UNL A   1      36.625  22.956  23.373  1.00  0.00     0.039 C 
ATOM     19  C   UNL A   1      35.864  22.002  24.251  1.00  0.00    -0.075 C 
ATOM     20  C   UNL A   1      36.687  21.155  25.180  1.00  0.00     0.039 C 
ENDBRANCH  16  17
ENDBRANCH  10  16
ENDBRANCH   7   9
ENDBRANCH   6   7
ENDBRANCH   5   6
ENDBRANCH   4   5
ENDBRANCH   3   4
ENDBRANCH   2   3
ENDBRANCH   1   2
BRANCH   1  21
ATOM     21  O   UNL A   1      32.793  30.650  25.833  1.00  0.00    -0.376 OA
BRANCH  21  22
ATOM     22  C   UNL A   1      32.919  30.564  27.246  1.00  0.00     0.202 C 
BRANCH  22  23
ATOM     23  C   UNL A   1      33.919  31.615  27.732  1.00  0.00     0.261 C 
BRANCH  23  24
ATOM     24  O   UNL A   1      33.564  32.969  27.388  1.00  0.00    -0.460 OA
BRANCH  24  25
ATOM     25  C   UNL A   1      33.483  33.843  28.410  1.00  0.00     0.338 C 
ATOM     26  O   UNL A   1      32.567  34.633  28.628  1.00  0.00    -0.246 OA
BRANCH  25  27
ATOM     27  C   UNL A   1      34.598  33.598  29.340  1.00  0.00     0.060 A 
ATOM     28  C   UNL A   1      35.872  34.075  29.009  1.00  0.00     0.016 A 
ATOM     29  C   UNL A   1      34.404  32.865  30.514  1.00  0.00     0.016 A 
ATOM     30  C   UNL A   1      36.960  33.810  29.843  1.00  0.00     0.010 A 
ATOM     31  C   UNL A   1      35.498  32.580  31.336  1.00  0.00     0.010 A 
ATOM     32  C   UNL A   1      36.787  33.031  30.995  1.00  0.00    -0.014 A 
BRANCH  32  33
ATOM     33  C   UNL A   1      37.965  32.545  31.758  1.00  0.00     0.031 A 
ATOM     34  C   UNL A   1      38.774  31.410  31.188  1.00  0.00     0.074 A 
ATOM     35  C   UNL A   1      38.325  33.101  32.928  1.00  0.00     0.049 A 
ATOM     36  N   UNL A   1      39.763  30.743  31.727  1.00  0.00    -0.248 NA
ATOM     37  C   UNL A   1      38.420  30.970  29.829  1.00  0.00     0.031 C 
ATOM     38  C   UNL A   1      37.680  34.254  33.554  1.00  0.00     0.029 A 
ATOM     39  N   UNL A   1      39.329  32.761  33.803  1.00  0.00    -0.354 N 
ATOM     40  C   UNL A   1      40.135  29.793  30.782  1.00  0.00     0.074 A 
ATOM     41  C   UNL A   1      39.261  29.964  29.642  1.00  0.00     0.031 C 
ATOM     42  C   UNL A   1      38.302  34.522  34.717  1.00  0.00     0.029 A 
ATOM     43  C   UNL A   1      39.353  33.531  34.942  1.00  0.00     0.049 A 
ATOM     44  H   UNL A   1      39.970  32.034  33.631  1.00  0.00     0.167 HD
ATOM     45  C   UNL A   1      41.112  28.857  30.858  1.00  0.00     0.031 A 
ATOM     46  C   UNL A   1      40.111  33.425  36.053  1.00  0.00     0.031 A 
ATOM     47  C   UNL A   1      41.975  28.678  31.993  1.00  0.00     0.049 A 
ATOM     48  C   UNL A   1      41.132  32.320  36.154  1.00  0.00     0.074 A 
ATOM     49  C   UNL A   1      42.980  27.744  32.173  1.00  0.00     0.029 A 
ATOM     50  N   UNL A   1      41.935  29.448  33.146  1.00  0.00    -0.354 N 
ATOM     51  N   UNL A   1      41.450  31.407  35.267  1.00  0.00    -0.248 NA
ATOM     52  C   UNL A   1      41.888  32.225  37.412  1.00  0.00     0.031 C 
ATOM     53  C   UNL A   1      43.518  27.921  33.452  1.00  0.00     0.029 A 
ATOM     54  C   UNL A   1      42.883  28.999  34.048  1.00  0.00     0.049 A 
ATOM     55  H   UNL A   1      41.322  30.204  33.300  1.00  0.00     0.167 HD
ATOM     56  C   UNL A   1      42.459  30.646  35.851  1.00  0.00     0.074 A 
ATOM     57  C   UNL A   1      42.706  31.211  37.162  1.00  0.00     0.031 C 
ATOM     58  C   UNL A   1      43.122  29.574  35.348  1.00  0.00     0.031 A 
BRANCH  45  59
ATOM     59  C   UNL A   1      41.257  27.919  29.691  1.00  0.00    -0.014 A 
ATOM     60  C   UNL A   1      40.414  26.804  29.540  1.00  0.00     0.010 A 
ATOM     61  C   UNL A   1      42.248  28.167  28.724  1.00  0.00     0.010 A 
ATOM     62  C   UNL A   1      40.589  25.930  28.464  1.00  0.00     0.020 A 
ATOM     63  C   UNL A   1      42.410  27.308  27.634  1.00  0.00     0.020 A 
ATOM     64  C   UNL A   1      41.591  26.183  27.522  1.00  0.00     0.054 A 
BRANCH  64  65
ATOM     65  S   UNL A   1      41.799  25.032  26.136  1.00  0.00     0.124 S 
ATOM     66  O   UNL A   1      41.894  25.945  24.999  1.00  0.00    -0.237 OA
ATOM     67  O   UNL A   1      43.034  24.331  26.482  1.00  0.00    -0.237 OA
ATOM     68  O   UNL A   1      40.590  24.214  26.179  1.00  0.00    -0.744 OA
ENDBRANCH  64  65
ENDBRANCH  45  59
BRANCH  46  69
ATOM     69  C   UNL A   1      39.905  34.367  37.189  1.00  0.00    -0.014 A 
ATOM     70  C   UNL A   1      40.523  35.629  37.199  1.00  0.00     0.010 A 
ATOM     71  C   UNL A   1      39.097  33.994  38.280  1.00  0.00     0.010 A 
ATOM     72  C   UNL A   1      40.350  36.495  38.285  1.00  0.00     0.020 A 
ATOM     73  C   UNL A   1      38.899  34.867  39.354  1.00  0.00     0.020 A 
ATOM     74  C   UNL A   1      39.538  36.108  39.355  1.00  0.00     0.054 A 
BRANCH  74  75
ATOM     75  S   UNL A   1      39.287  37.264  40.732  1.00  0.00     0.124 S 
ATOM     76  O   UNL A   1      38.493  38.316  40.105  1.00  0.00    -0.237 OA
ATOM     77  O   UNL A   1      38.585  36.440  41.713  1.00  0.00    -0.237 OA
ATOM     78  O   UNL A   1      40.646  37.644  41.110  1.00  0.00    -0.744 OA
ENDBRANCH  74  75
ENDBRANCH  46  69
BRANCH  58  79
ATOM     79  C   UNL A   1      44.203  28.959  36.196  1.00  0.00    -0.014 A 
ATOM     80  C   UNL A   1      45.494  29.514  36.248  1.00  0.00     0.010 A 
ATOM     81  C   UNL A   1      43.901  27.847  37.004  1.00  0.00     0.010 A 
ATOM     82  C   UNL A   1      46.470  28.952  37.076  1.00  0.00     0.020 A 
ATOM     83  C   UNL A   1      44.868  27.298  37.851  1.00  0.00     0.020 A 
ATOM     84  C   UNL A   1      46.151  27.848  37.872  1.00  0.00     0.054 A 
BRANCH  84  85
ATOM     85  S   UNL A   1      47.419  27.168  38.978  1.00  0.00     0.124 S 
ATOM     86  O   UNL A   1      46.761  27.246  40.279  1.00  0.00    -0.237 OA
ATOM     87  O   UNL A   1      47.615  25.818  38.453  1.00  0.00    -0.237 OA
ATOM     88  O   UNL A   1      48.555  28.070  38.799  1.00  0.00    -0.744 OA
ENDBRANCH  84  85
ENDBRANCH  58  79
ENDBRANCH  32  33
ENDBRANCH  25  27
ENDBRANCH  24  25
ENDBRANCH  23  24
ENDBRANCH  22  23
ENDBRANCH  21  22
ENDBRANCH   1  21
TORSDOF 22
ENDMDL
MODEL 2
REMARK VINA RESULT:      -8.9      2.174      3.145
REMARK SMILES CC(C)=CC[N@H+]1CCCC[C@H]1C(=O)OCCOCCOCCOC(=O)c1ccc(-c2c3nc(c(-c4ccc(S(=O)(=O)[O-])cc4)c4ccc([nH]4)c(-c4ccc(S(=O)(=O)[O-])cc4)c4nc(c(-c5ccc(S(=O)(=O)[O-])cc5)c5ccc2[nH]5)C=C4)C=C3)cc1
REMARK SMILES IDX 19 1 18 2 17 3 16 4 15 5 14 6 12 7 13 8 11 9 6 10 7 11 8 13
REMARK SMILES IDX 10 14 9 15 5 16 4 17 1 18 2 19 3 20 20 21 21 22 22 23 23 24
REMARK SMILES IDX 24 25 25 26 26 27 27 28 85 29 28 30 84 31 29 32 30 33 31 34
REMARK SMILES IDX 78 35 32 36 83 37 77 38 79 39 33 40 82 41 76 42 75 43 34 45
REMARK SMILES IDX 64 46 45 47 63 48 46 49 49 50 62 51 80 52 47 53 48 54 61 56
REMARK SMILES IDX 81 57 50 58 35 59 36 60 44 61 37 62 43 63 38 64 39 65 40 66
REMARK SMILES IDX 41 67 42 68 65 69 66 70 74 71 67 72 73 73 68 74 69 75 70 76
REMARK SMILES IDX 71 77 72 78 51 79 52 80 60 81 53 82 59 83 54 84 55 85 56 86
REMARK SMILES IDX 57 87 58 88
REMARK H PARENT 6 12 79 44 49 55
REMARK Flexibility Score: inf
ROOT
ATOM      1  C   UNL A   1      31.734  28.231  23.981  1.00  0.00     0.188 C 
ENDROOT
BRANCH   1   2
ATOM      2  C   UNL A   1      31.040  27.508  25.142  1.00  0.00     0.188 C 
BRANCH   2   3
ATOM      3  O   UNL A   1      30.874  26.094  25.054  1.00  0.00    -0.376 OA
BRANCH   3   4
ATOM      4  C   UNL A   1      30.341  25.556  23.852  1.00  0.00     0.202 C 
BRANCH   4   5
ATOM      5  C   UNL A   1      31.181  24.464  23.192  1.00  0.00     0.261 C 
BRANCH   5   6
ATOM      6  O   UNL A   1      32.324  24.065  23.979  1.00  0.00    -0.459 OA
BRANCH   6   7
ATOM      7  C   UNL A   1      32.210  22.852  24.585  1.00  0.00     0.364 C 
ATOM      8  O   UNL A   1      31.453  22.640  25.528  1.00  0.00    -0.245 OA
BRANCH   7   9
ATOM      9  C   UNL A   1      33.133  21.756  24.008  1.00  0.00     0.295 C 
ATOM     10  N   UNL A   1      33.815  20.898  24.999  1.00  0.00    -0.320 N 
ATOM     11  C   UNL A   1      33.298  19.565  25.236  1.00  0.00     0.263 C 
ATOM     12  H   UNL A   1      34.645  20.708  24.438  1.00  0.00     0.349 HD
ATOM     13  C   UNL A   1      32.991  18.818  23.947  1.00  0.00     0.062 C 
ATOM     14  C   UNL A   1      32.522  21.002  22.806  1.00  0.00     0.078 C 
ATOM     15  C   UNL A   1      32.002  19.599  23.102  1.00  0.00     0.013 C 
BRANCH  10  16
ATOM     16  C   UNL A   1      34.326  21.549  26.203  1.00  0.00     0.291 C 
BRANCH  16  17
ATOM     17  C   UNL A   1      35.754  21.958  26.008  1.00  0.00     0.032 C 
ATOM     18  C   UNL A   1      35.344  24.408  25.632  1.00  0.00     0.039 C 
ATOM     19  C   UNL A   1      36.226  23.201  25.789  1.00  0.00    -0.075 C 
ATOM     20  C   UNL A   1      37.706  23.445  25.706  1.00  0.00     0.039 C 
ENDBRANCH  16  17
ENDBRANCH  10  16
ENDBRANCH   7   9
ENDBRANCH   6   7
ENDBRANCH   5   6
ENDBRANCH   4   5
ENDBRANCH   3   4
ENDBRANCH   2   3
ENDBRANCH   1   2
BRANCH   1  21
ATOM     21  O   UNL A   1      33.079  28.571  24.300  1.00  0.00    -0.376 OA
BRANCH  21  22
ATOM     22  C   UNL A   1      33.338  28.654  25.694  1.00  0.00     0.202 C 
BRANCH  22  23
ATOM     23  C   UNL A   1      33.128  30.094  26.167  1.00  0.00     0.261 C 
BRANCH  23  24
ATOM     24  O   UNL A   1      33.433  30.306  27.560  1.00  0.00    -0.460 OA
BRANCH  24  25
ATOM     25  C   UNL A   1      34.135  31.417  27.855  1.00  0.00     0.338 C 
ATOM     26  O   UNL A   1      33.714  32.572  27.853  1.00  0.00    -0.246 OA
BRANCH  25  27
ATOM     27  C   UNL A   1      35.466  31.026  28.348  1.00  0.00     0.060 A 
ATOM     28  C   UNL A   1      35.611  29.796  29.000  1.00  0.00     0.016 A 
ATOM     29  C   UNL A   1      36.562  31.882  28.208  1.00  0.00     0.016 A 
ATOM     30  C   UNL A   1      36.849  29.422  29.527  1.00  0.00     0.010 A 
ATOM     31  C   UNL A   1      37.794  31.517  28.758  1.00  0.00     0.010 A 
ATOM     32  C   UNL A   1      37.942  30.296  29.440  1.00  0.00    -0.014 A 
BRANCH  32  33
ATOM     33  C   UNL A   1      39.189  30.018  30.197  1.00  0.00     0.031 A 
ATOM     34  C   UNL A   1      40.084  28.903  29.728  1.00  0.00     0.074 A 
ATOM     35  C   UNL A   1      39.534  30.744  31.276  1.00  0.00     0.049 A 
ATOM     36  N   UNL A   1      41.152  28.401  30.294  1.00  0.00    -0.248 NA
ATOM     37  C   UNL A   1      39.726  28.270  28.448  1.00  0.00     0.031 C 
ATOM     38  C   UNL A   1      38.801  31.900  31.792  1.00  0.00     0.029 A 
ATOM     39  N   UNL A   1      40.597  30.607  32.136  1.00  0.00    -0.354 N 
ATOM     40  C   UNL A   1      41.582  27.382  29.451  1.00  0.00     0.074 A 
ATOM     41  C   UNL A   1      40.655  27.331  28.341  1.00  0.00     0.031 C 
ATOM     42  C   UNL A   1      39.435  32.363  32.885  1.00  0.00     0.029 A 
ATOM     43  C   UNL A   1      40.585  31.509  33.175  1.00  0.00     0.049 A 
ATOM     44  H   UNL A   1      41.299  29.928  32.021  1.00  0.00     0.167 HD
ATOM     45  C   UNL A   1      42.648  26.558  29.590  1.00  0.00     0.031 A 
ATOM     46  C   UNL A   1      41.389  31.610  34.254  1.00  0.00     0.031 A 
ATOM     47  C   UNL A   1      43.564  26.599  30.697  1.00  0.00     0.049 A 
ATOM     48  C   UNL A   1      42.517  30.625  34.435  1.00  0.00     0.074 A 
ATOM     49  C   UNL A   1      44.662  25.791  30.937  1.00  0.00     0.029 A 
ATOM     50  N   UNL A   1      43.490  27.497  31.751  1.00  0.00    -0.354 N 
ATOM     51  N   UNL A   1      42.891  29.645  33.648  1.00  0.00    -0.248 NA
ATOM     52  C   UNL A   1      43.324  30.755  35.658  1.00  0.00     0.031 C 
ATOM     53  C   UNL A   1      45.225  26.172  32.160  1.00  0.00     0.029 A 
ATOM     54  C   UNL A   1      44.509  27.251  32.654  1.00  0.00     0.049 A 
ATOM     55  H   UNL A   1      42.812  28.205  31.844  1.00  0.00     0.167 HD
ATOM     56  C   UNL A   1      43.990  29.058  34.269  1.00  0.00     0.074 A 
ATOM     57  C   UNL A   1      44.227  29.799  35.491  1.00  0.00     0.031 C 
ATOM     58  C   UNL A   1      44.736  27.999  33.864  1.00  0.00     0.031 A 
BRANCH  45  59
ATOM     59  C   UNL A   1      42.842  25.502  28.536  1.00  0.00    -0.014 A 
ATOM     60  C   UNL A   1      43.555  25.771  27.354  1.00  0.00     0.010 A 
ATOM     61  C   UNL A   1      42.312  24.215  28.741  1.00  0.00     0.010 A 
ATOM     62  C   UNL A   1      43.695  24.783  26.376  1.00  0.00     0.020 A 
ATOM     63  C   UNL A   1      42.471  23.218  27.775  1.00  0.00     0.020 A 
ATOM     64  C   UNL A   1      43.146  23.515  26.589  1.00  0.00     0.054 A 
BRANCH  64  65
ATOM     65  S   UNL A   1      43.340  22.250  25.304  1.00  0.00     0.124 S 
ATOM     66  O   UNL A   1      43.398  23.062  24.090  1.00  0.00    -0.237 OA
ATOM     67  O   UNL A   1      44.590  21.596  25.682  1.00  0.00    -0.237 OA
ATOM     68  O   UNL A   1      42.142  21.426  25.444  1.00  0.00    -0.744 OA
ENDBRANCH  64  65
ENDBRANCH  45  59
BRANCH  46  69
ATOM     69  C   UNL A   1      41.133  32.660  35.279  1.00  0.00    -0.014 A 
ATOM     70  C   UNL A   1      41.888  33.845  35.301  1.00  0.00     0.010 A 
ATOM     71  C   UNL A   1      40.136  32.468  36.254  1.00  0.00     0.010 A 
ATOM     72  C   UNL A   1      41.662  34.813  36.287  1.00  0.00     0.020 A 
ATOM     73  C   UNL A   1      39.889  33.443  37.225  1.00  0.00     0.020 A 
ATOM     74  C   UNL A   1      40.663  34.605  37.242  1.00  0.00     0.054 A 
BRANCH  74  75
ATOM     75  S   UNL A   1      40.352  35.892  38.484  1.00  0.00     0.124 S 
ATOM     76  O   UNL A   1      39.637  36.898  37.707  1.00  0.00    -0.237 OA
ATOM     77  O   UNL A   1      39.557  35.182  39.484  1.00  0.00    -0.237 OA
ATOM     78  O   UNL A   1      41.692  36.272  38.923  1.00  0.00    -0.744 OA
ENDBRANCH  74  75
ENDBRANCH  46  69
BRANCH  58  79
ATOM     79  C   UNL A   1      45.903  27.596  34.727  1.00  0.00    -0.014 A 
ATOM     80  C   UNL A   1      45.769  26.611  35.721  1.00  0.00     0.010 A 
ATOM     81  C   UNL A   1      47.168  28.166  34.490  1.00  0.00     0.010 A 
ATOM     82  C   UNL A   1      46.876  26.222  36.481  1.00  0.00     0.020 A 
ATOM     83  C   UNL A   1      48.282  27.760  35.232  1.00  0.00     0.020 A 
ATOM     84  C   UNL A   1      48.125  26.798  36.232  1.00  0.00     0.054 A 
BRANCH  84  85
ATOM     85  S   UNL A   1      49.558  26.239  37.195  1.00  0.00     0.124 S 
ATOM     86  O   UNL A   1      50.396  25.631  36.166  1.00  0.00    -0.237 OA
ATOM     87  O   UNL A   1      50.069  27.484  37.766  1.00  0.00    -0.237 OA
ATOM     88  O   UNL A   1      48.984  25.307  38.162  1.00  0.00    -0.744 OA
ENDBRANCH  84  85
ENDBRANCH  58  79
ENDBRANCH  32  33
ENDBRANCH  25  27
ENDBRANCH  24  25
ENDBRANCH  23  24
ENDBRANCH  22  23
ENDBRANCH  21  22
ENDBRANCH   1  21
TORSDOF 22
ENDMDL
MODEL 3
REMARK VINA RESULT:      -8.5      4.953     11.846
REMARK SMILES CC(C)=CC[N@H+]1CCCC[C@H]1C(=O)OCCOCCOCCOC(=O)c1ccc(-c2c3nc(c(-c4ccc(S(=O)(=O)[O-])cc4)c4ccc([nH]4)c(-c4ccc(S(=O)(=O)[O-])cc4)c4nc(c(-c5ccc(S(=O)(=O)[O-])cc5)c5ccc2[nH]5)C=C4)C=C3)cc1
REMARK SMILES IDX 19 1 18 2 17 3 16 4 15 5 14 6 12 7 13 8 11 9 6 10 7 11 8 13
REMARK SMILES IDX 10 14 9 15 5 16 4 17 1 18 2 19 3 20 20 21 21 22 22 23 23 24
REMARK SMILES IDX 24 25 25 26 26 27 27 28 85 29 28 30 84 31 29 32 30 33 31 34
REMARK SMILES IDX 78 35 32 36 83 37 77 38 79 39 33 40 82 41 76 42 75 43 34 45
REMARK SMILES IDX 64 46 45 47 63 48 46 49 49 50 62 51 80 52 47 53 48 54 61 56
REMARK SMILES IDX 81 57 50 58 35 59 36 60 44 61 37 62 43 63 38 64 39 65 40 66
REMARK SMILES IDX 41 67 42 68 65 69 66 70 74 71 67 72 73 73 68 74 69 75 70 76
REMARK SMILES IDX 71 77 72 78 51 79 52 80 60 81 53 82 59 83 54 84 55 85 56 86
REMARK SMILES IDX 57 87 58 88
REMARK H PARENT 6 12 79 44 49 55
REMARK Flexibility Score: inf
ROOT
ATOM      1  C   UNL A   1      36.009  33.983  30.556  1.00  0.00     0.188 C 
ENDROOT
BRANCH   1   2
ATOM      2  C   UNL A   1      36.247  33.726  32.049  1.00  0.00     0.188 C 
BRANCH   2   3
ATOM      3  O   UNL A   1      37.223  34.518  32.723  1.00  0.00    -0.376 OA
BRANCH   3   4
ATOM      4  C   UNL A   1      37.536  34.194  34.071  1.00  0.00     0.202 C 
BRANCH   4   5
ATOM      5  C   UNL A   1      36.775  33.005  34.654  1.00  0.00     0.261 C 
BRANCH   5   6
ATOM      6  O   UNL A   1      37.234  32.619  35.968  1.00  0.00    -0.459 OA
BRANCH   6   7
ATOM      7  C   UNL A   1      38.123  31.589  35.987  1.00  0.00     0.364 C 
ATOM      8  O   UNL A   1      37.806  30.424  35.764  1.00  0.00    -0.245 OA
BRANCH   7   9
ATOM      9  C   UNL A   1      39.571  31.996  36.340  1.00  0.00     0.295 C 
ATOM     10  N   UNL A   1      40.459  32.284  35.195  1.00  0.00    -0.320 N 
ATOM     11  C   UNL A   1      40.737  33.666  34.862  1.00  0.00     0.263 C 
ATOM     12  H   UNL A   1      41.327  31.993  35.644  1.00  0.00     0.349 HD
ATOM     13  C   UNL A   1      41.087  34.503  36.083  1.00  0.00     0.062 C 
ATOM     14  C   UNL A   1      39.664  33.006  37.505  1.00  0.00     0.078 C 
ATOM     15  C   UNL A   1      39.969  34.447  37.107  1.00  0.00     0.013 C 
BRANCH  10  16
ATOM     16  C   UNL A   1      40.341  31.414  34.027  1.00  0.00     0.291 C 
BRANCH  16  17
ATOM     17  C   UNL A   1      41.675  30.833  33.672  1.00  0.00     0.032 C 
ATOM     18  C   UNL A   1      41.502  28.745  35.058  1.00  0.00     0.039 C 
ATOM     19  C   UNL A   1      42.191  29.659  34.084  1.00  0.00    -0.075 C 
ATOM     20  C   UNL A   1      43.516  29.187  33.554  1.00  0.00     0.039 C 
ENDBRANCH  16  17
ENDBRANCH  10  16
ENDBRANCH   7   9
ENDBRANCH   6   7
ENDBRANCH   5   6
ENDBRANCH   4   5
ENDBRANCH   3   4
ENDBRANCH   2   3
ENDBRANCH   1   2
BRANCH   1  21
ATOM     21  O   UNL A   1      34.656  34.337  30.292  1.00  0.00    -0.376 OA
BRANCH  21  22
ATOM     22  C   UNL A   1      33.902  33.311  29.664  1.00  0.00     0.202 C 
BRANCH  22  23
ATOM     23  C   UNL A   1      34.082  33.401  28.148  1.00  0.00     0.261 C 
BRANCH  23  24
ATOM     24  O   UNL A   1      35.038  32.466  27.611  1.00  0.00    -0.460 OA
BRANCH  24  25
ATOM     25  C   UNL A   1      34.814  31.165  27.878  1.00  0.00     0.338 C 
ATOM     26  O   UNL A   1      33.737  30.576  27.810  1.00  0.00    -0.246 OA
BRANCH  25  27
ATOM     27  C   UNL A   1      36.105  30.495  28.113  1.00  0.00     0.060 A 
ATOM     28  C   UNL A   1      36.498  30.227  29.429  1.00  0.00     0.016 A 
ATOM     29  C   UNL A   1      36.948  30.171  27.046  1.00  0.00     0.016 A 
ATOM     30  C   UNL A   1      37.741  29.644  29.686  1.00  0.00     0.010 A 
ATOM     31  C   UNL A   1      38.202  29.610  27.306  1.00  0.00     0.010 A 
ATOM     32  C   UNL A   1      38.616  29.363  28.628  1.00  0.00    -0.014 A 
BRANCH  32  33
ATOM     33  C   UNL A   1      40.023  28.969  28.900  1.00  0.00     0.031 A 
ATOM     34  C   UNL A   1      40.960  29.995  29.479  1.00  0.00     0.074 A 
ATOM     35  C   UNL A   1      40.465  27.723  28.652  1.00  0.00     0.049 A 
ATOM     36  N   UNL A   1      42.250  29.919  29.686  1.00  0.00    -0.248 NA
ATOM     37  C   UNL A   1      40.360  31.278  29.880  1.00  0.00     0.031 C 
ATOM     38  C   UNL A   1      39.648  26.613  28.166  1.00  0.00     0.029 A 
ATOM     39  N   UNL A   1      41.725  27.187  28.773  1.00  0.00    -0.354 N 
ATOM     40  C   UNL A   1      42.619  31.148  30.220  1.00  0.00     0.074 A 
ATOM     41  C   UNL A   1      41.420  31.953  30.298  1.00  0.00     0.031 C 
ATOM     42  C   UNL A   1      40.430  25.527  28.025  1.00  0.00     0.029 A 
ATOM     43  C   UNL A   1      41.809  25.877  28.361  1.00  0.00     0.049 A 
ATOM     44  H   UNL A   1      42.494  27.692  29.122  1.00  0.00     0.167 HD
ATOM     45  C   UNL A   1      43.846  31.571  30.607  1.00  0.00     0.031 A 
ATOM     46  C   UNL A   1      42.880  25.068  28.234  1.00  0.00     0.031 A 
ATOM     47  C   UNL A   1      45.041  30.777  30.521  1.00  0.00     0.049 A 
ATOM     48  C   UNL A   1      44.251  25.589  28.585  1.00  0.00     0.074 A 
ATOM     49  C   UNL A   1      46.335  31.126  30.867  1.00  0.00     0.029 A 
ATOM     50  N   UNL A   1      45.091  29.473  30.053  1.00  0.00    -0.354 N 
ATOM     51  N   UNL A   1      44.591  26.765  29.058  1.00  0.00    -0.248 NA
ATOM     52  C   UNL A   1      45.385  24.676  28.375  1.00  0.00     0.031 C 
ATOM     53  C   UNL A   1      47.173  30.048  30.567  1.00  0.00     0.029 A 
ATOM     54  C   UNL A   1      46.394  29.009  30.084  1.00  0.00     0.049 A 
ATOM     55  H   UNL A   1      44.313  28.953  29.745  1.00  0.00     0.167 HD
ATOM     56  C   UNL A   1      45.973  26.723  29.222  1.00  0.00     0.074 A 
ATOM     57  C   UNL A   1      46.405  25.404  28.810  1.00  0.00     0.031 C 
ATOM     58  C   UNL A   1      46.810  27.691  29.674  1.00  0.00     0.031 A 
BRANCH  45  59
ATOM     59  C   UNL A   1      43.959  32.986  31.108  1.00  0.00    -0.014 A 
ATOM     60  C   UNL A   1      43.682  33.311  32.447  1.00  0.00     0.010 A 
ATOM     61  C   UNL A   1      44.362  34.002  30.223  1.00  0.00     0.010 A 
ATOM     62  C   UNL A   1      43.763  34.637  32.881  1.00  0.00     0.020 A 
ATOM     63  C   UNL A   1      44.467  35.325  30.660  1.00  0.00     0.020 A 
ATOM     64  C   UNL A   1      44.148  35.637  31.982  1.00  0.00     0.054 A 
BRANCH  64  65
ATOM     65  S   UNL A   1      44.244  37.350  32.569  1.00  0.00     0.124 S 
ATOM     66  O   UNL A   1      45.661  37.474  32.906  1.00  0.00    -0.237 OA
ATOM     67  O   UNL A   1      43.807  38.115  31.404  1.00  0.00    -0.237 OA
ATOM     68  O   UNL A   1      43.329  37.379  33.708  1.00  0.00    -0.744 OA
ENDBRANCH  64  65
ENDBRANCH  45  59
BRANCH  46  69
ATOM     69  C   UNL A   1      42.712  23.684  27.708  1.00  0.00    -0.014 A 
ATOM     70  C   UNL A   1      42.759  23.428  26.327  1.00  0.00     0.010 A 
ATOM     71  C   UNL A   1      42.488  22.613  28.593  1.00  0.00     0.010 A 
ATOM     72  C   UNL A   1      42.570  22.130  25.839  1.00  0.00     0.020 A 
ATOM     73  C   UNL A   1      42.325  21.311  28.112  1.00  0.00     0.020 A 
ATOM     74  C   UNL A   1      42.354  21.080  26.736  1.00  0.00     0.054 A 
BRANCH  74  75
ATOM     75  S   UNL A   1      42.157  19.396  26.087  1.00  0.00     0.124 S 
ATOM     76  O   UNL A   1      42.562  18.582  27.228  1.00  0.00    -0.237 OA
ATOM     77  O   UNL A   1      40.737  19.351  25.749  1.00  0.00    -0.237 OA
ATOM     78  O   UNL A   1      43.063  19.364  24.941  1.00  0.00    -0.744 OA
ENDBRANCH  74  75
ENDBRANCH  46  69
BRANCH  58  79
ATOM     79  C   UNL A   1      48.274  27.355  29.783  1.00  0.00    -0.014 A 
ATOM     80  C   UNL A   1      49.150  27.551  28.703  1.00  0.00     0.010 A 
ATOM     81  C   UNL A   1      48.789  26.897  31.011  1.00  0.00     0.010 A 
ATOM     82  C   UNL A   1      50.513  27.272  28.840  1.00  0.00     0.020 A 
ATOM     83  C   UNL A   1      50.155  26.641  31.159  1.00  0.00     0.020 A 
ATOM     84  C   UNL A   1      51.007  26.819  30.067  1.00  0.00     0.054 A 
BRANCH  84  85
ATOM     85  S   UNL A   1      52.788  26.514  30.238  1.00  0.00     0.124 S 
ATOM     86  O   UNL A   1      53.161  26.124  28.882  1.00  0.00    -0.237 OA
ATOM     87  O   UNL A   1      53.296  27.811  30.681  1.00  0.00    -0.237 OA
ATOM     88  O   UNL A   1      52.863  25.450  31.236  1.00  0.00    -0.744 OA
ENDBRANCH  84  85
ENDBRANCH  58  79
ENDBRANCH  32  33
ENDBRANCH  25  27
ENDBRANCH  24  25
ENDBRANCH  23  24
ENDBRANCH  22  23
ENDBRANCH  21  22
ENDBRANCH   1  21
TORSDOF 22
ENDMDL
