MODEL 1
REMARK VINA RESULT:     -10.6      0.000      0.000
REMARK SMILES CCc1cc(N2CCC[C@H](C(=O)OCCOCCOCCOC(=O)c3ccc(-c4c5nc(c(-c6ccc(S(=O)(=O)[O-])cc6)c6ccc([nH]6)c(-c6ccc(S(=O)(=O)[O-])cc6)c6nc(c(-c7ccc(S(=O)(=O)[O-])cc7)c7ccc4[nH]7)C=C6)C=C5)cc3)C2)nc(-c2ccc(Cl)cc2)n1
REMARK SMILES IDX 18 1 17 2 16 3 15 4 14 5 13 6 11 7 12 8 10 9 6 10 7 11 85 12
REMARK SMILES IDX 8 13 9 14 5 15 3 16 4 17 95 18 87 19 86 20 2 21 1 22 88 23
REMARK SMILES IDX 89 24 94 25 90 26 93 27 91 28 92 29 19 30 20 31 21 32 22 33
REMARK SMILES IDX 23 34 24 35 25 36 26 37 84 38 27 39 83 40 28 41 29 42 30 43
REMARK SMILES IDX 77 44 31 45 82 46 76 47 78 48 32 49 81 50 75 51 74 52 33 54
REMARK SMILES IDX 63 55 44 56 62 57 45 58 48 59 61 60 79 61 46 62 47 63 60 65
REMARK SMILES IDX 80 66 49 67 34 68 35 69 43 70 36 71 42 72 37 73 38 74 39 75
REMARK SMILES IDX 40 76 41 77 64 78 65 79 73 80 66 81 72 82 67 83 68 84 69 85
REMARK SMILES IDX 70 86 71 87 50 88 51 89 59 90 52 91 58 92 53 93 54 94 55 95
REMARK SMILES IDX 56 96 57 97
REMARK H PARENT 78 53 48 64
REMARK Flexibility Score: inf
ROOT
ATOM      1  C   UNL A   1      39.226  22.851  26.646  1.00  0.00     0.188 C 
ENDROOT
BRANCH   1   2
ATOM      2  C   UNL A   1      38.063  23.315  25.757  1.00  0.00     0.188 C 
BRANCH   2   3
ATOM      3  O   UNL A   1      36.820  22.636  25.856  1.00  0.00    -0.376 OA
BRANCH   3   4
ATOM      4  C   UNL A   1      35.639  23.424  25.884  1.00  0.00     0.202 C 
BRANCH   4   5
ATOM      5  C   UNL A   1      35.195  24.159  24.606  1.00  0.00     0.261 C 
BRANCH   5   6
ATOM      6  O   UNL A   1      34.049  25.028  24.690  1.00  0.00    -0.463 OA
BRANCH   6   7
ATOM      7  C   UNL A   1      33.208  25.039  23.629  1.00  0.00     0.310 C 
ATOM      8  O   UNL A   1      33.278  25.849  22.708  1.00  0.00    -0.252 OA
BRANCH   7   9
ATOM      9  C   UNL A   1      32.116  23.972  23.667  1.00  0.00     0.118 C 
ATOM     10  N   UNL A   1      30.435  25.376  24.767  1.00  0.00    -0.356 N 
ATOM     11  C   UNL A   1      30.347  24.563  25.972  1.00  0.00     0.118 C 
ATOM     12  C   UNL A   1      30.784  24.700  23.509  1.00  0.00     0.133 C 
ATOM     13  C   UNL A   1      31.586  23.691  26.153  1.00  0.00     0.022 C 
ATOM     14  C   UNL A   1      31.977  23.001  24.848  1.00  0.00     0.019 C 
BRANCH  10  15
ATOM     15  C   UNL A   1      30.654  26.747  24.858  1.00  0.00     0.132 A 
ATOM     16  C   UNL A   1      31.766  28.544  25.945  1.00  0.00     0.046 A 
ATOM     17  C   UNL A   1      31.516  27.195  25.844  1.00  0.00     0.070 A 
ATOM     18  N   UNL A   1      31.166  29.427  25.127  1.00  0.00    -0.233 NA
ATOM     19  C   UNL A   1      30.328  28.919  24.203  1.00  0.00     0.161 A 
ATOM     20  N   UNL A   1      30.063  27.609  24.011  1.00  0.00    -0.211 NA
BRANCH  16  21
ATOM     21  C   UNL A   1      32.714  29.113  26.969  1.00  0.00     0.053 C 
ATOM     22  C   UNL A   1      32.789  30.635  27.043  1.00  0.00     0.011 C 
ENDBRANCH  16  21
BRANCH  19  23
ATOM     23  C   UNL A   1      29.655  29.907  23.351  1.00  0.00     0.019 A 
ATOM     24  C   UNL A   1      29.428  29.652  21.990  1.00  0.00     0.013 A 
ATOM     25  C   UNL A   1      29.285  31.169  23.849  1.00  0.00     0.013 A 
ATOM     26  C   UNL A   1      28.825  30.611  21.167  1.00  0.00     0.021 A 
ATOM     27  C   UNL A   1      28.650  32.118  23.042  1.00  0.00     0.021 A 
ATOM     28  C   UNL A   1      28.425  31.834  21.701  1.00  0.00     0.041 A 
ATOM     29  Cl  UNL A   1      27.677  33.010  20.691  1.00  0.00    -0.084 Cl
ENDBRANCH  19  23
ENDBRANCH  10  15
ENDBRANCH   7   9
ENDBRANCH   6   7
ENDBRANCH   5   6
ENDBRANCH   4   5
ENDBRANCH   3   4
ENDBRANCH   2   3
ENDBRANCH   1   2
BRANCH   1  30
ATOM     30  O   UNL A   1      40.143  21.972  26.029  1.00  0.00    -0.376 OA
BRANCH  30  31
ATOM     31  C   UNL A   1      41.511  22.085  26.379  1.00  0.00     0.202 C 
BRANCH  31  32
ATOM     32  C   UNL A   1      42.255  23.241  25.691  1.00  0.00     0.261 C 
BRANCH  32  33
ATOM     33  O   UNL A   1      42.471  24.413  26.502  1.00  0.00    -0.460 OA
BRANCH  33  34
ATOM     34  C   UNL A   1      41.720  25.504  26.213  1.00  0.00     0.338 C 
ATOM     35  O   UNL A   1      41.020  25.656  25.224  1.00  0.00    -0.246 OA
BRANCH  34  36
ATOM     36  C   UNL A   1      41.639  26.345  27.438  1.00  0.00     0.060 A 
ATOM     37  C   UNL A   1      40.678  26.017  28.408  1.00  0.00     0.016 A 
ATOM     38  C   UNL A   1      42.542  27.384  27.680  1.00  0.00     0.016 A 
ATOM     39  C   UNL A   1      40.587  26.752  29.592  1.00  0.00     0.010 A 
ATOM     40  C   UNL A   1      42.436  28.136  28.858  1.00  0.00     0.010 A 
ATOM     41  C   UNL A   1      41.433  27.848  29.803  1.00  0.00    -0.014 A 
BRANCH  41  42
ATOM     42  C   UNL A   1      41.117  28.806  30.897  1.00  0.00     0.031 A 
ATOM     43  C   UNL A   1      41.984  28.790  32.130  1.00  0.00     0.074 A 
ATOM     44  C   UNL A   1      40.132  29.716  30.788  1.00  0.00     0.049 A 
ATOM     45  N   UNL A   1      41.952  29.569  33.180  1.00  0.00    -0.248 NA
ATOM     46  C   UNL A   1      43.032  27.756  32.179  1.00  0.00     0.031 C 
ATOM     47  C   UNL A   1      39.240  29.871  29.640  1.00  0.00     0.029 A 
ATOM     48  N   UNL A   1      39.725  30.694  31.664  1.00  0.00    -0.354 N 
ATOM     49  C   UNL A   1      42.972  29.122  34.014  1.00  0.00     0.074 A 
ATOM     50  C   UNL A   1      43.575  27.977  33.365  1.00  0.00     0.031 C 
ATOM     51  C   UNL A   1      38.399  30.893  29.878  1.00  0.00     0.029 A 
ATOM     52  C   UNL A   1      38.672  31.449  31.203  1.00  0.00     0.049 A 
ATOM     53  H   UNL A   1      40.148  30.840  32.541  1.00  0.00     0.167 HD
ATOM     54  C   UNL A   1      43.383  29.620  35.204  1.00  0.00     0.031 A 
ATOM     55  C   UNL A   1      38.005  32.469  31.782  1.00  0.00     0.031 A 
ATOM     56  C   UNL A   1      42.768  30.738  35.870  1.00  0.00     0.049 A 
ATOM     57  C   UNL A   1      38.428  32.960  33.144  1.00  0.00     0.074 A 
ATOM     58  C   UNL A   1      43.117  31.319  37.076  1.00  0.00     0.029 A 
ATOM     59  N   UNL A   1      41.667  31.436  35.395  1.00  0.00    -0.354 N 
ATOM     60  N   UNL A   1      39.415  32.546  33.904  1.00  0.00    -0.248 NA
ATOM     61  C   UNL A   1      37.654  34.070  33.717  1.00  0.00     0.031 C 
ATOM     62  C   UNL A   1      42.188  32.326  37.362  1.00  0.00     0.029 A 
ATOM     63  C   UNL A   1      41.306  32.423  36.297  1.00  0.00     0.049 A 
ATOM     64  H   UNL A   1      41.210  31.255  34.542  1.00  0.00     0.167 HD
ATOM     65  C   UNL A   1      39.400  33.368  35.029  1.00  0.00     0.074 A 
ATOM     66  C   UNL A   1      38.316  34.310  34.841  1.00  0.00     0.031 C 
ATOM     67  C   UNL A   1      40.216  33.349  36.113  1.00  0.00     0.031 A 
BRANCH  54  68
ATOM     68  C   UNL A   1      44.534  28.919  35.881  1.00  0.00    -0.014 A 
ATOM     69  C   UNL A   1      45.868  29.298  35.640  1.00  0.00     0.010 A 
ATOM     70  C   UNL A   1      44.276  27.863  36.774  1.00  0.00     0.010 A 
ATOM     71  C   UNL A   1      46.921  28.601  36.236  1.00  0.00     0.020 A 
ATOM     72  C   UNL A   1      45.325  27.184  37.398  1.00  0.00     0.020 A 
ATOM     73  C   UNL A   1      46.643  27.543  37.106  1.00  0.00     0.054 A 
BRANCH  73  74
ATOM     74  S   UNL A   1      48.029  26.650  37.862  1.00  0.00     0.124 S 
ATOM     75  O   UNL A   1      47.501  26.346  39.190  1.00  0.00    -0.237 OA
ATOM     76  O   UNL A   1      48.192  25.502  36.974  1.00  0.00    -0.237 OA
ATOM     77  O   UNL A   1      49.123  27.618  37.833  1.00  0.00    -0.744 OA
ENDBRANCH  73  74
ENDBRANCH  54  68
BRANCH  55  78
ATOM     78  C   UNL A   1      36.867  33.112  31.066  1.00  0.00    -0.014 A 
ATOM     79  C   UNL A   1      35.572  33.096  31.615  1.00  0.00     0.010 A 
ATOM     80  C   UNL A   1      37.074  33.753  29.830  1.00  0.00     0.010 A 
ATOM     81  C   UNL A   1      34.507  33.704  30.942  1.00  0.00     0.020 A 
ATOM     82  C   UNL A   1      36.018  34.387  29.169  1.00  0.00     0.020 A 
ATOM     83  C   UNL A   1      34.740  34.354  29.726  1.00  0.00     0.054 A 
BRANCH  83  84
ATOM     84  S   UNL A   1      33.358  35.206  28.914  1.00  0.00     0.124 S 
ATOM     85  O   UNL A   1      34.041  36.269  28.183  1.00  0.00    -0.237 OA
ATOM     86  O   UNL A   1      32.777  34.146  28.094  1.00  0.00    -0.237 OA
ATOM     87  O   UNL A   1      32.525  35.647  30.030  1.00  0.00    -0.744 OA
ENDBRANCH  83  84
ENDBRANCH  55  78
BRANCH  67  88
ATOM     88  C   UNL A   1      39.995  34.405  37.169  1.00  0.00    -0.014 A 
ATOM     89  C   UNL A   1      39.147  34.186  38.270  1.00  0.00     0.010 A 
ATOM     90  C   UNL A   1      40.669  35.637  37.067  1.00  0.00     0.010 A 
ATOM     91  C   UNL A   1      38.932  35.197  39.213  1.00  0.00     0.020 A 
ATOM     92  C   UNL A   1      40.486  36.637  38.025  1.00  0.00     0.020 A 
ATOM     93  C   UNL A   1      39.598  36.419  39.081  1.00  0.00     0.054 A 
BRANCH  93  94
ATOM     94  S   UNL A   1      39.304  37.715  40.316  1.00  0.00     0.124 S 
ATOM     95  O   UNL A   1      40.494  38.549  40.170  1.00  0.00    -0.237 OA
ATOM     96  O   UNL A   1      38.055  38.317  39.857  1.00  0.00    -0.237 OA
ATOM     97  O   UNL A   1      39.210  36.981  41.575  1.00  0.00    -0.744 OA
ENDBRANCH  93  94
ENDBRANCH  67  88
ENDBRANCH  41  42
ENDBRANCH  34  36
ENDBRANCH  33  34
ENDBRANCH  32  33
ENDBRANCH  31  32
ENDBRANCH  30  31
ENDBRANCH   1  30
TORSDOF 23
ENDMDL
MODEL 2
REMARK VINA RESULT:      -9.6      1.451      2.038
REMARK SMILES CCc1cc(N2CCC[C@H](C(=O)OCCOCCOCCOC(=O)c3ccc(-c4c5nc(c(-c6ccc(S(=O)(=O)[O-])cc6)c6ccc([nH]6)c(-c6ccc(S(=O)(=O)[O-])cc6)c6nc(c(-c7ccc(S(=O)(=O)[O-])cc7)c7ccc4[nH]7)C=C6)C=C5)cc3)C2)nc(-c2ccc(Cl)cc2)n1
REMARK SMILES IDX 18 1 17 2 16 3 15 4 14 5 13 6 11 7 12 8 10 9 6 10 7 11 85 12
REMARK SMILES IDX 8 13 9 14 5 15 3 16 4 17 95 18 87 19 86 20 2 21 1 22 88 23
REMARK SMILES IDX 89 24 94 25 90 26 93 27 91 28 92 29 19 30 20 31 21 32 22 33
REMARK SMILES IDX 23 34 24 35 25 36 26 37 84 38 27 39 83 40 28 41 29 42 30 43
REMARK SMILES IDX 77 44 31 45 82 46 76 47 78 48 32 49 81 50 75 51 74 52 33 54
REMARK SMILES IDX 63 55 44 56 62 57 45 58 48 59 61 60 79 61 46 62 47 63 60 65
REMARK SMILES IDX 80 66 49 67 34 68 35 69 43 70 36 71 42 72 37 73 38 74 39 75
REMARK SMILES IDX 40 76 41 77 64 78 65 79 73 80 66 81 72 82 67 83 68 84 69 85
REMARK SMILES IDX 70 86 71 87 50 88 51 89 59 90 52 91 58 92 53 93 54 94 55 95
REMARK SMILES IDX 56 96 57 97
REMARK H PARENT 78 53 48 64
REMARK Flexibility Score: inf
ROOT
ATOM      1  C   UNL A   1      40.263  22.743  26.993  1.00  0.00     0.188 C 
ENDROOT
BRANCH   1   2
ATOM      2  C   UNL A   1      38.771  22.930  26.682  1.00  0.00     0.188 C 
BRANCH   2   3
ATOM      3  O   UNL A   1      38.275  22.472  25.432  1.00  0.00    -0.376 OA
BRANCH   3   4
ATOM      4  C   UNL A   1      36.868  22.375  25.276  1.00  0.00     0.202 C 
BRANCH   4   5
ATOM      5  C   UNL A   1      36.173  23.214  24.189  1.00  0.00     0.261 C 
BRANCH   5   6
ATOM      6  O   UNL A   1      34.805  23.607  24.410  1.00  0.00    -0.463 OA
BRANCH   6   7
ATOM      7  C   UNL A   1      33.993  23.644  23.327  1.00  0.00     0.310 C 
ATOM      8  O   UNL A   1      33.995  24.552  22.500  1.00  0.00    -0.252 OA
BRANCH   7   9
ATOM      9  C   UNL A   1      33.026  22.467  23.212  1.00  0.00     0.118 C 
ATOM     10  N   UNL A   1      31.156  23.572  24.348  1.00  0.00    -0.356 N 
ATOM     11  C   UNL A   1      31.110  22.642  25.469  1.00  0.00     0.118 C 
ATOM     12  C   UNL A   1      31.628  23.061  23.054  1.00  0.00     0.133 C 
ATOM     13  C   UNL A   1      32.431  21.894  25.633  1.00  0.00     0.022 C 
ATOM     14  C   UNL A   1      32.948  21.379  24.291  1.00  0.00     0.019 C 
BRANCH  10  15
ATOM     15  C   UNL A   1      31.217  24.943  24.575  1.00  0.00     0.132 A 
ATOM     16  C   UNL A   1      32.037  26.733  25.906  1.00  0.00     0.046 A 
ATOM     17  C   UNL A   1      31.944  25.381  25.668  1.00  0.00     0.070 A 
ATOM     18  N   UNL A   1      31.413  27.624  25.114  1.00  0.00    -0.233 NA
ATOM     19  C   UNL A   1      30.712  27.123  24.079  1.00  0.00     0.161 A 
ATOM     20  N   UNL A   1      30.607  25.817  23.754  1.00  0.00    -0.211 NA
BRANCH  16  21
ATOM     21  C   UNL A   1      32.833  27.296  27.055  1.00  0.00     0.053 C 
ATOM     22  C   UNL A   1      32.972  28.815  27.096  1.00  0.00     0.011 C 
ENDBRANCH  16  21
BRANCH  19  23
ATOM     23  C   UNL A   1      30.007  28.113  23.257  1.00  0.00     0.019 A 
ATOM     24  C   UNL A   1      30.715  29.055  22.495  1.00  0.00     0.013 A 
ATOM     25  C   UNL A   1      28.604  28.203  23.267  1.00  0.00     0.013 A 
ATOM     26  C   UNL A   1      30.042  30.028  21.744  1.00  0.00     0.021 A 
ATOM     27  C   UNL A   1      27.924  29.149  22.493  1.00  0.00     0.021 A 
ATOM     28  C   UNL A   1      28.650  30.060  21.735  1.00  0.00     0.041 A 
ATOM     29  Cl  UNL A   1      27.822  31.251  20.807  1.00  0.00    -0.084 Cl
ENDBRANCH  19  23
ENDBRANCH  10  15
ENDBRANCH   7   9
ENDBRANCH   6   7
ENDBRANCH   5   6
ENDBRANCH   4   5
ENDBRANCH   3   4
ENDBRANCH   2   3
ENDBRANCH   1   2
BRANCH   1  30
ATOM     30  O   UNL A   1      41.040  22.232  25.931  1.00  0.00    -0.376 OA
BRANCH  30  31
ATOM     31  C   UNL A   1      42.179  21.453  26.255  1.00  0.00     0.202 C 
BRANCH  31  32
ATOM     32  C   UNL A   1      43.514  22.035  25.762  1.00  0.00     0.261 C 
BRANCH  32  33
ATOM     33  O   UNL A   1      44.057  23.109  26.556  1.00  0.00    -0.460 OA
BRANCH  33  34
ATOM     34  C   UNL A   1      44.018  24.351  26.013  1.00  0.00     0.338 C 
ATOM     35  O   UNL A   1      44.175  24.628  24.835  1.00  0.00    -0.246 OA
BRANCH  34  36
ATOM     36  C   UNL A   1      43.443  25.277  27.026  1.00  0.00     0.060 A 
ATOM     37  C   UNL A   1      43.769  26.641  26.939  1.00  0.00     0.016 A 
ATOM     38  C   UNL A   1      42.533  24.842  27.992  1.00  0.00     0.016 A 
ATOM     39  C   UNL A   1      43.227  27.557  27.843  1.00  0.00     0.010 A 
ATOM     40  C   UNL A   1      42.006  25.758  28.912  1.00  0.00     0.010 A 
ATOM     41  C   UNL A   1      42.380  27.114  28.867  1.00  0.00    -0.014 A 
BRANCH  41  42
ATOM     42  C   UNL A   1      42.073  28.029  29.999  1.00  0.00     0.031 A 
ATOM     43  C   UNL A   1      42.982  28.003  31.202  1.00  0.00     0.074 A 
ATOM     44  C   UNL A   1      41.058  28.911  29.951  1.00  0.00     0.049 A 
ATOM     45  N   UNL A   1      42.963  28.750  32.276  1.00  0.00    -0.248 NA
ATOM     46  C   UNL A   1      44.061  27.001  31.184  1.00  0.00     0.031 C 
ATOM     47  C   UNL A   1      40.124  29.072  28.838  1.00  0.00     0.029 A 
ATOM     48  N   UNL A   1      40.652  29.850  30.869  1.00  0.00    -0.354 N 
ATOM     49  C   UNL A   1      44.023  28.310  33.061  1.00  0.00     0.074 A 
ATOM     50  C   UNL A   1      44.637  27.204  32.358  1.00  0.00     0.031 C 
ATOM     51  C   UNL A   1      39.261  30.061  29.135  1.00  0.00     0.029 A 
ATOM     52  C   UNL A   1      39.563  30.585  30.467  1.00  0.00     0.049 A 
ATOM     53  H   UNL A   1      41.101  29.983  31.735  1.00  0.00     0.167 HD
ATOM     54  C   UNL A   1      44.459  28.785  34.251  1.00  0.00     0.031 A 
ATOM     55  C   UNL A   1      38.886  31.567  31.098  1.00  0.00     0.031 A 
ATOM     56  C   UNL A   1      43.835  29.864  34.971  1.00  0.00     0.049 A 
ATOM     57  C   UNL A   1      39.340  32.031  32.460  1.00  0.00     0.074 A 
ATOM     58  C   UNL A   1      44.207  30.420  36.182  1.00  0.00     0.029 A 
ATOM     59  N   UNL A   1      42.698  30.541  34.554  1.00  0.00    -0.354 N 
ATOM     60  N   UNL A   1      40.365  31.626  33.173  1.00  0.00    -0.248 NA
ATOM     61  C   UNL A   1      38.554  33.100  33.092  1.00  0.00     0.031 C 
ATOM     62  C   UNL A   1      43.259  31.389  36.529  1.00  0.00     0.029 A 
ATOM     63  C   UNL A   1      42.339  31.490  35.498  1.00  0.00     0.049 A 
ATOM     64  H   UNL A   1      42.218  30.372  33.712  1.00  0.00     0.167 HD
ATOM     65  C   UNL A   1      40.364  32.414  34.323  1.00  0.00     0.074 A 
ATOM     66  C   UNL A   1      39.247  33.327  34.200  1.00  0.00     0.031 C 
ATOM     67  C   UNL A   1      41.216  32.387  35.378  1.00  0.00     0.031 A 
BRANCH  54  68
ATOM     68  C   UNL A   1      45.653  28.100  34.868  1.00  0.00    -0.014 A 
ATOM     69  C   UNL A   1      45.504  26.966  35.689  1.00  0.00     0.010 A 
ATOM     70  C   UNL A   1      46.945  28.601  34.624  1.00  0.00     0.010 A 
ATOM     71  C   UNL A   1      46.618  26.380  36.295  1.00  0.00     0.020 A 
ATOM     72  C   UNL A   1      48.064  27.997  35.202  1.00  0.00     0.020 A 
ATOM     73  C   UNL A   1      47.891  26.904  36.053  1.00  0.00     0.054 A 
BRANCH  73  74
ATOM     74  S   UNL A   1      49.319  26.127  36.857  1.00  0.00     0.124 S 
ATOM     75  O   UNL A   1      48.673  25.227  37.810  1.00  0.00    -0.237 OA
ATOM     76  O   UNL A   1      50.000  25.477  35.741  1.00  0.00    -0.237 OA
ATOM     77  O   UNL A   1      50.037  27.252  37.453  1.00  0.00    -0.744 OA
ENDBRANCH  73  74
ENDBRANCH  54  68
BRANCH  55  78
ATOM     78  C   UNL A   1      37.705  32.196  30.440  1.00  0.00    -0.014 A 
ATOM     79  C   UNL A   1      37.862  33.308  29.592  1.00  0.00     0.010 A 
ATOM     80  C   UNL A   1      36.414  31.679  30.652  1.00  0.00     0.010 A 
ATOM     81  C   UNL A   1      36.752  33.892  28.974  1.00  0.00     0.020 A 
ATOM     82  C   UNL A   1      35.305  32.242  30.013  1.00  0.00     0.020 A 
ATOM     83  C   UNL A   1      35.481  33.348  29.182  1.00  0.00     0.054 A 
BRANCH  83  84
ATOM     84  S   UNL A   1      34.067  34.074  28.304  1.00  0.00     0.124 S 
ATOM     85  O   UNL A   1      33.101  34.261  29.381  1.00  0.00    -0.237 OA
ATOM     86  O   UNL A   1      34.640  35.297  27.747  1.00  0.00    -0.237 OA
ATOM     87  O   UNL A   1      33.717  33.054  27.317  1.00  0.00    -0.744 OA
ENDBRANCH  83  84
ENDBRANCH  55  78
BRANCH  67  88
ATOM     88  C   UNL A   1      41.001  33.405  36.473  1.00  0.00    -0.014 A 
ATOM     89  C   UNL A   1      40.580  33.028  37.761  1.00  0.00     0.010 A 
ATOM     90  C   UNL A   1      41.246  34.766  36.210  1.00  0.00     0.010 A 
ATOM     91  C   UNL A   1      40.352  33.997  38.744  1.00  0.00     0.020 A 
ATOM     92  C   UNL A   1      41.054  35.734  37.199  1.00  0.00     0.020 A 
ATOM     93  C   UNL A   1      40.584  35.345  38.455  1.00  0.00     0.054 A 
BRANCH  93  94
ATOM     94  S   UNL A   1      40.281  36.583  39.745  1.00  0.00     0.124 S 
ATOM     95  O   UNL A   1      39.619  35.791  40.778  1.00  0.00    -0.237 OA
ATOM     96  O   UNL A   1      41.629  37.041  40.073  1.00  0.00    -0.237 OA
ATOM     97  O   UNL A   1      39.436  37.574  39.084  1.00  0.00    -0.744 OA
ENDBRANCH  93  94
ENDBRANCH  67  88
ENDBRANCH  41  42
ENDBRANCH  34  36
ENDBRANCH  33  34
ENDBRANCH  32  33
ENDBRANCH  31  32
ENDBRANCH  30  31
ENDBRANCH   1  30
TORSDOF 23
ENDMDL
MODEL 3
REMARK VINA RESULT:      -9.2      4.222     10.032
REMARK SMILES CCc1cc(N2CCC[C@H](C(=O)OCCOCCOCCOC(=O)c3ccc(-c4c5nc(c(-c6ccc(S(=O)(=O)[O-])cc6)c6ccc([nH]6)c(-c6ccc(S(=O)(=O)[O-])cc6)c6nc(c(-c7ccc(S(=O)(=O)[O-])cc7)c7ccc4[nH]7)C=C6)C=C5)cc3)C2)nc(-c2ccc(Cl)cc2)n1
REMARK SMILES IDX 18 1 17 2 16 3 15 4 14 5 13 6 11 7 12 8 10 9 6 10 7 11 85 12
REMARK SMILES IDX 8 13 9 14 5 15 3 16 4 17 95 18 87 19 86 20 2 21 1 22 88 23
REMARK SMILES IDX 89 24 94 25 90 26 93 27 91 28 92 29 19 30 20 31 21 32 22 33
REMARK SMILES IDX 23 34 24 35 25 36 26 37 84 38 27 39 83 40 28 41 29 42 30 43
REMARK SMILES IDX 77 44 31 45 82 46 76 47 78 48 32 49 81 50 75 51 74 52 33 54
REMARK SMILES IDX 63 55 44 56 62 57 45 58 48 59 61 60 79 61 46 62 47 63 60 65
REMARK SMILES IDX 80 66 49 67 34 68 35 69 43 70 36 71 42 72 37 73 38 74 39 75
REMARK SMILES IDX 40 76 41 77 64 78 65 79 73 80 66 81 72 82 67 83 68 84 69 85
REMARK SMILES IDX 70 86 71 87 50 88 51 89 59 90 52 91 58 92 53 93 54 94 55 95
REMARK SMILES IDX 56 96 57 97
REMARK H PARENT 78 53 48 64
REMARK Flexibility Score: inf
ROOT
ATOM      1  C   UNL A   1      32.526  27.672  27.027  1.00  0.00     0.188 C 
ENDROOT
BRANCH   1   2
ATOM      2  C   UNL A   1      31.608  26.521  26.592  1.00  0.00     0.188 C 
BRANCH   2   3
ATOM      3  O   UNL A   1      32.139  25.204  26.561  1.00  0.00    -0.376 OA
BRANCH   3   4
ATOM      4  C   UNL A   1      31.221  24.121  26.595  1.00  0.00     0.202 C 
BRANCH   4   5
ATOM      5  C   UNL A   1      31.654  22.788  27.232  1.00  0.00     0.261 C 
BRANCH   5   6
ATOM      6  O   UNL A   1      31.955  21.686  26.355  1.00  0.00    -0.463 OA
BRANCH   6   7
ATOM      7  C   UNL A   1      33.030  20.926  26.671  1.00  0.00     0.310 C 
ATOM      8  O   UNL A   1      33.746  21.123  27.649  1.00  0.00    -0.252 OA
BRANCH   7   9
ATOM      9  C   UNL A   1      33.323  19.793  25.688  1.00  0.00     0.118 C 
ATOM     10  N   UNL A   1      34.145  21.237  23.885  1.00  0.00    -0.356 N 
ATOM     11  C   UNL A   1      33.090  20.890  22.943  1.00  0.00     0.118 C 
ATOM     12  C   UNL A   1      34.541  20.223  24.873  1.00  0.00     0.133 C 
ATOM     13  C   UNL A   1      31.865  20.322  23.654  1.00  0.00     0.022 C 
ATOM     14  C   UNL A   1      32.262  19.285  24.703  1.00  0.00     0.019 C 
BRANCH  10  15
ATOM     15  C   UNL A   1      34.429  22.570  24.163  1.00  0.00     0.132 A 
ATOM     16  C   UNL A   1      35.818  24.148  25.274  1.00  0.00     0.046 A 
ATOM     17  C   UNL A   1      35.502  22.837  24.996  1.00  0.00     0.070 A 
ATOM     18  N   UNL A   1      35.087  25.160  24.774  1.00  0.00    -0.233 NA
ATOM     19  C   UNL A   1      34.050  24.823  23.985  1.00  0.00     0.161 A 
ATOM     20  N   UNL A   1      33.701  23.568  23.631  1.00  0.00    -0.211 NA
BRANCH  16  21
ATOM     21  C   UNL A   1      36.986  24.528  26.146  1.00  0.00     0.053 C 
ATOM     22  C   UNL A   1      38.320  23.869  25.808  1.00  0.00     0.011 C 
ENDBRANCH  16  21
BRANCH  19  23
ATOM     23  C   UNL A   1      33.244  25.945  23.488  1.00  0.00     0.019 A 
ATOM     24  C   UNL A   1      33.743  27.256  23.506  1.00  0.00     0.013 A 
ATOM     25  C   UNL A   1      31.920  25.756  23.053  1.00  0.00     0.013 A 
ATOM     26  C   UNL A   1      32.958  28.333  23.072  1.00  0.00     0.021 A 
ATOM     27  C   UNL A   1      31.143  26.821  22.586  1.00  0.00     0.021 A 
ATOM     28  C   UNL A   1      31.668  28.107  22.601  1.00  0.00     0.041 A 
ATOM     29  Cl  UNL A   1      30.706  29.429  22.061  1.00  0.00    -0.084 Cl
ENDBRANCH  19  23
ENDBRANCH  10  15
ENDBRANCH   7   9
ENDBRANCH   6   7
ENDBRANCH   5   6
ENDBRANCH   4   5
ENDBRANCH   3   4
ENDBRANCH   2   3
ENDBRANCH   1   2
BRANCH   1  30
ATOM     30  O   UNL A   1      32.341  28.887  26.331  1.00  0.00    -0.376 OA
BRANCH  30  31
ATOM     31  C   UNL A   1      31.849  30.000  27.056  1.00  0.00     0.202 C 
BRANCH  31  32
ATOM     32  C   UNL A   1      32.885  31.106  27.312  1.00  0.00     0.261 C 
BRANCH  32  33
ATOM     33  O   UNL A   1      34.238  30.656  27.528  1.00  0.00    -0.460 OA
BRANCH  33  34
ATOM     34  C   UNL A   1      34.909  31.213  28.565  1.00  0.00     0.338 C 
ATOM     35  O   UNL A   1      34.437  31.947  29.419  1.00  0.00    -0.246 OA
BRANCH  34  36
ATOM     36  C   UNL A   1      36.231  30.538  28.674  1.00  0.00     0.060 A 
ATOM     37  C   UNL A   1      36.598  29.991  29.915  1.00  0.00     0.016 A 
ATOM     38  C   UNL A   1      37.063  30.363  27.565  1.00  0.00     0.016 A 
ATOM     39  C   UNL A   1      37.811  29.315  30.059  1.00  0.00     0.010 A 
ATOM     40  C   UNL A   1      38.290  29.703  27.716  1.00  0.00     0.010 A 
ATOM     41  C   UNL A   1      38.688  29.209  28.972  1.00  0.00    -0.014 A 
BRANCH  41  42
ATOM     42  C   UNL A   1      40.093  28.781  29.215  1.00  0.00     0.031 A 
ATOM     43  C   UNL A   1      41.009  29.728  29.946  1.00  0.00     0.074 A 
ATOM     44  C   UNL A   1      40.541  27.563  28.859  1.00  0.00     0.049 A 
ATOM     45  N   UNL A   1      42.246  29.555  30.335  1.00  0.00    -0.248 NA
ATOM     46  C   UNL A   1      40.449  31.046  30.288  1.00  0.00     0.031 C 
ATOM     47  C   UNL A   1      39.755  26.533  28.181  1.00  0.00     0.029 A 
ATOM     48  N   UNL A   1      41.775  26.984  29.034  1.00  0.00    -0.354 N 
ATOM     49  C   UNL A   1      42.613  30.739  30.966  1.00  0.00     0.074 A 
ATOM     50  C   UNL A   1      41.481  31.636  30.870  1.00  0.00     0.031 C 
ATOM     51  C   UNL A   1      40.525  25.443  28.008  1.00  0.00     0.029 A 
ATOM     52  C   UNL A   1      41.863  25.705  28.539  1.00  0.00     0.049 A 
ATOM     53  H   UNL A   1      42.526  27.443  29.474  1.00  0.00     0.167 HD
ATOM     54  C   UNL A   1      43.776  31.054  31.583  1.00  0.00     0.031 A 
ATOM     55  C   UNL A   1      42.901  24.843  28.515  1.00  0.00     0.031 A 
ATOM     56  C   UNL A   1      44.917  30.179  31.654  1.00  0.00     0.049 A 
ATOM     57  C   UNL A   1      44.216  25.242  29.138  1.00  0.00     0.074 A 
ATOM     58  C   UNL A   1      46.139  30.407  32.262  1.00  0.00     0.029 A 
ATOM     59  N   UNL A   1      44.984  28.914  31.088  1.00  0.00    -0.354 N 
ATOM     60  N   UNL A   1      44.535  26.353  29.759  1.00  0.00    -0.248 NA
ATOM     61  C   UNL A   1      45.306  24.258  29.070  1.00  0.00     0.031 C 
ATOM     62  C   UNL A   1      46.967  29.307  32.008  1.00  0.00     0.029 A 
ATOM     63  C   UNL A   1      46.235  28.361  31.307  1.00  0.00     0.049 A 
ATOM     64  H   UNL A   1      44.249  28.475  30.602  1.00  0.00     0.167 HD
ATOM     65  C   UNL A   1      45.851  26.186  30.185  1.00  0.00     0.074 A 
ATOM     66  C   UNL A   1      46.261  24.863  29.763  1.00  0.00     0.031 C 
ATOM     67  C   UNL A   1      46.644  27.049  30.871  1.00  0.00     0.031 A 
BRANCH  54  68
ATOM     68  C   UNL A   1      43.882  32.430  32.191  1.00  0.00    -0.014 A 
ATOM     69  C   UNL A   1      43.841  32.620  33.585  1.00  0.00     0.010 A 
ATOM     70  C   UNL A   1      44.024  33.551  31.353  1.00  0.00     0.010 A 
ATOM     71  C   UNL A   1      43.885  33.908  34.125  1.00  0.00     0.020 A 
ATOM     72  C   UNL A   1      44.102  34.838  31.891  1.00  0.00     0.020 A 
ATOM     73  C   UNL A   1      44.009  35.009  33.274  1.00  0.00     0.054 A 
BRANCH  73  74
ATOM     74  S   UNL A   1      44.058  36.670  34.001  1.00  0.00     0.124 S 
ATOM     75  O   UNL A   1      45.347  37.167  33.527  1.00  0.00    -0.237 OA
ATOM     76  O   UNL A   1      42.884  37.311  33.414  1.00  0.00    -0.237 OA
ATOM     77  O   UNL A   1      43.977  36.423  35.438  1.00  0.00    -0.744 OA
ENDBRANCH  73  74
ENDBRANCH  54  68
BRANCH  55  78
ATOM     78  C   UNL A   1      42.738  23.501  27.886  1.00  0.00    -0.014 A 
ATOM     79  C   UNL A   1      42.244  22.415  28.630  1.00  0.00     0.010 A 
ATOM     80  C   UNL A   1      43.069  23.305  26.533  1.00  0.00     0.010 A 
ATOM     81  C   UNL A   1      42.089  21.158  28.036  1.00  0.00     0.020 A 
ATOM     82  C   UNL A   1      42.888  22.058  25.927  1.00  0.00     0.020 A 
ATOM     83  C   UNL A   1      42.403  20.991  26.684  1.00  0.00     0.054 A 
BRANCH  83  84
ATOM     84  S   UNL A   1      42.116  19.372  25.915  1.00  0.00     0.124 S 
ATOM     85  O   UNL A   1      40.670  19.382  25.713  1.00  0.00    -0.237 OA
ATOM     86  O   UNL A   1      42.925  19.454  24.702  1.00  0.00    -0.237 OA
ATOM     87  O   UNL A   1      42.602  18.426  26.918  1.00  0.00    -0.744 OA
ENDBRANCH  83  84
ENDBRANCH  55  78
BRANCH  67  88
ATOM     88  C   UNL A   1      48.027  26.575  31.247  1.00  0.00    -0.014 A 
ATOM     89  C   UNL A   1      49.136  26.791  30.409  1.00  0.00     0.010 A 
ATOM     90  C   UNL A   1      48.223  25.917  32.476  1.00  0.00     0.010 A 
ATOM     91  C   UNL A   1      50.400  26.307  30.765  1.00  0.00     0.020 A 
ATOM     92  C   UNL A   1      49.490  25.463  32.853  1.00  0.00     0.020 A 
ATOM     93  C   UNL A   1      50.567  25.640  31.982  1.00  0.00     0.054 A 
BRANCH  93  94
ATOM     94  S   UNL A   1      52.214  25.021  32.423  1.00  0.00     0.124 S 
ATOM     95  O   UNL A   1      53.040  25.556  31.343  1.00  0.00    -0.237 OA
ATOM     96  O   UNL A   1      52.439  25.615  33.738  1.00  0.00    -0.237 OA
ATOM     97  O   UNL A   1      52.052  23.569  32.421  1.00  0.00    -0.744 OA
ENDBRANCH  93  94
ENDBRANCH  67  88
ENDBRANCH  41  42
ENDBRANCH  34  36
ENDBRANCH  33  34
ENDBRANCH  32  33
ENDBRANCH  31  32
ENDBRANCH  30  31
ENDBRANCH   1  30
TORSDOF 23
ENDMDL
