MODEL 1
REMARK VINA RESULT:      -7.6      0.000      0.000
REMARK SMILES COc1ccc([C@@H]2Nc3c(C(=O)OCCOCCOCCOC(=O)c4ccc(-c5c6nc(c(-c7ccc(S(=O)(=O)[O-])cc7)c7ccc([nH]7)c(-c7ccc(S(=O)(=O)[O-])cc7)c7nc(c(-c8ccc(S(=O)(=O)[O-])cc8)c8ccc5[nH]8)C=C7)C=C6)cc4)cccc3[C@@H]3[C@H]4CC[C@H](C4)[C@H]32)cc1[N+](=O)[O-]
REMARK SMILES IDX 18 1 17 2 16 3 15 4 14 5 13 6 11 7 12 8 10 9 7 10 8 11 95 12
REMARK SMILES IDX 9 13 89 15 93 16 88 17 90 18 92 19 94 20 85 21 87 22 91 23
REMARK SMILES IDX 86 24 6 25 3 26 4 27 97 28 5 29 96 30 2 31 1 32 98 33 99 34
REMARK SMILES IDX 100 35 19 36 20 37 21 38 22 39 23 40 24 41 25 42 26 43 84 44
REMARK SMILES IDX 27 45 83 46 28 47 29 48 30 49 77 50 31 51 82 52 76 53 78 54
REMARK SMILES IDX 32 55 81 56 75 57 74 58 33 60 63 61 44 62 62 63 45 64 48 65
REMARK SMILES IDX 61 66 79 67 46 68 47 69 60 71 80 72 49 73 34 74 35 75 43 76
REMARK SMILES IDX 36 77 42 78 37 79 38 80 39 81 40 82 41 83 64 84 65 85 73 86
REMARK SMILES IDX 66 87 72 88 67 89 68 90 69 91 70 92 71 93 50 94 51 95 59 96
REMARK SMILES IDX 52 97 58 98 53 99 54 100 55 101 56 102 57 103
REMARK H PARENT 8 14 78 59 48 70
REMARK Flexibility Score: inf
ROOT
ATOM      1  C   UNL A   1      39.852  22.809  26.821  1.00  0.00     0.188 C 
ENDROOT
BRANCH   1   2
ATOM      2  C   UNL A   1      39.023  24.112  26.874  1.00  0.00     0.188 C 
BRANCH   2   3
ATOM      3  O   UNL A   1      39.124  24.981  27.990  1.00  0.00    -0.376 OA
BRANCH   3   4
ATOM      4  C   UNL A   1      39.426  26.358  27.778  1.00  0.00     0.202 C 
BRANCH   4   5
ATOM      5  C   UNL A   1      40.345  27.084  28.762  1.00  0.00     0.261 C 
BRANCH   5   6
ATOM      6  O   UNL A   1      39.587  27.744  29.785  1.00  0.00    -0.460 OA
BRANCH   6   7
ATOM      7  C   UNL A   1      39.823  29.077  29.886  1.00  0.00     0.340 C 
ATOM      8  O   UNL A   1      39.658  29.918  29.022  1.00  0.00    -0.246 OA
BRANCH   7   9
ATOM      9  C   UNL A   1      40.086  29.361  31.306  1.00  0.00     0.083 A 
ATOM     10  C   UNL A   1      38.143  32.512  32.153  1.00  0.00     0.114 C 
ATOM     11  N   UNL A   1      38.749  31.439  31.349  1.00  0.00    -0.377 N 
ATOM     12  C   UNL A   1      38.088  31.985  33.584  1.00  0.00     0.027 C 
ATOM     13  C   UNL A   1      39.662  30.535  31.942  1.00  0.00     0.053 A 
ATOM     14  H   UNL A   1      38.518  31.350  30.396  1.00  0.00     0.161 HD
ATOM     15  C   UNL A   1      39.555  31.919  34.029  1.00  0.00     0.030 C 
ATOM     16  C   UNL A   1      37.364  32.578  34.792  1.00  0.00    -0.005 C 
ATOM     17  C   UNL A   1      40.054  30.693  33.318  1.00  0.00    -0.020 A 
ATOM     18  C   UNL A   1      39.425  32.133  35.557  1.00  0.00    -0.003 C 
ATOM     19  C   UNL A   1      37.882  33.963  35.171  1.00  0.00     0.004 C 
ATOM     20  C   UNL A   1      37.998  31.686  35.880  1.00  0.00     0.008 C 
ATOM     21  C   UNL A   1      40.818  28.378  32.001  1.00  0.00     0.018 A 
ATOM     22  C   UNL A   1      40.846  29.746  33.978  1.00  0.00     0.006 A 
ATOM     23  C   UNL A   1      39.264  33.661  35.777  1.00  0.00     0.004 C 
ATOM     24  C   UNL A   1      41.210  28.578  33.322  1.00  0.00     0.001 A 
BRANCH  10  25
ATOM     25  C   UNL A   1      36.753  32.936  31.720  1.00  0.00    -0.018 A 
ATOM     26  C   UNL A   1      34.630  34.274  30.436  1.00  0.00     0.196 A 
ATOM     27  C   UNL A   1      35.008  34.635  31.731  1.00  0.00     0.054 A 
ATOM     28  C   UNL A   1      35.248  33.181  29.829  1.00  0.00     0.311 A 
ATOM     29  C   UNL A   1      36.051  33.958  32.378  1.00  0.00     0.010 A 
ATOM     30  C   UNL A   1      36.293  32.501  30.465  1.00  0.00     0.095 A 
BRANCH  26  31
ATOM     31  O   UNL A   1      33.843  35.137  29.726  1.00  0.00    -0.490 OA
ATOM     32  C   UNL A   1      32.871  35.790  30.539  1.00  0.00     0.278 C 
ENDBRANCH  26  31
BRANCH  28  33
ATOM     33  N   UNL A   1      34.897  32.786  28.476  1.00  0.00     0.066 N 
ATOM     34  O   UNL A   1      35.607  33.219  27.557  1.00  0.00    -0.258 OA
ATOM     35  O   UNL A   1      33.953  31.996  28.334  1.00  0.00    -0.258 OA
ENDBRANCH  28  33
ENDBRANCH  10  25
ENDBRANCH   7   9
ENDBRANCH   6   7
ENDBRANCH   5   6
ENDBRANCH   4   5
ENDBRANCH   3   4
ENDBRANCH   2   3
ENDBRANCH   1   2
BRANCH   1  36
ATOM     36  O   UNL A   1      41.267  22.843  26.768  1.00  0.00    -0.376 OA
BRANCH  36  37
ATOM     37  C   UNL A   1      41.947  22.066  25.797  1.00  0.00     0.202 C 
BRANCH  37  38
ATOM     38  C   UNL A   1      43.189  22.618  25.096  1.00  0.00     0.261 C 
BRANCH  38  39
ATOM     39  O   UNL A   1      44.273  22.928  25.981  1.00  0.00    -0.460 OA
BRANCH  39  40
ATOM     40  C   UNL A   1      44.624  24.237  26.007  1.00  0.00     0.338 C 
ATOM     41  O   UNL A   1      44.782  24.983  25.055  1.00  0.00    -0.246 OA
BRANCH  40  42
ATOM     42  C   UNL A   1      44.659  24.708  27.400  1.00  0.00     0.060 A 
ATOM     43  C   UNL A   1      43.467  24.706  28.135  1.00  0.00     0.016 A 
ATOM     44  C   UNL A   1      45.832  25.238  27.937  1.00  0.00     0.016 A 
ATOM     45  C   UNL A   1      43.437  25.267  29.410  1.00  0.00     0.010 A 
ATOM     46  C   UNL A   1      45.796  25.816  29.207  1.00  0.00     0.010 A 
ATOM     47  C   UNL A   1      44.592  25.860  29.934  1.00  0.00    -0.014 A 
BRANCH  47  48
ATOM     48  C   UNL A   1      44.516  26.676  31.167  1.00  0.00     0.031 A 
ATOM     49  C   UNL A   1      44.214  28.144  31.043  1.00  0.00     0.074 A 
ATOM     50  C   UNL A   1      44.727  26.123  32.374  1.00  0.00     0.049 A 
ATOM     51  N   UNL A   1      44.193  29.065  31.969  1.00  0.00    -0.248 NA
ATOM     52  C   UNL A   1      43.898  28.637  29.691  1.00  0.00     0.031 C 
ATOM     53  C   UNL A   1      44.981  24.705  32.624  1.00  0.00     0.029 A 
ATOM     54  N   UNL A   1      44.777  26.701  33.618  1.00  0.00    -0.354 N 
ATOM     55  C   UNL A   1      43.876  30.250  31.314  1.00  0.00     0.074 A 
ATOM     56  C   UNL A   1      43.731  29.933  29.910  1.00  0.00     0.031 C 
ATOM     57  C   UNL A   1      45.181  24.526  33.942  1.00  0.00     0.029 A 
ATOM     58  C   UNL A   1      45.107  25.820  34.619  1.00  0.00     0.049 A 
ATOM     59  H   UNL A   1      44.594  27.655  33.777  1.00  0.00     0.167 HD
ATOM     60  C   UNL A   1      43.723  31.489  31.835  1.00  0.00     0.031 A 
ATOM     61  C   UNL A   1      45.353  26.040  35.926  1.00  0.00     0.031 A 
ATOM     62  C   UNL A   1      43.889  31.802  33.229  1.00  0.00     0.049 A 
ATOM     63  C   UNL A   1      45.253  27.441  36.471  1.00  0.00     0.074 A 
ATOM     64  C   UNL A   1      43.748  33.027  33.857  1.00  0.00     0.029 A 
ATOM     65  N   UNL A   1      44.244  30.887  34.208  1.00  0.00    -0.354 N 
ATOM     66  N   UNL A   1      44.935  28.549  35.845  1.00  0.00    -0.248 NA
ATOM     67  C   UNL A   1      45.543  27.622  37.901  1.00  0.00     0.031 C 
ATOM     68  C   UNL A   1      44.069  32.861  35.209  1.00  0.00     0.029 A 
ATOM     69  C   UNL A   1      44.350  31.522  35.432  1.00  0.00     0.049 A 
ATOM     70  H   UNL A   1      44.398  29.927  34.054  1.00  0.00     0.167 HD
ATOM     71  C   UNL A   1      44.956  29.551  36.809  1.00  0.00     0.074 A 
ATOM     72  C   UNL A   1      45.312  28.918  38.063  1.00  0.00     0.031 C 
ATOM     73  C   UNL A   1      44.698  30.875  36.672  1.00  0.00     0.031 A 
BRANCH  60  74
ATOM     74  C   UNL A   1      43.399  32.607  30.882  1.00  0.00    -0.014 A 
ATOM     75  C   UNL A   1      44.394  33.188  30.075  1.00  0.00     0.010 A 
ATOM     76  C   UNL A   1      42.073  33.064  30.772  1.00  0.00     0.010 A 
ATOM     77  C   UNL A   1      44.074  34.231  29.202  1.00  0.00     0.020 A 
ATOM     78  C   UNL A   1      41.744  34.089  29.881  1.00  0.00     0.020 A 
ATOM     79  C   UNL A   1      42.751  34.678  29.114  1.00  0.00     0.054 A 
BRANCH  79  80
ATOM     80  S   UNL A   1      42.361  36.022  27.961  1.00  0.00     0.124 S 
ATOM     81  O   UNL A   1      43.390  35.849  26.938  1.00  0.00    -0.237 OA
ATOM     82  O   UNL A   1      41.000  35.700  27.541  1.00  0.00    -0.237 OA
ATOM     83  O   UNL A   1      42.489  37.227  28.775  1.00  0.00    -0.744 OA
ENDBRANCH  79  80
ENDBRANCH  60  74
BRANCH  61  84
ATOM     84  C   UNL A   1      45.744  24.907  36.808  1.00  0.00    -0.014 A 
ATOM     85  C   UNL A   1      46.989  24.274  36.654  1.00  0.00     0.010 A 
ATOM     86  C   UNL A   1      44.868  24.456  37.813  1.00  0.00     0.010 A 
ATOM     87  C   UNL A   1      47.345  23.201  37.476  1.00  0.00     0.020 A 
ATOM     88  C   UNL A   1      45.230  23.401  38.655  1.00  0.00     0.020 A 
ATOM     89  C   UNL A   1      46.464  22.773  38.474  1.00  0.00     0.054 A 
BRANCH  89  90
ATOM     90  S   UNL A   1      46.969  21.413  39.565  1.00  0.00     0.124 S 
ATOM     91  O   UNL A   1      45.803  21.273  40.432  1.00  0.00    -0.237 OA
ATOM     92  O   UNL A   1      47.193  20.321  38.622  1.00  0.00    -0.237 OA
ATOM     93  O   UNL A   1      48.173  21.925  40.212  1.00  0.00    -0.744 OA
ENDBRANCH  89  90
ENDBRANCH  61  84
BRANCH  73  94
ATOM     94  C   UNL A   1      44.743  31.730  37.910  1.00  0.00    -0.014 A 
ATOM     95  C   UNL A   1      45.898  32.450  38.262  1.00  0.00     0.010 A 
ATOM     96  C   UNL A   1      43.579  31.877  38.689  1.00  0.00     0.010 A 
ATOM     97  C   UNL A   1      45.894  33.285  39.384  1.00  0.00     0.020 A 
ATOM     98  C   UNL A   1      43.564  32.730  39.795  1.00  0.00     0.020 A 
ATOM     99  C   UNL A   1      44.726  33.422  40.141  1.00  0.00     0.054 A 
BRANCH  99 100
ATOM    100  S   UNL A   1      44.728  34.560  41.554  1.00  0.00     0.124 S 
ATOM    101  O   UNL A   1      45.421  35.723  41.007  1.00  0.00    -0.237 OA
ATOM    102  O   UNL A   1      43.303  34.746  41.820  1.00  0.00    -0.237 OA
ATOM    103  O   UNL A   1      45.457  33.828  42.587  1.00  0.00    -0.744 OA
ENDBRANCH  99 100
ENDBRANCH  73  94
ENDBRANCH  47  48
ENDBRANCH  40  42
ENDBRANCH  39  40
ENDBRANCH  38  39
ENDBRANCH  37  38
ENDBRANCH  36  37
ENDBRANCH   1  36
TORSDOF 23
ENDMDL
MODEL 2
REMARK VINA RESULT:      -7.4      1.726      3.471
REMARK SMILES COc1ccc([C@@H]2Nc3c(C(=O)OCCOCCOCCOC(=O)c4ccc(-c5c6nc(c(-c7ccc(S(=O)(=O)[O-])cc7)c7ccc([nH]7)c(-c7ccc(S(=O)(=O)[O-])cc7)c7nc(c(-c8ccc(S(=O)(=O)[O-])cc8)c8ccc5[nH]8)C=C7)C=C6)cc4)cccc3[C@@H]3[C@H]4CC[C@H](C4)[C@H]32)cc1[N+](=O)[O-]
REMARK SMILES IDX 18 1 17 2 16 3 15 4 14 5 13 6 11 7 12 8 10 9 7 10 8 11 95 12
REMARK SMILES IDX 9 13 89 15 93 16 88 17 90 18 92 19 94 20 85 21 87 22 91 23
REMARK SMILES IDX 86 24 6 25 3 26 4 27 97 28 5 29 96 30 2 31 1 32 98 33 99 34
REMARK SMILES IDX 100 35 19 36 20 37 21 38 22 39 23 40 24 41 25 42 26 43 84 44
REMARK SMILES IDX 27 45 83 46 28 47 29 48 30 49 77 50 31 51 82 52 76 53 78 54
REMARK SMILES IDX 32 55 81 56 75 57 74 58 33 60 63 61 44 62 62 63 45 64 48 65
REMARK SMILES IDX 61 66 79 67 46 68 47 69 60 71 80 72 49 73 34 74 35 75 43 76
REMARK SMILES IDX 36 77 42 78 37 79 38 80 39 81 40 82 41 83 64 84 65 85 73 86
REMARK SMILES IDX 66 87 72 88 67 89 68 90 69 91 70 92 71 93 50 94 51 95 59 96
REMARK SMILES IDX 52 97 58 98 53 99 54 100 55 101 56 102 57 103
REMARK H PARENT 8 14 78 59 48 70
REMARK Flexibility Score: inf
ROOT
ATOM      1  C   UNL A   1      39.905  22.835  27.108  1.00  0.00     0.188 C 
ENDROOT
BRANCH   1   2
ATOM      2  C   UNL A   1      39.227  24.213  26.931  1.00  0.00     0.188 C 
BRANCH   2   3
ATOM      3  O   UNL A   1      39.410  25.231  27.900  1.00  0.00    -0.376 OA
BRANCH   3   4
ATOM      4  C   UNL A   1      40.381  26.249  27.671  1.00  0.00     0.202 C 
BRANCH   4   5
ATOM      5  C   UNL A   1      40.857  27.109  28.842  1.00  0.00     0.261 C 
BRANCH   5   6
ATOM      6  O   UNL A   1      39.998  28.241  29.035  1.00  0.00    -0.460 OA
BRANCH   6   7
ATOM      7  C   UNL A   1      39.053  28.070  29.995  1.00  0.00     0.340 C 
ATOM      8  O   UNL A   1      39.137  27.380  30.992  1.00  0.00    -0.246 OA
BRANCH   7   9
ATOM      9  C   UNL A   1      37.994  29.060  29.736  1.00  0.00     0.083 A 
ATOM     10  C   UNL A   1      37.364  30.848  33.027  1.00  0.00     0.114 C 
ATOM     11  N   UNL A   1      37.884  29.855  32.074  1.00  0.00    -0.377 N 
ATOM     12  C   UNL A   1      36.923  32.044  32.188  1.00  0.00     0.027 C 
ATOM     13  C   UNL A   1      37.383  29.809  30.751  1.00  0.00     0.053 A 
ATOM     14  H   UNL A   1      38.583  29.222  32.357  1.00  0.00     0.161 HD
ATOM     15  C   UNL A   1      35.698  31.542  31.412  1.00  0.00     0.030 C 
ATOM     16  C   UNL A   1      36.513  33.439  32.658  1.00  0.00    -0.005 C 
ATOM     17  C   UNL A   1      36.320  30.689  30.343  1.00  0.00    -0.020 A 
ATOM     18  C   UNL A   1      34.894  32.851  31.222  1.00  0.00    -0.003 C 
ATOM     19  C   UNL A   1      35.272  33.424  33.547  1.00  0.00     0.004 C 
ATOM     20  C   UNL A   1      35.946  33.957  31.320  1.00  0.00     0.008 C 
ATOM     21  C   UNL A   1      37.607  29.204  28.389  1.00  0.00     0.018 A 
ATOM     22  C   UNL A   1      35.891  30.769  29.013  1.00  0.00     0.006 A 
ATOM     23  C   UNL A   1      34.140  33.104  32.555  1.00  0.00     0.004 C 
ATOM     24  C   UNL A   1      36.551  30.040  28.033  1.00  0.00     0.001 A 
BRANCH  10  25
ATOM     25  C   UNL A   1      38.353  31.310  34.080  1.00  0.00    -0.018 A 
ATOM     26  C   UNL A   1      39.751  32.904  35.937  1.00  0.00     0.196 A 
ATOM     27  C   UNL A   1      40.266  32.704  34.654  1.00  0.00     0.054 A 
ATOM     28  C   UNL A   1      38.592  32.227  36.316  1.00  0.00     0.311 A 
ATOM     29  C   UNL A   1      39.582  31.896  33.736  1.00  0.00     0.010 A 
ATOM     30  C   UNL A   1      37.899  31.420  35.406  1.00  0.00     0.095 A 
BRANCH  26  31
ATOM     31  O   UNL A   1      40.261  33.926  36.688  1.00  0.00    -0.490 OA
ATOM     32  C   UNL A   1      41.471  34.453  36.149  1.00  0.00     0.278 C 
ENDBRANCH  26  31
BRANCH  28  33
ATOM     33  N   UNL A   1      38.015  32.423  37.634  1.00  0.00     0.066 N 
ATOM     34  O   UNL A   1      38.676  32.028  38.606  1.00  0.00    -0.258 OA
ATOM     35  O   UNL A   1      36.935  33.025  37.706  1.00  0.00    -0.258 OA
ENDBRANCH  28  33
ENDBRANCH  10  25
ENDBRANCH   7   9
ENDBRANCH   6   7
ENDBRANCH   5   6
ENDBRANCH   4   5
ENDBRANCH   3   4
ENDBRANCH   2   3
ENDBRANCH   1   2
BRANCH   1  36
ATOM     36  O   UNL A   1      41.311  22.693  27.015  1.00  0.00    -0.376 OA
BRANCH  36  37
ATOM     37  C   UNL A   1      41.864  21.924  25.960  1.00  0.00     0.202 C 
BRANCH  37  38
ATOM     38  C   UNL A   1      43.238  22.274  25.386  1.00  0.00     0.261 C 
BRANCH  38  39
ATOM     39  O   UNL A   1      44.242  22.524  26.379  1.00  0.00    -0.460 OA
BRANCH  39  40
ATOM     40  C   UNL A   1      44.688  23.803  26.420  1.00  0.00     0.338 C 
ATOM     41  O   UNL A   1      44.897  24.548  25.478  1.00  0.00    -0.246 OA
BRANCH  40  42
ATOM     42  C   UNL A   1      44.762  24.251  27.820  1.00  0.00     0.060 A 
ATOM     43  C   UNL A   1      43.579  24.306  28.566  1.00  0.00     0.016 A 
ATOM     44  C   UNL A   1      45.969  24.706  28.353  1.00  0.00     0.016 A 
ATOM     45  C   UNL A   1      43.593  24.849  29.849  1.00  0.00     0.010 A 
ATOM     46  C   UNL A   1      45.977  25.266  29.630  1.00  0.00     0.010 A 
ATOM     47  C   UNL A   1      44.784  25.368  30.370  1.00  0.00    -0.014 A 
BRANCH  47  48
ATOM     48  C   UNL A   1      44.765  26.169  31.615  1.00  0.00     0.031 A 
ATOM     49  C   UNL A   1      44.434  27.632  31.526  1.00  0.00     0.074 A 
ATOM     50  C   UNL A   1      45.053  25.606  32.801  1.00  0.00     0.049 A 
ATOM     51  N   UNL A   1      44.451  28.543  32.462  1.00  0.00    -0.248 NA
ATOM     52  C   UNL A   1      44.034  28.135  30.200  1.00  0.00     0.031 C 
ATOM     53  C   UNL A   1      45.343  24.190  33.020  1.00  0.00     0.029 A 
ATOM     54  N   UNL A   1      45.165  26.171  34.047  1.00  0.00    -0.354 N 
ATOM     55  C   UNL A   1      44.079  29.730  31.841  1.00  0.00     0.074 A 
ATOM     56  C   UNL A   1      43.859  29.426  30.443  1.00  0.00     0.031 C 
ATOM     57  C   UNL A   1      45.621  24.000  34.322  1.00  0.00     0.029 A 
ATOM     58  C   UNL A   1      45.566  25.284  35.018  1.00  0.00     0.049 A 
ATOM     59  H   UNL A   1      44.977  27.120  34.228  1.00  0.00     0.167 HD
ATOM     60  C   UNL A   1      43.937  30.961  32.384  1.00  0.00     0.031 A 
ATOM     61  C   UNL A   1      45.883  25.494  36.310  1.00  0.00     0.031 A 
ATOM     62  C   UNL A   1      44.178  31.261  33.770  1.00  0.00     0.049 A 
ATOM     63  C   UNL A   1      45.792  26.887  36.878  1.00  0.00     0.074 A 
ATOM     64  C   UNL A   1      44.053  32.476  34.420  1.00  0.00     0.029 A 
ATOM     65  N   UNL A   1      44.602  30.340  34.716  1.00  0.00    -0.354 N 
ATOM     66  N   UNL A   1      45.421  27.996  36.283  1.00  0.00    -0.248 NA
ATOM     67  C   UNL A   1      46.160  27.057  38.291  1.00  0.00     0.031 C 
ATOM     68  C   UNL A   1      44.453  32.300  35.749  1.00  0.00     0.029 A 
ATOM     69  C   UNL A   1      44.768  30.964  35.940  1.00  0.00     0.049 A 
ATOM     70  H   UNL A   1      44.761  29.385  34.543  1.00  0.00     0.167 HD
ATOM     71  C   UNL A   1      45.481  28.988  37.257  1.00  0.00     0.074 A 
ATOM     72  C   UNL A   1      45.918  28.346  38.481  1.00  0.00     0.031 C 
ATOM     73  C   UNL A   1      45.195  30.309  37.151  1.00  0.00     0.031 A 
BRANCH  60  74
ATOM     74  C   UNL A   1      43.541  32.083  31.464  1.00  0.00    -0.014 A 
ATOM     75  C   UNL A   1      42.191  32.337  31.162  1.00  0.00     0.010 A 
ATOM     76  C   UNL A   1      44.534  32.915  30.916  1.00  0.00     0.010 A 
ATOM     77  C   UNL A   1      41.845  33.379  30.299  1.00  0.00     0.020 A 
ATOM     78  C   UNL A   1      44.191  33.974  30.073  1.00  0.00     0.020 A 
ATOM     79  C   UNL A   1      42.848  34.189  29.756  1.00  0.00     0.054 A 
BRANCH  79  80
ATOM     80  S   UNL A   1      42.370  35.545  28.651  1.00  0.00     0.124 S 
ATOM     81  O   UNL A   1      40.916  35.551  28.794  1.00  0.00    -0.237 OA
ATOM     82  O   UNL A   1      43.061  36.692  29.233  1.00  0.00    -0.237 OA
ATOM     83  O   UNL A   1      42.866  35.121  27.345  1.00  0.00    -0.744 OA
ENDBRANCH  79  80
ENDBRANCH  60  74
BRANCH  61  84
ATOM     84  C   UNL A   1      46.341  24.357  37.156  1.00  0.00    -0.014 A 
ATOM     85  C   UNL A   1      45.446  23.692  38.010  1.00  0.00     0.010 A 
ATOM     86  C   UNL A   1      47.682  23.934  37.106  1.00  0.00     0.010 A 
ATOM     87  C   UNL A   1      45.886  22.634  38.811  1.00  0.00     0.020 A 
ATOM     88  C   UNL A   1      48.120  22.860  37.887  1.00  0.00     0.020 A 
ATOM     89  C   UNL A   1      47.220  22.224  38.743  1.00  0.00     0.054 A 
BRANCH  89  90
ATOM     90  S   UNL A   1      47.757  20.814  39.753  1.00  0.00     0.124 S 
ATOM     91  O   UNL A   1      48.082  19.820  38.735  1.00  0.00    -0.237 OA
ATOM     92  O   UNL A   1      48.892  21.367  40.486  1.00  0.00    -0.237 OA
ATOM     93  O   UNL A   1      46.584  20.515  40.569  1.00  0.00    -0.744 OA
ENDBRANCH  89  90
ENDBRANCH  61  84
BRANCH  73  94
ATOM     94  C   UNL A   1      45.298  31.151  38.394  1.00  0.00    -0.014 A 
ATOM     95  C   UNL A   1      46.497  31.792  38.749  1.00  0.00     0.010 A 
ATOM     96  C   UNL A   1      44.147  31.368  39.177  1.00  0.00     0.010 A 
ATOM     97  C   UNL A   1      46.550  32.618  39.876  1.00  0.00     0.020 A 
ATOM     98  C   UNL A   1      44.188  32.212  40.288  1.00  0.00     0.020 A 
ATOM     99  C   UNL A   1      45.394  32.825  40.636  1.00  0.00     0.054 A 
BRANCH  99 100
ATOM    100  S   UNL A   1      45.471  33.951  42.057  1.00  0.00     0.124 S 
ATOM    101  O   UNL A   1      46.881  34.331  42.067  1.00  0.00    -0.237 OA
ATOM    102  O   UNL A   1      44.538  35.010  41.680  1.00  0.00    -0.237 OA
ATOM    103  O   UNL A   1      45.041  33.122  43.180  1.00  0.00    -0.744 OA
ENDBRANCH  99 100
ENDBRANCH  73  94
ENDBRANCH  47  48
ENDBRANCH  40  42
ENDBRANCH  39  40
ENDBRANCH  38  39
ENDBRANCH  37  38
ENDBRANCH  36  37
ENDBRANCH   1  36
TORSDOF 23
ENDMDL
MODEL 3
REMARK VINA RESULT:      -7.0      6.399     11.271
REMARK SMILES COc1ccc([C@@H]2Nc3c(C(=O)OCCOCCOCCOC(=O)c4ccc(-c5c6nc(c(-c7ccc(S(=O)(=O)[O-])cc7)c7ccc([nH]7)c(-c7ccc(S(=O)(=O)[O-])cc7)c7nc(c(-c8ccc(S(=O)(=O)[O-])cc8)c8ccc5[nH]8)C=C7)C=C6)cc4)cccc3[C@@H]3[C@H]4CC[C@H](C4)[C@H]32)cc1[N+](=O)[O-]
REMARK SMILES IDX 18 1 17 2 16 3 15 4 14 5 13 6 11 7 12 8 10 9 7 10 8 11 95 12
REMARK SMILES IDX 9 13 89 15 93 16 88 17 90 18 92 19 94 20 85 21 87 22 91 23
REMARK SMILES IDX 86 24 6 25 3 26 4 27 97 28 5 29 96 30 2 31 1 32 98 33 99 34
REMARK SMILES IDX 100 35 19 36 20 37 21 38 22 39 23 40 24 41 25 42 26 43 84 44
REMARK SMILES IDX 27 45 83 46 28 47 29 48 30 49 77 50 31 51 82 52 76 53 78 54
REMARK SMILES IDX 32 55 81 56 75 57 74 58 33 60 63 61 44 62 62 63 45 64 48 65
REMARK SMILES IDX 61 66 79 67 46 68 47 69 60 71 80 72 49 73 34 74 35 75 43 76
REMARK SMILES IDX 36 77 42 78 37 79 38 80 39 81 40 82 41 83 64 84 65 85 73 86
REMARK SMILES IDX 66 87 72 88 67 89 68 90 69 91 70 92 71 93 50 94 51 95 59 96
REMARK SMILES IDX 52 97 58 98 53 99 54 100 55 101 56 102 57 103
REMARK H PARENT 8 14 78 59 48 70
REMARK Flexibility Score: inf
ROOT
ATOM      1  C   UNL A   1      37.604  34.151  35.545  1.00  0.00     0.188 C 
ENDROOT
BRANCH   1   2
ATOM      2  C   UNL A   1      39.081  33.952  35.954  1.00  0.00     0.188 C 
BRANCH   2   3
ATOM      3  O   UNL A   1      39.427  33.013  36.957  1.00  0.00    -0.376 OA
BRANCH   3   4
ATOM      4  C   UNL A   1      39.489  33.434  38.318  1.00  0.00     0.202 C 
BRANCH   4   5
ATOM      5  C   UNL A   1      38.201  33.503  39.141  1.00  0.00     0.261 C 
BRANCH   5   6
ATOM      6  O   UNL A   1      38.069  32.353  39.988  1.00  0.00    -0.460 OA
BRANCH   6   7
ATOM      7  C   UNL A   1      36.859  32.240  40.595  1.00  0.00     0.340 C 
ATOM      8  O   UNL A   1      35.771  32.487  40.112  1.00  0.00    -0.246 OA
BRANCH   7   9
ATOM      9  C   UNL A   1      37.082  31.535  41.868  1.00  0.00     0.083 A 
ATOM     10  C   UNL A   1      35.114  33.426  44.508  1.00  0.00     0.114 C 
ATOM     11  N   UNL A   1      35.743  33.116  43.215  1.00  0.00    -0.377 N 
ATOM     12  C   UNL A   1      35.019  32.100  45.257  1.00  0.00     0.027 C 
ATOM     13  C   UNL A   1      36.640  32.027  43.103  1.00  0.00     0.053 A 
ATOM     14  H   UNL A   1      35.540  33.668  42.425  1.00  0.00     0.161 HD
ATOM     15  C   UNL A   1      36.472  31.736  45.586  1.00  0.00     0.030 C 
ATOM     16  C   UNL A   1      34.261  31.785  46.546  1.00  0.00    -0.005 C 
ATOM     17  C   UNL A   1      36.992  31.251  44.262  1.00  0.00    -0.020 A 
ATOM     18  C   UNL A   1      36.299  30.915  46.887  1.00  0.00    -0.003 C 
ATOM     19  C   UNL A   1      34.767  32.588  47.742  1.00  0.00     0.004 C 
ATOM     20  C   UNL A   1      34.863  30.390  46.813  1.00  0.00     0.008 C 
ATOM     21  C   UNL A   1      37.795  30.322  41.778  1.00  0.00     0.018 A 
ATOM     22  C   UNL A   1      37.765  30.088  44.171  1.00  0.00     0.006 A 
ATOM     23  C   UNL A   1      36.131  31.941  48.039  1.00  0.00     0.004 C 
ATOM     24  C   UNL A   1      38.148  29.614  42.924  1.00  0.00     0.001 A 
BRANCH  10  25
ATOM     25  C   UNL A   1      33.737  34.054  44.421  1.00  0.00    -0.018 A 
ATOM     26  C   UNL A   1      31.521  35.560  43.543  1.00  0.00     0.196 A 
ATOM     27  C   UNL A   1      32.368  36.066  44.533  1.00  0.00     0.054 A 
ATOM     28  C   UNL A   1      31.730  34.265  43.069  1.00  0.00     0.311 A 
ATOM     29  C   UNL A   1      33.458  35.310  44.984  1.00  0.00     0.010 A 
ATOM     30  C   UNL A   1      32.818  33.504  43.510  1.00  0.00     0.095 A 
BRANCH  26  31
ATOM     31  O   UNL A   1      30.674  36.426  42.911  1.00  0.00    -0.490 OA
ATOM     32  C   UNL A   1      31.366  37.434  42.177  1.00  0.00     0.278 C 
ENDBRANCH  26  31
BRANCH  28  33
ATOM     33  N   UNL A   1      30.884  33.711  42.027  1.00  0.00     0.066 N 
ATOM     34  O   UNL A   1      31.421  33.454  40.939  1.00  0.00    -0.258 OA
ATOM     35  O   UNL A   1      29.701  33.474  42.310  1.00  0.00    -0.258 OA
ENDBRANCH  28  33
ENDBRANCH  10  25
ENDBRANCH   7   9
ENDBRANCH   6   7
ENDBRANCH   5   6
ENDBRANCH   4   5
ENDBRANCH   3   4
ENDBRANCH   2   3
ENDBRANCH   1   2
BRANCH   1  36
ATOM     36  O   UNL A   1      37.088  33.572  34.360  1.00  0.00    -0.376 OA
BRANCH  36  37
ATOM     37  C   UNL A   1      35.685  33.498  34.175  1.00  0.00     0.202 C 
BRANCH  37  38
ATOM     38  C   UNL A   1      35.054  33.944  32.855  1.00  0.00     0.261 C 
BRANCH  38  39
ATOM     39  O   UNL A   1      35.878  33.715  31.704  1.00  0.00    -0.460 OA
BRANCH  39  40
ATOM     40  C   UNL A   1      35.508  32.652  30.948  1.00  0.00     0.338 C 
ATOM     41  O   UNL A   1      34.402  32.406  30.501  1.00  0.00    -0.246 OA
BRANCH  40  42
ATOM     42  C   UNL A   1      36.700  31.862  30.599  1.00  0.00     0.060 A 
ATOM     43  C   UNL A   1      37.423  31.253  31.632  1.00  0.00     0.016 A 
ATOM     44  C   UNL A   1      37.151  31.810  29.280  1.00  0.00     0.016 A 
ATOM     45  C   UNL A   1      38.626  30.609  31.350  1.00  0.00     0.010 A 
ATOM     46  C   UNL A   1      38.365  31.181  29.003  1.00  0.00     0.010 A 
ATOM     47  C   UNL A   1      39.122  30.606  30.041  1.00  0.00    -0.014 A 
BRANCH  47  48
ATOM     48  C   UNL A   1      40.505  30.154  29.770  1.00  0.00     0.031 A 
ATOM     49  C   UNL A   1      41.624  31.153  29.876  1.00  0.00     0.074 A 
ATOM     50  C   UNL A   1      40.758  28.882  29.419  1.00  0.00     0.049 A 
ATOM     51  N   UNL A   1      42.891  31.009  29.593  1.00  0.00    -0.248 NA
ATOM     52  C   UNL A   1      41.261  32.495  30.364  1.00  0.00     0.031 C 
ATOM     53  C   UNL A   1      39.764  27.813  29.329  1.00  0.00     0.029 A 
ATOM     54  N   UNL A   1      41.937  28.279  29.057  1.00  0.00    -0.354 N 
ATOM     55  C   UNL A   1      43.478  32.242  29.854  1.00  0.00     0.074 A 
ATOM     56  C   UNL A   1      42.424  33.127  30.301  1.00  0.00     0.031 C 
ATOM     57  C   UNL A   1      40.373  26.688  28.915  1.00  0.00     0.029 A 
ATOM     58  C   UNL A   1      41.788  26.967  28.676  1.00  0.00     0.049 A 
ATOM     59  H   UNL A   1      42.805  28.742  29.069  1.00  0.00     0.167 HD
ATOM     60  C   UNL A   1      44.775  32.604  29.728  1.00  0.00     0.031 A 
ATOM     61  C   UNL A   1      42.685  26.103  28.163  1.00  0.00     0.031 A 
ATOM     62  C   UNL A   1      45.815  31.726  29.263  1.00  0.00     0.049 A 
ATOM     63  C   UNL A   1      44.110  26.550  27.958  1.00  0.00     0.074 A 
ATOM     64  C   UNL A   1      47.163  31.996  29.109  1.00  0.00     0.029 A 
ATOM     65  N   UNL A   1      45.620  30.411  28.867  1.00  0.00    -0.354 N 
ATOM     66  N   UNL A   1      44.655  27.713  28.226  1.00  0.00    -0.248 NA
ATOM     67  C   UNL A   1      45.041  25.568  27.385  1.00  0.00     0.031 C 
ATOM     68  C   UNL A   1      47.775  30.860  28.570  1.00  0.00     0.029 A 
ATOM     69  C   UNL A   1      46.819  29.863  28.446  1.00  0.00     0.049 A 
ATOM     70  H   UNL A   1      44.757  29.938  28.884  1.00  0.00     0.167 HD
ATOM     71  C   UNL A   1      45.998  27.592  27.883  1.00  0.00     0.074 A 
ATOM     72  C   UNL A   1      46.184  26.241  27.395  1.00  0.00     0.031 C 
ATOM     73  C   UNL A   1      46.989  28.513  27.970  1.00  0.00     0.031 A 
BRANCH  60  74
ATOM     74  C   UNL A   1      45.133  34.027  30.061  1.00  0.00    -0.014 A 
ATOM     75  C   UNL A   1      45.354  34.432  31.390  1.00  0.00     0.010 A 
ATOM     76  C   UNL A   1      45.277  34.968  29.025  1.00  0.00     0.010 A 
ATOM     77  C   UNL A   1      45.677  35.760  31.678  1.00  0.00     0.020 A 
ATOM     78  C   UNL A   1      45.625  36.291  29.307  1.00  0.00     0.020 A 
ATOM     79  C   UNL A   1      45.806  36.683  30.635  1.00  0.00     0.054 A 
BRANCH  79  80
ATOM     80  S   UNL A   1      46.243  38.396  31.037  1.00  0.00     0.124 S 
ATOM     81  O   UNL A   1      46.169  38.392  32.495  1.00  0.00    -0.237 OA
ATOM     82  O   UNL A   1      47.586  38.525  30.477  1.00  0.00    -0.237 OA
ATOM     83  O   UNL A   1      45.213  39.184  30.363  1.00  0.00    -0.744 OA
ENDBRANCH  79  80
ENDBRANCH  60  74
BRANCH  61  84
ATOM     84  C   UNL A   1      42.258  24.729  27.781  1.00  0.00    -0.014 A 
ATOM     85  C   UNL A   1      41.862  24.441  26.464  1.00  0.00     0.010 A 
ATOM     86  C   UNL A   1      42.248  23.699  28.739  1.00  0.00     0.010 A 
ATOM     87  C   UNL A   1      41.449  23.153  26.115  1.00  0.00     0.020 A 
ATOM     88  C   UNL A   1      41.860  22.402  28.388  1.00  0.00     0.020 A 
ATOM     89  C   UNL A   1      41.453  22.140  27.079  1.00  0.00     0.054 A 
BRANCH  89  90
ATOM     90  S   UNL A   1      40.963  20.462  26.590  1.00  0.00     0.124 S 
ATOM     91  O   UNL A   1      40.982  19.757  27.868  1.00  0.00    -0.237 OA
ATOM     92  O   UNL A   1      39.642  20.678  26.006  1.00  0.00    -0.237 OA
ATOM     93  O   UNL A   1      41.999  20.068  25.640  1.00  0.00    -0.744 OA
ENDBRANCH  89  90
ENDBRANCH  61  84
BRANCH  73  94
ATOM     94  C   UNL A   1      48.378  28.089  27.574  1.00  0.00    -0.014 A 
ATOM     95  C   UNL A   1      48.880  28.337  26.286  1.00  0.00     0.010 A 
ATOM     96  C   UNL A   1      49.221  27.503  28.538  1.00  0.00     0.010 A 
ATOM     97  C   UNL A   1      50.195  27.987  25.961  1.00  0.00     0.020 A 
ATOM     98  C   UNL A   1      50.542  27.176  28.226  1.00  0.00     0.020 A 
ATOM     99  C   UNL A   1      51.018  27.412  26.935  1.00  0.00     0.054 A 
BRANCH  99 100
ATOM    100  S   UNL A   1      52.739  27.025  26.509  1.00  0.00     0.124 S 
ATOM    101  O   UNL A   1      53.315  28.356  26.337  1.00  0.00    -0.237 OA
ATOM    102  O   UNL A   1      53.203  26.287  27.682  1.00  0.00    -0.237 OA
ATOM    103  O   UNL A   1      52.624  26.233  25.288  1.00  0.00    -0.744 OA
ENDBRANCH  99 100
ENDBRANCH  73  94
ENDBRANCH  47  48
ENDBRANCH  40  42
ENDBRANCH  39  40
ENDBRANCH  38  39
ENDBRANCH  37  38
ENDBRANCH  36  37
ENDBRANCH   1  36
TORSDOF 23
ENDMDL
