MODEL 1
REMARK VINA RESULT:      -8.4      0.000      0.000
REMARK SMILES C#Cc1cc(Cl)cc2c1O[C@H](C(F)(F)F)C(C(=O)OCCOCCOCCOC(=O)c1ccc(-c3c4nc(c(-c5ccc(S(=O)(=O)[O-])cc5)c5ccc([nH]5)c(-c5ccc(S(=O)(=O)[O-])cc5)c5nc(c(-c6ccc(S(=O)(=O)[O-])cc6)c6ccc3[nH]6)C=C5)C=C4)cc1)=C2
REMARK SMILES IDX 24 1 23 2 22 3 21 4 20 5 19 6 17 7 18 8 16 9 3 10 4 11 9 12
REMARK SMILES IDX 5 13 8 14 10 15 6 16 7 17 91 18 11 19 2 20 1 21 12 22 13 23
REMARK SMILES IDX 14 24 15 25 25 26 26 27 27 28 28 29 29 30 30 31 31 32 32 33
REMARK SMILES IDX 90 34 33 35 89 36 34 37 35 38 36 39 83 40 37 41 88 42 82 43
REMARK SMILES IDX 84 44 38 45 87 46 81 47 80 48 39 50 69 51 50 52 68 53 51 54
REMARK SMILES IDX 54 55 67 56 85 57 52 58 53 59 66 61 86 62 55 63 40 64 41 65
REMARK SMILES IDX 49 66 42 67 48 68 43 69 44 70 45 71 46 72 47 73 70 74 71 75
REMARK SMILES IDX 79 76 72 77 78 78 73 79 74 80 75 81 76 82 77 83 56 84 57 85
REMARK SMILES IDX 65 86 58 87 64 88 59 89 60 90 61 91 62 92 63 93
REMARK H PARENT 84 49 54 60
REMARK Flexibility Score: inf
ROOT
ATOM      1  C   UNL A   1      48.645  21.924  39.534  1.00  0.00     0.188 C 
ENDROOT
BRANCH   1   2
ATOM      2  C   UNL A   1      49.182  20.581  40.073  1.00  0.00     0.188 C 
BRANCH   2   3
ATOM      3  O   UNL A   1      48.976  19.439  39.275  1.00  0.00    -0.376 OA
BRANCH   3   4
ATOM      4  C   UNL A   1      47.778  18.691  39.373  1.00  0.00     0.202 C 
BRANCH   4   5
ATOM      5  C   UNL A   1      47.182  18.100  40.668  1.00  0.00     0.261 C 
BRANCH   5   6
ATOM      6  O   UNL A   1      45.985  17.326  40.562  1.00  0.00    -0.460 OA
BRANCH   6   7
ATOM      7  C   UNL A   1      44.963  17.706  41.367  1.00  0.00     0.338 C 
ATOM      8  O   UNL A   1      44.444  18.808  41.412  1.00  0.00    -0.246 OA
BRANCH   7   9
ATOM      9  C   UNL A   1      44.450  16.526  42.096  1.00  0.00     0.087 C 
ATOM     10  C   UNL A   1      43.189  12.950  43.846  1.00  0.00     0.068 A 
ATOM     11  C   UNL A   1      44.066  12.244  44.675  1.00  0.00     0.041 A 
ATOM     12  C   UNL A   1      43.560  14.207  43.339  1.00  0.00     0.143 A 
ATOM     13  C   UNL A   1      45.297  12.801  45.012  1.00  0.00     0.043 A 
ATOM     14  C   UNL A   1      44.820  14.735  43.641  1.00  0.00     0.020 A 
ATOM     15  O   UNL A   1      42.650  14.863  42.555  1.00  0.00    -0.474 OA
ATOM     16  Cl  UNL A   1      46.375  11.924  46.025  1.00  0.00    -0.084 Cl
ATOM     17  C   UNL A   1      45.678  14.043  44.506  1.00  0.00     0.032 A 
ATOM     18  C   UNL A   1      45.272  15.953  42.986  1.00  0.00     0.027 C 
ATOM     19  C   UNL A   1      43.053  16.046  41.818  1.00  0.00     0.316 C 
BRANCH  10  20
ATOM     20  C   UNL A   1      41.949  12.334  43.477  1.00  0.00    -0.067 C 
ATOM     21  C   UNL A   1      40.889  11.848  43.183  1.00  0.00     0.010 C 
ENDBRANCH  10  20
BRANCH  19  22
ATOM     22  C   UNL A   1      42.819  15.784  40.325  1.00  0.00     0.430 C 
ATOM     23  F   UNL A   1      43.950  15.356  39.715  1.00  0.00    -0.167 F 
ATOM     24  F   UNL A   1      41.887  14.822  40.125  1.00  0.00    -0.167 F 
ATOM     25  F   UNL A   1      42.401  16.894  39.677  1.00  0.00    -0.167 F 
ENDBRANCH  19  22
ENDBRANCH   7   9
ENDBRANCH   6   7
ENDBRANCH   5   6
ENDBRANCH   4   5
ENDBRANCH   3   4
ENDBRANCH   2   3
ENDBRANCH   1   2
BRANCH   1  26
ATOM     26  O   UNL A   1      47.419  22.399  40.039  1.00  0.00    -0.376 OA
BRANCH  26  27
ATOM     27  C   UNL A   1      46.212  22.015  39.398  1.00  0.00     0.202 C 
BRANCH  27  28
ATOM     28  C   UNL A   1      45.931  22.082  37.876  1.00  0.00     0.261 C 
BRANCH  28  29
ATOM     29  O   UNL A   1      45.109  23.140  37.367  1.00  0.00    -0.460 OA
BRANCH  29  30
ATOM     30  C   UNL A   1      44.847  23.109  36.034  1.00  0.00     0.338 C 
ATOM     31  O   UNL A   1      44.694  22.119  35.341  1.00  0.00    -0.246 OA
BRANCH  30  32
ATOM     32  C   UNL A   1      44.557  24.485  35.574  1.00  0.00     0.060 A 
ATOM     33  C   UNL A   1      43.330  24.755  34.947  1.00  0.00     0.016 A 
ATOM     34  C   UNL A   1      45.493  25.502  35.752  1.00  0.00     0.016 A 
ATOM     35  C   UNL A   1      43.034  26.043  34.499  1.00  0.00     0.010 A 
ATOM     36  C   UNL A   1      45.212  26.784  35.266  1.00  0.00     0.010 A 
ATOM     37  C   UNL A   1      43.992  27.056  34.618  1.00  0.00    -0.014 A 
BRANCH  37  38
ATOM     38  C   UNL A   1      43.802  28.340  33.896  1.00  0.00     0.031 A 
ATOM     39  C   UNL A   1      44.252  28.422  32.462  1.00  0.00     0.074 A 
ATOM     40  C   UNL A   1      43.217  29.401  34.484  1.00  0.00     0.049 A 
ATOM     41  N   UNL A   1      44.245  29.446  31.650  1.00  0.00    -0.248 NA
ATOM     42  C   UNL A   1      44.780  27.183  31.864  1.00  0.00     0.031 C 
ATOM     43  C   UNL A   1      42.678  29.429  35.843  1.00  0.00     0.029 A 
ATOM     44  N   UNL A   1      42.981  30.667  34.004  1.00  0.00    -0.354 N 
ATOM     45  C   UNL A   1      44.767  28.978  30.449  1.00  0.00     0.074 A 
ATOM     46  C   UNL A   1      45.116  27.589  30.649  1.00  0.00     0.031 C 
ATOM     47  C   UNL A   1      42.175  30.653  36.087  1.00  0.00     0.029 A 
ATOM     48  C   UNL A   1      42.393  31.507  34.920  1.00  0.00     0.049 A 
ATOM     49  H   UNL A   1      43.212  30.946  33.088  1.00  0.00     0.167 HD
ATOM     50  C   UNL A   1      44.930  29.641  29.281  1.00  0.00     0.031 A 
ATOM     51  C   UNL A   1      42.085  32.819  34.834  1.00  0.00     0.031 A 
ATOM     52  C   UNL A   1      44.591  31.025  29.086  1.00  0.00     0.049 A 
ATOM     53  C   UNL A   1      42.383  33.564  33.554  1.00  0.00     0.074 A 
ATOM     54  C   UNL A   1      44.723  31.785  27.938  1.00  0.00     0.029 A 
ATOM     55  N   UNL A   1      44.055  31.855  30.057  1.00  0.00    -0.354 N 
ATOM     56  N   UNL A   1      42.870  33.105  32.425  1.00  0.00    -0.248 NA
ATOM     57  C   UNL A   1      42.085  35.005  33.535  1.00  0.00     0.031 C 
ATOM     58  C   UNL A   1      44.330  33.092  28.233  1.00  0.00     0.029 A 
ATOM     59  C   UNL A   1      43.880  33.128  29.543  1.00  0.00     0.049 A 
ATOM     60  H   UNL A   1      43.831  31.581  30.976  1.00  0.00     0.167 HD
ATOM     61  C   UNL A   1      42.905  34.192  31.556  1.00  0.00     0.074 A 
ATOM     62  C   UNL A   1      42.372  35.325  32.281  1.00  0.00     0.031 C 
ATOM     63  C   UNL A   1      43.340  34.248  30.271  1.00  0.00     0.031 A 
BRANCH  50  64
ATOM     64  C   UNL A   1      45.511  28.886  28.114  1.00  0.00    -0.014 A 
ATOM     65  C   UNL A   1      46.899  28.848  27.898  1.00  0.00     0.010 A 
ATOM     66  C   UNL A   1      44.666  28.129  27.281  1.00  0.00     0.010 A 
ATOM     67  C   UNL A   1      47.433  28.075  26.865  1.00  0.00     0.020 A 
ATOM     68  C   UNL A   1      45.198  27.330  26.266  1.00  0.00     0.020 A 
ATOM     69  C   UNL A   1      46.579  27.312  26.061  1.00  0.00     0.054 A 
BRANCH  69  70
ATOM     70  S   UNL A   1      47.310  26.268  24.772  1.00  0.00     0.124 S 
ATOM     71  O   UNL A   1      47.399  27.195  23.646  1.00  0.00    -0.237 OA
ATOM     72  O   UNL A   1      48.585  25.878  25.366  1.00  0.00    -0.237 OA
ATOM     73  O   UNL A   1      46.342  25.186  24.609  1.00  0.00    -0.744 OA
ENDBRANCH  69  70
ENDBRANCH  50  64
BRANCH  51  74
ATOM     74  C   UNL A   1      41.472  33.528  35.994  1.00  0.00    -0.014 A 
ATOM     75  C   UNL A   1      42.274  34.002  37.049  1.00  0.00     0.010 A 
ATOM     76  C   UNL A   1      40.078  33.712  36.067  1.00  0.00     0.010 A 
ATOM     77  C   UNL A   1      41.695  34.622  38.160  1.00  0.00     0.020 A 
ATOM     78  C   UNL A   1      39.498  34.363  37.160  1.00  0.00     0.020 A 
ATOM     79  C   UNL A   1      40.310  34.803  38.207  1.00  0.00     0.054 A 
BRANCH  79  80
ATOM     80  S   UNL A   1      39.589  35.640  39.646  1.00  0.00     0.124 S 
ATOM     81  O   UNL A   1      40.747  35.799  40.520  1.00  0.00    -0.237 OA
ATOM     82  O   UNL A   1      39.064  36.871  39.059  1.00  0.00    -0.237 OA
ATOM     83  O   UNL A   1      38.575  34.699  40.117  1.00  0.00    -0.744 OA
ENDBRANCH  79  80
ENDBRANCH  51  74
BRANCH  63  84
ATOM     84  C   UNL A   1      43.235  35.563  29.542  1.00  0.00    -0.014 A 
ATOM     85  C   UNL A   1      42.120  35.867  28.740  1.00  0.00     0.010 A 
ATOM     86  C   UNL A   1      44.225  36.547  29.735  1.00  0.00     0.010 A 
ATOM     87  C   UNL A   1      42.011  37.117  28.127  1.00  0.00     0.020 A 
ATOM     88  C   UNL A   1      44.101  37.810  29.152  1.00  0.00     0.020 A 
ATOM     89  C   UNL A   1      42.999  38.084  28.342  1.00  0.00     0.054 A 
BRANCH  89  90
ATOM     90  S   UNL A   1      42.800  39.715  27.574  1.00  0.00     0.124 S 
ATOM     91  O   UNL A   1      43.416  40.595  28.563  1.00  0.00    -0.237 OA
ATOM     92  O   UNL A   1      43.534  39.567  26.320  1.00  0.00    -0.237 OA
ATOM     93  O   UNL A   1      41.353  39.859  27.431  1.00  0.00    -0.744 OA
ENDBRANCH  89  90
ENDBRANCH  63  84
ENDBRANCH  37  38
ENDBRANCH  30  32
ENDBRANCH  29  30
ENDBRANCH  28  29
ENDBRANCH  27  28
ENDBRANCH  26  27
ENDBRANCH   1  26
TORSDOF 22
ENDMDL
MODEL 2
REMARK VINA RESULT:      -8.4      6.892     12.188
REMARK SMILES C#Cc1cc(Cl)cc2c1O[C@H](C(F)(F)F)C(C(=O)OCCOCCOCCOC(=O)c1ccc(-c3c4nc(c(-c5ccc(S(=O)(=O)[O-])cc5)c5ccc([nH]5)c(-c5ccc(S(=O)(=O)[O-])cc5)c5nc(c(-c6ccc(S(=O)(=O)[O-])cc6)c6ccc3[nH]6)C=C5)C=C4)cc1)=C2
REMARK SMILES IDX 24 1 23 2 22 3 21 4 20 5 19 6 17 7 18 8 16 9 3 10 4 11 9 12
REMARK SMILES IDX 5 13 8 14 10 15 6 16 7 17 91 18 11 19 2 20 1 21 12 22 13 23
REMARK SMILES IDX 14 24 15 25 25 26 26 27 27 28 28 29 29 30 30 31 31 32 32 33
REMARK SMILES IDX 90 34 33 35 89 36 34 37 35 38 36 39 83 40 37 41 88 42 82 43
REMARK SMILES IDX 84 44 38 45 87 46 81 47 80 48 39 50 69 51 50 52 68 53 51 54
REMARK SMILES IDX 54 55 67 56 85 57 52 58 53 59 66 61 86 62 55 63 40 64 41 65
REMARK SMILES IDX 49 66 42 67 48 68 43 69 44 70 45 71 46 72 47 73 70 74 71 75
REMARK SMILES IDX 79 76 72 77 78 78 73 79 74 80 75 81 76 82 77 83 56 84 57 85
REMARK SMILES IDX 65 86 58 87 64 88 59 89 60 90 61 91 62 92 63 93
REMARK H PARENT 84 49 54 60
REMARK Flexibility Score: inf
ROOT
ATOM      1  C   UNL A   1      37.189  33.001  34.283  1.00  0.00     0.188 C 
ENDROOT
BRANCH   1   2
ATOM      2  C   UNL A   1      38.141  31.877  34.741  1.00  0.00     0.188 C 
BRANCH   2   3
ATOM      3  O   UNL A   1      38.741  31.093  33.736  1.00  0.00    -0.376 OA
BRANCH   3   4
ATOM      4  C   UNL A   1      39.664  30.071  34.068  1.00  0.00     0.202 C 
BRANCH   4   5
ATOM      5  C   UNL A   1      40.278  29.822  35.461  1.00  0.00     0.261 C 
BRANCH   5   6
ATOM      6  O   UNL A   1      41.026  28.619  35.659  1.00  0.00    -0.460 OA
BRANCH   6   7
ATOM      7  C   UNL A   1      42.258  28.773  36.203  1.00  0.00     0.338 C 
ATOM      8  O   UNL A   1      42.554  29.495  37.140  1.00  0.00    -0.246 OA
BRANCH   7   9
ATOM      9  C   UNL A   1      43.189  27.804  35.587  1.00  0.00     0.087 C 
ATOM     10  C   UNL A   1      45.484  24.788  33.833  1.00  0.00     0.068 A 
ATOM     11  C   UNL A   1      45.445  24.614  32.446  1.00  0.00     0.041 A 
ATOM     12  C   UNL A   1      44.804  25.866  34.424  1.00  0.00     0.143 A 
ATOM     13  C   UNL A   1      44.749  25.524  31.654  1.00  0.00     0.043 A 
ATOM     14  C   UNL A   1      44.064  26.745  33.626  1.00  0.00     0.020 A 
ATOM     15  O   UNL A   1      44.900  26.001  35.783  1.00  0.00    -0.474 OA
ATOM     16  Cl  UNL A   1      44.698  25.300  29.950  1.00  0.00    -0.084 Cl
ATOM     17  C   UNL A   1      44.063  26.590  32.234  1.00  0.00     0.032 A 
ATOM     18  C   UNL A   1      43.225  27.758  34.248  1.00  0.00     0.027 C 
ATOM     19  C   UNL A   1      44.043  26.944  36.476  1.00  0.00     0.316 C 
BRANCH  10  20
ATOM     20  C   UNL A   1      46.169  23.812  34.627  1.00  0.00    -0.067 C 
ATOM     21  C   UNL A   1      46.712  22.969  35.290  1.00  0.00     0.010 C 
ENDBRANCH  10  20
BRANCH  19  22
ATOM     22  C   UNL A   1      43.209  26.169  37.504  1.00  0.00     0.430 C 
ATOM     23  F   UNL A   1      43.409  24.834  37.396  1.00  0.00    -0.167 F 
ATOM     24  F   UNL A   1      43.539  26.506  38.773  1.00  0.00    -0.167 F 
ATOM     25  F   UNL A   1      41.885  26.396  37.356  1.00  0.00    -0.167 F 
ENDBRANCH  19  22
ENDBRANCH   7   9
ENDBRANCH   6   7
ENDBRANCH   5   6
ENDBRANCH   4   5
ENDBRANCH   3   4
ENDBRANCH   2   3
ENDBRANCH   1   2
BRANCH   1  26
ATOM     26  O   UNL A   1      37.282  34.252  34.925  1.00  0.00    -0.376 OA
BRANCH  26  27
ATOM     27  C   UNL A   1      38.451  34.563  35.668  1.00  0.00     0.202 C 
BRANCH  27  28
ATOM     28  C   UNL A   1      39.701  35.300  35.127  1.00  0.00     0.261 C 
BRANCH  28  29
ATOM     29  O   UNL A   1      40.569  34.617  34.213  1.00  0.00    -0.460 OA
BRANCH  29  30
ATOM     30  C   UNL A   1      41.834  35.103  34.108  1.00  0.00     0.338 C 
ATOM     31  O   UNL A   1      42.194  36.251  34.298  1.00  0.00    -0.246 OA
BRANCH  30  32
ATOM     32  C   UNL A   1      42.767  33.968  33.931  1.00  0.00     0.060 A 
ATOM     33  C   UNL A   1      42.264  32.657  33.949  1.00  0.00     0.016 A 
ATOM     34  C   UNL A   1      44.131  34.195  33.758  1.00  0.00     0.016 A 
ATOM     35  C   UNL A   1      43.124  31.570  33.790  1.00  0.00     0.010 A 
ATOM     36  C   UNL A   1      44.997  33.102  33.639  1.00  0.00     0.010 A 
ATOM     37  C   UNL A   1      44.502  31.785  33.677  1.00  0.00    -0.014 A 
BRANCH  37  38
ATOM     38  C   UNL A   1      45.440  30.640  33.795  1.00  0.00     0.031 A 
ATOM     39  C   UNL A   1      45.916  29.978  32.529  1.00  0.00     0.074 A 
ATOM     40  C   UNL A   1      45.884  30.210  34.991  1.00  0.00     0.049 A 
ATOM     41  N   UNL A   1      46.684  28.930  32.381  1.00  0.00    -0.248 NA
ATOM     42  C   UNL A   1      45.468  30.579  31.260  1.00  0.00     0.031 C 
ATOM     43  C   UNL A   1      45.552  30.807  36.284  1.00  0.00     0.029 A 
ATOM     44  N   UNL A   1      46.717  29.164  35.309  1.00  0.00    -0.354 N 
ATOM     45  C   UNL A   1      46.809  28.745  31.009  1.00  0.00     0.074 A 
ATOM     46  C   UNL A   1      46.009  29.765  30.367  1.00  0.00     0.031 C 
ATOM     47  C   UNL A   1      46.173  30.115  37.256  1.00  0.00     0.029 A 
ATOM     48  C   UNL A   1      46.913  29.003  36.661  1.00  0.00     0.049 A 
ATOM     49  H   UNL A   1      47.133  28.584  34.632  1.00  0.00     0.167 HD
ATOM     50  C   UNL A   1      47.535  27.819  30.342  1.00  0.00     0.031 A 
ATOM     51  C   UNL A   1      47.595  28.056  37.339  1.00  0.00     0.031 A 
ATOM     52  C   UNL A   1      48.323  26.800  30.982  1.00  0.00     0.049 A 
ATOM     53  C   UNL A   1      48.304  26.964  36.572  1.00  0.00     0.074 A 
ATOM     54  C   UNL A   1      49.090  25.814  30.388  1.00  0.00     0.029 A 
ATOM     55  N   UNL A   1      48.446  26.635  32.352  1.00  0.00    -0.354 N 
ATOM     56  N   UNL A   1      48.418  26.808  35.274  1.00  0.00    -0.248 NA
ATOM     57  C   UNL A   1      48.979  25.923  37.362  1.00  0.00     0.031 C 
ATOM     58  C   UNL A   1      49.624  25.011  31.399  1.00  0.00     0.029 A 
ATOM     59  C   UNL A   1      49.252  25.543  32.623  1.00  0.00     0.049 A 
ATOM     60  H   UNL A   1      48.024  27.208  33.031  1.00  0.00     0.167 HD
ATOM     61  C   UNL A   1      49.205  25.673  35.096  1.00  0.00     0.074 A 
ATOM     62  C   UNL A   1      49.554  25.194  36.416  1.00  0.00     0.031 C 
ATOM     63  C   UNL A   1      49.602  25.079  33.942  1.00  0.00     0.031 A 
BRANCH  50  64
ATOM     64  C   UNL A   1      47.509  27.849  28.836  1.00  0.00    -0.014 A 
ATOM     65  C   UNL A   1      48.237  28.816  28.121  1.00  0.00     0.010 A 
ATOM     66  C   UNL A   1      46.827  26.842  28.129  1.00  0.00     0.010 A 
ATOM     67  C   UNL A   1      48.276  28.781  26.725  1.00  0.00     0.020 A 
ATOM     68  C   UNL A   1      46.888  26.785  26.734  1.00  0.00     0.020 A 
ATOM     69  C   UNL A   1      47.609  27.760  26.040  1.00  0.00     0.054 A 
BRANCH  69  70
ATOM     70  S   UNL A   1      47.735  27.706  24.233  1.00  0.00     0.124 S 
ATOM     71  O   UNL A   1      47.195  26.382  23.931  1.00  0.00    -0.237 OA
ATOM     72  O   UNL A   1      46.900  28.832  23.824  1.00  0.00    -0.237 OA
ATOM     73  O   UNL A   1      49.164  27.865  23.978  1.00  0.00    -0.744 OA
ENDBRANCH  69  70
ENDBRANCH  50  64
BRANCH  51  74
ATOM     74  C   UNL A   1      47.636  28.078  38.830  1.00  0.00    -0.014 A 
ATOM     75  C   UNL A   1      46.671  27.384  39.583  1.00  0.00     0.010 A 
ATOM     76  C   UNL A   1      48.625  28.814  39.511  1.00  0.00     0.010 A 
ATOM     77  C   UNL A   1      46.679  27.445  40.981  1.00  0.00     0.020 A 
ATOM     78  C   UNL A   1      48.658  28.850  40.908  1.00  0.00     0.020 A 
ATOM     79  C   UNL A   1      47.675  28.174  41.635  1.00  0.00     0.054 A 
BRANCH  79  80
ATOM     80  S   UNL A   1      47.681  28.209  43.448  1.00  0.00     0.124 S 
ATOM     81  O   UNL A   1      48.578  27.104  43.773  1.00  0.00    -0.237 OA
ATOM     82  O   UNL A   1      48.196  29.547  43.731  1.00  0.00    -0.237 OA
ATOM     83  O   UNL A   1      46.279  27.999  43.801  1.00  0.00    -0.744 OA
ENDBRANCH  79  80
ENDBRANCH  51  74
BRANCH  63  84
ATOM     84  C   UNL A   1      50.486  23.862  34.037  1.00  0.00    -0.014 A 
ATOM     85  C   UNL A   1      49.942  22.566  34.079  1.00  0.00     0.010 A 
ATOM     86  C   UNL A   1      51.886  24.013  33.991  1.00  0.00     0.010 A 
ATOM     87  C   UNL A   1      50.780  21.448  34.099  1.00  0.00     0.020 A 
ATOM     88  C   UNL A   1      52.726  22.897  33.976  1.00  0.00     0.020 A 
ATOM     89  C   UNL A   1      52.166  21.620  34.041  1.00  0.00     0.054 A 
BRANCH  89  90
ATOM     90  S   UNL A   1      53.224  20.147  34.015  1.00  0.00     0.124 S 
ATOM     91  O   UNL A   1      54.275  20.509  34.961  1.00  0.00    -0.237 OA
ATOM     92  O   UNL A   1      52.313  19.095  34.458  1.00  0.00    -0.237 OA
ATOM     93  O   UNL A   1      53.651  20.048  32.621  1.00  0.00    -0.744 OA
ENDBRANCH  89  90
ENDBRANCH  63  84
ENDBRANCH  37  38
ENDBRANCH  30  32
ENDBRANCH  29  30
ENDBRANCH  28  29
ENDBRANCH  27  28
ENDBRANCH  26  27
ENDBRANCH   1  26
TORSDOF 22
ENDMDL
MODEL 3
REMARK VINA RESULT:      -8.3      9.360     14.970
REMARK SMILES C#Cc1cc(Cl)cc2c1O[C@H](C(F)(F)F)C(C(=O)OCCOCCOCCOC(=O)c1ccc(-c3c4nc(c(-c5ccc(S(=O)(=O)[O-])cc5)c5ccc([nH]5)c(-c5ccc(S(=O)(=O)[O-])cc5)c5nc(c(-c6ccc(S(=O)(=O)[O-])cc6)c6ccc3[nH]6)C=C5)C=C4)cc1)=C2
REMARK SMILES IDX 24 1 23 2 22 3 21 4 20 5 19 6 17 7 18 8 16 9 3 10 4 11 9 12
REMARK SMILES IDX 5 13 8 14 10 15 6 16 7 17 91 18 11 19 2 20 1 21 12 22 13 23
REMARK SMILES IDX 14 24 15 25 25 26 26 27 27 28 28 29 29 30 30 31 31 32 32 33
REMARK SMILES IDX 90 34 33 35 89 36 34 37 35 38 36 39 83 40 37 41 88 42 82 43
REMARK SMILES IDX 84 44 38 45 87 46 81 47 80 48 39 50 69 51 50 52 68 53 51 54
REMARK SMILES IDX 54 55 67 56 85 57 52 58 53 59 66 61 86 62 55 63 40 64 41 65
REMARK SMILES IDX 49 66 42 67 48 68 43 69 44 70 45 71 46 72 47 73 70 74 71 75
REMARK SMILES IDX 79 76 72 77 78 78 73 79 74 80 75 81 76 82 77 83 56 84 57 85
REMARK SMILES IDX 65 86 58 87 64 88 59 89 60 90 61 91 62 92 63 93
REMARK H PARENT 84 49 54 60
REMARK Flexibility Score: inf
ROOT
ATOM      1  C   UNL A   1      33.207  34.968  28.719  1.00  0.00     0.188 C 
ENDROOT
BRANCH   1   2
ATOM      2  C   UNL A   1      34.253  33.839  28.611  1.00  0.00     0.188 C 
BRANCH   2   3
ATOM      3  O   UNL A   1      34.496  33.073  29.768  1.00  0.00    -0.376 OA
BRANCH   3   4
ATOM      4  C   UNL A   1      35.689  32.324  29.906  1.00  0.00     0.202 C 
BRANCH   4   5
ATOM      5  C   UNL A   1      35.914  31.149  30.880  1.00  0.00     0.261 C 
BRANCH   5   6
ATOM      6  O   UNL A   1      37.261  30.774  31.179  1.00  0.00    -0.460 OA
BRANCH   6   7
ATOM      7  C   UNL A   1      37.666  29.580  30.682  1.00  0.00     0.338 C 
ATOM      8  O   UNL A   1      37.143  28.956  29.775  1.00  0.00    -0.246 OA
BRANCH   7   9
ATOM      9  C   UNL A   1      38.953  29.203  31.304  1.00  0.00     0.087 C 
ATOM     10  C   UNL A   1      42.733  28.531  32.949  1.00  0.00     0.068 A 
ATOM     11  C   UNL A   1      43.015  29.001  34.235  1.00  0.00     0.041 A 
ATOM     12  C   UNL A   1      41.434  28.653  32.426  1.00  0.00     0.143 A 
ATOM     13  C   UNL A   1      42.002  29.569  35.002  1.00  0.00     0.043 A 
ATOM     14  C   UNL A   1      40.434  29.273  33.184  1.00  0.00     0.020 A 
ATOM     15  O   UNL A   1      41.210  28.151  31.172  1.00  0.00    -0.474 OA
ATOM     16  Cl  UNL A   1      42.357  30.152  36.580  1.00  0.00    -0.084 Cl
ATOM     17  C   UNL A   1      40.713  29.704  34.488  1.00  0.00     0.032 A 
ATOM     18  C   UNL A   1      39.138  29.551  32.585  1.00  0.00     0.027 C 
ATOM     19  C   UNL A   1      39.966  28.449  30.489  1.00  0.00     0.316 C 
BRANCH  10  20
ATOM     20  C   UNL A   1      43.805  27.993  32.165  1.00  0.00    -0.067 C 
ATOM     21  C   UNL A   1      44.701  27.509  31.526  1.00  0.00     0.010 C 
ENDBRANCH  10  20
BRANCH  19  22
ATOM     22  C   UNL A   1      40.300  29.166  29.175  1.00  0.00     0.430 C 
ATOM     23  F   UNL A   1      39.912  30.464  29.208  1.00  0.00    -0.167 F 
ATOM     24  F   UNL A   1      41.632  29.170  28.930  1.00  0.00    -0.167 F 
ATOM     25  F   UNL A   1      39.694  28.587  28.114  1.00  0.00    -0.167 F 
ENDBRANCH  19  22
ENDBRANCH   7   9
ENDBRANCH   6   7
ENDBRANCH   5   6
ENDBRANCH   4   5
ENDBRANCH   3   4
ENDBRANCH   2   3
ENDBRANCH   1   2
BRANCH   1  26
ATOM     26  O   UNL A   1      32.514  35.115  29.936  1.00  0.00    -0.376 OA
BRANCH  26  27
ATOM     27  C   UNL A   1      32.823  36.214  30.780  1.00  0.00     0.202 C 
BRANCH  27  28
ATOM     28  C   UNL A   1      32.777  36.212  32.328  1.00  0.00     0.261 C 
BRANCH  28  29
ATOM     29  O   UNL A   1      33.917  35.738  33.056  1.00  0.00    -0.460 OA
BRANCH  29  30
ATOM     30  C   UNL A   1      34.052  34.389  33.148  1.00  0.00     0.338 C 
ATOM     31  O   UNL A   1      33.184  33.553  32.973  1.00  0.00    -0.246 OA
BRANCH  30  32
ATOM     32  C   UNL A   1      35.490  34.064  33.286  1.00  0.00     0.060 A 
ATOM     33  C   UNL A   1      35.868  32.922  34.010  1.00  0.00     0.016 A 
ATOM     34  C   UNL A   1      36.459  34.885  32.712  1.00  0.00     0.016 A 
ATOM     35  C   UNL A   1      37.217  32.596  34.159  1.00  0.00     0.010 A 
ATOM     36  C   UNL A   1      37.812  34.579  32.898  1.00  0.00     0.010 A 
ATOM     37  C   UNL A   1      38.199  33.448  33.639  1.00  0.00    -0.014 A 
BRANCH  37  38
ATOM     38  C   UNL A   1      39.618  33.265  34.035  1.00  0.00     0.031 A 
ATOM     39  C   UNL A   1      39.974  33.407  35.491  1.00  0.00     0.074 A 
ATOM     40  C   UNL A   1      40.568  32.952  33.134  1.00  0.00     0.049 A 
ATOM     41  N   UNL A   1      41.146  33.351  36.066  1.00  0.00    -0.248 NA
ATOM     42  C   UNL A   1      38.857  33.642  36.423  1.00  0.00     0.031 C 
ATOM     43  C   UNL A   1      40.343  32.720  31.708  1.00  0.00     0.029 A 
ATOM     44  N   UNL A   1      41.922  32.773  33.292  1.00  0.00    -0.354 N 
ATOM     45  C   UNL A   1      40.910  33.546  37.422  1.00  0.00     0.074 A 
ATOM     46  C   UNL A   1      39.489  33.759  37.581  1.00  0.00     0.031 C 
ATOM     47  C   UNL A   1      41.519  32.433  31.121  1.00  0.00     0.029 A 
ATOM     48  C   UNL A   1      42.586  32.500  32.119  1.00  0.00     0.049 A 
ATOM     49  H   UNL A   1      42.373  32.837  34.164  1.00  0.00     0.167 HD
ATOM     50  C   UNL A   1      41.795  33.536  38.445  1.00  0.00     0.031 A 
ATOM     51  C   UNL A   1      43.905  32.342  31.877  1.00  0.00     0.031 A 
ATOM     52  C   UNL A   1      43.210  33.334  38.284  1.00  0.00     0.049 A 
ATOM     53  C   UNL A   1      44.884  32.449  33.022  1.00  0.00     0.074 A 
ATOM     54  C   UNL A   1      44.188  33.311  39.263  1.00  0.00     0.029 A 
ATOM     55  N   UNL A   1      43.849  33.121  37.074  1.00  0.00    -0.354 N 
ATOM     56  N   UNL A   1      44.644  32.627  34.300  1.00  0.00    -0.248 NA
ATOM     57  C   UNL A   1      46.313  32.331  32.692  1.00  0.00     0.031 C 
ATOM     58  C   UNL A   1      45.426  33.150  38.638  1.00  0.00     0.029 A 
ATOM     59  C   UNL A   1      45.212  32.996  37.278  1.00  0.00     0.049 A 
ATOM     60  H   UNL A   1      43.401  33.066  36.199  1.00  0.00     0.167 HD
ATOM     61  C   UNL A   1      45.887  32.607  34.926  1.00  0.00     0.074 A 
ATOM     62  C   UNL A   1      46.874  32.382  33.892  1.00  0.00     0.031 C 
ATOM     63  C   UNL A   1      46.186  32.762  36.241  1.00  0.00     0.031 A 
BRANCH  50  64
ATOM     64  C   UNL A   1      41.269  33.760  39.839  1.00  0.00    -0.014 A 
ATOM     65  C   UNL A   1      40.910  32.676  40.658  1.00  0.00     0.010 A 
ATOM     66  C   UNL A   1      41.224  35.064  40.367  1.00  0.00     0.010 A 
ATOM     67  C   UNL A   1      40.506  32.891  41.978  1.00  0.00     0.020 A 
ATOM     68  C   UNL A   1      40.849  35.280  41.696  1.00  0.00     0.020 A 
ATOM     69  C   UNL A   1      40.487  34.191  42.492  1.00  0.00     0.054 A 
BRANCH  69  70
ATOM     70  S   UNL A   1      40.022  34.428  44.228  1.00  0.00     0.124 S 
ATOM     71  O   UNL A   1      38.999  35.467  44.128  1.00  0.00    -0.237 OA
ATOM     72  O   UNL A   1      39.537  33.105  44.608  1.00  0.00    -0.237 OA
ATOM     73  O   UNL A   1      41.267  34.844  44.869  1.00  0.00    -0.744 OA
ENDBRANCH  69  70
ENDBRANCH  50  64
BRANCH  51  74
ATOM     74  C   UNL A   1      44.391  32.079  30.491  1.00  0.00    -0.014 A 
ATOM     75  C   UNL A   1      44.364  30.777  29.958  1.00  0.00     0.010 A 
ATOM     76  C   UNL A   1      44.912  33.123  29.703  1.00  0.00     0.010 A 
ATOM     77  C   UNL A   1      44.866  30.521  28.678  1.00  0.00     0.020 A 
ATOM     78  C   UNL A   1      45.383  32.879  28.410  1.00  0.00     0.020 A 
ATOM     79  C   UNL A   1      45.368  31.575  27.909  1.00  0.00     0.054 A 
BRANCH  79  80
ATOM     80  S   UNL A   1      45.983  31.220  26.240  1.00  0.00     0.124 S 
ATOM     81  O   UNL A   1      45.154  32.095  25.417  1.00  0.00    -0.237 OA
ATOM     82  O   UNL A   1      47.392  31.594  26.342  1.00  0.00    -0.237 OA
ATOM     83  O   UNL A   1      45.734  29.789  26.078  1.00  0.00    -0.744 OA
ENDBRANCH  79  80
ENDBRANCH  51  74
BRANCH  63  84
ATOM     84  C   UNL A   1      47.632  32.666  36.658  1.00  0.00    -0.014 A 
ATOM     85  C   UNL A   1      48.266  31.420  36.806  1.00  0.00     0.010 A 
ATOM     86  C   UNL A   1      48.391  33.841  36.814  1.00  0.00     0.010 A 
ATOM     87  C   UNL A   1      49.624  31.353  37.128  1.00  0.00     0.020 A 
ATOM     88  C   UNL A   1      49.757  33.778  37.101  1.00  0.00     0.020 A 
ATOM     89  C   UNL A   1      50.363  32.532  37.266  1.00  0.00     0.054 A 
BRANCH  89  90
ATOM     90  S   UNL A   1      52.136  32.409  37.631  1.00  0.00     0.124 S 
ATOM     91  O   UNL A   1      52.737  32.854  36.377  1.00  0.00    -0.237 OA
ATOM     92  O   UNL A   1      52.291  33.322  38.761  1.00  0.00    -0.237 OA
ATOM     93  O   UNL A   1      52.330  30.996  37.947  1.00  0.00    -0.744 OA
ENDBRANCH  89  90
ENDBRANCH  63  84
ENDBRANCH  37  38
ENDBRANCH  30  32
ENDBRANCH  29  30
ENDBRANCH  28  29
ENDBRANCH  27  28
ENDBRANCH  26  27
ENDBRANCH   1  26
TORSDOF 22
ENDMDL
