MODEL 1
REMARK VINA RESULT:      -9.5      0.000      0.000
REMARK SMILES CC[C@H]1SC[C@H](C(=O)OCCOCCOCCOC(=O)c2ccc(-c3c4nc(c(-c5ccc(S(=O)(=O)[O-])cc5)c5ccc([nH]5)c(-c5ccc(S(=O)(=O)[O-])cc5)c5nc(c(-c6ccc(S(=O)(=O)[O-])cc6)c6ccc3[nH]6)C=C5)C=C4)cc2)N1C(=O)Cc1ccc(F)c(F)c1
REMARK SMILES IDX 13 1 12 2 11 3 10 4 9 5 7 6 8 7 6 8 3 9 4 10 81 11 5 12 2 13
REMARK SMILES IDX 1 14 82 15 83 16 84 17 85 18 86 19 92 20 87 21 90 22 88 23
REMARK SMILES IDX 91 24 89 25 14 26 15 27 16 28 17 29 18 30 19 31 20 32 21 33
REMARK SMILES IDX 22 34 80 35 23 36 79 37 24 38 25 39 26 40 73 41 27 42 78 43
REMARK SMILES IDX 72 44 74 45 28 46 77 47 71 48 70 49 29 51 59 52 40 53 58 54
REMARK SMILES IDX 41 55 44 56 57 57 75 58 42 59 43 60 56 62 76 63 45 64 30 65
REMARK SMILES IDX 31 66 39 67 32 68 38 69 33 70 34 71 35 72 36 73 37 74 60 75
REMARK SMILES IDX 61 76 69 77 62 78 68 79 63 80 64 81 65 82 66 83 67 84 46 85
REMARK SMILES IDX 47 86 55 87 48 88 54 89 49 90 50 91 51 92 52 93 53 94
REMARK H PARENT 74 50 44 61
REMARK Flexibility Score: inf
ROOT
ATOM      1  C   UNL A   1      40.079  22.362  26.453  1.00  0.00     0.188 C 
ENDROOT
BRANCH   1   2
ATOM      2  O   UNL A   1      38.961  21.481  26.501  1.00  0.00    -0.376 OA
BRANCH   2   3
ATOM      3  C   UNL A   1      38.125  21.381  25.359  1.00  0.00     0.202 C 
BRANCH   3   4
ATOM      4  C   UNL A   1      36.879  22.264  25.379  1.00  0.00     0.261 C 
BRANCH   4   5
ATOM      5  O   UNL A   1      35.869  21.880  24.414  1.00  0.00    -0.462 OA
BRANCH   5   6
ATOM      6  C   UNL A   1      35.731  22.717  23.354  1.00  0.00     0.329 C 
ATOM      7  O   UNL A   1      36.623  22.864  22.523  1.00  0.00    -0.250 OA
BRANCH   6   8
ATOM      8  C   UNL A   1      34.474  23.643  23.415  1.00  0.00     0.206 C 
ATOM      9  C   UNL A   1      32.179  23.294  24.320  1.00  0.00     0.144 C 
ATOM     10  S   UNL A   1      32.349  22.191  22.902  1.00  0.00    -0.134 SA
ATOM     11  N   UNL A   1      33.553  23.721  24.614  1.00  0.00    -0.316 N 
ATOM     12  C   UNL A   1      33.621  23.252  22.190  1.00  0.00     0.109 C 
BRANCH   9  13
ATOM     13  C   UNL A   1      31.298  24.504  23.920  1.00  0.00     0.033 C 
ATOM     14  C   UNL A   1      30.427  25.051  25.042  1.00  0.00     0.007 C 
ENDBRANCH   9  13
BRANCH  11  15
ATOM     15  C   UNL A   1      33.853  24.473  25.746  1.00  0.00     0.228 C 
ATOM     16  O   UNL A   1      33.567  24.067  26.874  1.00  0.00    -0.274 OA
BRANCH  15  17
ATOM     17  C   UNL A   1      34.458  25.880  25.561  1.00  0.00     0.135 C 
BRANCH  17  18
ATOM     18  C   UNL A   1      33.517  27.062  25.481  1.00  0.00    -0.036 A 
ATOM     19  C   UNL A   1      33.380  27.796  24.294  1.00  0.00     0.007 A 
ATOM     20  C   UNL A   1      32.790  27.479  26.616  1.00  0.00     0.046 A 
ATOM     21  C   UNL A   1      32.503  28.886  24.227  1.00  0.00     0.043 A 
ATOM     22  C   UNL A   1      31.901  28.549  26.533  1.00  0.00     0.159 A 
ATOM     23  C   UNL A   1      31.755  29.247  25.344  1.00  0.00     0.158 A 
ATOM     24  F   UNL A   1      31.174  28.886  27.607  1.00  0.00    -0.204 F 
ATOM     25  F   UNL A   1      30.892  30.269  25.258  1.00  0.00    -0.204 F 
ENDBRANCH  17  18
ENDBRANCH  15  17
ENDBRANCH  11  15
ENDBRANCH   6   8
ENDBRANCH   5   6
ENDBRANCH   4   5
ENDBRANCH   3   4
ENDBRANCH   2   3
ENDBRANCH   1   2
BRANCH   1  26
ATOM     26  C   UNL A   1      41.468  21.795  26.134  1.00  0.00     0.188 C 
BRANCH  26  27
ATOM     27  O   UNL A   1      41.682  20.528  26.741  1.00  0.00    -0.376 OA
BRANCH  27  28
ATOM     28  C   UNL A   1      41.733  19.450  25.818  1.00  0.00     0.202 C 
BRANCH  28  29
ATOM     29  C   UNL A   1      43.181  18.965  25.713  1.00  0.00     0.261 C 
BRANCH  29  30
ATOM     30  O   UNL A   1      43.798  19.231  24.438  1.00  0.00    -0.460 OA
BRANCH  30  31
ATOM     31  C   UNL A   1      45.020  19.794  24.474  1.00  0.00     0.338 C 
ATOM     32  O   UNL A   1      46.071  19.311  24.061  1.00  0.00    -0.246 OA
BRANCH  31  33
ATOM     33  C   UNL A   1      44.895  21.190  24.916  1.00  0.00     0.060 A 
ATOM     34  C   UNL A   1      44.468  22.148  23.990  1.00  0.00     0.016 A 
ATOM     35  C   UNL A   1      45.263  21.568  26.203  1.00  0.00     0.016 A 
ATOM     36  C   UNL A   1      44.473  23.498  24.311  1.00  0.00     0.010 A 
ATOM     37  C   UNL A   1      45.256  22.923  26.534  1.00  0.00     0.010 A 
ATOM     38  C   UNL A   1      44.900  23.896  25.580  1.00  0.00    -0.014 A 
BRANCH  38  39
ATOM     39  C   UNL A   1      45.117  25.329  25.878  1.00  0.00     0.031 A 
ATOM     40  C   UNL A   1      46.499  25.892  25.709  1.00  0.00     0.074 A 
ATOM     41  C   UNL A   1      44.107  26.112  26.296  1.00  0.00     0.049 A 
ATOM     42  N   UNL A   1      46.984  27.031  26.122  1.00  0.00    -0.248 NA
ATOM     43  C   UNL A   1      47.466  25.050  24.983  1.00  0.00     0.031 C 
ATOM     44  C   UNL A   1      42.704  25.710  26.400  1.00  0.00     0.029 A 
ATOM     45  N   UNL A   1      44.119  27.412  26.732  1.00  0.00    -0.354 N 
ATOM     46  C   UNL A   1      48.324  27.023  25.753  1.00  0.00     0.074 A 
ATOM     47  C   UNL A   1      48.575  25.769  25.079  1.00  0.00     0.031 C 
ATOM     48  C   UNL A   1      41.993  26.738  26.894  1.00  0.00     0.029 A 
ATOM     49  C   UNL A   1      42.900  27.839  27.204  1.00  0.00     0.049 A 
ATOM     50  H   UNL A   1      44.921  27.983  26.711  1.00  0.00     0.167 HD
ATOM     51  C   UNL A   1      49.261  27.974  25.974  1.00  0.00     0.031 A 
ATOM     52  C   UNL A   1      42.569  28.967  27.863  1.00  0.00     0.031 A 
ATOM     53  C   UNL A   1      48.991  29.223  26.635  1.00  0.00     0.049 A 
ATOM     54  C   UNL A   1      43.643  29.976  28.172  1.00  0.00     0.074 A 
ATOM     55  C   UNL A   1      49.868  30.255  26.912  1.00  0.00     0.029 A 
ATOM     56  N   UNL A   1      47.749  29.607  27.116  1.00  0.00    -0.354 N 
ATOM     57  N   UNL A   1      44.918  29.943  27.864  1.00  0.00    -0.248 NA
ATOM     58  C   UNL A   1      43.236  31.169  28.929  1.00  0.00     0.031 C 
ATOM     59  C   UNL A   1      49.164  31.246  27.603  1.00  0.00     0.029 A 
ATOM     60  C   UNL A   1      47.839  30.854  27.707  1.00  0.00     0.049 A 
ATOM     61  H   UNL A   1      46.926  29.072  27.048  1.00  0.00     0.167 HD
ATOM     62  C   UNL A   1      45.460  31.122  28.365  1.00  0.00     0.074 A 
ATOM     63  C   UNL A   1      44.374  31.849  28.991  1.00  0.00     0.031 C 
ATOM     64  C   UNL A   1      46.740  31.565  28.311  1.00  0.00     0.031 A 
BRANCH  51  65
ATOM     65  C   UNL A   1      50.671  27.673  25.552  1.00  0.00    -0.014 A 
ATOM     66  C   UNL A   1      51.083  27.797  24.214  1.00  0.00     0.010 A 
ATOM     67  C   UNL A   1      51.610  27.283  26.525  1.00  0.00     0.010 A 
ATOM     68  C   UNL A   1      52.401  27.504  23.851  1.00  0.00     0.020 A 
ATOM     69  C   UNL A   1      52.934  27.013  26.171  1.00  0.00     0.020 A 
ATOM     70  C   UNL A   1      53.316  27.109  24.832  1.00  0.00     0.054 A 
BRANCH  70  71
ATOM     71  S   UNL A   1      55.026  26.754  24.339  1.00  0.00     0.124 S 
ATOM     72  O   UNL A   1      54.926  26.766  22.882  1.00  0.00    -0.237 OA
ATOM     73  O   UNL A   1      55.767  27.866  24.927  1.00  0.00    -0.237 OA
ATOM     74  O   UNL A   1      55.294  25.447  24.934  1.00  0.00    -0.744 OA
ENDBRANCH  70  71
ENDBRANCH  51  65
BRANCH  52  75
ATOM     75  C   UNL A   1      41.172  29.167  28.335  1.00  0.00    -0.014 A 
ATOM     76  C   UNL A   1      40.132  29.401  27.418  1.00  0.00     0.010 A 
ATOM     77  C   UNL A   1      40.873  29.118  29.708  1.00  0.00     0.010 A 
ATOM     78  C   UNL A   1      38.824  29.598  27.869  1.00  0.00     0.020 A 
ATOM     79  C   UNL A   1      39.561  29.286  30.161  1.00  0.00     0.020 A 
ATOM     80  C   UNL A   1      38.546  29.538  29.238  1.00  0.00     0.054 A 
BRANCH  80  81
ATOM     81  S   UNL A   1      36.833  29.749  29.796  1.00  0.00     0.124 S 
ATOM     82  O   UNL A   1      36.758  31.191  30.006  1.00  0.00    -0.237 OA
ATOM     83  O   UNL A   1      36.064  29.233  28.666  1.00  0.00    -0.237 OA
ATOM     84  O   UNL A   1      36.766  28.936  31.009  1.00  0.00    -0.744 OA
ENDBRANCH  80  81
ENDBRANCH  52  75
BRANCH  64  85
ATOM     85  C   UNL A   1      47.038  32.918  28.898  1.00  0.00    -0.014 A 
ATOM     86  C   UNL A   1      46.908  34.088  28.132  1.00  0.00     0.010 A 
ATOM     87  C   UNL A   1      47.362  33.020  30.263  1.00  0.00     0.010 A 
ATOM     88  C   UNL A   1      47.109  35.340  28.720  1.00  0.00     0.020 A 
ATOM     89  C   UNL A   1      47.541  34.269  30.860  1.00  0.00     0.020 A 
ATOM     90  C   UNL A   1      47.419  35.422  30.082  1.00  0.00     0.054 A 
BRANCH  90  91
ATOM     91  S   UNL A   1      47.602  37.060  30.840  1.00  0.00     0.124 S 
ATOM     92  O   UNL A   1      47.526  37.943  29.681  1.00  0.00    -0.237 OA
ATOM     93  O   UNL A   1      46.462  37.120  31.752  1.00  0.00    -0.237 OA
ATOM     94  O   UNL A   1      48.908  36.996  31.491  1.00  0.00    -0.744 OA
ENDBRANCH  90  91
ENDBRANCH  64  85
ENDBRANCH  38  39
ENDBRANCH  31  33
ENDBRANCH  30  31
ENDBRANCH  29  30
ENDBRANCH  28  29
ENDBRANCH  27  28
ENDBRANCH  26  27
ENDBRANCH   1  26
TORSDOF 24
ENDMDL
MODEL 2
REMARK VINA RESULT:      -9.1      4.543      6.481
REMARK SMILES CC[C@H]1SC[C@H](C(=O)OCCOCCOCCOC(=O)c2ccc(-c3c4nc(c(-c5ccc(S(=O)(=O)[O-])cc5)c5ccc([nH]5)c(-c5ccc(S(=O)(=O)[O-])cc5)c5nc(c(-c6ccc(S(=O)(=O)[O-])cc6)c6ccc3[nH]6)C=C5)C=C4)cc2)N1C(=O)Cc1ccc(F)c(F)c1
REMARK SMILES IDX 13 1 12 2 11 3 10 4 9 5 7 6 8 7 6 8 3 9 4 10 81 11 5 12 2 13
REMARK SMILES IDX 1 14 82 15 83 16 84 17 85 18 86 19 92 20 87 21 90 22 88 23
REMARK SMILES IDX 91 24 89 25 14 26 15 27 16 28 17 29 18 30 19 31 20 32 21 33
REMARK SMILES IDX 22 34 80 35 23 36 79 37 24 38 25 39 26 40 73 41 27 42 78 43
REMARK SMILES IDX 72 44 74 45 28 46 77 47 71 48 70 49 29 51 59 52 40 53 58 54
REMARK SMILES IDX 41 55 44 56 57 57 75 58 42 59 43 60 56 62 76 63 45 64 30 65
REMARK SMILES IDX 31 66 39 67 32 68 38 69 33 70 34 71 35 72 36 73 37 74 60 75
REMARK SMILES IDX 61 76 69 77 62 78 68 79 63 80 64 81 65 82 66 83 67 84 46 85
REMARK SMILES IDX 47 86 55 87 48 88 54 89 49 90 50 91 51 92 52 93 53 94
REMARK H PARENT 74 50 44 61
REMARK Flexibility Score: inf
ROOT
ATOM      1  C   UNL A   1      33.600  21.930  26.780  1.00  0.00     0.188 C 
ENDROOT
BRANCH   1   2
ATOM      2  O   UNL A   1      32.262  21.704  26.347  1.00  0.00    -0.376 OA
BRANCH   2   3
ATOM      3  C   UNL A   1      31.296  22.720  26.564  1.00  0.00     0.202 C 
BRANCH   3   4
ATOM      4  C   UNL A   1      30.683  23.324  25.302  1.00  0.00     0.261 C 
BRANCH   4   5
ATOM      5  O   UNL A   1      30.187  24.674  25.476  1.00  0.00    -0.462 OA
BRANCH   5   6
ATOM      6  C   UNL A   1      30.408  25.513  24.431  1.00  0.00     0.329 C 
ATOM      7  O   UNL A   1      30.447  25.108  23.272  1.00  0.00    -0.250 OA
BRANCH   6   8
ATOM      8  C   UNL A   1      30.845  26.956  24.836  1.00  0.00     0.206 C 
ATOM      9  C   UNL A   1      33.069  28.077  24.898  1.00  0.00     0.144 C 
ATOM     10  S   UNL A   1      33.101  26.795  26.168  1.00  0.00    -0.134 SA
ATOM     11  N   UNL A   1      31.891  27.753  24.085  1.00  0.00    -0.316 N 
ATOM     12  C   UNL A   1      31.304  26.845  26.305  1.00  0.00     0.109 C 
BRANCH   9  13
ATOM     13  C   UNL A   1      32.910  29.461  25.576  1.00  0.00     0.033 C 
ATOM     14  C   UNL A   1      33.728  29.641  26.848  1.00  0.00     0.007 C 
ENDBRANCH   9  13
BRANCH  11  15
ATOM     15  C   UNL A   1      31.612  28.437  22.905  1.00  0.00     0.228 C 
ATOM     16  O   UNL A   1      32.513  28.945  22.235  1.00  0.00    -0.274 OA
BRANCH  15  17
ATOM     17  C   UNL A   1      30.138  28.645  22.500  1.00  0.00     0.135 C 
BRANCH  17  18
ATOM     18  C   UNL A   1      29.570  30.047  22.549  1.00  0.00    -0.036 A 
ATOM     19  C   UNL A   1      29.449  30.734  23.766  1.00  0.00     0.007 A 
ATOM     20  C   UNL A   1      29.106  30.674  21.375  1.00  0.00     0.046 A 
ATOM     21  C   UNL A   1      28.926  32.033  23.802  1.00  0.00     0.043 A 
ATOM     22  C   UNL A   1      28.611  31.977  21.416  1.00  0.00     0.159 A 
ATOM     23  C   UNL A   1      28.525  32.654  22.623  1.00  0.00     0.158 A 
ATOM     24  F   UNL A   1      28.236  32.575  20.278  1.00  0.00    -0.204 F 
ATOM     25  F   UNL A   1      28.059  33.910  22.664  1.00  0.00    -0.204 F 
ENDBRANCH  17  18
ENDBRANCH  15  17
ENDBRANCH  11  15
ENDBRANCH   6   8
ENDBRANCH   5   6
ENDBRANCH   4   5
ENDBRANCH   3   4
ENDBRANCH   2   3
ENDBRANCH   1   2
BRANCH   1  26
ATOM     26  C   UNL A   1      34.758  21.659  25.812  1.00  0.00     0.188 C 
BRANCH  26  27
ATOM     27  O   UNL A   1      34.658  22.433  24.625  1.00  0.00    -0.376 OA
BRANCH  27  28
ATOM     28  C   UNL A   1      35.249  23.721  24.727  1.00  0.00     0.202 C 
BRANCH  28  29
ATOM     29  C   UNL A   1      36.266  23.702  25.870  1.00  0.00     0.261 C 
BRANCH  29  30
ATOM     30  O   UNL A   1      37.627  23.925  25.449  1.00  0.00    -0.460 OA
BRANCH  30  31
ATOM     31  C   UNL A   1      38.585  23.390  26.228  1.00  0.00     0.338 C 
ATOM     32  O   UNL A   1      38.916  22.208  26.289  1.00  0.00    -0.246 OA
BRANCH  31  33
ATOM     33  C   UNL A   1      39.338  24.471  26.877  1.00  0.00     0.060 A 
ATOM     34  C   UNL A   1      39.153  24.685  28.247  1.00  0.00     0.016 A 
ATOM     35  C   UNL A   1      40.161  25.314  26.137  1.00  0.00     0.016 A 
ATOM     36  C   UNL A   1      39.725  25.781  28.879  1.00  0.00     0.010 A 
ATOM     37  C   UNL A   1      40.749  26.408  26.772  1.00  0.00     0.010 A 
ATOM     38  C   UNL A   1      40.503  26.669  28.134  1.00  0.00    -0.014 A 
BRANCH  38  39
ATOM     39  C   UNL A   1      40.947  27.949  28.726  1.00  0.00     0.031 A 
ATOM     40  C   UNL A   1      42.349  28.043  29.255  1.00  0.00     0.074 A 
ATOM     41  C   UNL A   1      40.118  29.007  28.798  1.00  0.00     0.049 A 
ATOM     42  N   UNL A   1      42.887  28.958  30.016  1.00  0.00    -0.248 NA
ATOM     43  C   UNL A   1      43.265  26.951  28.882  1.00  0.00     0.031 C 
ATOM     44  C   UNL A   1      38.772  29.074  28.229  1.00  0.00     0.029 A 
ATOM     45  N   UNL A   1      40.290  30.224  29.405  1.00  0.00    -0.354 N 
ATOM     46  C   UNL A   1      44.187  28.528  30.255  1.00  0.00     0.074 A 
ATOM     47  C   UNL A   1      44.359  27.274  29.556  1.00  0.00     0.031 C 
ATOM     48  C   UNL A   1      38.230  30.265  28.535  1.00  0.00     0.029 A 
ATOM     49  C   UNL A   1      39.162  31.010  29.377  1.00  0.00     0.049 A 
ATOM     50  H   UNL A   1      41.137  30.508  29.820  1.00  0.00     0.167 HD
ATOM     51  C   UNL A   1      45.142  29.123  31.006  1.00  0.00     0.031 A 
ATOM     52  C   UNL A   1      38.893  32.169  30.008  1.00  0.00     0.031 A 
ATOM     53  C   UNL A   1      44.959  30.377  31.684  1.00  0.00     0.049 A 
ATOM     54  C   UNL A   1      39.941  32.774  30.905  1.00  0.00     0.074 A 
ATOM     55  C   UNL A   1      45.861  31.068  32.473  1.00  0.00     0.029 A 
ATOM     56  N   UNL A   1      43.795  31.130  31.649  1.00  0.00    -0.354 N 
ATOM     57  N   UNL A   1      41.151  32.340  31.167  1.00  0.00    -0.248 NA
ATOM     58  C   UNL A   1      39.582  34.018  31.602  1.00  0.00     0.031 C 
ATOM     59  C   UNL A   1      45.225  32.217  32.952  1.00  0.00     0.029 A 
ATOM     60  C   UNL A   1      43.947  32.269  32.417  1.00  0.00     0.049 A 
ATOM     61  H   UNL A   1      42.981  30.889  31.151  1.00  0.00     0.167 HD
ATOM     62  C   UNL A   1      41.708  33.272  32.036  1.00  0.00     0.074 A 
ATOM     63  C   UNL A   1      40.705  34.295  32.252  1.00  0.00     0.031 C 
ATOM     64  C   UNL A   1      42.939  33.282  32.605  1.00  0.00     0.031 A 
BRANCH  51  65
ATOM     65  C   UNL A   1      46.445  28.394  31.180  1.00  0.00    -0.014 A 
ATOM     66  C   UNL A   1      46.628  27.443  32.198  1.00  0.00     0.010 A 
ATOM     67  C   UNL A   1      47.500  28.651  30.283  1.00  0.00     0.010 A 
ATOM     68  C   UNL A   1      47.854  26.785  32.337  1.00  0.00     0.020 A 
ATOM     69  C   UNL A   1      48.718  27.979  30.404  1.00  0.00     0.020 A 
ATOM     70  C   UNL A   1      48.892  27.061  31.441  1.00  0.00     0.054 A 
BRANCH  70  71
ATOM     71  S   UNL A   1      50.467  26.180  31.630  1.00  0.00     0.124 S 
ATOM     72  O   UNL A   1      50.089  24.813  31.283  1.00  0.00    -0.237 OA
ATOM     73  O   UNL A   1      51.331  26.857  30.667  1.00  0.00    -0.237 OA
ATOM     74  O   UNL A   1      50.817  26.392  33.033  1.00  0.00    -0.744 OA
ENDBRANCH  70  71
ENDBRANCH  51  65
BRANCH  52  75
ATOM     75  C   UNL A   1      37.551  32.797  29.868  1.00  0.00    -0.014 A 
ATOM     76  C   UNL A   1      36.500  32.442  30.730  1.00  0.00     0.010 A 
ATOM     77  C   UNL A   1      37.321  33.762  28.870  1.00  0.00     0.010 A 
ATOM     78  C   UNL A   1      35.239  33.030  30.586  1.00  0.00     0.020 A 
ATOM     79  C   UNL A   1      36.070  34.372  28.741  1.00  0.00     0.020 A 
ATOM     80  C   UNL A   1      35.032  33.992  29.593  1.00  0.00     0.054 A 
BRANCH  80  81
ATOM     81  S   UNL A   1      33.401  34.775  29.455  1.00  0.00     0.124 S 
ATOM     82  O   UNL A   1      33.725  36.035  28.796  1.00  0.00    -0.237 OA
ATOM     83  O   UNL A   1      32.654  33.812  28.650  1.00  0.00    -0.237 OA
ATOM     84  O   UNL A   1      32.960  34.890  30.844  1.00  0.00    -0.744 OA
ENDBRANCH  80  81
ENDBRANCH  52  75
BRANCH  64  85
ATOM     85  C   UNL A   1      43.299  34.455  33.475  1.00  0.00    -0.014 A 
ATOM     86  C   UNL A   1      43.069  34.431  34.861  1.00  0.00     0.010 A 
ATOM     87  C   UNL A   1      43.961  35.557  32.905  1.00  0.00     0.010 A 
ATOM     88  C   UNL A   1      43.487  35.497  35.662  1.00  0.00     0.020 A 
ATOM     89  C   UNL A   1      44.400  36.614  33.704  1.00  0.00     0.020 A 
ATOM     90  C   UNL A   1      44.155  36.580  35.078  1.00  0.00     0.054 A 
BRANCH  90  91
ATOM     91  S   UNL A   1      44.754  37.917  36.148  1.00  0.00     0.124 S 
ATOM     92  O   UNL A   1      46.170  37.976  35.798  1.00  0.00    -0.237 OA
ATOM     93  O   UNL A   1      43.951  39.058  35.714  1.00  0.00    -0.237 OA
ATOM     94  O   UNL A   1      44.464  37.438  37.497  1.00  0.00    -0.744 OA
ENDBRANCH  90  91
ENDBRANCH  64  85
ENDBRANCH  38  39
ENDBRANCH  31  33
ENDBRANCH  30  31
ENDBRANCH  29  30
ENDBRANCH  28  29
ENDBRANCH  27  28
ENDBRANCH  26  27
ENDBRANCH   1  26
TORSDOF 24
ENDMDL
MODEL 3
REMARK VINA RESULT:      -9.1      3.345      9.627
REMARK SMILES CC[C@H]1SC[C@H](C(=O)OCCOCCOCCOC(=O)c2ccc(-c3c4nc(c(-c5ccc(S(=O)(=O)[O-])cc5)c5ccc([nH]5)c(-c5ccc(S(=O)(=O)[O-])cc5)c5nc(c(-c6ccc(S(=O)(=O)[O-])cc6)c6ccc3[nH]6)C=C5)C=C4)cc2)N1C(=O)Cc1ccc(F)c(F)c1
REMARK SMILES IDX 13 1 12 2 11 3 10 4 9 5 7 6 8 7 6 8 3 9 4 10 81 11 5 12 2 13
REMARK SMILES IDX 1 14 82 15 83 16 84 17 85 18 86 19 92 20 87 21 90 22 88 23
REMARK SMILES IDX 91 24 89 25 14 26 15 27 16 28 17 29 18 30 19 31 20 32 21 33
REMARK SMILES IDX 22 34 80 35 23 36 79 37 24 38 25 39 26 40 73 41 27 42 78 43
REMARK SMILES IDX 72 44 74 45 28 46 77 47 71 48 70 49 29 51 59 52 40 53 58 54
REMARK SMILES IDX 41 55 44 56 57 57 75 58 42 59 43 60 56 62 76 63 45 64 30 65
REMARK SMILES IDX 31 66 39 67 32 68 38 69 33 70 34 71 35 72 36 73 37 74 60 75
REMARK SMILES IDX 61 76 69 77 62 78 68 79 63 80 64 81 65 82 66 83 67 84 46 85
REMARK SMILES IDX 47 86 55 87 48 88 54 89 49 90 50 91 51 92 52 93 53 94
REMARK H PARENT 74 50 44 61
REMARK Flexibility Score: inf
ROOT
ATOM      1  C   UNL A   1      31.464  27.979  24.845  1.00  0.00     0.188 C 
ENDROOT
BRANCH   1   2
ATOM      2  O   UNL A   1      30.338  27.121  25.004  1.00  0.00    -0.376 OA
BRANCH   2   3
ATOM      3  C   UNL A   1      29.790  26.499  23.853  1.00  0.00     0.202 C 
BRANCH   3   4
ATOM      4  C   UNL A   1      30.716  25.522  23.131  1.00  0.00     0.261 C 
BRANCH   4   5
ATOM      5  O   UNL A   1      31.449  24.640  24.017  1.00  0.00    -0.462 OA
BRANCH   5   6
ATOM      6  C   UNL A   1      31.920  23.502  23.445  1.00  0.00     0.329 C 
ATOM      7  O   UNL A   1      31.169  22.608  23.067  1.00  0.00    -0.250 OA
BRANCH   6   8
ATOM      8  C   UNL A   1      33.469  23.322  23.535  1.00  0.00     0.206 C 
ATOM      9  C   UNL A   1      35.079  23.580  25.418  1.00  0.00     0.144 C 
ATOM     10  S   UNL A   1      34.439  25.228  25.056  1.00  0.00    -0.134 SA
ATOM     11  N   UNL A   1      34.166  22.673  24.711  1.00  0.00    -0.316 N 
ATOM     12  C   UNL A   1      34.054  24.740  23.364  1.00  0.00     0.109 C 
BRANCH   9  13
ATOM     13  C   UNL A   1      36.520  23.460  24.861  1.00  0.00     0.033 C 
ATOM     14  C   UNL A   1      37.611  23.462  25.922  1.00  0.00     0.007 C 
ENDBRANCH   9  13
BRANCH  11  15
ATOM     15  C   UNL A   1      34.247  21.292  24.870  1.00  0.00     0.228 C 
ATOM     16  O   UNL A   1      35.234  20.768  25.390  1.00  0.00    -0.274 OA
BRANCH  15  17
ATOM     17  C   UNL A   1      33.122  20.412  24.286  1.00  0.00     0.135 C 
BRANCH  17  18
ATOM     18  C   UNL A   1      33.187  18.918  24.516  1.00  0.00    -0.036 A 
ATOM     19  C   UNL A   1      32.613  18.339  25.658  1.00  0.00     0.007 A 
ATOM     20  C   UNL A   1      33.867  18.080  23.608  1.00  0.00     0.046 A 
ATOM     21  C   UNL A   1      32.673  16.954  25.861  1.00  0.00     0.043 A 
ATOM     22  C   UNL A   1      33.899  16.701  23.806  1.00  0.00     0.159 A 
ATOM     23  C   UNL A   1      33.302  16.140  24.924  1.00  0.00     0.158 A 
ATOM     24  F   UNL A   1      34.497  15.920  22.896  1.00  0.00    -0.204 F 
ATOM     25  F   UNL A   1      33.323  14.813  25.111  1.00  0.00    -0.204 F 
ENDBRANCH  17  18
ENDBRANCH  15  17
ENDBRANCH  11  15
ENDBRANCH   6   8
ENDBRANCH   5   6
ENDBRANCH   4   5
ENDBRANCH   3   4
ENDBRANCH   2   3
ENDBRANCH   1   2
BRANCH   1  26
ATOM     26  C   UNL A   1      31.713  29.089  25.874  1.00  0.00     0.188 C 
BRANCH  26  27
ATOM     27  O   UNL A   1      33.067  29.517  25.884  1.00  0.00    -0.376 OA
BRANCH  27  28
ATOM     28  C   UNL A   1      33.432  30.248  27.045  1.00  0.00     0.202 C 
BRANCH  28  29
ATOM     29  C   UNL A   1      34.930  30.058  27.291  1.00  0.00     0.261 C 
BRANCH  29  30
ATOM     30  O   UNL A   1      35.260  29.683  28.644  1.00  0.00    -0.460 OA
BRANCH  30  31
ATOM     31  C   UNL A   1      36.268  30.362  29.220  1.00  0.00     0.338 C 
ATOM     32  O   UNL A   1      36.175  31.316  29.989  1.00  0.00    -0.246 OA
BRANCH  31  33
ATOM     33  C   UNL A   1      37.535  29.669  28.948  1.00  0.00     0.060 A 
ATOM     34  C   UNL A   1      38.193  29.040  30.011  1.00  0.00     0.016 A 
ATOM     35  C   UNL A   1      38.108  29.697  27.682  1.00  0.00     0.016 A 
ATOM     36  C   UNL A   1      39.460  28.499  29.841  1.00  0.00     0.010 A 
ATOM     37  C   UNL A   1      39.376  29.142  27.503  1.00  0.00     0.010 A 
ATOM     38  C   UNL A   1      40.073  28.577  28.589  1.00  0.00    -0.014 A 
BRANCH  38  39
ATOM     39  C   UNL A   1      41.495  28.202  28.430  1.00  0.00     0.031 A 
ATOM     40  C   UNL A   1      42.533  29.284  28.521  1.00  0.00     0.074 A 
ATOM     41  C   UNL A   1      41.857  26.926  28.205  1.00  0.00     0.049 A 
ATOM     42  N   UNL A   1      43.795  29.249  28.190  1.00  0.00    -0.248 NA
ATOM     43  C   UNL A   1      42.081  30.583  29.049  1.00  0.00     0.031 C 
ATOM     44  C   UNL A   1      40.956  25.774  28.198  1.00  0.00     0.029 A 
ATOM     45  N   UNL A   1      43.087  26.395  27.915  1.00  0.00    -0.354 N 
ATOM     46  C   UNL A   1      44.277  30.532  28.419  1.00  0.00     0.074 A 
ATOM     47  C   UNL A   1      43.175  31.320  28.922  1.00  0.00     0.031 C 
ATOM     48  C   UNL A   1      41.662  24.671  27.895  1.00  0.00     0.029 A 
ATOM     49  C   UNL A   1      43.044  25.053  27.619  1.00  0.00     0.049 A 
ATOM     50  H   UNL A   1      43.919  26.921  27.920  1.00  0.00     0.167 HD
ATOM     51  C   UNL A   1      45.527  31.008  28.211  1.00  0.00     0.031 A 
ATOM     52  C   UNL A   1      43.998  24.240  27.125  1.00  0.00     0.031 A 
ATOM     53  C   UNL A   1      46.616  30.207  27.723  1.00  0.00     0.049 A 
ATOM     54  C   UNL A   1      45.360  24.808  26.823  1.00  0.00     0.074 A 
ATOM     55  C   UNL A   1      47.922  30.590  27.476  1.00  0.00     0.029 A 
ATOM     56  N   UNL A   1      46.525  28.858  27.414  1.00  0.00    -0.354 N 
ATOM     57  N   UNL A   1      45.798  26.033  26.996  1.00  0.00    -0.248 NA
ATOM     58  C   UNL A   1      46.352  23.888  26.247  1.00  0.00     0.031 C 
ATOM     59  C   UNL A   1      48.609  29.482  26.972  1.00  0.00     0.029 A 
ATOM     60  C   UNL A   1      47.746  28.397  26.959  1.00  0.00     0.049 A 
ATOM     61  H   UNL A   1      45.713  28.311  27.505  1.00  0.00     0.167 HD
ATOM     62  C   UNL A   1      47.124  26.024  26.577  1.00  0.00     0.074 A 
ATOM     63  C   UNL A   1      47.418  24.672  26.147  1.00  0.00     0.031 C 
ATOM     64  C   UNL A   1      48.019  27.042  26.550  1.00  0.00     0.031 A 
BRANCH  51  65
ATOM     65  C   UNL A   1      45.763  32.472  28.455  1.00  0.00    -0.014 A 
ATOM     66  C   UNL A   1      45.395  33.446  27.509  1.00  0.00     0.010 A 
ATOM     67  C   UNL A   1      46.341  32.882  29.671  1.00  0.00     0.010 A 
ATOM     68  C   UNL A   1      45.633  34.800  27.763  1.00  0.00     0.020 A 
ATOM     69  C   UNL A   1      46.558  34.235  29.938  1.00  0.00     0.020 A 
ATOM     70  C   UNL A   1      46.217  35.185  28.974  1.00  0.00     0.054 A 
BRANCH  70  71
ATOM     71  S   UNL A   1      46.497  36.950  29.287  1.00  0.00     0.124 S 
ATOM     72  O   UNL A   1      45.956  37.105  30.635  1.00  0.00    -0.237 OA
ATOM     73  O   UNL A   1      47.948  37.070  29.175  1.00  0.00    -0.237 OA
ATOM     74  O   UNL A   1      45.737  37.614  28.231  1.00  0.00    -0.744 OA
ENDBRANCH  70  71
ENDBRANCH  51  65
BRANCH  52  75
ATOM     75  C   UNL A   1      43.678  22.819  26.821  1.00  0.00    -0.014 A 
ATOM     76  C   UNL A   1      44.278  22.166  25.730  1.00  0.00     0.010 A 
ATOM     77  C   UNL A   1      42.772  22.108  27.628  1.00  0.00     0.010 A 
ATOM     78  C   UNL A   1      43.965  20.834  25.445  1.00  0.00     0.020 A 
ATOM     79  C   UNL A   1      42.478  20.767  27.363  1.00  0.00     0.020 A 
ATOM     80  C   UNL A   1      43.068  20.142  26.264  1.00  0.00     0.054 A 
BRANCH  80  81
ATOM     81  S   UNL A   1      42.713  18.400  25.902  1.00  0.00     0.124 S 
ATOM     82  O   UNL A   1      43.445  18.194  24.657  1.00  0.00    -0.237 OA
ATOM     83  O   UNL A   1      43.252  17.716  27.075  1.00  0.00    -0.237 OA
ATOM     84  O   UNL A   1      41.256  18.365  25.785  1.00  0.00    -0.744 OA
ENDBRANCH  80  81
ENDBRANCH  52  75
BRANCH  64  85
ATOM     85  C   UNL A   1      49.417  26.732  26.090  1.00  0.00    -0.014 A 
ATOM     86  C   UNL A   1      50.300  25.986  26.889  1.00  0.00     0.010 A 
ATOM     87  C   UNL A   1      49.818  27.117  24.797  1.00  0.00     0.010 A 
ATOM     88  C   UNL A   1      51.564  25.639  26.407  1.00  0.00     0.020 A 
ATOM     89  C   UNL A   1      51.071  26.753  24.303  1.00  0.00     0.020 A 
ATOM     90  C   UNL A   1      51.940  26.021  25.115  1.00  0.00     0.054 A 
BRANCH  90  91
ATOM     91  S   UNL A   1      53.557  25.496  24.483  1.00  0.00     0.124 S 
ATOM     92  O   UNL A   1      53.549  24.066  24.774  1.00  0.00    -0.237 OA
ATOM     93  O   UNL A   1      53.479  25.850  23.067  1.00  0.00    -0.237 OA
ATOM     94  O   UNL A   1      54.507  26.286  25.263  1.00  0.00    -0.744 OA
ENDBRANCH  90  91
ENDBRANCH  64  85
ENDBRANCH  38  39
ENDBRANCH  31  33
ENDBRANCH  30  31
ENDBRANCH  29  30
ENDBRANCH  28  29
ENDBRANCH  27  28
ENDBRANCH  26  27
ENDBRANCH   1  26
TORSDOF 24
ENDMDL
