MODEL 1
REMARK VINA RESULT:      -9.3      0.000      0.000
REMARK SMILES CS(=O)(=O)c1ccc(-n2nc(C(F)(F)F)cc2-c2ccc(CC(=O)OCCOCCOCCOC(=O)c3ccc(-c4c5nc(c(-c6ccc(S(=O)(=O)[O-])cc6)c6ccc([nH]6)c(-c6ccc(S(=O)(=O)[O-])cc6)c6nc(c(-c7ccc(S(=O)(=O)[O-])cc7)c7ccc4[nH]7)C=C6)C=C5)cc3)cc2)cc1
REMARK SMILES IDX 29 1 28 2 27 3 26 4 25 5 23 6 24 7 22 8 21 9 18 10 19 11
REMARK SMILES IDX 98 12 20 13 97 14 17 15 9 16 10 17 11 18 16 19 8 20 5 21
REMARK SMILES IDX 6 22 100 23 7 24 99 25 2 26 1 27 3 28 4 29 12 30 13 31 14 32
REMARK SMILES IDX 15 33 30 34 31 35 32 36 33 37 34 38 35 39 36 40 37 41 38 42
REMARK SMILES IDX 96 43 39 44 95 45 40 46 41 47 42 48 89 49 43 50 94 51 88 52
REMARK SMILES IDX 90 53 44 54 93 55 87 56 86 57 45 59 75 60 56 61 74 62 57 63
REMARK SMILES IDX 60 64 73 65 91 66 58 67 59 68 72 70 92 71 61 72 46 73 47 74
REMARK SMILES IDX 55 75 48 76 54 77 49 78 50 79 51 80 52 81 53 82 76 83 77 84
REMARK SMILES IDX 85 85 78 86 84 87 79 88 80 89 81 90 82 91 83 92 62 93 63 94
REMARK SMILES IDX 71 95 64 96 70 97 65 98 66 99 67 100 68 101 69 102
REMARK H PARENT 90 58 60 69
REMARK Flexibility Score: inf
ROOT
ATOM      1  C   UNL A   1      39.768  34.430  29.848  1.00  0.00     0.188 C 
ENDROOT
BRANCH   1   2
ATOM      2  O   UNL A   1      39.372  33.159  30.356  1.00  0.00    -0.376 OA
BRANCH   2   3
ATOM      3  C   UNL A   1      38.493  32.371  29.578  1.00  0.00     0.202 C 
BRANCH   3   4
ATOM      4  C   UNL A   1      37.040  32.860  29.628  1.00  0.00     0.261 C 
BRANCH   4   5
ATOM      5  O   UNL A   1      36.040  31.831  29.444  1.00  0.00    -0.463 OA
BRANCH   5   6
ATOM      6  C   UNL A   1      34.746  32.240  29.400  1.00  0.00     0.310 C 
ATOM      7  O   UNL A   1      34.150  32.702  30.372  1.00  0.00    -0.252 OA
BRANCH   6   8
ATOM      8  C   UNL A   1      34.014  32.037  28.080  1.00  0.00     0.158 C 
BRANCH   8   9
ATOM      9  C   UNL A   1      33.795  30.667  27.460  1.00  0.00    -0.037 A 
ATOM     10  C   UNL A   1      33.413  28.151  26.176  1.00  0.00     0.000 A 
ATOM     11  C   UNL A   1      34.700  28.627  26.443  1.00  0.00     0.010 A 
ATOM     12  C   UNL A   1      32.322  28.950  26.536  1.00  0.00     0.010 A 
ATOM     13  C   UNL A   1      34.889  29.878  27.053  1.00  0.00     0.005 A 
ATOM     14  C   UNL A   1      32.508  30.181  27.192  1.00  0.00     0.005 A 
BRANCH  10  15
ATOM     15  C   UNL A   1      33.230  26.910  25.415  1.00  0.00     0.075 A 
ATOM     16  N   UNL A   1      32.134  26.563  24.626  1.00  0.00    -0.233 N 
ATOM     17  N   UNL A   1      32.151  25.239  24.307  1.00  0.00    -0.163 NA
ATOM     18  C   UNL A   1      33.344  24.780  24.717  1.00  0.00     0.167 A 
ATOM     19  C   UNL A   1      34.028  25.778  25.449  1.00  0.00     0.064 A 
BRANCH  16  20
ATOM     20  C   UNL A   1      31.154  27.376  23.990  1.00  0.00     0.065 A 
ATOM     21  C   UNL A   1      29.246  29.164  22.991  1.00  0.00     0.067 A 
ATOM     22  C   UNL A   1      28.834  27.965  23.584  1.00  0.00     0.022 A 
ATOM     23  C   UNL A   1      30.608  29.461  22.874  1.00  0.00     0.022 A 
ATOM     24  C   UNL A   1      29.793  27.057  24.061  1.00  0.00     0.030 A 
ATOM     25  C   UNL A   1      31.557  28.584  23.402  1.00  0.00     0.030 A 
BRANCH  21  26
ATOM     26  S   UNL A   1      28.106  30.338  22.292  1.00  0.00     0.175 S 
ATOM     27  C   UNL A   1      28.775  31.960  22.498  1.00  0.00     0.163 C 
ATOM     28  O   UNL A   1      26.909  30.294  23.115  1.00  0.00    -0.224 OA
ATOM     29  O   UNL A   1      28.061  30.078  20.870  1.00  0.00    -0.224 OA
ENDBRANCH  21  26
ENDBRANCH  16  20
BRANCH  18  30
ATOM     30  C   UNL A   1      33.831  23.391  24.400  1.00  0.00     0.435 C 
ATOM     31  F   UNL A   1      32.998  22.408  24.825  1.00  0.00    -0.164 F 
ATOM     32  F   UNL A   1      34.009  23.214  23.062  1.00  0.00    -0.164 F 
ATOM     33  F   UNL A   1      35.045  23.142  24.971  1.00  0.00    -0.164 F 
ENDBRANCH  18  30
ENDBRANCH  10  15
ENDBRANCH   8   9
ENDBRANCH   6   8
ENDBRANCH   5   6
ENDBRANCH   4   5
ENDBRANCH   3   4
ENDBRANCH   2   3
ENDBRANCH   1   2
BRANCH   1  34
ATOM     34  C   UNL A   1      41.214  34.676  29.390  1.00  0.00     0.188 C 
BRANCH  34  35
ATOM     35  O   UNL A   1      41.566  35.702  28.477  1.00  0.00    -0.376 OA
BRANCH  35  36
ATOM     36  C   UNL A   1      42.861  35.757  27.910  1.00  0.00     0.202 C 
BRANCH  36  37
ATOM     37  C   UNL A   1      43.062  35.225  26.513  1.00  0.00     0.261 C 
BRANCH  37  38
ATOM     38  O   UNL A   1      44.052  34.221  26.502  1.00  0.00    -0.460 OA
BRANCH  38  39
ATOM     39  C   UNL A   1      45.315  34.673  26.411  1.00  0.00     0.338 C 
ATOM     40  O   UNL A   1      45.737  35.616  25.747  1.00  0.00    -0.246 OA
BRANCH  39  41
ATOM     41  C   UNL A   1      46.155  33.755  27.160  1.00  0.00     0.060 A 
ATOM     42  C   UNL A   1      47.495  33.694  26.773  1.00  0.00     0.016 A 
ATOM     43  C   UNL A   1      45.522  32.746  27.906  1.00  0.00     0.016 A 
ATOM     44  C   UNL A   1      48.137  32.490  26.910  1.00  0.00     0.010 A 
ATOM     45  C   UNL A   1      46.145  31.537  27.989  1.00  0.00     0.010 A 
ATOM     46  C   UNL A   1      47.406  31.413  27.416  1.00  0.00    -0.014 A 
BRANCH  46  47
ATOM     47  C   UNL A   1      47.977  30.099  27.323  1.00  0.00     0.031 A 
ATOM     48  C   UNL A   1      48.918  29.782  28.405  1.00  0.00     0.074 A 
ATOM     49  C   UNL A   1      47.539  29.214  26.414  1.00  0.00     0.049 A 
ATOM     50  N   UNL A   1      50.191  29.608  28.304  1.00  0.00    -0.248 NA
ATOM     51  C   UNL A   1      48.410  29.826  29.785  1.00  0.00     0.031 C 
ATOM     52  C   UNL A   1      46.379  29.332  25.527  1.00  0.00     0.029 A 
ATOM     53  N   UNL A   1      47.970  27.946  26.210  1.00  0.00    -0.354 N 
ATOM     54  C   UNL A   1      50.618  29.324  29.591  1.00  0.00     0.074 A 
ATOM     55  C   UNL A   1      49.537  29.676  30.476  1.00  0.00     0.031 C 
ATOM     56  C   UNL A   1      46.065  28.101  25.063  1.00  0.00     0.029 A 
ATOM     57  C   UNL A   1      47.060  27.150  25.537  1.00  0.00     0.049 A 
ATOM     58  H   UNL A   1      48.848  27.621  26.512  1.00  0.00     0.167 HD
ATOM     59  C   UNL A   1      51.729  28.580  29.829  1.00  0.00     0.031 A 
ATOM     60  C   UNL A   1      47.080  25.797  25.480  1.00  0.00     0.031 A 
ATOM     61  C   UNL A   1      52.528  28.397  28.648  1.00  0.00     0.049 A 
ATOM     62  C   UNL A   1      48.451  25.354  25.853  1.00  0.00     0.074 A 
ATOM     63  C   UNL A   1      53.179  29.253  27.783  1.00  0.00     0.029 A 
ATOM     64  N   UNL A   1      52.398  27.199  27.982  1.00  0.00    -0.354 N 
ATOM     65  N   UNL A   1      49.504  25.576  25.117  1.00  0.00    -0.248 NA
ATOM     66  C   UNL A   1      48.737  25.043  27.249  1.00  0.00     0.031 C 
ATOM     67  C   UNL A   1      53.029  28.669  26.492  1.00  0.00     0.029 A 
ATOM     68  C   UNL A   1      52.326  27.470  26.637  1.00  0.00     0.049 A 
ATOM     69  H   UNL A   1      52.363  26.306  28.396  1.00  0.00     0.167 HD
ATOM     70  C   UNL A   1      50.524  25.859  26.017  1.00  0.00     0.074 A 
ATOM     71  C   UNL A   1      50.028  25.390  27.306  1.00  0.00     0.031 C 
ATOM     72  C   UNL A   1      51.546  26.706  25.683  1.00  0.00     0.031 A 
BRANCH  59  73
ATOM     73  C   UNL A   1      51.871  27.718  31.048  1.00  0.00    -0.014 A 
ATOM     74  C   UNL A   1      51.116  26.538  31.144  1.00  0.00     0.010 A 
ATOM     75  C   UNL A   1      52.544  28.157  32.209  1.00  0.00     0.010 A 
ATOM     76  C   UNL A   1      51.012  25.851  32.360  1.00  0.00     0.020 A 
ATOM     77  C   UNL A   1      52.491  27.453  33.408  1.00  0.00     0.020 A 
ATOM     78  C   UNL A   1      51.692  26.322  33.485  1.00  0.00     0.054 A 
BRANCH  78  79
ATOM     79  S   UNL A   1      51.464  25.495  35.076  1.00  0.00     0.124 S 
ATOM     80  O   UNL A   1      50.673  26.477  35.810  1.00  0.00    -0.237 OA
ATOM     81  O   UNL A   1      50.765  24.272  34.694  1.00  0.00    -0.237 OA
ATOM     82  O   UNL A   1      52.829  25.301  35.558  1.00  0.00    -0.744 OA
ENDBRANCH  78  79
ENDBRANCH  59  73
BRANCH  60  83
ATOM     83  C   UNL A   1      45.914  24.885  25.404  1.00  0.00    -0.014 A 
ATOM     84  C   UNL A   1      45.985  23.681  24.683  1.00  0.00     0.010 A 
ATOM     85  C   UNL A   1      44.793  25.081  26.240  1.00  0.00     0.010 A 
ATOM     86  C   UNL A   1      45.003  22.688  24.837  1.00  0.00     0.020 A 
ATOM     87  C   UNL A   1      43.801  24.108  26.384  1.00  0.00     0.020 A 
ATOM     88  C   UNL A   1      43.925  22.903  25.702  1.00  0.00     0.054 A 
BRANCH  88  89
ATOM     89  S   UNL A   1      42.759  21.551  26.033  1.00  0.00     0.124 S 
ATOM     90  O   UNL A   1      43.332  20.450  25.266  1.00  0.00    -0.237 OA
ATOM     91  O   UNL A   1      42.835  21.418  27.486  1.00  0.00    -0.237 OA
ATOM     92  O   UNL A   1      41.486  22.064  25.529  1.00  0.00    -0.744 OA
ENDBRANCH  88  89
ENDBRANCH  60  83
BRANCH  72  93
ATOM     93  C   UNL A   1      51.696  27.093  24.227  1.00  0.00    -0.014 A 
ATOM     94  C   UNL A   1      52.478  26.359  23.312  1.00  0.00     0.010 A 
ATOM     95  C   UNL A   1      50.906  28.147  23.733  1.00  0.00     0.010 A 
ATOM     96  C   UNL A   1      52.502  26.696  21.952  1.00  0.00     0.020 A 
ATOM     97  C   UNL A   1      50.908  28.474  22.374  1.00  0.00     0.020 A 
ATOM     98  C   UNL A   1      51.716  27.755  21.491  1.00  0.00     0.054 A 
BRANCH  98  99
ATOM     99  S   UNL A   1      51.713  28.150  19.720  1.00  0.00     0.124 S 
ATOM    100  O   UNL A   1      51.305  29.552  19.710  1.00  0.00    -0.237 OA
ATOM    101  O   UNL A   1      53.096  27.893  19.325  1.00  0.00    -0.237 OA
ATOM    102  O   UNL A   1      50.735  27.217  19.159  1.00  0.00    -0.744 OA
ENDBRANCH  98  99
ENDBRANCH  72  93
ENDBRANCH  46  47
ENDBRANCH  39  41
ENDBRANCH  38  39
ENDBRANCH  37  38
ENDBRANCH  36  37
ENDBRANCH  35  36
ENDBRANCH  34  35
ENDBRANCH   1  34
TORSDOF 25
ENDMDL
MODEL 2
REMARK VINA RESULT:      -9.1      2.642      3.547
REMARK SMILES CS(=O)(=O)c1ccc(-n2nc(C(F)(F)F)cc2-c2ccc(CC(=O)OCCOCCOCCOC(=O)c3ccc(-c4c5nc(c(-c6ccc(S(=O)(=O)[O-])cc6)c6ccc([nH]6)c(-c6ccc(S(=O)(=O)[O-])cc6)c6nc(c(-c7ccc(S(=O)(=O)[O-])cc7)c7ccc4[nH]7)C=C6)C=C5)cc3)cc2)cc1
REMARK SMILES IDX 29 1 28 2 27 3 26 4 25 5 23 6 24 7 22 8 21 9 18 10 19 11
REMARK SMILES IDX 98 12 20 13 97 14 17 15 9 16 10 17 11 18 16 19 8 20 5 21
REMARK SMILES IDX 6 22 100 23 7 24 99 25 2 26 1 27 3 28 4 29 12 30 13 31 14 32
REMARK SMILES IDX 15 33 30 34 31 35 32 36 33 37 34 38 35 39 36 40 37 41 38 42
REMARK SMILES IDX 96 43 39 44 95 45 40 46 41 47 42 48 89 49 43 50 94 51 88 52
REMARK SMILES IDX 90 53 44 54 93 55 87 56 86 57 45 59 75 60 56 61 74 62 57 63
REMARK SMILES IDX 60 64 73 65 91 66 58 67 59 68 72 70 92 71 61 72 46 73 47 74
REMARK SMILES IDX 55 75 48 76 54 77 49 78 50 79 51 80 52 81 53 82 76 83 77 84
REMARK SMILES IDX 85 85 78 86 84 87 79 88 80 89 81 90 82 91 83 92 62 93 63 94
REMARK SMILES IDX 71 95 64 96 70 97 65 98 66 99 67 100 68 101 69 102
REMARK H PARENT 90 58 60 69
REMARK Flexibility Score: inf
ROOT
ATOM      1  C   UNL A   1      39.684  34.983  29.544  1.00  0.00     0.188 C 
ENDROOT
BRANCH   1   2
ATOM      2  O   UNL A   1      39.739  33.884  30.449  1.00  0.00    -0.376 OA
BRANCH   2   3
ATOM      3  C   UNL A   1      39.246  32.633  30.016  1.00  0.00     0.202 C 
BRANCH   3   4
ATOM      4  C   UNL A   1      38.626  31.804  31.147  1.00  0.00     0.261 C 
BRANCH   4   5
ATOM      5  O   UNL A   1      38.239  30.458  30.780  1.00  0.00    -0.463 OA
BRANCH   5   6
ATOM      6  C   UNL A   1      36.961  30.288  30.354  1.00  0.00     0.310 C 
ATOM      7  O   UNL A   1      36.128  29.622  30.967  1.00  0.00    -0.252 OA
BRANCH   6   8
ATOM      8  C   UNL A   1      36.603  30.913  29.013  1.00  0.00     0.158 C 
BRANCH   8   9
ATOM      9  C   UNL A   1      35.417  30.455  28.180  1.00  0.00    -0.037 A 
ATOM     10  C   UNL A   1      33.257  29.640  26.507  1.00  0.00     0.000 A 
ATOM     11  C   UNL A   1      34.417  28.866  26.601  1.00  0.00     0.010 A 
ATOM     12  C   UNL A   1      33.193  30.832  27.238  1.00  0.00     0.010 A 
ATOM     13  C   UNL A   1      35.491  29.280  27.406  1.00  0.00     0.005 A 
ATOM     14  C   UNL A   1      34.249  31.224  28.082  1.00  0.00     0.005 A 
BRANCH  10  15
ATOM     15  C   UNL A   1      32.201  29.271  25.559  1.00  0.00     0.075 A 
ATOM     16  N   UNL A   1      32.007  28.025  24.961  1.00  0.00    -0.233 N 
ATOM     17  N   UNL A   1      31.129  28.105  23.923  1.00  0.00    -0.163 NA
ATOM     18  C   UNL A   1      30.612  29.342  23.975  1.00  0.00     0.167 A 
ATOM     19  C   UNL A   1      31.283  30.113  24.954  1.00  0.00     0.064 A 
BRANCH  16  20
ATOM     20  C   UNL A   1      32.427  26.727  25.364  1.00  0.00     0.065 A 
ATOM     21  C   UNL A   1      33.149  24.071  25.878  1.00  0.00     0.067 A 
ATOM     22  C   UNL A   1      31.977  24.596  26.436  1.00  0.00     0.022 A 
ATOM     23  C   UNL A   1      33.973  24.876  25.084  1.00  0.00     0.022 A 
ATOM     24  C   UNL A   1      31.630  25.936  26.199  1.00  0.00     0.030 A 
ATOM     25  C   UNL A   1      33.595  26.191  24.802  1.00  0.00     0.030 A 
BRANCH  21  26
ATOM     26  S   UNL A   1      33.707  22.410  26.185  1.00  0.00     0.175 S 
ATOM     27  C   UNL A   1      34.742  21.910  24.844  1.00  0.00     0.163 C 
ATOM     28  O   UNL A   1      32.531  21.558  26.119  1.00  0.00    -0.224 OA
ATOM     29  O   UNL A   1      34.541  22.463  27.365  1.00  0.00    -0.224 OA
ENDBRANCH  21  26
ENDBRANCH  16  20
BRANCH  18  30
ATOM     30  C   UNL A   1      29.471  29.783  23.097  1.00  0.00     0.435 C 
ATOM     31  F   UNL A   1      28.748  28.756  22.582  1.00  0.00    -0.164 F 
ATOM     32  F   UNL A   1      28.600  30.586  23.770  1.00  0.00    -0.164 F 
ATOM     33  F   UNL A   1      29.909  30.518  22.035  1.00  0.00    -0.164 F 
ENDBRANCH  18  30
ENDBRANCH  10  15
ENDBRANCH   8   9
ENDBRANCH   6   8
ENDBRANCH   5   6
ENDBRANCH   4   5
ENDBRANCH   3   4
ENDBRANCH   2   3
ENDBRANCH   1   2
BRANCH   1  34
ATOM     34  C   UNL A   1      40.852  35.276  28.591  1.00  0.00     0.188 C 
BRANCH  34  35
ATOM     35  O   UNL A   1      41.992  36.025  28.980  1.00  0.00    -0.376 OA
BRANCH  35  36
ATOM     36  C   UNL A   1      43.290  35.632  28.580  1.00  0.00     0.202 C 
BRANCH  36  37
ATOM     37  C   UNL A   1      43.635  35.666  27.111  1.00  0.00     0.261 C 
BRANCH  37  38
ATOM     38  O   UNL A   1      43.638  34.364  26.572  1.00  0.00    -0.460 OA
BRANCH  38  39
ATOM     39  C   UNL A   1      44.748  34.037  25.887  1.00  0.00     0.338 C 
ATOM     40  O   UNL A   1      44.975  34.199  24.691  1.00  0.00    -0.246 OA
BRANCH  39  41
ATOM     41  C   UNL A   1      45.624  33.325  26.801  1.00  0.00     0.060 A 
ATOM     42  C   UNL A   1      46.985  33.351  26.493  1.00  0.00     0.016 A 
ATOM     43  C   UNL A   1      45.045  32.368  27.652  1.00  0.00     0.016 A 
ATOM     44  C   UNL A   1      47.730  32.251  26.833  1.00  0.00     0.010 A 
ATOM     45  C   UNL A   1      45.775  31.254  27.939  1.00  0.00     0.010 A 
ATOM     46  C   UNL A   1      47.076  31.184  27.452  1.00  0.00    -0.014 A 
BRANCH  46  47
ATOM     47  C   UNL A   1      47.776  29.937  27.577  1.00  0.00     0.031 A 
ATOM     48  C   UNL A   1      48.794  29.930  28.636  1.00  0.00     0.074 A 
ATOM     49  C   UNL A   1      47.391  28.852  26.886  1.00  0.00     0.049 A 
ATOM     50  N   UNL A   1      50.072  29.859  28.487  1.00  0.00    -0.248 NA
ATOM     51  C   UNL A   1      48.347  30.199  30.012  1.00  0.00     0.031 C 
ATOM     52  C   UNL A   1      46.186  28.683  26.071  1.00  0.00     0.029 A 
ATOM     53  N   UNL A   1      47.942  27.615  26.903  1.00  0.00    -0.354 N 
ATOM     54  C   UNL A   1      50.585  29.877  29.774  1.00  0.00     0.074 A 
ATOM     55  C   UNL A   1      49.514  30.295  30.643  1.00  0.00     0.031 C 
ATOM     56  C   UNL A   1      45.981  27.361  25.874  1.00  0.00     0.029 A 
ATOM     57  C   UNL A   1      47.090  26.620  26.456  1.00  0.00     0.049 A 
ATOM     58  H   UNL A   1      48.863  27.439  27.204  1.00  0.00     0.167 HD
ATOM     59  C   UNL A   1      51.777  29.302  30.078  1.00  0.00     0.031 A 
ATOM     60  C   UNL A   1      47.248  25.290  26.661  1.00  0.00     0.031 A 
ATOM     61  C   UNL A   1      52.535  28.963  28.904  1.00  0.00     0.049 A 
ATOM     62  C   UNL A   1      48.674  25.059  27.021  1.00  0.00     0.074 A 
ATOM     63  C   UNL A   1      53.054  29.687  27.850  1.00  0.00     0.029 A 
ATOM     64  N   UNL A   1      52.500  27.649  28.492  1.00  0.00    -0.354 N 
ATOM     65  N   UNL A   1      49.663  25.228  26.189  1.00  0.00    -0.248 NA
ATOM     66  C   UNL A   1      49.054  25.060  28.429  1.00  0.00     0.031 C 
ATOM     67  C   UNL A   1      52.906  28.847  26.709  1.00  0.00     0.029 A 
ATOM     68  C   UNL A   1      52.339  27.641  27.128  1.00  0.00     0.049 A 
ATOM     69  H   UNL A   1      52.578  26.857  29.072  1.00  0.00     0.167 HD
ATOM     70  C   UNL A   1      50.688  25.778  26.949  1.00  0.00     0.074 A 
ATOM     71  C   UNL A   1      50.303  25.529  28.334  1.00  0.00     0.031 C 
ATOM     72  C   UNL A   1      51.599  26.633  26.392  1.00  0.00     0.031 A 
BRANCH  59  73
ATOM     73  C   UNL A   1      52.063  28.715  31.429  1.00  0.00    -0.014 A 
ATOM     74  C   UNL A   1      53.053  29.301  32.234  1.00  0.00     0.010 A 
ATOM     75  C   UNL A   1      51.556  27.459  31.829  1.00  0.00     0.010 A 
ATOM     76  C   UNL A   1      53.537  28.638  33.369  1.00  0.00     0.020 A 
ATOM     77  C   UNL A   1      51.991  26.817  32.984  1.00  0.00     0.020 A 
ATOM     78  C   UNL A   1      53.009  27.396  33.727  1.00  0.00     0.054 A 
BRANCH  78  79
ATOM     79  S   UNL A   1      53.716  26.497  35.127  1.00  0.00     0.124 S 
ATOM     80  O   UNL A   1      53.066  27.151  36.258  1.00  0.00    -0.237 OA
ATOM     81  O   UNL A   1      53.298  25.124  34.860  1.00  0.00    -0.237 OA
ATOM     82  O   UNL A   1      55.150  26.742  35.000  1.00  0.00    -0.744 OA
ENDBRANCH  78  79
ENDBRANCH  59  73
BRANCH  60  83
ATOM     83  C   UNL A   1      46.181  24.276  26.838  1.00  0.00    -0.014 A 
ATOM     84  C   UNL A   1      45.383  24.263  27.994  1.00  0.00     0.010 A 
ATOM     85  C   UNL A   1      45.784  23.456  25.760  1.00  0.00     0.010 A 
ATOM     86  C   UNL A   1      44.202  23.504  28.047  1.00  0.00     0.020 A 
ATOM     87  C   UNL A   1      44.621  22.683  25.810  1.00  0.00     0.020 A 
ATOM     88  C   UNL A   1      43.820  22.732  26.946  1.00  0.00     0.054 A 
BRANCH  88  89
ATOM     89  S   UNL A   1      42.207  21.898  26.952  1.00  0.00     0.124 S 
ATOM     90  O   UNL A   1      41.913  21.778  25.528  1.00  0.00    -0.237 OA
ATOM     91  O   UNL A   1      42.501  20.647  27.646  1.00  0.00    -0.237 OA
ATOM     92  O   UNL A   1      41.346  22.821  27.689  1.00  0.00    -0.744 OA
ENDBRANCH  88  89
ENDBRANCH  60  83
BRANCH  72  93
ATOM     93  C   UNL A   1      51.641  26.736  24.882  1.00  0.00    -0.014 A 
ATOM     94  C   UNL A   1      50.679  27.440  24.132  1.00  0.00     0.010 A 
ATOM     95  C   UNL A   1      52.768  26.228  24.211  1.00  0.00     0.010 A 
ATOM     96  C   UNL A   1      50.817  27.597  22.746  1.00  0.00     0.020 A 
ATOM     97  C   UNL A   1      52.924  26.399  22.832  1.00  0.00     0.020 A 
ATOM     98  C   UNL A   1      51.941  27.072  22.103  1.00  0.00     0.054 A 
BRANCH  98  99
ATOM     99  S   UNL A   1      52.140  27.325  20.317  1.00  0.00     0.124 S 
ATOM    100  O   UNL A   1      52.950  28.537  20.258  1.00  0.00    -0.237 OA
ATOM    101  O   UNL A   1      52.807  26.098  19.886  1.00  0.00    -0.237 OA
ATOM    102  O   UNL A   1      50.766  27.474  19.834  1.00  0.00    -0.744 OA
ENDBRANCH  98  99
ENDBRANCH  72  93
ENDBRANCH  46  47
ENDBRANCH  39  41
ENDBRANCH  38  39
ENDBRANCH  37  38
ENDBRANCH  36  37
ENDBRANCH  35  36
ENDBRANCH  34  35
ENDBRANCH   1  34
TORSDOF 25
ENDMDL
MODEL 3
REMARK VINA RESULT:      -9.0      3.569      8.960
REMARK SMILES CS(=O)(=O)c1ccc(-n2nc(C(F)(F)F)cc2-c2ccc(CC(=O)OCCOCCOCCOC(=O)c3ccc(-c4c5nc(c(-c6ccc(S(=O)(=O)[O-])cc6)c6ccc([nH]6)c(-c6ccc(S(=O)(=O)[O-])cc6)c6nc(c(-c7ccc(S(=O)(=O)[O-])cc7)c7ccc4[nH]7)C=C6)C=C5)cc3)cc2)cc1
REMARK SMILES IDX 29 1 28 2 27 3 26 4 25 5 23 6 24 7 22 8 21 9 18 10 19 11
REMARK SMILES IDX 98 12 20 13 97 14 17 15 9 16 10 17 11 18 16 19 8 20 5 21
REMARK SMILES IDX 6 22 100 23 7 24 99 25 2 26 1 27 3 28 4 29 12 30 13 31 14 32
REMARK SMILES IDX 15 33 30 34 31 35 32 36 33 37 34 38 35 39 36 40 37 41 38 42
REMARK SMILES IDX 96 43 39 44 95 45 40 46 41 47 42 48 89 49 43 50 94 51 88 52
REMARK SMILES IDX 90 53 44 54 93 55 87 56 86 57 45 59 75 60 56 61 74 62 57 63
REMARK SMILES IDX 60 64 73 65 91 66 58 67 59 68 72 70 92 71 61 72 46 73 47 74
REMARK SMILES IDX 55 75 48 76 54 77 49 78 50 79 51 80 52 81 53 82 76 83 77 84
REMARK SMILES IDX 85 85 78 86 84 87 79 88 80 89 81 90 82 91 83 92 62 93 63 94
REMARK SMILES IDX 71 95 64 96 70 97 65 98 66 99 67 100 68 101 69 102
REMARK H PARENT 90 58 60 69
REMARK Flexibility Score: inf
ROOT
ATOM      1  C   UNL A   1      39.537  30.735  30.708  1.00  0.00     0.188 C 
ENDROOT
BRANCH   1   2
ATOM      2  O   UNL A   1      39.925  32.070  31.021  1.00  0.00    -0.376 OA
BRANCH   2   3
ATOM      3  C   UNL A   1      38.933  33.076  31.010  1.00  0.00     0.202 C 
BRANCH   3   4
ATOM      4  C   UNL A   1      38.165  33.152  29.685  1.00  0.00     0.261 C 
BRANCH   4   5
ATOM      5  O   UNL A   1      36.724  33.084  29.807  1.00  0.00    -0.463 OA
BRANCH   5   6
ATOM      6  C   UNL A   1      36.190  31.856  30.030  1.00  0.00     0.310 C 
ATOM      7  O   UNL A   1      35.665  31.532  31.094  1.00  0.00    -0.252 OA
BRANCH   6   8
ATOM      8  C   UNL A   1      36.328  30.839  28.905  1.00  0.00     0.158 C 
BRANCH   8   9
ATOM      9  C   UNL A   1      35.153  30.386  28.054  1.00  0.00    -0.037 A 
ATOM     10  C   UNL A   1      33.015  29.582  26.348  1.00  0.00     0.000 A 
ATOM     11  C   UNL A   1      34.179  28.814  26.443  1.00  0.00     0.010 A 
ATOM     12  C   UNL A   1      32.936  30.763  27.097  1.00  0.00     0.010 A 
ATOM     13  C   UNL A   1      35.243  29.223  27.263  1.00  0.00     0.005 A 
ATOM     14  C   UNL A   1      33.981  31.148  27.957  1.00  0.00     0.005 A 
BRANCH  10  15
ATOM     15  C   UNL A   1      31.970  29.220  25.386  1.00  0.00     0.075 A 
ATOM     16  N   UNL A   1      31.776  27.976  24.785  1.00  0.00    -0.233 N 
ATOM     17  N   UNL A   1      30.915  28.061  23.733  1.00  0.00    -0.163 NA
ATOM     18  C   UNL A   1      30.405  29.302  23.778  1.00  0.00     0.167 A 
ATOM     19  C   UNL A   1      31.067  30.069  24.766  1.00  0.00     0.064 A 
BRANCH  16  20
ATOM     20  C   UNL A   1      32.181  26.675  25.194  1.00  0.00     0.065 A 
ATOM     21  C   UNL A   1      33.057  24.245  26.275  1.00  0.00     0.067 A 
ATOM     22  C   UNL A   1      33.878  24.950  25.387  1.00  0.00     0.022 A 
ATOM     23  C   UNL A   1      31.790  24.739  26.606  1.00  0.00     0.022 A 
ATOM     24  C   UNL A   1      33.427  26.155  24.825  1.00  0.00     0.030 A 
ATOM     25  C   UNL A   1      31.368  25.966  26.092  1.00  0.00     0.030 A 
BRANCH  21  26
ATOM     26  S   UNL A   1      33.514  22.675  26.976  1.00  0.00     0.175 S 
ATOM     27  C   UNL A   1      33.017  21.398  25.861  1.00  0.00     0.163 C 
ATOM     28  O   UNL A   1      32.702  22.501  28.169  1.00  0.00    -0.224 OA
ATOM     29  O   UNL A   1      34.959  22.648  27.031  1.00  0.00    -0.224 OA
ENDBRANCH  21  26
ENDBRANCH  16  20
BRANCH  18  30
ATOM     30  C   UNL A   1      29.281  29.751  22.883  1.00  0.00     0.435 C 
ATOM     31  F   UNL A   1      28.795  30.981  23.188  1.00  0.00    -0.164 F 
ATOM     32  F   UNL A   1      29.662  29.785  21.576  1.00  0.00    -0.164 F 
ATOM     33  F   UNL A   1      28.222  28.892  22.939  1.00  0.00    -0.164 F 
ENDBRANCH  18  30
ENDBRANCH  10  15
ENDBRANCH   8   9
ENDBRANCH   6   8
ENDBRANCH   5   6
ENDBRANCH   4   5
ENDBRANCH   3   4
ENDBRANCH   2   3
ENDBRANCH   1   2
BRANCH   1  34
ATOM     34  C   UNL A   1      40.213  29.970  29.560  1.00  0.00     0.188 C 
BRANCH  34  35
ATOM     35  O   UNL A   1      39.630  28.831  28.948  1.00  0.00    -0.376 OA
BRANCH  35  36
ATOM     36  C   UNL A   1      39.558  27.596  29.632  1.00  0.00     0.202 C 
BRANCH  36  37
ATOM     37  C   UNL A   1      39.433  26.328  28.825  1.00  0.00     0.261 C 
BRANCH  37  38
ATOM     38  O   UNL A   1      39.816  26.552  27.487  1.00  0.00    -0.460 OA
BRANCH  38  39
ATOM     39  C   UNL A   1      40.271  25.466  26.839  1.00  0.00     0.338 C 
ATOM     40  O   UNL A   1      39.717  24.378  26.699  1.00  0.00    -0.246 OA
BRANCH  39  41
ATOM     41  C   UNL A   1      41.630  25.756  26.416  1.00  0.00     0.060 A 
ATOM     42  C   UNL A   1      42.645  25.322  27.270  1.00  0.00     0.016 A 
ATOM     43  C   UNL A   1      41.815  26.754  25.443  1.00  0.00     0.016 A 
ATOM     44  C   UNL A   1      43.788  26.079  27.327  1.00  0.00     0.010 A 
ATOM     45  C   UNL A   1      42.928  27.534  25.543  1.00  0.00     0.010 A 
ATOM     46  C   UNL A   1      43.851  27.229  26.538  1.00  0.00    -0.014 A 
BRANCH  46  47
ATOM     47  C   UNL A   1      44.916  28.161  26.779  1.00  0.00     0.031 A 
ATOM     48  C   UNL A   1      46.178  27.805  26.118  1.00  0.00     0.074 A 
ATOM     49  C   UNL A   1      44.692  29.323  27.412  1.00  0.00     0.049 A 
ATOM     50  N   UNL A   1      47.277  27.439  26.683  1.00  0.00    -0.248 NA
ATOM     51  C   UNL A   1      46.169  27.682  24.651  1.00  0.00     0.031 C 
ATOM     52  C   UNL A   1      43.405  29.905  27.801  1.00  0.00     0.029 A 
ATOM     53  N   UNL A   1      45.585  30.299  27.704  1.00  0.00    -0.354 N 
ATOM     54  C   UNL A   1      48.164  27.227  25.640  1.00  0.00     0.074 A 
ATOM     55  C   UNL A   1      47.382  27.185  24.430  1.00  0.00     0.031 C 
ATOM     56  C   UNL A   1      43.586  31.221  28.054  1.00  0.00     0.029 A 
ATOM     57  C   UNL A   1      45.004  31.531  27.947  1.00  0.00     0.049 A 
ATOM     58  H   UNL A   1      46.557  30.146  27.740  1.00  0.00     0.167 HD
ATOM     59  C   UNL A   1      49.506  27.358  25.804  1.00  0.00     0.031 A 
ATOM     60  C   UNL A   1      45.646  32.725  27.943  1.00  0.00     0.031 A 
ATOM     61  C   UNL A   1      49.882  27.437  27.189  1.00  0.00     0.049 A 
ATOM     62  C   UNL A   1      47.101  32.451  28.094  1.00  0.00     0.074 A 
ATOM     63  C   UNL A   1      49.743  26.596  28.275  1.00  0.00     0.029 A 
ATOM     64  N   UNL A   1      50.137  28.690  27.699  1.00  0.00    -0.354 N 
ATOM     65  N   UNL A   1      47.633  31.968  29.183  1.00  0.00    -0.248 NA
ATOM     66  C   UNL A   1      47.919  32.298  26.896  1.00  0.00     0.031 C 
ATOM     67  C   UNL A   1      49.494  27.454  29.385  1.00  0.00     0.029 A 
ATOM     68  C   UNL A   1      49.530  28.774  28.929  1.00  0.00     0.049 A 
ATOM     69  H   UNL A   1      50.661  29.399  27.262  1.00  0.00     0.167 HD
ATOM     70  C   UNL A   1      48.618  31.090  28.748  1.00  0.00     0.074 A 
ATOM     71  C   UNL A   1      48.834  31.433  27.347  1.00  0.00     0.031 C 
ATOM     72  C   UNL A   1      48.953  29.986  29.482  1.00  0.00     0.031 A 
BRANCH  59  73
ATOM     73  C   UNL A   1      50.412  27.790  24.689  1.00  0.00    -0.014 A 
ATOM     74  C   UNL A   1      51.308  28.849  24.907  1.00  0.00     0.010 A 
ATOM     75  C   UNL A   1      50.238  27.346  23.360  1.00  0.00     0.010 A 
ATOM     76  C   UNL A   1      51.972  29.456  23.834  1.00  0.00     0.020 A 
ATOM     77  C   UNL A   1      50.932  27.907  22.293  1.00  0.00     0.020 A 
ATOM     78  C   UNL A   1      51.769  28.987  22.535  1.00  0.00     0.054 A 
BRANCH  78  79
ATOM     79  S   UNL A   1      52.541  29.848  21.145  1.00  0.00     0.124 S 
ATOM     80  O   UNL A   1      51.598  30.935  20.908  1.00  0.00    -0.237 OA
ATOM     81  O   UNL A   1      53.835  30.237  21.699  1.00  0.00    -0.237 OA
ATOM     82  O   UNL A   1      52.598  28.827  20.101  1.00  0.00    -0.744 OA
ENDBRANCH  78  79
ENDBRANCH  59  73
BRANCH  60  83
ATOM     83  C   UNL A   1      45.096  34.038  27.531  1.00  0.00    -0.014 A 
ATOM     84  C   UNL A   1      43.715  34.213  27.339  1.00  0.00     0.010 A 
ATOM     85  C   UNL A   1      45.905  35.194  27.553  1.00  0.00     0.010 A 
ATOM     86  C   UNL A   1      43.159  35.500  27.231  1.00  0.00     0.020 A 
ATOM     87  C   UNL A   1      45.364  36.476  27.428  1.00  0.00     0.020 A 
ATOM     88  C   UNL A   1      43.988  36.624  27.294  1.00  0.00     0.054 A 
BRANCH  88  89
ATOM     89  S   UNL A   1      43.247  38.282  27.335  1.00  0.00     0.124 S 
ATOM     90  O   UNL A   1      41.924  38.046  26.768  1.00  0.00    -0.237 OA
ATOM     91  O   UNL A   1      43.278  38.606  28.759  1.00  0.00    -0.237 OA
ATOM     92  O   UNL A   1      44.147  39.080  26.504  1.00  0.00    -0.744 OA
ENDBRANCH  88  89
ENDBRANCH  60  83
BRANCH  72  93
ATOM     93  C   UNL A   1      48.439  29.898  30.904  1.00  0.00    -0.014 A 
ATOM     94  C   UNL A   1      49.154  30.396  32.012  1.00  0.00     0.010 A 
ATOM     95  C   UNL A   1      47.129  29.431  31.111  1.00  0.00     0.010 A 
ATOM     96  C   UNL A   1      48.591  30.387  33.296  1.00  0.00     0.020 A 
ATOM     97  C   UNL A   1      46.553  29.439  32.385  1.00  0.00     0.020 A 
ATOM     98  C   UNL A   1      47.292  29.906  33.474  1.00  0.00     0.054 A 
BRANCH  98  99
ATOM     99  S   UNL A   1      46.551  29.947  35.130  1.00  0.00     0.124 S 
ATOM    100  O   UNL A   1      47.722  29.899  36.001  1.00  0.00    -0.237 OA
ATOM    101  O   UNL A   1      45.819  31.212  35.128  1.00  0.00    -0.237 OA
ATOM    102  O   UNL A   1      45.706  28.753  35.162  1.00  0.00    -0.744 OA
ENDBRANCH  98  99
ENDBRANCH  72  93
ENDBRANCH  46  47
ENDBRANCH  39  41
ENDBRANCH  38  39
ENDBRANCH  37  38
ENDBRANCH  36  37
ENDBRANCH  35  36
ENDBRANCH  34  35
ENDBRANCH   1  34
TORSDOF 25
ENDMDL
