MODEL 1
REMARK VINA RESULT:     -13.6      0.000      0.000
REMARK SMILES CCc1cccc(C)c1Nc1ccccc1CC(=O)OCCOCCOCCOC(=O)c1ccc(-c2c3nc(c(-c4ccc(S(=O)(=O)[O-])cc4)c4ccc([nH]4)c(-c4ccc(S(=O)(=O)[O-])cc4)c4nc(c(-c5ccc(S(=O)(=O)[O-])cc5)c5ccc2[nH]5)C=C4)C=C3)cc1
REMARK SMILES IDX 24 1 23 2 22 3 21 4 20 5 18 6 19 7 17 8 16 9 11 10 12 11
REMARK SMILES IDX 13 12 15 13 14 14 10 15 9 17 3 18 4 19 5 20 7 21 6 22 8 23
REMARK SMILES IDX 2 24 1 25 25 26 26 27 27 28 28 29 29 30 30 31 31 32 32 33
REMARK SMILES IDX 33 34 91 35 34 36 90 37 35 38 36 39 37 40 84 41 38 42 89 43
REMARK SMILES IDX 83 44 85 45 39 46 88 47 82 48 81 49 40 51 70 52 51 53 69 54
REMARK SMILES IDX 52 55 55 56 68 57 86 58 53 59 54 60 67 62 87 63 56 64 41 65
REMARK SMILES IDX 42 66 50 67 43 68 49 69 44 70 45 71 46 72 47 73 48 74 71 75
REMARK SMILES IDX 72 76 80 77 73 78 79 79 74 80 75 81 76 82 77 83 78 84 57 85
REMARK SMILES IDX 58 86 66 87 59 88 65 89 60 90 61 91 62 92 63 93 64 94
REMARK H PARENT 10 16 85 50 55 61
REMARK Flexibility Score: inf
ROOT
ATOM      1  C   UNL A   1      37.181  31.636  31.815  1.00  0.00     0.188 C 
ENDROOT
BRANCH   1   2
ATOM      2  O   UNL A   1      37.031  31.408  30.337  1.00  0.00    -0.376 OA
BRANCH   2   3
ATOM      3  C   UNL A   1      35.917  31.058  29.333  1.00  0.00     0.202 C 
BRANCH   3   4
ATOM      4  C   UNL A   1      35.382  29.751  28.126  1.00  0.00     0.261 C 
BRANCH   4   5
ATOM      5  O   UNL A   1      33.803  29.175  27.272  1.00  0.00    -0.463 OA
BRANCH   5   6
ATOM      6  C   UNL A   1      32.424  28.106  27.392  1.00  0.00     0.310 C 
ATOM      7  O   UNL A   1      31.350  28.261  28.042  1.00  0.00    -0.252 OA
BRANCH   6   8
ATOM      8  C   UNL A   1      32.096  27.053  26.456  1.00  0.00     0.160 C 
BRANCH   8   9
ATOM      9  C   UNL A   1      32.335  27.238  25.042  1.00  0.00    -0.013 A 
ATOM     10  C   UNL A   1      33.414  26.627  24.223  1.00  0.00     0.042 A 
ATOM     11  C   UNL A   1      33.654  27.663  23.148  1.00  0.00     0.026 A 
ATOM     12  C   UNL A   1      32.725  28.670  22.738  1.00  0.00     0.002 A 
ATOM     13  C   UNL A   1      31.464  28.315  24.650  1.00  0.00     0.006 A 
ATOM     14  C   UNL A   1      31.586  28.946  23.452  1.00  0.00     0.000 A 
BRANCH  10  15
ATOM     15  N   UNL A   1      33.927  24.721  24.080  1.00  0.00    -0.355 N 
ATOM     16  H   UNL A   1      34.610  24.673  24.788  1.00  0.00     0.167 HD
BRANCH  15  17
ATOM     17  C   UNL A   1      33.955  23.113  23.530  1.00  0.00     0.045 A 
ATOM     18  C   UNL A   1      35.555  22.350  24.202  1.00  0.00    -0.024 A 
ATOM     19  C   UNL A   1      35.398  20.773  25.171  1.00  0.00     0.006 A 
ATOM     20  C   UNL A   1      33.476  20.131  25.314  1.00  0.00     0.001 A 
ATOM     21  C   UNL A   1      32.286  22.529  23.743  1.00  0.00    -0.027 A 
ATOM     22  C   UNL A   1      32.149  21.024  24.498  1.00  0.00     0.005 A 
ATOM     23  C   UNL A   1      30.763  23.412  23.133  1.00  0.00     0.046 C 
BRANCH  18  24
ATOM     24  C   UNL A   1      37.022  22.755  24.281  1.00  0.00     0.034 C 
ATOM     25  C   UNL A   1      37.801  23.200  25.494  1.00  0.00     0.009 C 
ENDBRANCH  18  24
ENDBRANCH  15  17
ENDBRANCH  10  15
ENDBRANCH   8   9
ENDBRANCH   6   8
ENDBRANCH   5   6
ENDBRANCH   4   5
ENDBRANCH   3   4
ENDBRANCH   2   3
ENDBRANCH   1   2
BRANCH   1  26
ATOM     26  C   UNL A   1      36.024  31.905  32.840  1.00  0.00     0.188 C 
BRANCH  26  27
ATOM     27  O   UNL A   1      36.215  32.835  33.845  1.00  0.00    -0.376 OA
BRANCH  27  28
ATOM     28  C   UNL A   1      37.502  32.431  34.248  1.00  0.00     0.202 C 
BRANCH  28  29
ATOM     29  C   UNL A   1      37.843  32.716  35.949  1.00  0.00     0.261 C 
BRANCH  29  30
ATOM     30  O   UNL A   1      38.692  34.203  36.382  1.00  0.00    -0.460 OA
BRANCH  30  31
ATOM     31  C   UNL A   1      39.703  35.239  35.891  1.00  0.00     0.338 C 
ATOM     32  O   UNL A   1      39.504  36.453  35.867  1.00  0.00    -0.246 OA
BRANCH  31  33
ATOM     33  C   UNL A   1      41.361  34.804  35.649  1.00  0.00     0.060 A 
ATOM     34  C   UNL A   1      42.973  35.840  35.527  1.00  0.00     0.016 A 
ATOM     35  C   UNL A   1      41.140  33.614  34.345  1.00  0.00     0.016 A 
ATOM     36  C   UNL A   1      43.885  35.982  33.837  1.00  0.00     0.010 A 
ATOM     37  C   UNL A   1      42.180  33.731  32.839  1.00  0.00     0.010 A 
ATOM     38  C   UNL A   1      43.352  35.062  32.285  1.00  0.00    -0.014 A 
BRANCH  38  39
ATOM     39  C   UNL A   1      43.674  35.110  30.319  1.00  0.00     0.031 A 
ATOM     40  C   UNL A   1      44.005  33.425  29.337  1.00  0.00     0.074 A 
ATOM     41  C   UNL A   1      43.370  36.060  29.259  1.00  0.00     0.049 A 
ATOM     42  N   UNL A   1      45.136  32.904  28.868  1.00  0.00    -0.248 NA
ATOM     43  C   UNL A   1      43.174  31.849  29.633  1.00  0.00     0.031 C 
ATOM     44  C   UNL A   1      43.256  36.111  27.727  1.00  0.00     0.029 A 
ATOM     45  N   UNL A   1      42.901  37.345  29.271  1.00  0.00    -0.354 N 
ATOM     46  C   UNL A   1      44.870  31.549  28.491  1.00  0.00     0.074 A 
ATOM     47  C   UNL A   1      44.122  30.942  29.508  1.00  0.00     0.031 C 
ATOM     48  C   UNL A   1      43.352  37.384  27.196  1.00  0.00     0.029 A 
ATOM     49  C   UNL A   1      43.271  38.300  28.311  1.00  0.00     0.049 A 
ATOM     50  H   UNL A   1      42.277  37.611  29.984  1.00  0.00     0.167 HD
ATOM     51  C   UNL A   1      44.554  31.241  27.190  1.00  0.00     0.031 A 
ATOM     52  C   UNL A   1      43.968  39.385  28.770  1.00  0.00     0.031 A 
ATOM     53  C   UNL A   1      44.655  32.488  26.420  1.00  0.00     0.049 A 
ATOM     54  C   UNL A   1      45.382  38.598  28.627  1.00  0.00     0.074 A 
ATOM     55  C   UNL A   1      43.780  33.289  25.726  1.00  0.00     0.029 A 
ATOM     56  N   UNL A   1      45.731  33.324  26.724  1.00  0.00    -0.354 N 
ATOM     57  N   UNL A   1      45.510  37.277  28.609  1.00  0.00    -0.248 NA
ATOM     58  C   UNL A   1      46.582  39.207  28.080  1.00  0.00     0.031 C 
ATOM     59  C   UNL A   1      44.395  34.608  25.655  1.00  0.00     0.029 A 
ATOM     60  C   UNL A   1      45.503  34.685  26.518  1.00  0.00     0.049 A 
ATOM     61  H   UNL A   1      46.590  32.979  27.061  1.00  0.00     0.167 HD
ATOM     62  C   UNL A   1      46.437  36.876  27.684  1.00  0.00     0.074 A 
ATOM     63  C   UNL A   1      47.193  38.134  27.531  1.00  0.00     0.031 C 
ATOM     64  C   UNL A   1      46.572  35.656  27.011  1.00  0.00     0.031 A 
BRANCH  51  65
ATOM     65  C   UNL A   1      43.906  29.904  26.709  1.00  0.00    -0.014 A 
ATOM     66  C   UNL A   1      44.795  28.841  26.507  1.00  0.00     0.010 A 
ATOM     67  C   UNL A   1      42.528  29.563  26.503  1.00  0.00     0.010 A 
ATOM     68  C   UNL A   1      44.371  27.532  26.208  1.00  0.00     0.020 A 
ATOM     69  C   UNL A   1      42.083  28.247  26.195  1.00  0.00     0.020 A 
ATOM     70  C   UNL A   1      43.018  27.231  26.079  1.00  0.00     0.054 A 
BRANCH  70  71
ATOM     71  S   UNL A   1      42.544  25.495  25.820  1.00  0.00     0.124 S 
ATOM     72  O   UNL A   1      43.641  24.989  25.000  1.00  0.00    -0.237 OA
ATOM     73  O   UNL A   1      42.494  24.981  27.187  1.00  0.00    -0.237 OA
ATOM     74  O   UNL A   1      41.251  25.576  25.143  1.00  0.00    -0.744 OA
ENDBRANCH  70  71
ENDBRANCH  51  65
BRANCH  52  75
ATOM     75  C   UNL A   1      43.198  39.941  30.203  1.00  0.00    -0.014 A 
ATOM     76  C   UNL A   1      43.768  39.607  31.891  1.00  0.00     0.010 A 
ATOM     77  C   UNL A   1      42.902  41.485  29.717  1.00  0.00     0.010 A 
ATOM     78  C   UNL A   1      44.311  40.876  33.080  1.00  0.00     0.020 A 
ATOM     79  C   UNL A   1      43.594  42.844  30.620  1.00  0.00     0.020 A 
ATOM     80  C   UNL A   1      44.280  42.650  32.535  1.00  0.00     0.054 A 
BRANCH  80  81
ATOM     81  S   UNL A   1      43.702  43.287  34.413  1.00  0.00     0.124 S 
ATOM     82  O   UNL A   1      44.759  42.761  35.286  1.00  0.00    -0.237 OA
ATOM     83  O   UNL A   1      43.759  44.735  34.215  1.00  0.00    -0.237 OA
ATOM     84  O   UNL A   1      42.379  42.758  34.662  1.00  0.00    -0.744 OA
ENDBRANCH  80  81
ENDBRANCH  52  75
BRANCH  64  85
ATOM     85  C   UNL A   1      48.003  35.197  26.786  1.00  0.00    -0.014 A 
ATOM     86  C   UNL A   1      48.814  34.791  27.848  1.00  0.00     0.010 A 
ATOM     87  C   UNL A   1      48.544  35.044  25.486  1.00  0.00     0.010 A 
ATOM     88  C   UNL A   1      50.166  34.571  27.659  1.00  0.00     0.020 A 
ATOM     89  C   UNL A   1      49.843  34.624  25.269  1.00  0.00     0.020 A 
ATOM     90  C   UNL A   1      50.673  34.506  26.367  1.00  0.00     0.054 A 
BRANCH  90  91
ATOM     91  S   UNL A   1      52.436  34.303  26.153  1.00  0.00     0.124 S 
ATOM     92  O   UNL A   1      52.846  33.898  27.496  1.00  0.00    -0.237 OA
ATOM     93  O   UNL A   1      52.510  33.263  25.131  1.00  0.00    -0.237 OA
ATOM     94  O   UNL A   1      52.890  35.626  25.732  1.00  0.00    -0.744 OA
ENDBRANCH  90  91
ENDBRANCH  64  85
ENDBRANCH  38  39
ENDBRANCH  31  33
ENDBRANCH  30  31
ENDBRANCH  29  30
ENDBRANCH  28  29
ENDBRANCH  27  28
ENDBRANCH  26  27
ENDBRANCH   1  26
TORSDOF 24
ENDMDL
MODEL 2
REMARK VINA RESULT:     -13.1      3.730     10.426
REMARK SMILES CCc1cccc(C)c1Nc1ccccc1CC(=O)OCCOCCOCCOC(=O)c1ccc(-c2c3nc(c(-c4ccc(S(=O)(=O)[O-])cc4)c4ccc([nH]4)c(-c4ccc(S(=O)(=O)[O-])cc4)c4nc(c(-c5ccc(S(=O)(=O)[O-])cc5)c5ccc2[nH]5)C=C4)C=C3)cc1
REMARK SMILES IDX 24 1 23 2 22 3 21 4 20 5 18 6 19 7 17 8 16 9 11 10 12 11
REMARK SMILES IDX 13 12 15 13 14 14 10 15 9 17 3 18 4 19 5 20 7 21 6 22 8 23
REMARK SMILES IDX 2 24 1 25 25 26 26 27 27 28 28 29 29 30 30 31 31 32 32 33
REMARK SMILES IDX 33 34 91 35 34 36 90 37 35 38 36 39 37 40 84 41 38 42 89 43
REMARK SMILES IDX 83 44 85 45 39 46 88 47 82 48 81 49 40 51 70 52 51 53 69 54
REMARK SMILES IDX 52 55 55 56 68 57 86 58 53 59 54 60 67 62 87 63 56 64 41 65
REMARK SMILES IDX 42 66 50 67 43 68 49 69 44 70 45 71 46 72 47 73 48 74 71 75
REMARK SMILES IDX 72 76 80 77 73 78 79 79 74 80 75 81 76 82 77 83 78 84 57 85
REMARK SMILES IDX 58 86 66 87 59 88 65 89 60 90 61 91 62 92 63 93 64 94
REMARK H PARENT 10 16 85 50 55 61
REMARK Flexibility Score: inf
ROOT
ATOM      1  C   UNL A   1      34.887  32.020  28.397  1.00  0.00     0.188 C 
ENDROOT
BRANCH   1   2
ATOM      2  O   UNL A   1      34.222  31.193  27.332  1.00  0.00    -0.376 OA
BRANCH   2   3
ATOM      3  C   UNL A   1      33.488  29.845  27.212  1.00  0.00     0.202 C 
BRANCH   3   4
ATOM      4  C   UNL A   1      31.800  29.075  27.313  1.00  0.00     0.261 C 
BRANCH   4   5
ATOM      5  O   UNL A   1      31.026  27.355  27.303  1.00  0.00    -0.463 OA
BRANCH   5   6
ATOM      6  C   UNL A   1      30.441  26.060  26.284  1.00  0.00     0.310 C 
ATOM      7  O   UNL A   1      29.519  25.225  26.509  1.00  0.00    -0.252 OA
BRANCH   6   8
ATOM      8  C   UNL A   1      30.629  25.970  24.852  1.00  0.00     0.160 C 
BRANCH   8   9
ATOM      9  C   UNL A   1      31.751  26.634  24.224  1.00  0.00    -0.013 A 
ATOM     10  C   UNL A   1      33.188  26.277  24.340  1.00  0.00     0.042 A 
ATOM     11  C   UNL A   1      33.884  27.609  24.172  1.00  0.00     0.026 A 
ATOM     12  C   UNL A   1      33.330  28.765  23.537  1.00  0.00     0.002 A 
ATOM     13  C   UNL A   1      31.208  27.844  23.665  1.00  0.00     0.006 A 
ATOM     14  C   UNL A   1      31.999  28.852  23.214  1.00  0.00     0.000 A 
BRANCH  10  15
ATOM     15  N   UNL A   1      34.051  24.518  24.065  1.00  0.00    -0.355 N 
ATOM     16  H   UNL A   1      34.821  24.606  24.673  1.00  0.00     0.167 HD
BRANCH  15  17
ATOM     17  C   UNL A   1      34.326  22.952  23.463  1.00  0.00     0.045 A 
ATOM     18  C   UNL A   1      35.924  22.341  24.281  1.00  0.00    -0.024 A 
ATOM     19  C   UNL A   1      35.851  20.711  25.167  1.00  0.00     0.006 A 
ATOM     20  C   UNL A   1      34.013  19.850  25.069  1.00  0.00     0.001 A 
ATOM     21  C   UNL A   1      32.724  22.174  23.465  1.00  0.00    -0.027 A 
ATOM     22  C   UNL A   1      32.685  20.627  24.144  1.00  0.00     0.005 A 
ATOM     23  C   UNL A   1      31.182  22.908  22.721  1.00  0.00     0.046 C 
BRANCH  18  24
ATOM     24  C   UNL A   1      37.316  22.905  24.539  1.00  0.00     0.034 C 
ATOM     25  C   UNL A   1      37.786  23.722  25.717  1.00  0.00     0.009 C 
ENDBRANCH  18  24
ENDBRANCH  15  17
ENDBRANCH  10  15
ENDBRANCH   8   9
ENDBRANCH   6   8
ENDBRANCH   5   6
ENDBRANCH   4   5
ENDBRANCH   3   4
ENDBRANCH   2   3
ENDBRANCH   1   2
BRANCH   1  26
ATOM     26  C   UNL A   1      35.868  33.223  28.168  1.00  0.00     0.188 C 
BRANCH  26  27
ATOM     27  O   UNL A   1      35.648  34.411  28.839  1.00  0.00    -0.376 OA
BRANCH  27  28
ATOM     28  C   UNL A   1      34.241  34.385  28.832  1.00  0.00     0.202 C 
BRANCH  28  29
ATOM     29  C   UNL A   1      33.504  35.067  30.275  1.00  0.00     0.261 C 
BRANCH  29  30
ATOM     30  O   UNL A   1      33.735  34.211  31.803  1.00  0.00    -0.460 OA
BRANCH  30  31
ATOM     31  C   UNL A   1      34.777  33.776  32.833  1.00  0.00     0.338 C 
ATOM     32  O   UNL A   1      34.638  33.870  34.052  1.00  0.00    -0.246 OA
BRANCH  31  33
ATOM     33  C   UNL A   1      36.116  32.783  32.363  1.00  0.00     0.060 A 
ATOM     34  C   UNL A   1      36.967  31.273  33.189  1.00  0.00     0.016 A 
ATOM     35  C   UNL A   1      37.229  34.065  31.830  1.00  0.00     0.016 A 
ATOM     36  C   UNL A   1      38.745  31.459  33.904  1.00  0.00     0.010 A 
ATOM     37  C   UNL A   1      38.959  34.059  32.436  1.00  0.00     0.010 A 
ATOM     38  C   UNL A   1      39.773  33.026  33.749  1.00  0.00    -0.014 A 
BRANCH  38  39
ATOM     39  C   UNL A   1      41.402  33.847  34.552  1.00  0.00     0.031 A 
ATOM     40  C   UNL A   1      41.237  34.974  36.170  1.00  0.00     0.074 A 
ATOM     41  C   UNL A   1      42.825  33.554  34.492  1.00  0.00     0.049 A 
ATOM     42  N   UNL A   1      41.275  36.296  36.313  1.00  0.00    -0.248 NA
ATOM     43  C   UNL A   1      40.138  34.660  37.569  1.00  0.00     0.031 C 
ATOM     44  C   UNL A   1      44.119  33.860  35.263  1.00  0.00     0.029 A 
ATOM     45  N   UNL A   1      43.566  32.705  33.717  1.00  0.00    -0.354 N 
ATOM     46  C   UNL A   1      40.828  36.606  37.636  1.00  0.00     0.074 A 
ATOM     47  C   UNL A   1      39.682  35.849  37.909  1.00  0.00     0.031 C 
ATOM     48  C   UNL A   1      45.274  33.675  34.525  1.00  0.00     0.029 A 
ATOM     49  C   UNL A   1      44.881  32.991  33.315  1.00  0.00     0.049 A 
ATOM     50  H   UNL A   1      43.160  31.856  33.429  1.00  0.00     0.167 HD
ATOM     51  C   UNL A   1      41.737  36.783  38.651  1.00  0.00     0.031 A 
ATOM     52  C   UNL A   1      45.087  33.135  31.969  1.00  0.00     0.031 A 
ATOM     53  C   UNL A   1      43.074  36.678  38.049  1.00  0.00     0.049 A 
ATOM     54  C   UNL A   1      44.692  34.710  32.029  1.00  0.00     0.074 A 
ATOM     55  C   UNL A   1      44.139  35.818  38.164  1.00  0.00     0.029 A 
ATOM     56  N   UNL A   1      43.248  37.290  36.805  1.00  0.00    -0.354 N 
ATOM     57  N   UNL A   1      43.952  35.265  32.980  1.00  0.00    -0.248 NA
ATOM     58  C   UNL A   1      45.432  35.745  31.327  1.00  0.00     0.031 C 
ATOM     59  C   UNL A   1      44.917  35.959  36.940  1.00  0.00     0.029 A 
ATOM     60  C   UNL A   1      44.200  36.693  35.978  1.00  0.00     0.049 A 
ATOM     61  H   UNL A   1      42.736  38.085  36.531  1.00  0.00     0.167 HD
ATOM     62  C   UNL A   1      44.442  36.491  33.346  1.00  0.00     0.074 A 
ATOM     63  C   UNL A   1      45.247  36.802  32.148  1.00  0.00     0.031 C 
ATOM     64  C   UNL A   1      44.297  37.202  34.543  1.00  0.00     0.031 A 
BRANCH  51  65
ATOM     65  C   UNL A   1      41.404  36.772  40.176  1.00  0.00    -0.014 A 
ATOM     66  C   UNL A   1      41.047  38.011  40.725  1.00  0.00     0.010 A 
ATOM     67  C   UNL A   1      41.338  35.680  41.103  1.00  0.00     0.010 A 
ATOM     68  C   UNL A   1      40.585  38.160  42.046  1.00  0.00     0.020 A 
ATOM     69  C   UNL A   1      40.878  35.814  42.442  1.00  0.00     0.020 A 
ATOM     70  C   UNL A   1      40.475  37.060  42.893  1.00  0.00     0.054 A 
BRANCH  70  71
ATOM     71  S   UNL A   1      39.749  37.313  44.541  1.00  0.00     0.124 S 
ATOM     72  O   UNL A   1      40.876  37.032  45.427  1.00  0.00    -0.237 OA
ATOM     73  O   UNL A   1      39.330  38.711  44.483  1.00  0.00    -0.237 OA
ATOM     74  O   UNL A   1      38.657  36.343  44.602  1.00  0.00    -0.744 OA
ENDBRANCH  70  71
ENDBRANCH  51  65
BRANCH  52  75
ATOM     75  C   UNL A   1      44.259  31.859  31.168  1.00  0.00    -0.014 A 
ATOM     76  C   UNL A   1      43.274  32.041  29.657  1.00  0.00     0.010 A 
ATOM     77  C   UNL A   1      45.453  30.730  31.249  1.00  0.00     0.010 A 
ATOM     78  C   UNL A   1      43.647  31.240  28.063  1.00  0.00     0.020 A 
ATOM     79  C   UNL A   1      46.123  30.042  29.759  1.00  0.00     0.020 A 
ATOM     80  C   UNL A   1      45.146  30.149  27.967  1.00  0.00     0.054 A 
BRANCH  80  81
ATOM     81  S   UNL A   1      44.191  28.834  26.693  1.00  0.00     0.124 S 
ATOM     82  O   UNL A   1      43.601  27.848  27.607  1.00  0.00    -0.237 OA
ATOM     83  O   UNL A   1      43.218  29.740  26.083  1.00  0.00    -0.237 OA
ATOM     84  O   UNL A   1      45.188  28.310  25.785  1.00  0.00    -0.744 OA
ENDBRANCH  80  81
ENDBRANCH  52  75
BRANCH  64  85
ATOM     85  C   UNL A   1      44.156  38.707  34.388  1.00  0.00    -0.014 A 
ATOM     86  C   UNL A   1      45.095  39.586  34.933  1.00  0.00     0.010 A 
ATOM     87  C   UNL A   1      43.142  39.285  33.588  1.00  0.00     0.010 A 
ATOM     88  C   UNL A   1      44.854  40.947  34.961  1.00  0.00     0.020 A 
ATOM     89  C   UNL A   1      43.007  40.653  33.437  1.00  0.00     0.020 A 
ATOM     90  C   UNL A   1      43.797  41.468  34.224  1.00  0.00     0.054 A 
BRANCH  90  91
ATOM     91  S   UNL A   1      43.457  43.219  34.343  1.00  0.00     0.124 S 
ATOM     92  O   UNL A   1      44.691  43.712  34.951  1.00  0.00    -0.237 OA
ATOM     93  O   UNL A   1      43.249  43.593  32.947  1.00  0.00    -0.237 OA
ATOM     94  O   UNL A   1      42.270  43.286  35.191  1.00  0.00    -0.744 OA
ENDBRANCH  90  91
ENDBRANCH  64  85
ENDBRANCH  38  39
ENDBRANCH  31  33
ENDBRANCH  30  31
ENDBRANCH  29  30
ENDBRANCH  28  29
ENDBRANCH  27  28
ENDBRANCH  26  27
ENDBRANCH   1  26
TORSDOF 24
ENDMDL
MODEL 3
REMARK VINA RESULT:     -12.8     13.014     16.537
REMARK SMILES CCc1cccc(C)c1Nc1ccccc1CC(=O)OCCOCCOCCOC(=O)c1ccc(-c2c3nc(c(-c4ccc(S(=O)(=O)[O-])cc4)c4ccc([nH]4)c(-c4ccc(S(=O)(=O)[O-])cc4)c4nc(c(-c5ccc(S(=O)(=O)[O-])cc5)c5ccc2[nH]5)C=C4)C=C3)cc1
REMARK SMILES IDX 24 1 23 2 22 3 21 4 20 5 18 6 19 7 17 8 16 9 11 10 12 11
REMARK SMILES IDX 13 12 15 13 14 14 10 15 9 17 3 18 4 19 5 20 7 21 6 22 8 23
REMARK SMILES IDX 2 24 1 25 25 26 26 27 27 28 28 29 29 30 30 31 31 32 32 33
REMARK SMILES IDX 33 34 91 35 34 36 90 37 35 38 36 39 37 40 84 41 38 42 89 43
REMARK SMILES IDX 83 44 85 45 39 46 88 47 82 48 81 49 40 51 70 52 51 53 69 54
REMARK SMILES IDX 52 55 55 56 68 57 86 58 53 59 54 60 67 62 87 63 56 64 41 65
REMARK SMILES IDX 42 66 50 67 43 68 49 69 44 70 45 71 46 72 47 73 48 74 71 75
REMARK SMILES IDX 72 76 80 77 73 78 79 79 74 80 75 81 76 82 77 83 78 84 57 85
REMARK SMILES IDX 58 86 66 87 59 88 65 89 60 90 61 91 62 92 63 93 64 94
REMARK H PARENT 10 16 85 50 55 61
REMARK Flexibility Score: inf
ROOT
ATOM      1  C   UNL A   1      39.843  24.394  26.952  1.00  0.00     0.188 C 
ENDROOT
BRANCH   1   2
ATOM      2  O   UNL A   1      38.537  24.372  26.208  1.00  0.00    -0.376 OA
BRANCH   2   3
ATOM      3  C   UNL A   1      37.623  23.343  25.516  1.00  0.00     0.202 C 
BRANCH   3   4
ATOM      4  C   UNL A   1      36.944  22.862  23.855  1.00  0.00     0.261 C 
BRANCH   4   5
ATOM      5  O   UNL A   1      35.518  23.338  22.718  1.00  0.00    -0.463 OA
BRANCH   5   6
ATOM      6  C   UNL A   1      33.790  23.226  22.471  1.00  0.00     0.310 C 
ATOM      7  O   UNL A   1      33.127  23.369  21.405  1.00  0.00    -0.252 OA
BRANCH   6   8
ATOM      8  C   UNL A   1      32.860  22.555  23.353  1.00  0.00     0.160 C 
BRANCH   8   9
ATOM      9  C   UNL A   1      33.064  22.589  24.785  1.00  0.00    -0.013 A 
ATOM     10  C   UNL A   1      33.291  23.787  25.634  1.00  0.00     0.042 A 
ATOM     11  C   UNL A   1      34.142  23.249  26.762  1.00  0.00     0.026 A 
ATOM     12  C   UNL A   1      34.225  21.878  27.164  1.00  0.00     0.002 A 
ATOM     13  C   UNL A   1      33.239  21.214  25.174  1.00  0.00     0.006 A 
ATOM     14  C   UNL A   1      33.704  20.862  26.401  1.00  0.00     0.000 A 
BRANCH  10  15
ATOM     15  N   UNL A   1      32.230  25.455  25.726  1.00  0.00    -0.355 N 
ATOM     16  H   UNL A   1      32.770  25.967  26.371  1.00  0.00     0.167 HD
BRANCH  15  17
ATOM     17  C   UNL A   1      30.994  26.579  25.414  1.00  0.00     0.045 A 
ATOM     18  C   UNL A   1      31.611  28.245  26.076  1.00  0.00    -0.024 A 
ATOM     19  C   UNL A   1      31.598  29.681  24.897  1.00  0.00     0.006 A 
ATOM     20  C   UNL A   1      30.878  29.181  23.065  1.00  0.00     0.001 A 
ATOM     21  C   UNL A   1      30.429  26.192  23.770  1.00  0.00    -0.027 A 
ATOM     22  C   UNL A   1      30.279  27.521  22.737  1.00  0.00     0.005 A 
ATOM     23  C   UNL A   1      29.942  24.492  23.184  1.00  0.00     0.046 C 
BRANCH  18  24
ATOM     24  C   UNL A   1      32.275  28.747  27.352  1.00  0.00     0.034 C 
ATOM     25  C   UNL A   1      33.734  29.051  27.585  1.00  0.00     0.009 C 
ENDBRANCH  18  24
ENDBRANCH  15  17
ENDBRANCH  10  15
ENDBRANCH   8   9
ENDBRANCH   6   8
ENDBRANCH   5   6
ENDBRANCH   4   5
ENDBRANCH   3   4
ENDBRANCH   2   3
ENDBRANCH   1   2
BRANCH   1  26
ATOM     26  C   UNL A   1      40.540  23.174  27.650  1.00  0.00     0.188 C 
BRANCH  26  27
ATOM     27  O   UNL A   1      41.920  23.100  27.660  1.00  0.00    -0.376 OA
BRANCH  27  28
ATOM     28  C   UNL A   1      42.163  24.064  28.658  1.00  0.00     0.202 C 
BRANCH  28  29
ATOM     29  C   UNL A   1      43.769  23.973  29.366  1.00  0.00     0.261 C 
BRANCH  29  30
ATOM     30  O   UNL A   1      43.891  23.652  31.098  1.00  0.00    -0.460 OA
BRANCH  30  31
ATOM     31  C   UNL A   1      44.549  24.111  32.399  1.00  0.00     0.338 C 
ATOM     32  O   UNL A   1      45.294  25.085  32.500  1.00  0.00    -0.246 OA
BRANCH  31  33
ATOM     33  C   UNL A   1      44.016  23.487  33.923  1.00  0.00     0.060 A 
ATOM     34  C   UNL A   1      43.997  24.226  35.696  1.00  0.00     0.016 A 
ATOM     35  C   UNL A   1      44.710  21.853  33.805  1.00  0.00     0.016 A 
ATOM     36  C   UNL A   1      45.179  23.508  37.036  1.00  0.00     0.010 A 
ATOM     37  C   UNL A   1      45.682  21.189  35.211  1.00  0.00     0.010 A 
ATOM     38  C   UNL A   1      46.299  22.025  36.751  1.00  0.00    -0.014 A 
BRANCH  38  39
ATOM     39  C   UNL A   1      47.877  21.144  37.592  1.00  0.00     0.031 A 
ATOM     40  C   UNL A   1      47.670  20.200  39.319  1.00  0.00     0.074 A 
ATOM     41  C   UNL A   1      49.157  20.660  37.098  1.00  0.00     0.049 A 
ATOM     42  N   UNL A   1      48.015  20.563  40.551  1.00  0.00    -0.248 NA
ATOM     43  C   UNL A   1      46.257  19.185  39.805  1.00  0.00     0.031 C 
ATOM     44  C   UNL A   1      50.293  19.712  37.516  1.00  0.00     0.029 A 
ATOM     45  N   UNL A   1      49.801  20.797  35.900  1.00  0.00    -0.354 N 
ATOM     46  C   UNL A   1      47.394  19.654  41.465  1.00  0.00     0.074 A 
ATOM     47  C   UNL A   1      46.061  19.472  41.076  1.00  0.00     0.031 C 
ATOM     48  C   UNL A   1      51.490  19.944  36.864  1.00  0.00     0.029 A 
ATOM     49  C   UNL A   1      51.199  20.864  35.789  1.00  0.00     0.049 A 
ATOM     50  H   UNL A   1      49.260  20.851  35.079  1.00  0.00     0.167 HD
ATOM     51  C   UNL A   1      48.083  18.560  41.930  1.00  0.00     0.031 A 
ATOM     52  C   UNL A   1      51.715  22.036  35.304  1.00  0.00     0.031 A 
ATOM     53  C   UNL A   1      49.443  18.647  41.381  1.00  0.00     0.049 A 
ATOM     54  C   UNL A   1      51.735  22.696  36.789  1.00  0.00     0.074 A 
ATOM     55  C   UNL A   1      50.202  17.903  40.511  1.00  0.00     0.029 A 
ATOM     56  N   UNL A   1      50.028  19.916  41.361  1.00  0.00    -0.354 N 
ATOM     57  N   UNL A   1      50.978  22.293  37.802  1.00  0.00    -0.248 NA
ATOM     58  C   UNL A   1      52.847  23.480  37.298  1.00  0.00     0.031 C 
ATOM     59  C   UNL A   1      51.231  18.796  39.993  1.00  0.00     0.029 A 
ATOM     60  C   UNL A   1      50.947  20.130  40.334  1.00  0.00     0.049 A 
ATOM     61  H   UNL A   1      49.807  20.609  42.024  1.00  0.00     0.167 HD
ATOM     62  C   UNL A   1      51.679  22.289  38.980  1.00  0.00     0.074 A 
ATOM     63  C   UNL A   1      52.770  23.215  38.620  1.00  0.00     0.031 C 
ATOM     64  C   UNL A   1      51.471  21.552  40.151  1.00  0.00     0.031 A 
BRANCH  51  65
ATOM     65  C   UNL A   1      47.444  17.318  42.629  1.00  0.00    -0.014 A 
ATOM     66  C   UNL A   1      47.342  17.397  44.024  1.00  0.00     0.010 A 
ATOM     67  C   UNL A   1      46.877  16.127  42.066  1.00  0.00     0.010 A 
ATOM     68  C   UNL A   1      46.670  16.433  44.800  1.00  0.00     0.020 A 
ATOM     69  C   UNL A   1      46.199  15.141  42.836  1.00  0.00     0.020 A 
ATOM     70  C   UNL A   1      46.078  15.323  44.204  1.00  0.00     0.054 A 
BRANCH  70  71
ATOM     71  S   UNL A   1      45.119  14.191  45.256  1.00  0.00     0.124 S 
ATOM     72  O   UNL A   1      45.629  12.883  44.856  1.00  0.00    -0.237 OA
ATOM     73  O   UNL A   1      45.493  14.626  46.599  1.00  0.00    -0.237 OA
ATOM     74  O   UNL A   1      43.729  14.453  44.887  1.00  0.00    -0.744 OA
ENDBRANCH  70  71
ENDBRANCH  51  65
BRANCH  52  75
ATOM     75  C   UNL A   1      50.776  22.504  33.943  1.00  0.00    -0.014 A 
ATOM     76  C   UNL A   1      49.291  23.542  34.006  1.00  0.00     0.010 A 
ATOM     77  C   UNL A   1      52.017  22.893  32.935  1.00  0.00     0.010 A 
ATOM     78  C   UNL A   1      49.125  25.178  33.221  1.00  0.00     0.020 A 
ATOM     79  C   UNL A   1      52.153  24.539  32.293  1.00  0.00     0.020 A 
ATOM     80  C   UNL A   1      50.580  25.843  32.278  1.00  0.00     0.054 A 
BRANCH  80  81
ATOM     81  S   UNL A   1      49.352  26.705  30.859  1.00  0.00     0.124 S 
ATOM     82  O   UNL A   1      50.215  26.785  29.673  1.00  0.00    -0.237 OA
ATOM     83  O   UNL A   1      48.312  25.680  30.772  1.00  0.00    -0.237 OA
ATOM     84  O   UNL A   1      48.910  27.979  31.384  1.00  0.00    -0.744 OA
ENDBRANCH  80  81
ENDBRANCH  52  75
BRANCH  64  85
ATOM     85  C   UNL A   1      51.759  22.297  41.444  1.00  0.00    -0.014 A 
ATOM     86  C   UNL A   1      52.819  21.931  42.276  1.00  0.00     0.010 A 
ATOM     87  C   UNL A   1      51.048  23.467  41.806  1.00  0.00     0.010 A 
ATOM     88  C   UNL A   1      52.948  22.481  43.538  1.00  0.00     0.020 A 
ATOM     89  C   UNL A   1      51.303  24.156  42.978  1.00  0.00     0.020 A 
ATOM     90  C   UNL A   1      52.173  23.582  43.884  1.00  0.00     0.054 A 
BRANCH  90  91
ATOM     91  S   UNL A   1      52.299  24.222  45.549  1.00  0.00     0.124 S 
ATOM     92  O   UNL A   1      53.272  25.298  45.371  1.00  0.00    -0.237 OA
ATOM     93  O   UNL A   1      50.931  24.648  45.825  1.00  0.00    -0.237 OA
ATOM     94  O   UNL A   1      52.766  23.078  46.327  1.00  0.00    -0.744 OA
ENDBRANCH  90  91
ENDBRANCH  64  85
ENDBRANCH  38  39
ENDBRANCH  31  33
ENDBRANCH  30  31
ENDBRANCH  29  30
ENDBRANCH  28  29
ENDBRANCH  27  28
ENDBRANCH  26  27
ENDBRANCH   1  26
TORSDOF 24
ENDMDL
