MODEL 1
REMARK VINA RESULT:     -14.3      0.000      0.000
REMARK SMILES CCCOC(=O)c1c(NC(=O)[C@@H]2CC=CC[C@H]2C(=O)OCCOCCOCCOC(=O)c2ccc(-c3c4nc(c(-c5ccc(S(=O)(=O)[O-])cc5)c5ccc([nH]5)c(-c5ccc(S(=O)(=O)[O-])cc5)c5nc(c(-c6ccc(S(=O)(=O)[O-])cc6)c6ccc3[nH]6)C=C5)C=C4)cc2)sc2c1CCCC2
REMARK SMILES IDX 23 1 22 2 21 3 20 4 18 5 19 6 17 7 12 8 13 9 14 10 16 11
REMARK SMILES IDX 15 12 10 13 9 14 11 16 8 17 7 18 94 19 92 20 93 21 95 22
REMARK SMILES IDX 98 23 96 24 97 25 5 26 6 27 4 28 3 29 2 30 1 31 24 32 25 33
REMARK SMILES IDX 26 34 27 35 28 36 29 37 30 38 31 39 32 40 33 41 91 42 34 43
REMARK SMILES IDX 90 44 35 45 36 46 37 47 84 48 38 49 89 50 83 51 85 52 39 53
REMARK SMILES IDX 88 54 82 55 81 56 40 58 70 59 51 60 69 61 52 62 55 63 68 64
REMARK SMILES IDX 86 65 53 66 54 67 67 69 87 70 56 71 41 72 42 73 50 74 43 75
REMARK SMILES IDX 49 76 44 77 45 78 46 79 47 80 48 81 71 82 72 83 80 84 73 85
REMARK SMILES IDX 79 86 74 87 75 88 76 89 77 90 78 91 57 92 58 93 66 94 59 95
REMARK SMILES IDX 65 96 60 97 61 98 62 99 63 100 64 101
REMARK H PARENT 9 15 85 57 55 68
REMARK Flexibility Score: inf
ROOT
ATOM      1  O   UNL A   1      33.916  30.313  27.610  1.00  0.00    -0.376 OA
ENDROOT
BRANCH   1   2
ATOM      2  C   UNL A   1      34.305  28.715  27.226  1.00  0.00     0.202 C 
BRANCH   2   3
ATOM      3  C   UNL A   1      33.835  27.679  25.718  1.00  0.00     0.261 C 
BRANCH   3   4
ATOM      4  O   UNL A   1      34.540  26.224  25.057  1.00  0.00    -0.463 OA
BRANCH   4   5
ATOM      5  C   UNL A   1      34.725  24.905  25.541  1.00  0.00     0.310 C 
ATOM      6  O   UNL A   1      35.847  24.402  25.704  1.00  0.00    -0.252 OA
BRANCH   5   7
ATOM      7  C   UNL A   1      33.688  23.868  26.108  1.00  0.00     0.116 C 
ATOM      8  C   UNL A   1      32.363  23.294  25.507  1.00  0.00     0.097 C 
ATOM      9  C   UNL A   1      32.101  21.831  25.987  1.00  0.00     0.041 C 
ATOM     10  C   UNL A   1      33.293  20.967  26.261  1.00  0.00    -0.030 C 
ATOM     11  C   UNL A   1      34.557  22.924  26.998  1.00  0.00     0.043 C 
ATOM     12  C   UNL A   1      34.420  21.475  26.758  1.00  0.00    -0.030 C 
BRANCH   8  13
ATOM     13  C   UNL A   1      31.037  24.113  25.991  1.00  0.00     0.229 C 
ATOM     14  N   UNL A   1      30.134  24.658  25.083  1.00  0.00    -0.317 N 
ATOM     15  H   UNL A   1      29.415  24.060  24.771  1.00  0.00     0.170 HD
ATOM     16  O   UNL A   1      30.684  24.081  27.177  1.00  0.00    -0.274 OA
BRANCH  14  17
ATOM     17  C   UNL A   1      30.129  25.999  24.547  1.00  0.00     0.110 A 
ATOM     18  C   UNL A   1      31.103  27.311  23.621  1.00  0.00     0.098 A 
ATOM     19  C   UNL A   1      29.965  28.649  22.894  1.00  0.00    -0.017 A 
ATOM     20  S   UNL A   1      27.857  26.386  24.194  1.00  0.00    -0.122 S 
ATOM     21  C   UNL A   1      28.336  28.295  23.045  1.00  0.00     0.011 A 
ATOM     22  C   UNL A   1      30.396  29.726  21.944  1.00  0.00     0.038 C 
ATOM     23  C   UNL A   1      27.299  29.302  22.659  1.00  0.00     0.047 C 
ATOM     24  C   UNL A   1      29.298  30.786  21.769  1.00  0.00     0.005 C 
ATOM     25  C   UNL A   1      27.875  30.210  21.526  1.00  0.00     0.006 C 
BRANCH  18  26
ATOM     26  C   UNL A   1      32.364  27.075  22.455  1.00  0.00     0.341 C 
ATOM     27  O   UNL A   1      33.112  28.055  22.337  1.00  0.00    -0.246 OA
BRANCH  26  28
ATOM     28  O   UNL A   1      32.441  25.756  21.455  1.00  0.00    -0.462 OA
BRANCH  28  29
ATOM     29  C   UNL A   1      32.926  24.091  21.217  1.00  0.00     0.233 C 
BRANCH  29  30
ATOM     30  C   UNL A   1      32.817  22.826  22.274  1.00  0.00     0.038 C 
ATOM     31  C   UNL A   1      32.010  21.487  22.266  1.00  0.00     0.007 C 
ENDBRANCH  29  30
ENDBRANCH  28  29
ENDBRANCH  26  28
ENDBRANCH  18  26
ENDBRANCH  14  17
ENDBRANCH   8  13
ENDBRANCH   5   7
ENDBRANCH   4   5
ENDBRANCH   3   4
ENDBRANCH   2   3
ENDBRANCH   1   2
BRANCH   1  32
ATOM     32  C   UNL A   1      34.674  31.439  28.571  1.00  0.00     0.188 C 
BRANCH  32  33
ATOM     33  C   UNL A   1      34.866  33.275  28.269  1.00  0.00     0.188 C 
BRANCH  33  34
ATOM     34  O   UNL A   1      36.320  34.198  28.532  1.00  0.00    -0.376 OA
BRANCH  34  35
ATOM     35  C   UNL A   1      37.790  34.005  29.415  1.00  0.00     0.202 C 
BRANCH  35  36
ATOM     36  C   UNL A   1      37.790  32.964  30.967  1.00  0.00     0.261 C 
BRANCH  36  37
ATOM     37  O   UNL A   1      37.952  30.922  30.637  1.00  0.00    -0.460 OA
BRANCH  37  38
ATOM     38  C   UNL A   1      37.797  29.624  30.062  1.00  0.00     0.338 C 
ATOM     39  O   UNL A   1      36.745  29.035  29.810  1.00  0.00    -0.246 OA
BRANCH  38  40
ATOM     40  C   UNL A   1      39.001  29.039  29.400  1.00  0.00     0.060 A 
ATOM     41  C   UNL A   1      40.129  28.625  30.136  1.00  0.00     0.016 A 
ATOM     42  C   UNL A   1      39.167  29.324  28.047  1.00  0.00     0.016 A 
ATOM     43  C   UNL A   1      41.375  28.427  29.533  1.00  0.00     0.010 A 
ATOM     44  C   UNL A   1      40.427  29.199  27.451  1.00  0.00     0.010 A 
ATOM     45  C   UNL A   1      41.538  28.769  28.195  1.00  0.00    -0.014 A 
BRANCH  45  46
ATOM     46  C   UNL A   1      42.887  28.819  27.591  1.00  0.00     0.031 A 
ATOM     47  C   UNL A   1      43.466  27.571  26.990  1.00  0.00     0.074 A 
ATOM     48  C   UNL A   1      43.591  29.961  27.647  1.00  0.00     0.049 A 
ATOM     49  N   UNL A   1      44.700  27.315  26.649  1.00  0.00    -0.248 NA
ATOM     50  C   UNL A   1      42.529  26.463  26.741  1.00  0.00     0.031 C 
ATOM     51  C   UNL A   1      43.069  31.245  28.113  1.00  0.00     0.029 A 
ATOM     52  N   UNL A   1      44.904  30.215  27.351  1.00  0.00    -0.354 N 
ATOM     53  C   UNL A   1      44.698  26.005  26.178  1.00  0.00     0.074 A 
ATOM     54  C   UNL A   1      43.336  25.527  26.263  1.00  0.00     0.031 C 
ATOM     55  C   UNL A   1      44.070  32.139  28.133  1.00  0.00     0.029 A 
ATOM     56  C   UNL A   1      45.307  31.471  27.739  1.00  0.00     0.049 A 
ATOM     57  H   UNL A   1      45.498  29.565  26.909  1.00  0.00     0.167 HD
ATOM     58  C   UNL A   1      45.751  25.270  25.746  1.00  0.00     0.031 A 
ATOM     59  C   UNL A   1      46.545  31.994  27.832  1.00  0.00     0.031 A 
ATOM     60  C   UNL A   1      47.099  25.777  25.708  1.00  0.00     0.049 A 
ATOM     61  C   UNL A   1      47.715  31.136  27.439  1.00  0.00     0.074 A 
ATOM     62  C   UNL A   1      48.254  25.137  25.299  1.00  0.00     0.029 A 
ATOM     63  N   UNL A   1      47.468  27.055  26.110  1.00  0.00    -0.354 N 
ATOM     64  N   UNL A   1      47.714  29.891  27.018  1.00  0.00    -0.248 NA
ATOM     65  C   UNL A   1      49.048  31.742  27.530  1.00  0.00     0.031 C 
ATOM     66  C   UNL A   1      49.328  26.007  25.512  1.00  0.00     0.029 A 
ATOM     67  C   UNL A   1      48.835  27.214  25.987  1.00  0.00     0.049 A 
ATOM     68  H   UNL A   1      46.847  27.746  26.435  1.00  0.00     0.167 HD
ATOM     69  C   UNL A   1      49.042  29.574  26.764  1.00  0.00     0.074 A 
ATOM     70  C   UNL A   1      49.818  30.759  27.080  1.00  0.00     0.031 C 
ATOM     71  C   UNL A   1      49.573  28.414  26.305  1.00  0.00     0.031 A 
BRANCH  58  72
ATOM     72  C   UNL A   1      45.501  23.832  25.360  1.00  0.00    -0.014 A 
ATOM     73  C   UNL A   1      45.743  22.772  26.252  1.00  0.00     0.010 A 
ATOM     74  C   UNL A   1      44.991  23.539  24.082  1.00  0.00     0.010 A 
ATOM     75  C   UNL A   1      45.519  21.446  25.858  1.00  0.00     0.020 A 
ATOM     76  C   UNL A   1      44.741  22.218  23.692  1.00  0.00     0.020 A 
ATOM     77  C   UNL A   1      45.024  21.178  24.578  1.00  0.00     0.054 A 
BRANCH  77  78
ATOM     78  S   UNL A   1      44.736  19.452  24.094  1.00  0.00     0.124 S 
ATOM     79  O   UNL A   1      46.000  18.820  24.461  1.00  0.00    -0.237 OA
ATOM     80  O   UNL A   1      43.586  19.076  24.913  1.00  0.00    -0.237 OA
ATOM     81  O   UNL A   1      44.475  19.531  22.658  1.00  0.00    -0.744 OA
ENDBRANCH  77  78
ENDBRANCH  58  72
BRANCH  59  82
ATOM     82  C   UNL A   1      46.718  33.372  28.368  1.00  0.00    -0.014 A 
ATOM     83  C   UNL A   1      46.465  34.494  27.564  1.00  0.00     0.010 A 
ATOM     84  C   UNL A   1      47.073  33.566  29.718  1.00  0.00     0.010 A 
ATOM     85  C   UNL A   1      46.555  35.784  28.099  1.00  0.00     0.020 A 
ATOM     86  C   UNL A   1      47.137  34.851  30.264  1.00  0.00     0.020 A 
ATOM     87  C   UNL A   1      46.882  35.954  29.448  1.00  0.00     0.054 A 
BRANCH  87  88
ATOM     88  S   UNL A   1      46.905  37.632  30.138  1.00  0.00     0.124 S 
ATOM     89  O   UNL A   1      45.483  37.909  30.310  1.00  0.00    -0.237 OA
ATOM     90  O   UNL A   1      47.669  37.456  31.370  1.00  0.00    -0.237 OA
ATOM     91  O   UNL A   1      47.577  38.419  29.106  1.00  0.00    -0.744 OA
ENDBRANCH  87  88
ENDBRANCH  59  82
BRANCH  71  92
ATOM     92  C   UNL A   1      51.057  28.381  26.066  1.00  0.00    -0.014 A 
ATOM     93  C   UNL A   1      51.631  29.012  24.950  1.00  0.00     0.010 A 
ATOM     94  C   UNL A   1      51.893  27.790  27.033  1.00  0.00     0.010 A 
ATOM     95  C   UNL A   1      53.020  29.047  24.802  1.00  0.00     0.020 A 
ATOM     96  C   UNL A   1      53.281  27.848  26.901  1.00  0.00     0.020 A 
ATOM     97  C   UNL A   1      53.835  28.471  25.783  1.00  0.00     0.054 A 
BRANCH  97  98
ATOM     98  S   UNL A   1      55.636  28.608  25.610  1.00  0.00     0.124 S 
ATOM     99  O   UNL A   1      55.949  27.452  24.776  1.00  0.00    -0.237 OA
ATOM    100  O   UNL A   1      55.796  29.910  24.966  1.00  0.00    -0.237 OA
ATOM    101  O   UNL A   1      56.123  28.536  26.986  1.00  0.00    -0.744 OA
ENDBRANCH  97  98
ENDBRANCH  71  92
ENDBRANCH  45  46
ENDBRANCH  38  40
ENDBRANCH  37  38
ENDBRANCH  36  37
ENDBRANCH  35  36
ENDBRANCH  34  35
ENDBRANCH  33  34
ENDBRANCH  32  33
ENDBRANCH   1  32
TORSDOF 26
ENDMDL
MODEL 2
REMARK VINA RESULT:     -13.7      6.758      8.050
REMARK SMILES CCCOC(=O)c1c(NC(=O)[C@@H]2CC=CC[C@H]2C(=O)OCCOCCOCCOC(=O)c2ccc(-c3c4nc(c(-c5ccc(S(=O)(=O)[O-])cc5)c5ccc([nH]5)c(-c5ccc(S(=O)(=O)[O-])cc5)c5nc(c(-c6ccc(S(=O)(=O)[O-])cc6)c6ccc3[nH]6)C=C5)C=C4)cc2)sc2c1CCCC2
REMARK SMILES IDX 23 1 22 2 21 3 20 4 18 5 19 6 17 7 12 8 13 9 14 10 16 11
REMARK SMILES IDX 15 12 10 13 9 14 11 16 8 17 7 18 94 19 92 20 93 21 95 22
REMARK SMILES IDX 98 23 96 24 97 25 5 26 6 27 4 28 3 29 2 30 1 31 24 32 25 33
REMARK SMILES IDX 26 34 27 35 28 36 29 37 30 38 31 39 32 40 33 41 91 42 34 43
REMARK SMILES IDX 90 44 35 45 36 46 37 47 84 48 38 49 89 50 83 51 85 52 39 53
REMARK SMILES IDX 88 54 82 55 81 56 40 58 70 59 51 60 69 61 52 62 55 63 68 64
REMARK SMILES IDX 86 65 53 66 54 67 67 69 87 70 56 71 41 72 42 73 50 74 43 75
REMARK SMILES IDX 49 76 44 77 45 78 46 79 47 80 48 81 71 82 72 83 80 84 73 85
REMARK SMILES IDX 79 86 74 87 75 88 76 89 77 90 78 91 57 92 58 93 66 94 59 95
REMARK SMILES IDX 65 96 60 97 61 98 62 99 63 100 64 101
REMARK H PARENT 9 15 85 57 55 68
REMARK Flexibility Score: inf
ROOT
ATOM      1  O   UNL A   1      33.363  30.990  26.998  1.00  0.00    -0.376 OA
ENDROOT
BRANCH   1   2
ATOM      2  C   UNL A   1      32.049  29.933  27.067  1.00  0.00     0.202 C 
BRANCH   2   3
ATOM      3  C   UNL A   1      31.971  28.123  27.600  1.00  0.00     0.261 C 
BRANCH   3   4
ATOM      4  O   UNL A   1      31.469  26.689  26.738  1.00  0.00    -0.463 OA
BRANCH   4   5
ATOM      5  C   UNL A   1      31.878  25.332  26.752  1.00  0.00     0.310 C 
ATOM      6  O   UNL A   1      31.249  24.448  27.353  1.00  0.00    -0.252 OA
BRANCH   5   7
ATOM      7  C   UNL A   1      33.025  24.601  25.963  1.00  0.00     0.116 C 
ATOM      8  C   UNL A   1      34.326  25.144  25.285  1.00  0.00     0.097 C 
ATOM      9  C   UNL A   1      35.477  24.089  25.324  1.00  0.00     0.041 C 
ATOM     10  C   UNL A   1      35.517  23.149  26.489  1.00  0.00    -0.030 C 
ATOM     11  C   UNL A   1      33.077  23.182  26.616  1.00  0.00     0.043 C 
ATOM     12  C   UNL A   1      34.400  22.709  27.066  1.00  0.00    -0.030 C 
BRANCH   8  13
ATOM     13  C   UNL A   1      34.132  25.459  23.696  1.00  0.00     0.229 C 
ATOM     14  N   UNL A   1      33.755  26.716  23.234  1.00  0.00    -0.317 N 
ATOM     15  H   UNL A   1      34.484  27.359  23.075  1.00  0.00     0.170 HD
ATOM     16  O   UNL A   1      34.527  24.649  22.849  1.00  0.00    -0.274 OA
BRANCH  14  17
ATOM     17  C   UNL A   1      32.417  27.186  22.958  1.00  0.00     0.110 A 
ATOM     18  C   UNL A   1      30.604  26.723  22.803  1.00  0.00     0.098 A 
ATOM     19  C   UNL A   1      29.476  28.248  22.931  1.00  0.00    -0.017 A 
ATOM     20  S   UNL A   1      32.552  29.441  23.537  1.00  0.00    -0.122 S 
ATOM     21  C   UNL A   1      30.290  29.648  23.353  1.00  0.00     0.011 A 
ATOM     22  C   UNL A   1      27.980  28.209  23.040  1.00  0.00     0.038 C 
ATOM     23  C   UNL A   1      29.584  30.967  23.359  1.00  0.00     0.047 C 
ATOM     24  C   UNL A   1      27.373  29.607  22.858  1.00  0.00     0.005 C 
ATOM     25  C   UNL A   1      28.073  30.729  23.674  1.00  0.00     0.006 C 
BRANCH  18  26
ATOM     26  C   UNL A   1      29.761  25.439  23.605  1.00  0.00     0.341 C 
ATOM     27  O   UNL A   1      28.830  25.835  24.320  1.00  0.00    -0.246 OA
BRANCH  26  28
ATOM     28  O   UNL A   1      30.273  23.863  23.581  1.00  0.00    -0.462 OA
BRANCH  28  29
ATOM     29  C   UNL A   1      31.505  22.702  23.137  1.00  0.00     0.233 C 
BRANCH  29  30
ATOM     30  C   UNL A   1      32.107  21.448  24.028  1.00  0.00     0.038 C 
ATOM     31  C   UNL A   1      33.496  20.729  24.069  1.00  0.00     0.007 C 
ENDBRANCH  29  30
ENDBRANCH  28  29
ENDBRANCH  26  28
ENDBRANCH  18  26
ENDBRANCH  14  17
ENDBRANCH   8  13
ENDBRANCH   5   7
ENDBRANCH   4   5
ENDBRANCH   3   4
ENDBRANCH   2   3
ENDBRANCH   1   2
BRANCH   1  32
ATOM     32  C   UNL A   1      34.814  31.011  27.812  1.00  0.00     0.188 C 
BRANCH  32  33
ATOM     33  C   UNL A   1      35.930  29.567  28.223  1.00  0.00     0.188 C 
BRANCH  33  34
ATOM     34  O   UNL A   1      36.671  29.268  29.771  1.00  0.00    -0.376 OA
BRANCH  34  35
ATOM     35  C   UNL A   1      36.564  29.921  31.364  1.00  0.00     0.202 C 
BRANCH  35  36
ATOM     36  C   UNL A   1      36.047  31.703  31.584  1.00  0.00     0.261 C 
BRANCH  36  37
ATOM     37  O   UNL A   1      36.852  32.637  33.253  1.00  0.00    -0.460 OA
BRANCH  37  38
ATOM     38  C   UNL A   1      37.241  32.909  34.600  1.00  0.00     0.338 C 
ATOM     39  O   UNL A   1      36.523  33.280  35.528  1.00  0.00    -0.246 OA
BRANCH  38  40
ATOM     40  C   UNL A   1      38.578  32.395  35.026  1.00  0.00     0.060 A 
ATOM     41  C   UNL A   1      39.770  33.087  34.732  1.00  0.00     0.016 A 
ATOM     42  C   UNL A   1      38.660  31.034  35.308  1.00  0.00     0.016 A 
ATOM     43  C   UNL A   1      41.021  32.465  34.790  1.00  0.00     0.010 A 
ATOM     44  C   UNL A   1      39.901  30.387  35.296  1.00  0.00     0.010 A 
ATOM     45  C   UNL A   1      41.082  31.094  35.018  1.00  0.00    -0.014 A 
BRANCH  45  46
ATOM     46  C   UNL A   1      42.349  30.357  34.834  1.00  0.00     0.031 A 
ATOM     47  C   UNL A   1      42.637  29.717  33.506  1.00  0.00     0.074 A 
ATOM     48  C   UNL A   1      43.188  30.219  35.872  1.00  0.00     0.049 A 
ATOM     49  N   UNL A   1      43.536  28.821  33.198  1.00  0.00    -0.248 NA
ATOM     50  C   UNL A   1      41.798  30.144  32.373  1.00  0.00     0.031 C 
ATOM     51  C   UNL A   1      43.043  30.894  37.162  1.00  0.00     0.029 A 
ATOM     52  N   UNL A   1      44.302  29.436  36.023  1.00  0.00    -0.354 N 
ATOM     53  C   UNL A   1      43.350  28.549  31.846  1.00  0.00     0.074 A 
ATOM     54  C   UNL A   1      42.263  29.386  31.390  1.00  0.00     0.031 C 
ATOM     55  C   UNL A   1      43.995  30.447  37.996  1.00  0.00     0.029 A 
ATOM     56  C   UNL A   1      44.772  29.417  37.315  1.00  0.00     0.049 A 
ATOM     57  H   UNL A   1      44.721  28.938  35.284  1.00  0.00     0.167 HD
ATOM     58  C   UNL A   1      44.014  27.655  31.074  1.00  0.00     0.031 A 
ATOM     59  C   UNL A   1      45.677  28.605  37.895  1.00  0.00     0.031 A 
ATOM     60  C   UNL A   1      45.071  26.815  31.579  1.00  0.00     0.049 A 
ATOM     61  C   UNL A   1      46.340  27.552  37.050  1.00  0.00     0.074 A 
ATOM     62  C   UNL A   1      45.819  25.866  30.907  1.00  0.00     0.029 A 
ATOM     63  N   UNL A   1      45.519  26.823  32.894  1.00  0.00    -0.354 N 
ATOM     64  N   UNL A   1      46.146  27.279  35.780  1.00  0.00    -0.248 NA
ATOM     65  C   UNL A   1      47.337  26.700  37.706  1.00  0.00     0.031 C 
ATOM     66  C   UNL A   1      46.675  25.258  31.831  1.00  0.00     0.029 A 
ATOM     67  C   UNL A   1      46.512  25.876  33.063  1.00  0.00     0.049 A 
ATOM     68  H   UNL A   1      45.179  27.415  33.603  1.00  0.00     0.167 HD
ATOM     69  C   UNL A   1      47.019  26.244  35.475  1.00  0.00     0.074 A 
ATOM     70  C   UNL A   1      47.743  25.940  36.697  1.00  0.00     0.031 C 
ATOM     71  C   UNL A   1      47.215  25.607  34.294  1.00  0.00     0.031 A 
BRANCH  58  72
ATOM     72  C   UNL A   1      43.567  27.483  29.642  1.00  0.00    -0.014 A 
ATOM     73  C   UNL A   1      44.148  28.214  28.591  1.00  0.00     0.010 A 
ATOM     74  C   UNL A   1      42.557  26.550  29.342  1.00  0.00     0.010 A 
ATOM     75  C   UNL A   1      43.698  28.045  27.275  1.00  0.00     0.020 A 
ATOM     76  C   UNL A   1      42.122  26.358  28.026  1.00  0.00     0.020 A 
ATOM     77  C   UNL A   1      42.684  27.122  27.002  1.00  0.00     0.054 A 
BRANCH  77  78
ATOM     78  S   UNL A   1      42.124  26.917  25.287  1.00  0.00     0.124 S 
ATOM     79  O   UNL A   1      40.766  26.409  25.471  1.00  0.00    -0.237 OA
ATOM     80  O   UNL A   1      42.217  28.273  24.753  1.00  0.00    -0.237 OA
ATOM     81  O   UNL A   1      43.073  25.961  24.722  1.00  0.00    -0.744 OA
ENDBRANCH  77  78
ENDBRANCH  58  72
BRANCH  59  82
ATOM     82  C   UNL A   1      45.950  28.738  39.352  1.00  0.00    -0.014 A 
ATOM     83  C   UNL A   1      46.795  29.750  39.837  1.00  0.00     0.010 A 
ATOM     84  C   UNL A   1      45.305  27.889  40.273  1.00  0.00     0.010 A 
ATOM     85  C   UNL A   1      46.984  29.916  41.213  1.00  0.00     0.020 A 
ATOM     86  C   UNL A   1      45.470  28.069  41.650  1.00  0.00     0.020 A 
ATOM     87  C   UNL A   1      46.313  29.080  42.112  1.00  0.00     0.054 A 
BRANCH  87  88
ATOM     88  S   UNL A   1      46.506  29.374  43.892  1.00  0.00     0.124 S 
ATOM     89  O   UNL A   1      47.950  29.541  44.017  1.00  0.00    -0.237 OA
ATOM     90  O   UNL A   1      45.708  30.578  44.101  1.00  0.00    -0.237 OA
ATOM     91  O   UNL A   1      45.961  28.162  44.501  1.00  0.00    -0.744 OA
ENDBRANCH  87  88
ENDBRANCH  59  82
BRANCH  71  92
ATOM     92  C   UNL A   1      48.285  24.551  34.248  1.00  0.00    -0.014 A 
ATOM     93  C   UNL A   1      48.047  23.250  34.719  1.00  0.00     0.010 A 
ATOM     94  C   UNL A   1      49.514  24.850  33.629  1.00  0.00     0.010 A 
ATOM     95  C   UNL A   1      49.027  22.263  34.577  1.00  0.00     0.020 A 
ATOM     96  C   UNL A   1      50.482  23.860  33.462  1.00  0.00     0.020 A 
ATOM     97  C   UNL A   1      50.235  22.574  33.942  1.00  0.00     0.054 A 
BRANCH  97  98
ATOM     98  S   UNL A   1      51.453  21.253  33.694  1.00  0.00     0.124 S 
ATOM     99  O   UNL A   1      52.012  21.597  32.390  1.00  0.00    -0.237 OA
ATOM    100  O   UNL A   1      52.353  21.431  34.831  1.00  0.00    -0.237 OA
ATOM    101  O   UNL A   1      50.652  20.032  33.726  1.00  0.00    -0.744 OA
ENDBRANCH  97  98
ENDBRANCH  71  92
ENDBRANCH  45  46
ENDBRANCH  38  40
ENDBRANCH  37  38
ENDBRANCH  36  37
ENDBRANCH  35  36
ENDBRANCH  34  35
ENDBRANCH  33  34
ENDBRANCH  32  33
ENDBRANCH   1  32
TORSDOF 26
ENDMDL
MODEL 3
REMARK VINA RESULT:     -13.6      5.737     13.893
REMARK SMILES CCCOC(=O)c1c(NC(=O)[C@@H]2CC=CC[C@H]2C(=O)OCCOCCOCCOC(=O)c2ccc(-c3c4nc(c(-c5ccc(S(=O)(=O)[O-])cc5)c5ccc([nH]5)c(-c5ccc(S(=O)(=O)[O-])cc5)c5nc(c(-c6ccc(S(=O)(=O)[O-])cc6)c6ccc3[nH]6)C=C5)C=C4)cc2)sc2c1CCCC2
REMARK SMILES IDX 23 1 22 2 21 3 20 4 18 5 19 6 17 7 12 8 13 9 14 10 16 11
REMARK SMILES IDX 15 12 10 13 9 14 11 16 8 17 7 18 94 19 92 20 93 21 95 22
REMARK SMILES IDX 98 23 96 24 97 25 5 26 6 27 4 28 3 29 2 30 1 31 24 32 25 33
REMARK SMILES IDX 26 34 27 35 28 36 29 37 30 38 31 39 32 40 33 41 91 42 34 43
REMARK SMILES IDX 90 44 35 45 36 46 37 47 84 48 38 49 89 50 83 51 85 52 39 53
REMARK SMILES IDX 88 54 82 55 81 56 40 58 70 59 51 60 69 61 52 62 55 63 68 64
REMARK SMILES IDX 86 65 53 66 54 67 67 69 87 70 56 71 41 72 42 73 50 74 43 75
REMARK SMILES IDX 49 76 44 77 45 78 46 79 47 80 48 81 71 82 72 83 80 84 73 85
REMARK SMILES IDX 79 86 74 87 75 88 76 89 77 90 78 91 57 92 58 93 66 94 59 95
REMARK SMILES IDX 65 96 60 97 61 98 62 99 63 100 64 101
REMARK H PARENT 9 15 85 57 55 68
REMARK Flexibility Score: inf
ROOT
ATOM      1  O   UNL A   1      44.904  26.551  26.887  1.00  0.00    -0.376 OA
ENDROOT
BRANCH   1   2
ATOM      2  C   UNL A   1      44.262  27.958  26.210  1.00  0.00     0.202 C 
BRANCH   2   3
ATOM      3  C   UNL A   1      43.394  29.418  27.035  1.00  0.00     0.261 C 
BRANCH   3   4
ATOM      4  O   UNL A   1      43.979  31.003  27.481  1.00  0.00    -0.463 OA
BRANCH   4   5
ATOM      5  C   UNL A   1      44.459  32.120  26.756  1.00  0.00     0.310 C 
ATOM      6  O   UNL A   1      43.867  32.584  25.768  1.00  0.00    -0.252 OA
BRANCH   5   7
ATOM      7  C   UNL A   1      45.657  33.096  27.052  1.00  0.00     0.116 C 
ATOM      8  C   UNL A   1      47.015  33.323  26.311  1.00  0.00     0.097 C 
ATOM      9  C   UNL A   1      47.500  34.802  26.440  1.00  0.00     0.041 C 
ATOM     10  C   UNL A   1      46.453  35.869  26.533  1.00  0.00    -0.030 C 
ATOM     11  C   UNL A   1      44.972  34.330  27.721  1.00  0.00     0.043 C 
ATOM     12  C   UNL A   1      45.294  35.654  27.154  1.00  0.00    -0.030 C 
BRANCH   8  13
ATOM     13  C   UNL A   1      48.239  32.449  26.943  1.00  0.00     0.229 C 
ATOM     14  N   UNL A   1      48.021  31.441  27.877  1.00  0.00    -0.317 N 
ATOM     15  H   UNL A   1      47.825  30.546  27.515  1.00  0.00     0.170 HD
ATOM     16  O   UNL A   1      49.370  32.512  26.445  1.00  0.00    -0.274 OA
BRANCH  14  17
ATOM     17  C   UNL A   1      48.050  31.556  29.317  1.00  0.00     0.110 A 
ATOM     18  C   UNL A   1      47.174  32.205  30.846  1.00  0.00     0.098 A 
ATOM     19  C   UNL A   1      47.782  31.338  32.425  1.00  0.00    -0.017 A 
ATOM     20  S   UNL A   1      49.350  29.723  29.938  1.00  0.00    -0.122 S 
ATOM     21  C   UNL A   1      48.810  30.051  32.128  1.00  0.00     0.011 A 
ATOM     22  C   UNL A   1      47.160  31.481  33.783  1.00  0.00     0.038 C 
ATOM     23  C   UNL A   1      49.495  29.347  33.255  1.00  0.00     0.047 C 
ATOM     24  C   UNL A   1      48.051  30.863  34.870  1.00  0.00     0.005 C 
ATOM     25  C   UNL A   1      48.600  29.449  34.532  1.00  0.00     0.006 C 
BRANCH  18  26
ATOM     26  C   UNL A   1      45.476  32.464  31.070  1.00  0.00     0.341 C 
ATOM     27  O   UNL A   1      44.801  31.434  30.942  1.00  0.00    -0.246 OA
BRANCH  26  28
ATOM     28  O   UNL A   1      44.801  33.969  31.237  1.00  0.00    -0.462 OA
BRANCH  28  29
ATOM     29  C   UNL A   1      43.418  35.017  31.006  1.00  0.00     0.233 C 
BRANCH  29  30
ATOM     30  C   UNL A   1      41.856  34.600  30.663  1.00  0.00     0.038 C 
ATOM     31  C   UNL A   1      40.945  34.789  29.406  1.00  0.00     0.007 C 
ENDBRANCH  29  30
ENDBRANCH  28  29
ENDBRANCH  26  28
ENDBRANCH  18  26
ENDBRANCH  14  17
ENDBRANCH   8  13
ENDBRANCH   5   7
ENDBRANCH   4   5
ENDBRANCH   3   4
ENDBRANCH   2   3
ENDBRANCH   1   2
BRANCH   1  32
ATOM     32  C   UNL A   1      46.307  25.713  26.580  1.00  0.00     0.188 C 
BRANCH  32  33
ATOM     33  C   UNL A   1      46.575  24.308  25.373  1.00  0.00     0.188 C 
BRANCH  33  34
ATOM     34  O   UNL A   1      45.416  23.746  24.201  1.00  0.00    -0.376 OA
BRANCH  34  35
ATOM     35  C   UNL A   1      43.924  22.878  24.223  1.00  0.00     0.202 C 
BRANCH  35  36
ATOM     36  C   UNL A   1      43.363  22.072  25.812  1.00  0.00     0.261 C 
BRANCH  36  37
ATOM     37  O   UNL A   1      41.338  22.277  26.217  1.00  0.00    -0.460 OA
BRANCH  37  38
ATOM     38  C   UNL A   1      40.034  22.840  26.363  1.00  0.00     0.338 C 
ATOM     39  O   UNL A   1      38.961  22.241  26.433  1.00  0.00    -0.246 OA
BRANCH  38  40
ATOM     40  C   UNL A   1      39.967  24.268  26.794  1.00  0.00     0.060 A 
ATOM     41  C   UNL A   1      40.910  25.223  26.361  1.00  0.00     0.016 A 
ATOM     42  C   UNL A   1      39.251  24.534  27.959  1.00  0.00     0.016 A 
ATOM     43  C   UNL A   1      41.086  26.442  27.022  1.00  0.00     0.010 A 
ATOM     44  C   UNL A   1      39.473  25.720  28.667  1.00  0.00     0.010 A 
ATOM     45  C   UNL A   1      40.404  26.669  28.212  1.00  0.00    -0.014 A 
BRANCH  45  46
ATOM     46  C   UNL A   1      40.751  27.822  29.070  1.00  0.00     0.031 A 
ATOM     47  C   UNL A   1      41.931  27.720  29.992  1.00  0.00     0.074 A 
ATOM     48  C   UNL A   1      39.968  28.912  29.054  1.00  0.00     0.049 A 
ATOM     49  N   UNL A   1      42.261  28.481  31.000  1.00  0.00    -0.248 NA
ATOM     50  C   UNL A   1      42.866  26.609  29.745  1.00  0.00     0.031 C 
ATOM     51  C   UNL A   1      38.869  29.141  28.117  1.00  0.00     0.029 A 
ATOM     52  N   UNL A   1      39.949  30.009  29.875  1.00  0.00    -0.354 N 
ATOM     53  C   UNL A   1      43.420  27.924  31.532  1.00  0.00     0.074 A 
ATOM     54  C   UNL A   1      43.745  26.770  30.725  1.00  0.00     0.031 C 
ATOM     55  C   UNL A   1      38.240  30.278  28.455  1.00  0.00     0.029 A 
ATOM     56  C   UNL A   1      38.857  30.817  29.662  1.00  0.00     0.049 A 
ATOM     57  H   UNL A   1      40.644  30.199  30.547  1.00  0.00     0.167 HD
ATOM     58  C   UNL A   1      44.122  28.333  32.617  1.00  0.00     0.031 A 
ATOM     59  C   UNL A   1      38.373  31.833  30.404  1.00  0.00     0.031 A 
ATOM     60  C   UNL A   1      43.743  29.471  33.414  1.00  0.00     0.049 A 
ATOM     61  C   UNL A   1      39.109  32.216  31.658  1.00  0.00     0.074 A 
ATOM     62  C   UNL A   1      44.362  29.987  34.538  1.00  0.00     0.029 A 
ATOM     63  N   UNL A   1      42.629  30.265  33.168  1.00  0.00    -0.354 N 
ATOM     64  N   UNL A   1      40.189  31.674  32.173  1.00  0.00    -0.248 NA
ATOM     65  C   UNL A   1      38.569  33.339  32.432  1.00  0.00     0.031 C 
ATOM     66  C   UNL A   1      43.588  31.053  35.006  1.00  0.00     0.029 A 
ATOM     67  C   UNL A   1      42.525  31.248  34.135  1.00  0.00     0.049 A 
ATOM     68  H   UNL A   1      42.005  30.146  32.417  1.00  0.00     0.167 HD
ATOM     69  C   UNL A   1      40.477  32.409  33.315  1.00  0.00     0.074 A 
ATOM     70  C   UNL A   1      39.456  33.436  33.414  1.00  0.00     0.031 C 
ATOM     71  C   UNL A   1      41.496  32.259  34.197  1.00  0.00     0.031 A 
BRANCH  58  72
ATOM     72  C   UNL A   1      45.309  27.505  33.046  1.00  0.00    -0.014 A 
ATOM     73  C   UNL A   1      46.404  27.277  32.193  1.00  0.00     0.010 A 
ATOM     74  C   UNL A   1      45.338  26.961  34.344  1.00  0.00     0.010 A 
ATOM     75  C   UNL A   1      47.482  26.489  32.615  1.00  0.00     0.020 A 
ATOM     76  C   UNL A   1      46.424  26.194  34.780  1.00  0.00     0.020 A 
ATOM     77  C   UNL A   1      47.483  25.948  33.904  1.00  0.00     0.054 A 
BRANCH  77  78
ATOM     78  S   UNL A   1      48.895  24.935  34.429  1.00  0.00     0.124 S 
ATOM     79  O   UNL A   1      48.422  23.584  34.141  1.00  0.00    -0.237 OA
ATOM     80  O   UNL A   1      49.974  25.418  33.571  1.00  0.00    -0.237 OA
ATOM     81  O   UNL A   1      49.043  25.252  35.848  1.00  0.00    -0.744 OA
ENDBRANCH  77  78
ENDBRANCH  58  72
BRANCH  59  82
ATOM     82  C   UNL A   1      37.108  32.499  29.993  1.00  0.00    -0.014 A 
ATOM     83  C   UNL A   1      35.886  32.157  30.594  1.00  0.00     0.010 A 
ATOM     84  C   UNL A   1      37.133  33.538  29.040  1.00  0.00     0.010 A 
ATOM     85  C   UNL A   1      34.714  32.844  30.256  1.00  0.00     0.020 A 
ATOM     86  C   UNL A   1      35.969  34.244  28.720  1.00  0.00     0.020 A 
ATOM     87  C   UNL A   1      34.765  33.889  29.328  1.00  0.00     0.054 A 
BRANCH  87  88
ATOM     88  S   UNL A   1      33.248  34.821  28.975  1.00  0.00     0.124 S 
ATOM     89  O   UNL A   1      32.625  34.897  30.293  1.00  0.00    -0.237 OA
ATOM     90  O   UNL A   1      33.767  36.079  28.446  1.00  0.00    -0.237 OA
ATOM     91  O   UNL A   1      32.551  33.985  28.000  1.00  0.00    -0.744 OA
ENDBRANCH  87  88
ENDBRANCH  59  82
BRANCH  71  92
ATOM     92  C   UNL A   1      41.591  33.254  35.320  1.00  0.00    -0.014 A 
ATOM     93  C   UNL A   1      40.872  33.077  36.514  1.00  0.00     0.010 A 
ATOM     94  C   UNL A   1      42.492  34.329  35.207  1.00  0.00     0.010 A 
ATOM     95  C   UNL A   1      41.051  33.966  37.577  1.00  0.00     0.020 A 
ATOM     96  C   UNL A   1      42.692  35.202  36.277  1.00  0.00     0.020 A 
ATOM     97  C   UNL A   1      41.965  35.018  37.454  1.00  0.00     0.054 A 
BRANCH  97  98
ATOM     98  S   UNL A   1      42.241  36.105  38.879  1.00  0.00     0.124 S 
ATOM     99  O   UNL A   1      43.683  36.325  38.819  1.00  0.00    -0.237 OA
ATOM    100  O   UNL A   1      41.414  37.266  38.560  1.00  0.00    -0.237 OA
ATOM    101  O   UNL A   1      41.778  35.311  40.015  1.00  0.00    -0.744 OA
ENDBRANCH  97  98
ENDBRANCH  71  92
ENDBRANCH  45  46
ENDBRANCH  38  40
ENDBRANCH  37  38
ENDBRANCH  36  37
ENDBRANCH  35  36
ENDBRANCH  34  35
ENDBRANCH  33  34
ENDBRANCH  32  33
ENDBRANCH   1  32
TORSDOF 26
ENDMDL
