MODEL 1
REMARK VINA RESULT:     -10.1      0.000      0.000
REMARK SMILES O=C(C[C@H]1CN(S(=O)(=O)c2cc(F)cc(F)c2)CCO1)OCCOCCOCCOC(=O)c1ccc(-c2c3nc(c(-c4ccc(S(=O)(=O)[O-])cc4)c4ccc([nH]4)c(-c4ccc(S(=O)(=O)[O-])cc4)c4nc(c(-c5ccc(S(=O)(=O)[O-])cc5)c5ccc2[nH]5)C=C4)C=C3)cc1
REMARK SMILES IDX 25 1 24 2 23 3 22 4 21 5 2 6 1 7 3 8 4 9 5 10 20 11 6 12
REMARK SMILES IDX 19 13 18 14 7 15 8 16 9 17 10 18 11 19 17 20 12 21 15 22
REMARK SMILES IDX 13 23 14 24 16 25 26 26 27 27 28 28 29 29 30 30 31 31 32 32
REMARK SMILES IDX 33 33 34 34 92 35 35 36 91 37 36 38 37 39 38 40 85 41 39 42
REMARK SMILES IDX 90 43 84 44 86 45 40 46 89 47 83 48 82 49 41 51 71 52 52 53
REMARK SMILES IDX 70 54 53 55 56 56 69 57 87 58 54 59 55 60 68 62 88 63 57 64
REMARK SMILES IDX 42 65 43 66 51 67 44 68 50 69 45 70 46 71 47 72 48 73 49 74
REMARK SMILES IDX 72 75 73 76 81 77 74 78 80 79 75 80 76 81 77 82 78 83 79 84
REMARK SMILES IDX 58 85 59 86 67 87 60 88 66 89 61 90 62 91 63 92 64 93 65 94
REMARK H PARENT 86 50 56 61
REMARK Flexibility Score: inf
ROOT
ATOM      1  C   UNL A   1      34.087  28.647  22.712  1.00  0.00     0.188 C 
ENDROOT
BRANCH   1   2
ATOM      2  O   UNL A   1      33.857  27.500  21.896  1.00  0.00    -0.376 OA
BRANCH   2   3
ATOM      3  C   UNL A   1      33.173  26.412  22.490  1.00  0.00     0.202 C 
BRANCH   3   4
ATOM      4  C   UNL A   1      31.747  26.187  22.031  1.00  0.00     0.261 C 
BRANCH   4   5
ATOM      5  O   UNL A   1      30.854  25.764  23.068  1.00  0.00    -0.463 OA
BRANCH   5   6
ATOM      6  C   UNL A   1      30.757  26.391  24.263  1.00  0.00     0.308 C 
ATOM      7  O   UNL A   1      30.254  27.512  24.317  1.00  0.00    -0.252 OA
BRANCH   6   8
ATOM      8  C   UNL A   1      31.219  25.694  25.522  1.00  0.00     0.156 C 
BRANCH   8   9
ATOM      9  C   UNL A   1      30.708  24.252  25.688  1.00  0.00     0.144 C 
ATOM     10  C   UNL A   1      31.297  23.219  24.717  1.00  0.00     0.135 C 
ATOM     11  O   UNL A   1      30.750  23.776  27.042  1.00  0.00    -0.375 OA
ATOM     12  N   UNL A   1      32.726  23.004  25.071  1.00  0.00    -0.193 NA
ATOM     13  C   UNL A   1      31.952  23.144  27.480  1.00  0.00     0.177 C 
ATOM     14  C   UNL A   1      32.755  22.351  26.430  1.00  0.00     0.131 C 
BRANCH  12  15
ATOM     15  S   UNL A   1      33.727  22.196  23.941  1.00  0.00     0.243 S 
ATOM     16  O   UNL A   1      33.294  20.810  23.964  1.00  0.00    -0.207 OA
ATOM     17  O   UNL A   1      33.685  22.953  22.710  1.00  0.00    -0.207 OA
BRANCH  15  18
ATOM     18  C   UNL A   1      35.420  22.207  24.506  1.00  0.00     0.088 A 
ATOM     19  C   UNL A   1      36.164  21.030  24.599  1.00  0.00     0.061 A 
ATOM     20  C   UNL A   1      35.948  23.388  25.050  1.00  0.00     0.061 A 
ATOM     21  C   UNL A   1      37.448  21.059  25.142  1.00  0.00     0.127 A 
ATOM     22  C   UNL A   1      37.210  23.374  25.643  1.00  0.00     0.127 A 
ATOM     23  F   UNL A   1      38.162  19.927  25.189  1.00  0.00    -0.207 F 
ATOM     24  C   UNL A   1      37.979  22.221  25.676  1.00  0.00     0.078 A 
ATOM     25  F   UNL A   1      37.675  24.486  26.229  1.00  0.00    -0.207 F 
ENDBRANCH  15  18
ENDBRANCH  12  15
ENDBRANCH   8   9
ENDBRANCH   6   8
ENDBRANCH   5   6
ENDBRANCH   4   5
ENDBRANCH   3   4
ENDBRANCH   2   3
ENDBRANCH   1   2
BRANCH   1  26
ATOM     26  C   UNL A   1      33.702  28.545  24.198  1.00  0.00     0.188 C 
BRANCH  26  27
ATOM     27  O   UNL A   1      33.182  29.750  24.769  1.00  0.00    -0.376 OA
BRANCH  27  28
ATOM     28  C   UNL A   1      32.610  29.618  26.065  1.00  0.00     0.202 C 
BRANCH  28  29
ATOM     29  C   UNL A   1      33.177  30.609  27.090  1.00  0.00     0.261 C 
BRANCH  29  30
ATOM     30  O   UNL A   1      34.099  30.006  28.003  1.00  0.00    -0.460 OA
BRANCH  30  31
ATOM     31  C   UNL A   1      34.944  30.884  28.617  1.00  0.00     0.338 C 
ATOM     32  O   UNL A   1      34.662  31.933  29.141  1.00  0.00    -0.246 OA
BRANCH  31  33
ATOM     33  C   UNL A   1      36.282  30.244  28.687  1.00  0.00     0.060 A 
ATOM     34  C   UNL A   1      36.726  29.756  29.925  1.00  0.00     0.016 A 
ATOM     35  C   UNL A   1      37.037  30.033  27.531  1.00  0.00     0.016 A 
ATOM     36  C   UNL A   1      37.947  29.077  30.012  1.00  0.00     0.010 A 
ATOM     37  C   UNL A   1      38.269  29.383  27.624  1.00  0.00     0.010 A 
ATOM     38  C   UNL A   1      38.745  28.931  28.869  1.00  0.00    -0.014 A 
BRANCH  38  39
ATOM     39  C   UNL A   1      40.183  28.585  28.987  1.00  0.00     0.031 A 
ATOM     40  C   UNL A   1      41.126  29.710  29.326  1.00  0.00     0.074 A 
ATOM     41  C   UNL A   1      40.661  27.354  28.727  1.00  0.00     0.049 A 
ATOM     42  N   UNL A   1      42.432  29.724  29.334  1.00  0.00    -0.248 NA
ATOM     43  C   UNL A   1      40.506  30.998  29.688  1.00  0.00     0.031 C 
ATOM     44  C   UNL A   1      39.858  26.172  28.420  1.00  0.00     0.029 A 
ATOM     45  N   UNL A   1      41.960  26.907  28.652  1.00  0.00    -0.354 N 
ATOM     46  C   UNL A   1      42.788  31.021  29.678  1.00  0.00     0.074 A 
ATOM     47  C   UNL A   1      41.566  31.769  29.871  1.00  0.00     0.031 C 
ATOM     48  C   UNL A   1      40.685  25.141  28.157  1.00  0.00     0.029 A 
ATOM     49  C   UNL A   1      42.072  25.599  28.238  1.00  0.00     0.049 A 
ATOM     50  H   UNL A   1      42.737  27.470  28.873  1.00  0.00     0.167 HD
ATOM     51  C   UNL A   1      44.023  31.552  29.812  1.00  0.00     0.031 A 
ATOM     52  C   UNL A   1      43.166  24.874  27.921  1.00  0.00     0.031 A 
ATOM     53  C   UNL A   1      45.240  30.822  29.605  1.00  0.00     0.049 A 
ATOM     54  C   UNL A   1      44.533  25.513  28.006  1.00  0.00     0.074 A 
ATOM     55  C   UNL A   1      46.541  31.266  29.758  1.00  0.00     0.029 A 
ATOM     56  N   UNL A   1      45.307  29.506  29.181  1.00  0.00    -0.354 N 
ATOM     57  N   UNL A   1      44.857  26.723  28.396  1.00  0.00    -0.248 NA
ATOM     58  C   UNL A   1      45.683  24.690  27.597  1.00  0.00     0.031 C 
ATOM     59  C   UNL A   1      47.397  30.234  29.366  1.00  0.00     0.029 A 
ATOM     60  C   UNL A   1      46.629  29.132  29.023  1.00  0.00     0.049 A 
ATOM     61  H   UNL A   1      44.531  28.923  29.017  1.00  0.00     0.167 HD
ATOM     62  C   UNL A   1      46.245  26.798  28.296  1.00  0.00     0.074 A 
ATOM     63  C   UNL A   1      46.702  25.508  27.827  1.00  0.00     0.031 C 
ATOM     64  C   UNL A   1      47.068  27.841  28.564  1.00  0.00     0.031 A 
BRANCH  51  65
ATOM     65  C   UNL A   1      44.119  33.011  30.152  1.00  0.00    -0.014 A 
ATOM     66  C   UNL A   1      44.097  33.995  29.149  1.00  0.00     0.010 A 
ATOM     67  C   UNL A   1      44.182  33.400  31.502  1.00  0.00     0.010 A 
ATOM     68  C   UNL A   1      44.148  35.348  29.492  1.00  0.00     0.020 A 
ATOM     69  C   UNL A   1      44.211  34.752  31.849  1.00  0.00     0.020 A 
ATOM     70  C   UNL A   1      44.201  35.717  30.840  1.00  0.00     0.054 A 
BRANCH  70  71
ATOM     71  S   UNL A   1      44.204  37.482  31.258  1.00  0.00     0.124 S 
ATOM     72  O   UNL A   1      45.633  37.764  31.369  1.00  0.00    -0.237 OA
ATOM     73  O   UNL A   1      43.534  38.084  30.109  1.00  0.00    -0.237 OA
ATOM     74  O   UNL A   1      43.459  37.543  32.513  1.00  0.00    -0.744 OA
ENDBRANCH  70  71
ENDBRANCH  51  65
BRANCH  52  75
ATOM     75  C   UNL A   1      43.031  23.477  27.418  1.00  0.00    -0.014 A 
ATOM     76  C   UNL A   1      43.114  23.192  26.042  1.00  0.00     0.010 A 
ATOM     77  C   UNL A   1      42.756  22.427  28.313  1.00  0.00     0.010 A 
ATOM     78  C   UNL A   1      42.895  21.893  25.571  1.00  0.00     0.020 A 
ATOM     79  C   UNL A   1      42.564  21.122  27.848  1.00  0.00     0.020 A 
ATOM     80  C   UNL A   1      42.618  20.866  26.478  1.00  0.00     0.054 A 
BRANCH  80  81
ATOM     81  S   UNL A   1      42.363  19.182  25.851  1.00  0.00     0.124 S 
ATOM     82  O   UNL A   1      40.910  19.111  25.753  1.00  0.00    -0.237 OA
ATOM     83  O   UNL A   1      43.084  19.203  24.581  1.00  0.00    -0.237 OA
ATOM     84  O   UNL A   1      42.965  18.340  26.884  1.00  0.00    -0.744 OA
ENDBRANCH  80  81
ENDBRANCH  52  75
BRANCH  64  85
ATOM     85  C   UNL A   1      48.549  27.641  28.382  1.00  0.00    -0.014 A 
ATOM     86  C   UNL A   1      49.296  26.890  29.305  1.00  0.00     0.010 A 
ATOM     87  C   UNL A   1      49.177  28.122  27.218  1.00  0.00     0.010 A 
ATOM     88  C   UNL A   1      50.651  26.634  29.072  1.00  0.00     0.020 A 
ATOM     89  C   UNL A   1      50.524  27.847  26.970  1.00  0.00     0.020 A 
ATOM     90  C   UNL A   1      51.255  27.111  27.905  1.00  0.00     0.054 A 
BRANCH  90  91
ATOM     91  S   UNL A   1      52.994  26.701  27.591  1.00  0.00     0.124 S 
ATOM     92  O   UNL A   1      53.633  27.114  28.838  1.00  0.00    -0.237 OA
ATOM     93  O   UNL A   1      52.948  25.261  27.355  1.00  0.00    -0.237 OA
ATOM     94  O   UNL A   1      53.335  27.508  26.420  1.00  0.00    -0.744 OA
ENDBRANCH  90  91
ENDBRANCH  64  85
ENDBRANCH  38  39
ENDBRANCH  31  33
ENDBRANCH  30  31
ENDBRANCH  29  30
ENDBRANCH  28  29
ENDBRANCH  27  28
ENDBRANCH  26  27
ENDBRANCH   1  26
TORSDOF 23
ENDMDL
MODEL 2
REMARK VINA RESULT:      -9.6      1.481      1.998
REMARK SMILES O=C(C[C@H]1CN(S(=O)(=O)c2cc(F)cc(F)c2)CCO1)OCCOCCOCCOC(=O)c1ccc(-c2c3nc(c(-c4ccc(S(=O)(=O)[O-])cc4)c4ccc([nH]4)c(-c4ccc(S(=O)(=O)[O-])cc4)c4nc(c(-c5ccc(S(=O)(=O)[O-])cc5)c5ccc2[nH]5)C=C4)C=C3)cc1
REMARK SMILES IDX 25 1 24 2 23 3 22 4 21 5 2 6 1 7 3 8 4 9 5 10 20 11 6 12
REMARK SMILES IDX 19 13 18 14 7 15 8 16 9 17 10 18 11 19 17 20 12 21 15 22
REMARK SMILES IDX 13 23 14 24 16 25 26 26 27 27 28 28 29 29 30 30 31 31 32 32
REMARK SMILES IDX 33 33 34 34 92 35 35 36 91 37 36 38 37 39 38 40 85 41 39 42
REMARK SMILES IDX 90 43 84 44 86 45 40 46 89 47 83 48 82 49 41 51 71 52 52 53
REMARK SMILES IDX 70 54 53 55 56 56 69 57 87 58 54 59 55 60 68 62 88 63 57 64
REMARK SMILES IDX 42 65 43 66 51 67 44 68 50 69 45 70 46 71 47 72 48 73 49 74
REMARK SMILES IDX 72 75 73 76 81 77 74 78 80 79 75 80 76 81 77 82 78 83 79 84
REMARK SMILES IDX 58 85 59 86 67 87 60 88 66 89 61 90 62 91 63 92 64 93 65 94
REMARK H PARENT 86 50 56 61
REMARK Flexibility Score: inf
ROOT
ATOM      1  C   UNL A   1      33.655  28.733  22.997  1.00  0.00     0.188 C 
ENDROOT
BRANCH   1   2
ATOM      2  O   UNL A   1      33.673  27.694  22.019  1.00  0.00    -0.376 OA
BRANCH   2   3
ATOM      3  C   UNL A   1      33.281  26.402  22.444  1.00  0.00     0.202 C 
BRANCH   3   4
ATOM      4  C   UNL A   1      31.934  25.915  21.951  1.00  0.00     0.261 C 
BRANCH   4   5
ATOM      5  O   UNL A   1      31.271  25.012  22.842  1.00  0.00    -0.463 OA
BRANCH   5   6
ATOM      6  C   UNL A   1      30.676  25.409  23.992  1.00  0.00     0.308 C 
ATOM      7  O   UNL A   1      29.638  26.066  23.937  1.00  0.00    -0.252 OA
BRANCH   6   8
ATOM      8  C   UNL A   1      31.260  25.003  25.325  1.00  0.00     0.156 C 
BRANCH   8   9
ATOM      9  C   UNL A   1      31.142  23.505  25.653  1.00  0.00     0.144 C 
ATOM     10  C   UNL A   1      32.076  22.572  24.868  1.00  0.00     0.135 C 
ATOM     11  O   UNL A   1      31.182  23.216  27.060  1.00  0.00    -0.375 OA
ATOM     12  N   UNL A   1      33.470  22.806  25.333  1.00  0.00    -0.193 NA
ATOM     13  C   UNL A   1      32.462  22.998  27.650  1.00  0.00     0.177 C 
ATOM     14  C   UNL A   1      33.545  22.346  26.767  1.00  0.00     0.131 C 
BRANCH  12  15
ATOM     15  S   UNL A   1      34.753  22.185  24.384  1.00  0.00     0.243 S 
ATOM     16  O   UNL A   1      34.538  20.750  24.335  1.00  0.00    -0.207 OA
ATOM     17  O   UNL A   1      34.800  22.959  23.163  1.00  0.00    -0.207 OA
BRANCH  15  18
ATOM     18  C   UNL A   1      36.309  22.435  25.222  1.00  0.00     0.088 A 
ATOM     19  C   UNL A   1      36.723  23.706  25.623  1.00  0.00     0.061 A 
ATOM     20  C   UNL A   1      37.217  21.368  25.304  1.00  0.00     0.061 A 
ATOM     21  C   UNL A   1      37.989  23.883  26.182  1.00  0.00     0.127 A 
ATOM     22  C   UNL A   1      38.499  21.586  25.810  1.00  0.00     0.127 A 
ATOM     23  F   UNL A   1      38.356  25.102  26.595  1.00  0.00    -0.207 F 
ATOM     24  C   UNL A   1      38.890  22.834  26.271  1.00  0.00     0.078 A 
ATOM     25  F   UNL A   1      39.386  20.582  25.813  1.00  0.00    -0.207 F 
ENDBRANCH  15  18
ENDBRANCH  12  15
ENDBRANCH   8   9
ENDBRANCH   6   8
ENDBRANCH   5   6
ENDBRANCH   4   5
ENDBRANCH   3   4
ENDBRANCH   2   3
ENDBRANCH   1   2
BRANCH   1  26
ATOM     26  C   UNL A   1      33.397  28.325  24.457  1.00  0.00     0.188 C 
BRANCH  26  27
ATOM     27  O   UNL A   1      33.569  29.374  25.415  1.00  0.00    -0.376 OA
BRANCH  27  28
ATOM     28  C   UNL A   1      34.080  28.972  26.681  1.00  0.00     0.202 C 
BRANCH  28  29
ATOM     29  C   UNL A   1      34.533  30.146  27.559  1.00  0.00     0.261 C 
BRANCH  29  30
ATOM     30  O   UNL A   1      35.271  29.730  28.713  1.00  0.00    -0.460 OA
BRANCH  30  31
ATOM     31  C   UNL A   1      36.244  30.602  29.106  1.00  0.00     0.338 C 
ATOM     32  O   UNL A   1      36.100  31.683  29.622  1.00  0.00    -0.246 OA
BRANCH  31  33
ATOM     33  C   UNL A   1      37.551  29.915  28.948  1.00  0.00     0.060 A 
ATOM     34  C   UNL A   1      38.193  29.427  30.096  1.00  0.00     0.016 A 
ATOM     35  C   UNL A   1      38.080  29.663  27.680  1.00  0.00     0.016 A 
ATOM     36  C   UNL A   1      39.387  28.707  29.977  1.00  0.00     0.010 A 
ATOM     37  C   UNL A   1      39.286  28.971  27.564  1.00  0.00     0.010 A 
ATOM     38  C   UNL A   1      39.962  28.518  28.712  1.00  0.00    -0.014 A 
BRANCH  38  39
ATOM     39  C   UNL A   1      41.386  28.122  28.578  1.00  0.00     0.031 A 
ATOM     40  C   UNL A   1      42.404  29.232  28.605  1.00  0.00     0.074 A 
ATOM     41  C   UNL A   1      41.773  26.852  28.357  1.00  0.00     0.049 A 
ATOM     42  N   UNL A   1      43.685  29.189  28.353  1.00  0.00    -0.248 NA
ATOM     43  C   UNL A   1      41.900  30.575  28.949  1.00  0.00     0.031 C 
ATOM     44  C   UNL A   1      40.897  25.682  28.339  1.00  0.00     0.029 A 
ATOM     45  N   UNL A   1      43.019  26.343  28.072  1.00  0.00    -0.354 N 
ATOM     46  C   UNL A   1      44.133  30.497  28.484  1.00  0.00     0.074 A 
ATOM     47  C   UNL A   1      42.994  31.313  28.837  1.00  0.00     0.031 C 
ATOM     48  C   UNL A   1      41.629  24.595  28.025  1.00  0.00     0.029 A 
ATOM     49  C   UNL A   1      43.014  24.998  27.782  1.00  0.00     0.049 A 
ATOM     50  H   UNL A   1      43.837  26.891  28.076  1.00  0.00     0.167 HD
ATOM     51  C   UNL A   1      45.382  30.984  28.314  1.00  0.00     0.031 A 
ATOM     52  C   UNL A   1      44.004  24.199  27.330  1.00  0.00     0.031 A 
ATOM     53  C   UNL A   1      46.515  30.185  27.947  1.00  0.00     0.049 A 
ATOM     54  C   UNL A   1      45.375  24.782  27.076  1.00  0.00     0.074 A 
ATOM     55  C   UNL A   1      47.830  30.584  27.793  1.00  0.00     0.029 A 
ATOM     56  N   UNL A   1      46.464  28.832  27.657  1.00  0.00    -0.354 N 
ATOM     57  N   UNL A   1      45.799  26.009  27.268  1.00  0.00    -0.248 NA
ATOM     58  C   UNL A   1      46.399  23.874  26.535  1.00  0.00     0.031 C 
ATOM     59  C   UNL A   1      48.565  29.483  27.347  1.00  0.00     0.029 A 
ATOM     60  C   UNL A   1      47.718  28.387  27.279  1.00  0.00     0.049 A 
ATOM     61  H   UNL A   1      45.657  28.271  27.711  1.00  0.00     0.167 HD
ATOM     62  C   UNL A   1      47.140  26.013  26.888  1.00  0.00     0.074 A 
ATOM     63  C   UNL A   1      47.463  24.665  26.472  1.00  0.00     0.031 C 
ATOM     64  C   UNL A   1      48.025  27.040  26.877  1.00  0.00     0.031 A 
BRANCH  51  65
ATOM     65  C   UNL A   1      45.580  32.463  28.476  1.00  0.00    -0.014 A 
ATOM     66  C   UNL A   1      45.427  33.341  27.389  1.00  0.00     0.010 A 
ATOM     67  C   UNL A   1      45.873  32.983  29.750  1.00  0.00     0.010 A 
ATOM     68  C   UNL A   1      45.576  34.717  27.572  1.00  0.00     0.020 A 
ATOM     69  C   UNL A   1      46.002  34.360  29.941  1.00  0.00     0.020 A 
ATOM     70  C   UNL A   1      45.860  35.218  28.848  1.00  0.00     0.054 A 
BRANCH  70  71
ATOM     71  S   UNL A   1      45.988  37.013  29.068  1.00  0.00     0.124 S 
ATOM     72  O   UNL A   1      45.039  37.508  28.074  1.00  0.00    -0.237 OA
ATOM     73  O   UNL A   1      45.588  37.194  30.461  1.00  0.00    -0.237 OA
ATOM     74  O   UNL A   1      47.392  37.299  28.784  1.00  0.00    -0.744 OA
ENDBRANCH  70  71
ENDBRANCH  51  65
BRANCH  52  75
ATOM     75  C   UNL A   1      43.738  22.767  27.011  1.00  0.00    -0.014 A 
ATOM     76  C   UNL A   1      44.408  22.125  25.953  1.00  0.00     0.010 A 
ATOM     77  C   UNL A   1      42.761  22.052  27.729  1.00  0.00     0.010 A 
ATOM     78  C   UNL A   1      44.085  20.810  25.601  1.00  0.00     0.020 A 
ATOM     79  C   UNL A   1      42.456  20.728  27.400  1.00  0.00     0.020 A 
ATOM     80  C   UNL A   1      43.108  20.120  26.326  1.00  0.00     0.054 A 
BRANCH  80  81
ATOM     81  S   UNL A   1      42.721  18.405  25.873  1.00  0.00     0.124 S 
ATOM     82  O   UNL A   1      41.264  18.426  25.823  1.00  0.00    -0.237 OA
ATOM     83  O   UNL A   1      43.399  18.255  24.588  1.00  0.00    -0.237 OA
ATOM     84  O   UNL A   1      43.301  17.627  26.966  1.00  0.00    -0.744 OA
ENDBRANCH  80  81
ENDBRANCH  52  75
BRANCH  64  85
ATOM     85  C   UNL A   1      49.433  26.759  26.427  1.00  0.00    -0.014 A 
ATOM     86  C   UNL A   1      50.377  26.205  27.308  1.00  0.00     0.010 A 
ATOM     87  C   UNL A   1      49.783  26.953  25.078  1.00  0.00     0.010 A 
ATOM     88  C   UNL A   1      51.652  25.862  26.850  1.00  0.00     0.020 A 
ATOM     89  C   UNL A   1      51.049  26.589  24.611  1.00  0.00     0.020 A 
ATOM     90  C   UNL A   1      51.979  26.053  25.504  1.00  0.00     0.054 A 
BRANCH  90  91
ATOM     91  S   UNL A   1      53.615  25.530  24.918  1.00  0.00     0.124 S 
ATOM     92  O   UNL A   1      54.505  26.367  25.718  1.00  0.00    -0.237 OA
ATOM     93  O   UNL A   1      53.632  24.105  25.242  1.00  0.00    -0.237 OA
ATOM     94  O   UNL A   1      53.586  25.837  23.489  1.00  0.00    -0.744 OA
ENDBRANCH  90  91
ENDBRANCH  64  85
ENDBRANCH  38  39
ENDBRANCH  31  33
ENDBRANCH  30  31
ENDBRANCH  29  30
ENDBRANCH  28  29
ENDBRANCH  27  28
ENDBRANCH  26  27
ENDBRANCH   1  26
TORSDOF 23
ENDMDL
MODEL 3
REMARK VINA RESULT:      -9.5      5.718      7.348
REMARK SMILES O=C(C[C@H]1CN(S(=O)(=O)c2cc(F)cc(F)c2)CCO1)OCCOCCOCCOC(=O)c1ccc(-c2c3nc(c(-c4ccc(S(=O)(=O)[O-])cc4)c4ccc([nH]4)c(-c4ccc(S(=O)(=O)[O-])cc4)c4nc(c(-c5ccc(S(=O)(=O)[O-])cc5)c5ccc2[nH]5)C=C4)C=C3)cc1
REMARK SMILES IDX 25 1 24 2 23 3 22 4 21 5 2 6 1 7 3 8 4 9 5 10 20 11 6 12
REMARK SMILES IDX 19 13 18 14 7 15 8 16 9 17 10 18 11 19 17 20 12 21 15 22
REMARK SMILES IDX 13 23 14 24 16 25 26 26 27 27 28 28 29 29 30 30 31 31 32 32
REMARK SMILES IDX 33 33 34 34 92 35 35 36 91 37 36 38 37 39 38 40 85 41 39 42
REMARK SMILES IDX 90 43 84 44 86 45 40 46 89 47 83 48 82 49 41 51 71 52 52 53
REMARK SMILES IDX 70 54 53 55 56 56 69 57 87 58 54 59 55 60 68 62 88 63 57 64
REMARK SMILES IDX 42 65 43 66 51 67 44 68 50 69 45 70 46 71 47 72 48 73 49 74
REMARK SMILES IDX 72 75 73 76 81 77 74 78 80 79 75 80 76 81 77 82 78 83 79 84
REMARK SMILES IDX 58 85 59 86 67 87 60 88 66 89 61 90 62 91 63 92 64 93 65 94
REMARK H PARENT 86 50 56 61
REMARK Flexibility Score: inf
ROOT
ATOM      1  C   UNL A   1      35.394  33.426  27.973  1.00  0.00     0.188 C 
ENDROOT
BRANCH   1   2
ATOM      2  O   UNL A   1      35.841  32.078  27.839  1.00  0.00    -0.376 OA
BRANCH   2   3
ATOM      3  C   UNL A   1      34.847  31.073  27.762  1.00  0.00     0.202 C 
BRANCH   3   4
ATOM      4  C   UNL A   1      35.317  29.696  27.339  1.00  0.00     0.261 C 
BRANCH   4   5
ATOM      5  O   UNL A   1      34.290  28.698  27.334  1.00  0.00    -0.463 OA
BRANCH   5   6
ATOM      6  C   UNL A   1      33.541  28.412  26.244  1.00  0.00     0.308 C 
ATOM      7  O   UNL A   1      33.215  29.320  25.482  1.00  0.00    -0.252 OA
BRANCH   6   8
ATOM      8  C   UNL A   1      33.155  26.982  25.946  1.00  0.00     0.156 C 
BRANCH   8   9
ATOM      9  C   UNL A   1      31.857  26.818  25.137  1.00  0.00     0.144 C 
ATOM     10  C   UNL A   1      31.975  26.003  23.841  1.00  0.00     0.135 C 
ATOM     11  O   UNL A   1      30.736  26.383  25.924  1.00  0.00    -0.375 OA
ATOM     12  N   UNL A   1      32.209  24.579  24.203  1.00  0.00    -0.193 NA
ATOM     13  C   UNL A   1      30.541  24.977  26.067  1.00  0.00     0.177 C 
ATOM     14  C   UNL A   1      30.960  24.081  24.885  1.00  0.00     0.131 C 
BRANCH  12  15
ATOM     15  S   UNL A   1      32.748  23.511  22.977  1.00  0.00     0.243 S 
ATOM     16  O   UNL A   1      31.598  22.691  22.645  1.00  0.00    -0.207 OA
ATOM     17  O   UNL A   1      33.391  24.314  21.959  1.00  0.00    -0.207 OA
BRANCH  15  18
ATOM     18  C   UNL A   1      33.987  22.406  23.631  1.00  0.00     0.088 A 
ATOM     19  C   UNL A   1      33.637  21.199  24.240  1.00  0.00     0.061 A 
ATOM     20  C   UNL A   1      35.318  22.845  23.711  1.00  0.00     0.061 A 
ATOM     21  C   UNL A   1      34.620  20.408  24.833  1.00  0.00     0.127 A 
ATOM     22  C   UNL A   1      36.268  22.061  24.365  1.00  0.00     0.127 A 
ATOM     23  F   UNL A   1      34.272  19.236  25.380  1.00  0.00    -0.207 F 
ATOM     24  C   UNL A   1      35.937  20.831  24.912  1.00  0.00     0.078 A 
ATOM     25  F   UNL A   1      37.518  22.522  24.505  1.00  0.00    -0.207 F 
ENDBRANCH  15  18
ENDBRANCH  12  15
ENDBRANCH   8   9
ENDBRANCH   6   8
ENDBRANCH   5   6
ENDBRANCH   4   5
ENDBRANCH   3   4
ENDBRANCH   2   3
ENDBRANCH   1   2
BRANCH   1  26
ATOM     26  C   UNL A   1      34.757  33.829  29.314  1.00  0.00     0.188 C 
BRANCH  26  27
ATOM     27  O   UNL A   1      33.453  34.408  29.212  1.00  0.00    -0.376 OA
BRANCH  27  28
ATOM     28  C   UNL A   1      33.403  35.828  29.292  1.00  0.00     0.202 C 
BRANCH  28  29
ATOM     29  C   UNL A   1      32.435  36.347  30.364  1.00  0.00     0.261 C 
BRANCH  29  30
ATOM     30  O   UNL A   1      32.348  35.486  31.505  1.00  0.00    -0.460 OA
BRANCH  30  31
ATOM     31  C   UNL A   1      33.078  35.899  32.581  1.00  0.00     0.338 C 
ATOM     32  O   UNL A   1      32.771  36.724  33.407  1.00  0.00    -0.246 OA
BRANCH  31  33
ATOM     33  C   UNL A   1      34.274  35.025  32.673  1.00  0.00     0.060 A 
ATOM     34  C   UNL A   1      34.089  33.668  32.978  1.00  0.00     0.016 A 
ATOM     35  C   UNL A   1      35.545  35.513  32.359  1.00  0.00     0.016 A 
ATOM     36  C   UNL A   1      35.186  32.799  32.996  1.00  0.00     0.010 A 
ATOM     37  C   UNL A   1      36.643  34.652  32.407  1.00  0.00     0.010 A 
ATOM     38  C   UNL A   1      36.474  33.299  32.757  1.00  0.00    -0.014 A 
BRANCH  38  39
ATOM     39  C   UNL A   1      37.675  32.521  33.149  1.00  0.00     0.031 A 
ATOM     40  C   UNL A   1      38.222  32.766  34.531  1.00  0.00     0.074 A 
ATOM     41  C   UNL A   1      38.314  31.692  32.303  1.00  0.00     0.049 A 
ATOM     42  N   UNL A   1      39.337  32.349  35.068  1.00  0.00    -0.248 NA
ATOM     43  C   UNL A   1      37.404  33.614  35.418  1.00  0.00     0.031 C 
ATOM     44  C   UNL A   1      37.875  31.340  30.954  1.00  0.00     0.029 A 
ATOM     45  N   UNL A   1      39.502  31.014  32.457  1.00  0.00    -0.354 N 
ATOM     46  C   UNL A   1      39.364  32.899  36.343  1.00  0.00     0.074 A 
ATOM     47  C   UNL A   1      38.159  33.681  36.503  1.00  0.00     0.031 C 
ATOM     48  C   UNL A   1      38.800  30.537  30.391  1.00  0.00     0.029 A 
ATOM     49  C   UNL A   1      39.912  30.351  31.323  1.00  0.00     0.049 A 
ATOM     50  H   UNL A   1      40.011  31.005  33.300  1.00  0.00     0.167 HD
ATOM     51  C   UNL A   1      40.314  32.778  37.296  1.00  0.00     0.031 A 
ATOM     52  C   UNL A   1      41.069  29.708  31.058  1.00  0.00     0.031 A 
ATOM     53  C   UNL A   1      41.520  32.018  37.138  1.00  0.00     0.049 A 
ATOM     54  C   UNL A   1      42.148  29.648  32.115  1.00  0.00     0.074 A 
ATOM     55  C   UNL A   1      42.523  31.803  38.066  1.00  0.00     0.029 A 
ATOM     56  N   UNL A   1      41.897  31.371  35.975  1.00  0.00    -0.354 N 
ATOM     57  N   UNL A   1      42.131  30.119  33.340  1.00  0.00    -0.248 NA
ATOM     58  C   UNL A   1      43.407  28.979  31.749  1.00  0.00     0.031 C 
ATOM     59  C   UNL A   1      43.539  31.075  37.442  1.00  0.00     0.029 A 
ATOM     60  C   UNL A   1      43.141  30.790  36.145  1.00  0.00     0.049 A 
ATOM     61  H   UNL A   1      41.361  31.329  35.150  1.00  0.00     0.167 HD
ATOM     62  C   UNL A   1      43.366  29.787  33.893  1.00  0.00     0.074 A 
ATOM     63  C   UNL A   1      44.099  29.061  32.879  1.00  0.00     0.031 C 
ATOM     64  C   UNL A   1      43.854  30.063  35.128  1.00  0.00     0.031 A 
BRANCH  51  65
ATOM     65  C   UNL A   1      40.108  33.525  38.581  1.00  0.00    -0.014 A 
ATOM     66  C   UNL A   1      40.593  34.834  38.747  1.00  0.00     0.010 A 
ATOM     67  C   UNL A   1      39.373  32.922  39.618  1.00  0.00     0.010 A 
ATOM     68  C   UNL A   1      40.354  35.524  39.938  1.00  0.00     0.020 A 
ATOM     69  C   UNL A   1      39.114  33.618  40.801  1.00  0.00     0.020 A 
ATOM     70  C   UNL A   1      39.614  34.913  40.955  1.00  0.00     0.054 A 
BRANCH  70  71
ATOM     71  S   UNL A   1      39.268  35.855  42.465  1.00  0.00     0.124 S 
ATOM     72  O   UNL A   1      37.871  35.515  42.720  1.00  0.00    -0.237 OA
ATOM     73  O   UNL A   1      40.232  35.304  43.414  1.00  0.00    -0.237 OA
ATOM     74  O   UNL A   1      39.508  37.242  42.072  1.00  0.00    -0.744 OA
ENDBRANCH  70  71
ENDBRANCH  51  65
BRANCH  52  75
ATOM     75  C   UNL A   1      41.319  29.121  29.710  1.00  0.00    -0.014 A 
ATOM     76  C   UNL A   1      40.823  27.848  29.372  1.00  0.00     0.010 A 
ATOM     77  C   UNL A   1      42.113  29.811  28.775  1.00  0.00     0.010 A 
ATOM     78  C   UNL A   1      41.140  27.267  28.139  1.00  0.00     0.020 A 
ATOM     79  C   UNL A   1      42.409  29.245  27.532  1.00  0.00     0.020 A 
ATOM     80  C   UNL A   1      41.935  27.968  27.227  1.00  0.00     0.054 A 
BRANCH  80  81
ATOM     81  S   UNL A   1      42.315  27.210  25.623  1.00  0.00     0.124 S 
ATOM     82  O   UNL A   1      42.228  28.351  24.719  1.00  0.00    -0.237 OA
ATOM     83  O   UNL A   1      43.655  26.670  25.836  1.00  0.00    -0.237 OA
ATOM     84  O   UNL A   1      41.266  26.204  25.466  1.00  0.00    -0.744 OA
ENDBRANCH  80  81
ENDBRANCH  52  75
BRANCH  64  85
ATOM     85  C   UNL A   1      45.232  29.566  35.473  1.00  0.00    -0.014 A 
ATOM     86  C   UNL A   1      46.361  30.382  35.292  1.00  0.00     0.010 A 
ATOM     87  C   UNL A   1      45.383  28.308  36.085  1.00  0.00     0.010 A 
ATOM     88  C   UNL A   1      47.622  29.942  35.705  1.00  0.00     0.020 A 
ATOM     89  C   UNL A   1      46.638  27.876  36.522  1.00  0.00     0.020 A 
ATOM     90  C   UNL A   1      47.752  28.693  36.321  1.00  0.00     0.054 A 
BRANCH  90  91
ATOM     91  S   UNL A   1      49.387  28.178  36.915  1.00  0.00     0.124 S 
ATOM     92  O   UNL A   1      50.045  29.461  37.145  1.00  0.00    -0.237 OA
ATOM     93  O   UNL A   1      49.066  27.412  38.117  1.00  0.00    -0.237 OA
ATOM     94  O   UNL A   1      49.926  27.390  35.808  1.00  0.00    -0.744 OA
ENDBRANCH  90  91
ENDBRANCH  64  85
ENDBRANCH  38  39
ENDBRANCH  31  33
ENDBRANCH  30  31
ENDBRANCH  29  30
ENDBRANCH  28  29
ENDBRANCH  27  28
ENDBRANCH  26  27
ENDBRANCH   1  26
TORSDOF 23
ENDMDL
