MODEL 1
REMARK VINA RESULT:      -9.6      0.000      0.000
REMARK SMILES C[C@@H](c1ccccn1)S(=O)(=O)N1CC[NH2+]C[C@@H]1C(=O)OCCOCCOCCOC(=O)c1ccc(-c2c3nc(c(-c4ccc(S(=O)(=O)[O-])cc4)c4ccc([nH]4)c(-c4ccc(S(=O)(=O)[O-])cc4)c4nc(c(-c5ccc(S(=O)(=O)[O-])cc5)c5ccc2[nH]5)C=C4)C=C3)cc1
REMARK SMILES IDX 24 1 23 2 22 3 21 4 20 5 18 6 19 7 17 8 12 9 13 10 14 11
REMARK SMILES IDX 16 12 15 13 9 16 10 17 11 18 2 19 1 20 3 21 4 22 8 23 5 24
REMARK SMILES IDX 7 25 6 26 25 27 26 28 27 29 28 30 29 31 30 32 31 33 32 34
REMARK SMILES IDX 33 35 91 36 34 37 90 38 35 39 36 40 37 41 84 42 38 43 89 44
REMARK SMILES IDX 83 45 85 46 39 47 88 48 82 49 81 50 40 52 70 53 51 54 69 55
REMARK SMILES IDX 52 56 55 57 68 58 86 59 53 60 54 61 67 63 87 64 56 65 41 66
REMARK SMILES IDX 42 67 50 68 43 69 49 70 44 71 45 72 46 73 47 74 48 75 71 76
REMARK SMILES IDX 72 77 80 78 73 79 79 80 74 81 75 82 76 83 77 84 78 85 57 86
REMARK SMILES IDX 58 87 66 88 59 89 65 90 60 91 61 92 62 93 63 94 64 95
REMARK H PARENT 15 14 15 15 85 51 55 62
REMARK Flexibility Score: inf
ROOT
ATOM      1  C   UNL A   1      34.011  35.123  29.381  1.00  0.00     0.188 C 
ENDROOT
BRANCH   1   2
ATOM      2  O   UNL A   1      33.627  33.914  28.750  1.00  0.00    -0.376 OA
BRANCH   2   3
ATOM      3  C   UNL A   1      34.670  33.172  28.138  1.00  0.00     0.202 C 
BRANCH   3   4
ATOM      4  C   UNL A   1      34.658  31.642  28.331  1.00  0.00     0.261 C 
BRANCH   4   5
ATOM      5  O   UNL A   1      34.119  30.854  27.242  1.00  0.00    -0.462 OA
BRANCH   5   6
ATOM      6  C   UNL A   1      34.417  29.526  27.247  1.00  0.00     0.330 C 
ATOM      7  O   UNL A   1      35.575  29.124  27.329  1.00  0.00    -0.250 OA
BRANCH   6   8
ATOM      8  C   UNL A   1      33.146  28.617  27.159  1.00  0.00     0.237 C 
ATOM      9  N   UNL A   1      33.305  27.393  26.271  1.00  0.00    -0.176 NA
ATOM     10  C   UNL A   1      33.688  27.924  24.874  1.00  0.00     0.164 C 
ATOM     11  C   UNL A   1      32.698  29.015  24.355  1.00  0.00     0.277 C 
ATOM     12  C   UNL A   1      32.015  29.520  26.645  1.00  0.00     0.293 C 
ATOM     13  N   UNL A   1      32.288  30.078  25.306  1.00  0.00    -0.343 N 
ATOM     14  H   UNL A   1      31.445  30.531  24.956  1.00  0.00     0.346 HD
ATOM     15  H   UNL A   1      33.051  30.751  25.387  1.00  0.00     0.346 HD
BRANCH   9  16
ATOM     16  S   UNL A   1      32.076  26.208  26.043  1.00  0.00     0.223 S 
ATOM     17  O   UNL A   1      31.845  26.246  24.607  1.00  0.00    -0.211 OA
ATOM     18  O   UNL A   1      30.970  26.552  26.913  1.00  0.00    -0.211 OA
BRANCH  16  19
ATOM     19  C   UNL A   1      32.521  24.490  26.413  1.00  0.00     0.170 C 
ATOM     20  C   UNL A   1      31.342  23.573  26.707  1.00  0.00     0.033 C 
BRANCH  19  21
ATOM     21  C   UNL A   1      33.581  23.985  25.482  1.00  0.00     0.060 A 
ATOM     22  C   UNL A   1      34.902  24.413  25.537  1.00  0.00     0.025 A 
ATOM     23  N   UNL A   1      33.169  23.101  24.538  1.00  0.00    -0.260 NA
ATOM     24  C   UNL A   1      35.836  23.829  24.684  1.00  0.00     0.004 A 
ATOM     25  C   UNL A   1      34.081  22.568  23.703  1.00  0.00     0.111 A 
ATOM     26  C   UNL A   1      35.423  22.880  23.756  1.00  0.00     0.020 A 
ENDBRANCH  19  21
ENDBRANCH  16  19
ENDBRANCH   9  16
ENDBRANCH   6   8
ENDBRANCH   5   6
ENDBRANCH   4   5
ENDBRANCH   3   4
ENDBRANCH   2   3
ENDBRANCH   1   2
BRANCH   1  27
ATOM     27  C   UNL A   1      33.730  35.143  30.899  1.00  0.00     0.188 C 
BRANCH  27  28
ATOM     28  O   UNL A   1      33.705  33.928  31.636  1.00  0.00    -0.376 OA
BRANCH  28  29
ATOM     29  C   UNL A   1      34.874  33.519  32.335  1.00  0.00     0.202 C 
BRANCH  29  30
ATOM     30  C   UNL A   1      36.214  33.317  31.597  1.00  0.00     0.261 C 
BRANCH  30  31
ATOM     31  O   UNL A   1      36.610  31.962  31.323  1.00  0.00    -0.460 OA
BRANCH  31  32
ATOM     32  C   UNL A   1      37.517  31.425  32.177  1.00  0.00     0.338 C 
ATOM     33  O   UNL A   1      37.384  31.276  33.385  1.00  0.00    -0.246 OA
BRANCH  32  34
ATOM     34  C   UNL A   1      38.643  30.842  31.414  1.00  0.00     0.060 A 
ATOM     35  C   UNL A   1      39.653  30.167  32.117  1.00  0.00     0.016 A 
ATOM     36  C   UNL A   1      38.732  30.988  30.030  1.00  0.00     0.016 A 
ATOM     37  C   UNL A   1      40.758  29.646  31.443  1.00  0.00     0.010 A 
ATOM     38  C   UNL A   1      39.861  30.496  29.360  1.00  0.00     0.010 A 
ATOM     39  C   UNL A   1      40.890  29.844  30.065  1.00  0.00    -0.014 A 
BRANCH  39  40
ATOM     40  C   UNL A   1      42.180  29.527  29.401  1.00  0.00     0.031 A 
ATOM     41  C   UNL A   1      42.369  28.150  28.822  1.00  0.00     0.074 A 
ATOM     42  C   UNL A   1      43.157  30.447  29.289  1.00  0.00     0.049 A 
ATOM     43  N   UNL A   1      43.428  27.624  28.261  1.00  0.00    -0.248 NA
ATOM     44  C   UNL A   1      41.210  27.242  28.883  1.00  0.00     0.031 C 
ATOM     45  C   UNL A   1      43.072  31.835  29.743  1.00  0.00     0.029 A 
ATOM     46  N   UNL A   1      44.422  30.343  28.762  1.00  0.00    -0.354 N 
ATOM     47  C   UNL A   1      43.071  26.324  27.924  1.00  0.00     0.074 A 
ATOM     48  C   UNL A   1      41.704  26.132  28.353  1.00  0.00     0.031 C 
ATOM     49  C   UNL A   1      44.244  32.448  29.491  1.00  0.00     0.029 A 
ATOM     50  C   UNL A   1      45.171  31.489  28.894  1.00  0.00     0.049 A 
ATOM     51  H   UNL A   1      44.760  29.526  28.329  1.00  0.00     0.167 HD
ATOM     52  C   UNL A   1      43.818  25.374  27.314  1.00  0.00     0.031 A 
ATOM     53  C   UNL A   1      46.467  31.726  28.597  1.00  0.00     0.031 A 
ATOM     54  C   UNL A   1      45.177  25.570  26.882  1.00  0.00     0.049 A 
ATOM     55  C   UNL A   1      47.298  30.621  27.990  1.00  0.00     0.074 A 
ATOM     56  C   UNL A   1      46.003  24.674  26.227  1.00  0.00     0.029 A 
ATOM     57  N   UNL A   1      45.909  26.732  27.063  1.00  0.00    -0.354 N 
ATOM     58  N   UNL A   1      46.938  29.405  27.649  1.00  0.00    -0.248 NA
ATOM     59  C   UNL A   1      48.712  30.922  27.720  1.00  0.00     0.031 C 
ATOM     60  C   UNL A   1      47.260  25.267  26.078  1.00  0.00     0.029 A 
ATOM     61  C   UNL A   1      47.191  26.561  26.570  1.00  0.00     0.049 A 
ATOM     62  H   UNL A   1      45.570  27.555  27.482  1.00  0.00     0.167 HD
ATOM     63  C   UNL A   1      48.070  28.816  27.091  1.00  0.00     0.074 A 
ATOM     64  C   UNL A   1      49.120  29.809  27.126  1.00  0.00     0.031 C 
ATOM     65  C   UNL A   1      48.226  27.563  26.596  1.00  0.00     0.031 A 
BRANCH  52  66
ATOM     66  C   UNL A   1      43.209  24.013  27.109  1.00  0.00    -0.014 A 
ATOM     67  C   UNL A   1      43.155  23.067  28.148  1.00  0.00     0.010 A 
ATOM     68  C   UNL A   1      42.589  23.719  25.880  1.00  0.00     0.010 A 
ATOM     69  C   UNL A   1      42.498  21.849  27.958  1.00  0.00     0.020 A 
ATOM     70  C   UNL A   1      41.907  22.513  25.696  1.00  0.00     0.020 A 
ATOM     71  C   UNL A   1      41.870  21.583  26.737  1.00  0.00     0.054 A 
BRANCH  71  72
ATOM     72  S   UNL A   1      40.955  20.029  26.547  1.00  0.00     0.124 S 
ATOM     73  O   UNL A   1      39.670  20.495  26.030  1.00  0.00    -0.237 OA
ATOM     74  O   UNL A   1      41.781  19.286  25.599  1.00  0.00    -0.237 OA
ATOM     75  O   UNL A   1      40.917  19.478  27.900  1.00  0.00    -0.744 OA
ENDBRANCH  71  72
ENDBRANCH  52  66
BRANCH  53  76
ATOM     76  C   UNL A   1      47.090  33.043  28.914  1.00  0.00    -0.014 A 
ATOM     77  C   UNL A   1      47.145  34.072  27.955  1.00  0.00     0.010 A 
ATOM     78  C   UNL A   1      47.700  33.251  30.166  1.00  0.00     0.010 A 
ATOM     79  C   UNL A   1      47.837  35.258  28.223  1.00  0.00     0.020 A 
ATOM     80  C   UNL A   1      48.361  34.449  30.451  1.00  0.00     0.020 A 
ATOM     81  C   UNL A   1      48.446  35.436  29.469  1.00  0.00     0.054 A 
BRANCH  81  82
ATOM     82  S   UNL A   1      49.346  36.977  29.795  1.00  0.00     0.124 S 
ATOM     83  O   UNL A   1      48.334  37.781  30.475  1.00  0.00    -0.237 OA
ATOM     84  O   UNL A   1      50.459  36.525  30.625  1.00  0.00    -0.237 OA
ATOM     85  O   UNL A   1      49.721  37.443  28.461  1.00  0.00    -0.744 OA
ENDBRANCH  81  82
ENDBRANCH  53  76
BRANCH  65  86
ATOM     86  C   UNL A   1      49.562  27.204  25.996  1.00  0.00    -0.014 A 
ATOM     87  C   UNL A   1      50.599  26.664  26.778  1.00  0.00     0.010 A 
ATOM     88  C   UNL A   1      49.760  27.353  24.611  1.00  0.00     0.010 A 
ATOM     89  C   UNL A   1      51.819  26.314  26.192  1.00  0.00     0.020 A 
ATOM     90  C   UNL A   1      50.965  26.972  24.015  1.00  0.00     0.020 A 
ATOM     91  C   UNL A   1      51.993  26.468  24.813  1.00  0.00     0.054 A 
BRANCH  91  92
ATOM     92  S   UNL A   1      53.569  25.963  24.070  1.00  0.00     0.124 S 
ATOM     93  O   UNL A   1      53.755  24.627  24.630  1.00  0.00    -0.237 OA
ATOM     94  O   UNL A   1      53.279  26.011  22.640  1.00  0.00    -0.237 OA
ATOM     95  O   UNL A   1      54.515  26.972  24.543  1.00  0.00    -0.744 OA
ENDBRANCH  91  92
ENDBRANCH  65  86
ENDBRANCH  39  40
ENDBRANCH  32  34
ENDBRANCH  31  32
ENDBRANCH  30  31
ENDBRANCH  29  30
ENDBRANCH  28  29
ENDBRANCH  27  28
ENDBRANCH   1  27
TORSDOF 23
ENDMDL
MODEL 2
REMARK VINA RESULT:      -9.5      1.403      8.159
REMARK SMILES C[C@@H](c1ccccn1)S(=O)(=O)N1CC[NH2+]C[C@@H]1C(=O)OCCOCCOCCOC(=O)c1ccc(-c2c3nc(c(-c4ccc(S(=O)(=O)[O-])cc4)c4ccc([nH]4)c(-c4ccc(S(=O)(=O)[O-])cc4)c4nc(c(-c5ccc(S(=O)(=O)[O-])cc5)c5ccc2[nH]5)C=C4)C=C3)cc1
REMARK SMILES IDX 24 1 23 2 22 3 21 4 20 5 18 6 19 7 17 8 12 9 13 10 14 11
REMARK SMILES IDX 16 12 15 13 9 16 10 17 11 18 2 19 1 20 3 21 4 22 8 23 5 24
REMARK SMILES IDX 7 25 6 26 25 27 26 28 27 29 28 30 29 31 30 32 31 33 32 34
REMARK SMILES IDX 33 35 91 36 34 37 90 38 35 39 36 40 37 41 84 42 38 43 89 44
REMARK SMILES IDX 83 45 85 46 39 47 88 48 82 49 81 50 40 52 70 53 51 54 69 55
REMARK SMILES IDX 52 56 55 57 68 58 86 59 53 60 54 61 67 63 87 64 56 65 41 66
REMARK SMILES IDX 42 67 50 68 43 69 49 70 44 71 45 72 46 73 47 74 48 75 71 76
REMARK SMILES IDX 72 77 80 78 73 79 79 80 74 81 75 82 76 83 77 84 78 85 57 86
REMARK SMILES IDX 58 87 66 88 59 89 65 90 60 91 61 92 62 93 63 94 64 95
REMARK H PARENT 15 14 15 15 85 51 55 62
REMARK Flexibility Score: inf
ROOT
ATOM      1  C   UNL A   1      34.835  31.965  27.865  1.00  0.00     0.188 C 
ENDROOT
BRANCH   1   2
ATOM      2  O   UNL A   1      33.499  31.609  27.556  1.00  0.00    -0.376 OA
BRANCH   2   3
ATOM      3  C   UNL A   1      33.263  30.232  27.306  1.00  0.00     0.202 C 
BRANCH   3   4
ATOM      4  C   UNL A   1      32.366  29.874  26.105  1.00  0.00     0.261 C 
BRANCH   4   5
ATOM      5  O   UNL A   1      31.700  28.589  26.152  1.00  0.00    -0.462 OA
BRANCH   5   6
ATOM      6  C   UNL A   1      32.415  27.517  25.715  1.00  0.00     0.330 C 
ATOM      7  O   UNL A   1      33.404  27.649  24.998  1.00  0.00    -0.250 OA
BRANCH   6   8
ATOM      8  C   UNL A   1      31.850  26.154  26.238  1.00  0.00     0.237 C 
ATOM      9  N   UNL A   1      32.443  24.925  25.568  1.00  0.00    -0.176 NA
ATOM     10  C   UNL A   1      32.164  25.083  24.058  1.00  0.00     0.164 C 
ATOM     11  C   UNL A   1      30.659  25.361  23.753  1.00  0.00     0.277 C 
ATOM     12  C   UNL A   1      30.331  26.214  26.019  1.00  0.00     0.293 C 
ATOM     13  N   UNL A   1      29.961  26.363  24.597  1.00  0.00    -0.343 N 
ATOM     14  H   UNL A   1      28.954  26.236  24.500  1.00  0.00     0.346 HD
ATOM     15  H   UNL A   1      30.238  27.295  24.287  1.00  0.00     0.346 HD
BRANCH   9  16
ATOM     16  S   UNL A   1      32.030  23.307  25.993  1.00  0.00     0.223 S 
ATOM     17  O   UNL A   1      30.719  23.133  25.386  1.00  0.00    -0.211 OA
ATOM     18  O   UNL A   1      32.127  23.196  27.433  1.00  0.00    -0.211 OA
BRANCH  16  19
ATOM     19  C   UNL A   1      33.063  21.992  25.293  1.00  0.00     0.170 C 
ATOM     20  C   UNL A   1      32.393  21.162  24.208  1.00  0.00     0.033 C 
BRANCH  19  21
ATOM     21  C   UNL A   1      34.462  22.468  25.043  1.00  0.00     0.060 A 
ATOM     22  C   UNL A   1      35.038  22.490  23.778  1.00  0.00     0.025 A 
ATOM     23  N   UNL A   1      35.164  22.849  26.140  1.00  0.00    -0.260 NA
ATOM     24  C   UNL A   1      36.315  23.026  23.629  1.00  0.00     0.004 A 
ATOM     25  C   UNL A   1      36.408  23.339  25.979  1.00  0.00     0.111 A 
ATOM     26  C   UNL A   1      37.012  23.471  24.747  1.00  0.00     0.020 A 
ENDBRANCH  19  21
ENDBRANCH  16  19
ENDBRANCH   9  16
ENDBRANCH   6   8
ENDBRANCH   5   6
ENDBRANCH   4   5
ENDBRANCH   3   4
ENDBRANCH   2   3
ENDBRANCH   1   2
BRANCH   1  27
ATOM     27  C   UNL A   1      35.070  33.490  27.920  1.00  0.00     0.188 C 
BRANCH  27  28
ATOM     28  O   UNL A   1      34.590  34.246  29.025  1.00  0.00    -0.376 OA
BRANCH  28  29
ATOM     29  C   UNL A   1      34.616  33.667  30.323  1.00  0.00     0.202 C 
BRANCH  29  30
ATOM     30  C   UNL A   1      35.927  33.585  31.133  1.00  0.00     0.261 C 
BRANCH  30  31
ATOM     31  O   UNL A   1      36.960  32.728  30.617  1.00  0.00    -0.460 OA
BRANCH  31  32
ATOM     32  C   UNL A   1      36.945  31.447  31.061  1.00  0.00     0.338 C 
ATOM     33  O   UNL A   1      36.039  30.897  31.675  1.00  0.00    -0.246 OA
BRANCH  32  34
ATOM     34  C   UNL A   1      38.112  30.714  30.523  1.00  0.00     0.060 A 
ATOM     35  C   UNL A   1      39.043  30.176  31.425  1.00  0.00     0.016 A 
ATOM     36  C   UNL A   1      38.317  30.586  29.149  1.00  0.00     0.016 A 
ATOM     37  C   UNL A   1      40.183  29.521  30.961  1.00  0.00     0.010 A 
ATOM     38  C   UNL A   1      39.482  29.960  28.684  1.00  0.00     0.010 A 
ATOM     39  C   UNL A   1      40.432  29.446  29.587  1.00  0.00    -0.014 A 
BRANCH  39  40
ATOM     40  C   UNL A   1      41.762  28.990  29.107  1.00  0.00     0.031 A 
ATOM     41  C   UNL A   1      42.887  29.991  29.054  1.00  0.00     0.074 A 
ATOM     42  C   UNL A   1      41.979  27.711  28.750  1.00  0.00     0.049 A 
ATOM     43  N   UNL A   1      44.107  29.843  28.608  1.00  0.00    -0.248 NA
ATOM     44  C   UNL A   1      42.597  31.340  29.573  1.00  0.00     0.031 C 
ATOM     45  C   UNL A   1      40.996  26.630  28.823  1.00  0.00     0.029 A 
ATOM     46  N   UNL A   1      43.104  27.106  28.243  1.00  0.00    -0.354 N 
ATOM     47  C   UNL A   1      44.721  31.079  28.771  1.00  0.00     0.074 A 
ATOM     48  C   UNL A   1      43.739  31.971  29.345  1.00  0.00     0.031 C 
ATOM     49  C   UNL A   1      41.556  25.498  28.359  1.00  0.00     0.029 A 
ATOM     50  C   UNL A   1      42.923  25.781  27.922  1.00  0.00     0.049 A 
ATOM     51  H   UNL A   1      43.960  27.577  28.122  1.00  0.00     0.167 HD
ATOM     52  C   UNL A   1      45.991  31.439  28.467  1.00  0.00     0.031 A 
ATOM     53  C   UNL A   1      43.753  24.906  27.315  1.00  0.00     0.031 A 
ATOM     54  C   UNL A   1      46.969  30.547  27.903  1.00  0.00     0.049 A 
ATOM     55  C   UNL A   1      45.137  25.359  26.915  1.00  0.00     0.074 A 
ATOM     56  C   UNL A   1      48.290  30.814  27.589  1.00  0.00     0.029 A 
ATOM     57  N   UNL A   1      46.736  29.224  27.562  1.00  0.00    -0.354 N 
ATOM     58  N   UNL A   1      45.714  26.523  27.103  1.00  0.00    -0.248 NA
ATOM     59  C   UNL A   1      45.986  24.377  26.225  1.00  0.00     0.031 C 
ATOM     60  C   UNL A   1      48.836  29.675  26.991  1.00  0.00     0.029 A 
ATOM     61  C   UNL A   1      47.877  28.674  27.003  1.00  0.00     0.049 A 
ATOM     62  H   UNL A   1      45.886  28.746  27.696  1.00  0.00     0.167 HD
ATOM     63  C   UNL A   1      47.002  26.396  26.590  1.00  0.00     0.074 A 
ATOM     64  C   UNL A   1      47.126  25.042  26.099  1.00  0.00     0.031 C 
ATOM     65  C   UNL A   1      47.994  27.319  26.531  1.00  0.00     0.031 A 
BRANCH  52  66
ATOM     66  C   UNL A   1      46.398  32.870  28.692  1.00  0.00    -0.014 A 
ATOM     67  C   UNL A   1      46.218  33.851  27.702  1.00  0.00     0.010 A 
ATOM     68  C   UNL A   1      46.876  33.253  29.960  1.00  0.00     0.010 A 
ATOM     69  C   UNL A   1      46.516  35.189  27.974  1.00  0.00     0.020 A 
ATOM     70  C   UNL A   1      47.148  34.594  30.244  1.00  0.00     0.020 A 
ATOM     71  C   UNL A   1      46.969  35.554  29.246  1.00  0.00     0.054 A 
BRANCH  71  72
ATOM     72  S   UNL A   1      47.269  37.309  29.594  1.00  0.00     0.124 S 
ATOM     73  O   UNL A   1      46.355  37.556  30.706  1.00  0.00    -0.237 OA
ATOM     74  O   UNL A   1      48.689  37.328  29.933  1.00  0.00    -0.237 OA
ATOM     75  O   UNL A   1      46.921  37.977  28.342  1.00  0.00    -0.744 OA
ENDBRANCH  71  72
ENDBRANCH  52  66
BRANCH  53  76
ATOM     76  C   UNL A   1      43.294  23.524  26.990  1.00  0.00    -0.014 A 
ATOM     77  C   UNL A   1      42.863  22.645  28.001  1.00  0.00     0.010 A 
ATOM     78  C   UNL A   1      43.356  23.055  25.665  1.00  0.00     0.010 A 
ATOM     79  C   UNL A   1      42.550  21.315  27.700  1.00  0.00     0.020 A 
ATOM     80  C   UNL A   1      43.009  21.737  25.354  1.00  0.00     0.020 A 
ATOM     81  C   UNL A   1      42.631  20.868  26.378  1.00  0.00     0.054 A 
BRANCH  81  82
ATOM     82  S   UNL A   1      42.229  19.138  26.009  1.00  0.00     0.124 S 
ATOM     83  O   UNL A   1      43.022  18.892  24.809  1.00  0.00    -0.237 OA
ATOM     84  O   UNL A   1      42.673  18.444  27.216  1.00  0.00    -0.237 OA
ATOM     85  O   UNL A   1      40.782  19.159  25.809  1.00  0.00    -0.744 OA
ENDBRANCH  81  82
ENDBRANCH  53  76
BRANCH  65  86
ATOM     86  C   UNL A   1      49.324  26.888  25.965  1.00  0.00    -0.014 A 
ATOM     87  C   UNL A   1      49.670  27.138  24.625  1.00  0.00     0.010 A 
ATOM     88  C   UNL A   1      50.269  26.277  26.810  1.00  0.00     0.010 A 
ATOM     89  C   UNL A   1      50.921  26.753  24.133  1.00  0.00     0.020 A 
ATOM     90  C   UNL A   1      51.533  25.921  26.332  1.00  0.00     0.020 A 
ATOM     91  C   UNL A   1      51.845  26.149  24.991  1.00  0.00     0.054 A 
BRANCH  91  92
ATOM     92  S   UNL A   1      53.478  25.700  24.339  1.00  0.00     0.124 S 
ATOM     93  O   UNL A   1      54.348  26.662  25.010  1.00  0.00    -0.237 OA
ATOM     94  O   UNL A   1      53.624  24.312  24.769  1.00  0.00    -0.237 OA
ATOM     95  O   UNL A   1      53.340  25.888  22.896  1.00  0.00    -0.744 OA
ENDBRANCH  91  92
ENDBRANCH  65  86
ENDBRANCH  39  40
ENDBRANCH  32  34
ENDBRANCH  31  32
ENDBRANCH  30  31
ENDBRANCH  29  30
ENDBRANCH  28  29
ENDBRANCH  27  28
ENDBRANCH   1  27
TORSDOF 23
ENDMDL
MODEL 3
REMARK VINA RESULT:      -8.8      1.418      2.070
REMARK SMILES C[C@@H](c1ccccn1)S(=O)(=O)N1CC[NH2+]C[C@@H]1C(=O)OCCOCCOCCOC(=O)c1ccc(-c2c3nc(c(-c4ccc(S(=O)(=O)[O-])cc4)c4ccc([nH]4)c(-c4ccc(S(=O)(=O)[O-])cc4)c4nc(c(-c5ccc(S(=O)(=O)[O-])cc5)c5ccc2[nH]5)C=C4)C=C3)cc1
REMARK SMILES IDX 24 1 23 2 22 3 21 4 20 5 18 6 19 7 17 8 12 9 13 10 14 11
REMARK SMILES IDX 16 12 15 13 9 16 10 17 11 18 2 19 1 20 3 21 4 22 8 23 5 24
REMARK SMILES IDX 7 25 6 26 25 27 26 28 27 29 28 30 29 31 30 32 31 33 32 34
REMARK SMILES IDX 33 35 91 36 34 37 90 38 35 39 36 40 37 41 84 42 38 43 89 44
REMARK SMILES IDX 83 45 85 46 39 47 88 48 82 49 81 50 40 52 70 53 51 54 69 55
REMARK SMILES IDX 52 56 55 57 68 58 86 59 53 60 54 61 67 63 87 64 56 65 41 66
REMARK SMILES IDX 42 67 50 68 43 69 49 70 44 71 45 72 46 73 47 74 48 75 71 76
REMARK SMILES IDX 72 77 80 78 73 79 79 80 74 81 75 82 76 83 77 84 78 85 57 86
REMARK SMILES IDX 58 87 66 88 59 89 65 90 60 91 61 92 62 93 63 94 64 95
REMARK H PARENT 15 14 15 15 85 51 55 62
REMARK Flexibility Score: inf
ROOT
ATOM      1  C   UNL A   1      34.708  32.647  28.052  1.00  0.00     0.188 C 
ENDROOT
BRANCH   1   2
ATOM      2  O   UNL A   1      33.693  31.659  28.021  1.00  0.00    -0.376 OA
BRANCH   2   3
ATOM      3  C   UNL A   1      34.002  30.472  27.306  1.00  0.00     0.202 C 
BRANCH   3   4
ATOM      4  C   UNL A   1      32.876  29.431  27.144  1.00  0.00     0.261 C 
BRANCH   4   5
ATOM      5  O   UNL A   1      33.072  28.415  26.131  1.00  0.00    -0.462 OA
BRANCH   5   6
ATOM      6  C   UNL A   1      31.968  28.032  25.433  1.00  0.00     0.330 C 
ATOM      7  O   UNL A   1      31.489  28.733  24.545  1.00  0.00    -0.250 OA
BRANCH   6   8
ATOM      8  C   UNL A   1      31.424  26.632  25.875  1.00  0.00     0.237 C 
ATOM      9  N   UNL A   1      32.374  25.474  25.617  1.00  0.00    -0.176 NA
ATOM     10  C   UNL A   1      32.664  25.487  24.101  1.00  0.00     0.164 C 
ATOM     11  C   UNL A   1      31.360  25.500  23.242  1.00  0.00     0.277 C 
ATOM     12  C   UNL A   1      30.103  26.433  25.117  1.00  0.00     0.293 C 
ATOM     13  N   UNL A   1      30.277  26.428  23.651  1.00  0.00    -0.343 N 
ATOM     14  H   UNL A   1      29.404  26.136  23.213  1.00  0.00     0.346 HD
ATOM     15  H   UNL A   1      30.531  27.371  23.353  1.00  0.00     0.346 HD
BRANCH   9  16
ATOM     16  S   UNL A   1      32.038  23.842  26.054  1.00  0.00     0.223 S 
ATOM     17  O   UNL A   1      31.120  23.406  25.014  1.00  0.00    -0.211 OA
ATOM     18  O   UNL A   1      31.557  23.846  27.420  1.00  0.00    -0.211 OA
BRANCH  16  19
ATOM     19  C   UNL A   1      33.427  22.678  25.989  1.00  0.00     0.170 C 
ATOM     20  C   UNL A   1      34.143  22.463  27.315  1.00  0.00     0.033 C 
BRANCH  19  21
ATOM     21  C   UNL A   1      33.090  21.467  25.175  1.00  0.00     0.060 A 
ATOM     22  C   UNL A   1      33.071  20.182  25.703  1.00  0.00     0.025 A 
ATOM     23  N   UNL A   1      32.834  21.689  23.860  1.00  0.00    -0.260 NA
ATOM     24  C   UNL A   1      32.666  19.125  24.890  1.00  0.00     0.004 A 
ATOM     25  C   UNL A   1      32.472  20.650  23.083  1.00  0.00     0.111 A 
ATOM     26  C   UNL A   1      32.349  19.362  23.558  1.00  0.00     0.020 A 
ENDBRANCH  19  21
ENDBRANCH  16  19
ENDBRANCH   9  16
ENDBRANCH   6   8
ENDBRANCH   5   6
ENDBRANCH   4   5
ENDBRANCH   3   4
ENDBRANCH   2   3
ENDBRANCH   1   2
BRANCH   1  27
ATOM     27  C   UNL A   1      34.367  33.852  28.955  1.00  0.00     0.188 C 
BRANCH  27  28
ATOM     28  O   UNL A   1      34.373  33.708  30.370  1.00  0.00    -0.376 OA
BRANCH  28  29
ATOM     29  C   UNL A   1      35.563  33.276  31.015  1.00  0.00     0.202 C 
BRANCH  29  30
ATOM     30  C   UNL A   1      35.573  32.020  31.912  1.00  0.00     0.261 C 
BRANCH  30  31
ATOM     31  O   UNL A   1      36.856  31.455  32.230  1.00  0.00    -0.460 OA
BRANCH  31  32
ATOM     32  C   UNL A   1      37.109  30.228  31.710  1.00  0.00     0.338 C 
ATOM     33  O   UNL A   1      36.299  29.326  31.537  1.00  0.00    -0.246 OA
BRANCH  32  34
ATOM     34  C   UNL A   1      38.489  30.181  31.178  1.00  0.00     0.060 A 
ATOM     35  C   UNL A   1      38.709  30.559  29.844  1.00  0.00     0.016 A 
ATOM     36  C   UNL A   1      39.553  29.735  31.962  1.00  0.00     0.016 A 
ATOM     37  C   UNL A   1      39.985  30.482  29.287  1.00  0.00     0.010 A 
ATOM     38  C   UNL A   1      40.828  29.623  31.390  1.00  0.00     0.010 A 
ATOM     39  C   UNL A   1      41.046  29.973  30.044  1.00  0.00    -0.014 A 
BRANCH  39  40
ATOM     40  C   UNL A   1      42.330  29.644  29.375  1.00  0.00     0.031 A 
ATOM     41  C   UNL A   1      42.509  28.261  28.804  1.00  0.00     0.074 A 
ATOM     42  C   UNL A   1      43.311  30.557  29.250  1.00  0.00     0.049 A 
ATOM     43  N   UNL A   1      43.562  27.726  28.242  1.00  0.00    -0.248 NA
ATOM     44  C   UNL A   1      41.345  27.360  28.879  1.00  0.00     0.031 C 
ATOM     45  C   UNL A   1      43.237  31.949  29.695  1.00  0.00     0.029 A 
ATOM     46  N   UNL A   1      44.573  30.443  28.718  1.00  0.00    -0.354 N 
ATOM     47  C   UNL A   1      43.195  26.425  27.916  1.00  0.00     0.074 A 
ATOM     48  C   UNL A   1      41.830  26.244  28.354  1.00  0.00     0.031 C 
ATOM     49  C   UNL A   1      44.410  32.554  29.432  1.00  0.00     0.029 A 
ATOM     50  C   UNL A   1      45.329  31.585  28.838  1.00  0.00     0.049 A 
ATOM     51  H   UNL A   1      44.904  29.621  28.289  1.00  0.00     0.167 HD
ATOM     52  C   UNL A   1      43.934  25.467  27.310  1.00  0.00     0.031 A 
ATOM     53  C   UNL A   1      46.624  31.813  28.532  1.00  0.00     0.031 A 
ATOM     54  C   UNL A   1      45.291  25.652  26.868  1.00  0.00     0.049 A 
ATOM     55  C   UNL A   1      47.446  30.699  27.928  1.00  0.00     0.074 A 
ATOM     56  C   UNL A   1      46.110  24.747  26.215  1.00  0.00     0.029 A 
ATOM     57  N   UNL A   1      46.032  26.811  27.038  1.00  0.00    -0.354 N 
ATOM     58  N   UNL A   1      47.078  29.483  27.598  1.00  0.00    -0.248 NA
ATOM     59  C   UNL A   1      48.861  30.991  27.649  1.00  0.00     0.031 C 
ATOM     60  C   UNL A   1      47.368  25.332  26.056  1.00  0.00     0.029 A 
ATOM     61  C   UNL A   1      47.310  26.630  26.539  1.00  0.00     0.049 A 
ATOM     62  H   UNL A   1      45.698  27.639  27.452  1.00  0.00     0.167 HD
ATOM     63  C   UNL A   1      48.204  28.884  27.039  1.00  0.00     0.074 A 
ATOM     64  C   UNL A   1      49.259  29.872  27.061  1.00  0.00     0.031 C 
ATOM     65  C   UNL A   1      48.350  27.626  26.552  1.00  0.00     0.031 A 
BRANCH  52  66
ATOM     66  C   UNL A   1      43.317  24.108  27.118  1.00  0.00    -0.014 A 
ATOM     67  C   UNL A   1      43.105  23.236  28.200  1.00  0.00     0.010 A 
ATOM     68  C   UNL A   1      42.849  23.743  25.841  1.00  0.00     0.010 A 
ATOM     69  C   UNL A   1      42.441  22.021  28.007  1.00  0.00     0.020 A 
ATOM     70  C   UNL A   1      42.161  22.542  25.650  1.00  0.00     0.020 A 
ATOM     71  C   UNL A   1      41.965  21.686  26.736  1.00  0.00     0.054 A 
BRANCH  71  72
ATOM     72  S   UNL A   1      41.036  20.141  26.533  1.00  0.00     0.124 S 
ATOM     73  O   UNL A   1      41.930  19.361  25.681  1.00  0.00    -0.237 OA
ATOM     74  O   UNL A   1      40.906  19.665  27.907  1.00  0.00    -0.237 OA
ATOM     75  O   UNL A   1      39.788  20.565  25.901  1.00  0.00    -0.744 OA
ENDBRANCH  71  72
ENDBRANCH  52  66
BRANCH  53  76
ATOM     76  C   UNL A   1      47.257  33.130  28.836  1.00  0.00    -0.014 A 
ATOM     77  C   UNL A   1      48.081  33.296  29.965  1.00  0.00     0.010 A 
ATOM     78  C   UNL A   1      46.978  34.249  28.030  1.00  0.00     0.010 A 
ATOM     79  C   UNL A   1      48.571  34.561  30.307  1.00  0.00     0.020 A 
ATOM     80  C   UNL A   1      47.495  35.508  28.347  1.00  0.00     0.020 A 
ATOM     81  C   UNL A   1      48.269  35.660  29.499  1.00  0.00     0.054 A 
BRANCH  81  82
ATOM     82  S   UNL A   1      48.907  37.294  29.963  1.00  0.00     0.124 S 
ATOM     83  O   UNL A   1      47.699  38.114  29.924  1.00  0.00    -0.237 OA
ATOM     84  O   UNL A   1      49.466  37.051  31.290  1.00  0.00    -0.237 OA
ATOM     85  O   UNL A   1      49.893  37.584  28.923  1.00  0.00    -0.744 OA
ENDBRANCH  81  82
ENDBRANCH  53  76
BRANCH  65  86
ATOM     86  C   UNL A   1      49.681  27.255  25.948  1.00  0.00    -0.014 A 
ATOM     87  C   UNL A   1      50.752  26.811  26.743  1.00  0.00     0.010 A 
ATOM     88  C   UNL A   1      49.840  27.294  24.550  1.00  0.00     0.010 A 
ATOM     89  C   UNL A   1      51.967  26.447  26.155  1.00  0.00     0.020 A 
ATOM     90  C   UNL A   1      51.041  26.898  23.955  1.00  0.00     0.020 A 
ATOM     91  C   UNL A   1      52.102  26.491  24.763  1.00  0.00     0.054 A 
BRANCH  91  92
ATOM     92  S   UNL A   1      53.674  25.969  24.022  1.00  0.00     0.124 S 
ATOM     93  O   UNL A   1      54.567  27.062  24.401  1.00  0.00    -0.237 OA
ATOM     94  O   UNL A   1      53.930  24.691  24.681  1.00  0.00    -0.237 OA
ATOM     95  O   UNL A   1      53.373  25.880  22.595  1.00  0.00    -0.744 OA
ENDBRANCH  91  92
ENDBRANCH  65  86
ENDBRANCH  39  40
ENDBRANCH  32  34
ENDBRANCH  31  32
ENDBRANCH  30  31
ENDBRANCH  29  30
ENDBRANCH  28  29
ENDBRANCH  27  28
ENDBRANCH   1  27
TORSDOF 23
ENDMDL
