MODEL 1
REMARK VINA RESULT:     -10.0      0.000      0.000
REMARK SMILES Cc1cc(OC(F)(F)F)cc2c1O[C@H](C(F)(F)F)C(C(=O)OCCOCCOCCOC(=O)c1ccc(-c3c4nc(c(-c5ccc(S(=O)(=O)[O-])cc5)c5ccc([nH]5)c(-c5ccc(S(=O)(=O)[O-])cc5)c5nc(c(-c6ccc(S(=O)(=O)[O-])cc6)c6ccc3[nH]6)C=C5)C=C4)cc1)=C2
REMARK SMILES IDX 27 1 26 2 25 3 24 4 23 5 22 6 20 7 21 8 19 9 1 10 2 11 3 12
REMARK SMILES IDX 12 13 4 14 11 15 13 16 10 17 94 18 14 19 5 20 6 21 7 22 8 23
REMARK SMILES IDX 9 24 15 25 16 26 17 27 18 28 28 29 29 30 30 31 31 32 32 33
REMARK SMILES IDX 33 34 34 35 35 36 93 37 36 38 92 39 37 40 38 41 39 42 86 43
REMARK SMILES IDX 40 44 91 45 85 46 87 47 41 48 90 49 84 50 83 51 42 53 72 54
REMARK SMILES IDX 53 55 71 56 54 57 57 58 70 59 88 60 55 61 56 62 69 64 89 65
REMARK SMILES IDX 58 66 43 67 44 68 52 69 45 70 51 71 46 72 47 73 48 74 49 75
REMARK SMILES IDX 50 76 73 77 74 78 82 79 75 80 81 81 76 82 77 83 78 84 79 85
REMARK SMILES IDX 80 86 59 87 60 88 68 89 61 90 67 91 62 92 63 93 64 94 65 95
REMARK SMILES IDX 66 96
REMARK H PARENT 87 52 57 63
REMARK Flexibility Score: inf
ROOT
ATOM      1  C   UNL A   1      34.765  33.149  29.140  1.00  0.00     0.188 C 
ENDROOT
BRANCH   1   2
ATOM      2  C   UNL A   1      33.794  32.842  27.978  1.00  0.00     0.188 C 
BRANCH   2   3
ATOM      3  O   UNL A   1      33.420  31.515  27.675  1.00  0.00    -0.376 OA
BRANCH   3   4
ATOM      4  C   UNL A   1      32.254  31.215  26.932  1.00  0.00     0.202 C 
BRANCH   4   5
ATOM      5  C   UNL A   1      32.229  30.192  25.791  1.00  0.00     0.261 C 
BRANCH   5   6
ATOM      6  O   UNL A   1      33.142  29.099  25.927  1.00  0.00    -0.460 OA
BRANCH   6   7
ATOM      7  C   UNL A   1      33.185  28.256  24.868  1.00  0.00     0.338 C 
ATOM      8  O   UNL A   1      33.530  28.527  23.729  1.00  0.00    -0.246 OA
BRANCH   7   9
ATOM      9  C   UNL A   1      32.838  26.893  25.308  1.00  0.00     0.087 C 
ATOM     10  C   UNL A   1      30.455  22.484  26.375  1.00  0.00     0.048 C 
ATOM     11  C   UNL A   1      31.883  22.938  26.253  1.00  0.00    -0.005 A 
ATOM     12  C   UNL A   1      32.915  21.984  26.311  1.00  0.00     0.054 A 
ATOM     13  C   UNL A   1      32.201  24.280  25.993  1.00  0.00     0.131 A 
ATOM     14  C   UNL A   1      34.248  22.362  26.144  1.00  0.00     0.130 A 
ATOM     15  C   UNL A   1      33.531  24.660  25.805  1.00  0.00     0.021 A 
ATOM     16  O   UNL A   1      31.156  25.159  25.927  1.00  0.00    -0.475 OA
ATOM     17  C   UNL A   1      34.549  23.705  25.906  1.00  0.00     0.058 A 
ATOM     18  C   UNL A   1      33.853  26.030  25.442  1.00  0.00     0.027 C 
ATOM     19  C   UNL A   1      31.400  26.544  25.567  1.00  0.00     0.316 C 
BRANCH  14  20
ATOM     20  O   UNL A   1      35.334  21.536  26.180  1.00  0.00    -0.406 OA
BRANCH  20  21
ATOM     21  C   UNL A   1      35.647  20.804  25.006  1.00  0.00     0.573 C 
ATOM     22  F   UNL A   1      34.565  20.138  24.548  1.00  0.00    -0.132 F 
ATOM     23  F   UNL A   1      36.113  21.620  24.035  1.00  0.00    -0.132 F 
ATOM     24  F   UNL A   1      36.610  19.902  25.293  1.00  0.00    -0.132 F 
ENDBRANCH  20  21
ENDBRANCH  14  20
BRANCH  19  25
ATOM     25  C   UNL A   1      30.485  26.894  24.385  1.00  0.00     0.430 C 
ATOM     26  F   UNL A   1      29.257  26.337  24.532  1.00  0.00    -0.167 F 
ATOM     27  F   UNL A   1      30.285  28.229  24.274  1.00  0.00    -0.167 F 
ATOM     28  F   UNL A   1      30.985  26.461  23.206  1.00  0.00    -0.167 F 
ENDBRANCH  19  25
ENDBRANCH   7   9
ENDBRANCH   6   7
ENDBRANCH   5   6
ENDBRANCH   4   5
ENDBRANCH   3   4
ENDBRANCH   2   3
ENDBRANCH   1   2
BRANCH   1  29
ATOM     29  O   UNL A   1      34.598  32.530  30.402  1.00  0.00    -0.376 OA
BRANCH  29  30
ATOM     30  C   UNL A   1      34.945  33.265  31.568  1.00  0.00     0.202 C 
BRANCH  30  31
ATOM     31  C   UNL A   1      36.369  33.173  32.125  1.00  0.00     0.261 C 
BRANCH  31  32
ATOM     32  O   UNL A   1      37.069  31.991  31.705  1.00  0.00    -0.460 OA
BRANCH  32  33
ATOM     33  C   UNL A   1      38.117  31.633  32.486  1.00  0.00     0.338 C 
ATOM     34  O   UNL A   1      38.206  31.730  33.697  1.00  0.00    -0.246 OA
BRANCH  33  35
ATOM     35  C   UNL A   1      39.110  30.915  31.668  1.00  0.00     0.060 A 
ATOM     36  C   UNL A   1      40.114  30.189  32.324  1.00  0.00     0.016 A 
ATOM     37  C   UNL A   1      39.097  31.021  30.277  1.00  0.00     0.016 A 
ATOM     38  C   UNL A   1      41.126  29.578  31.588  1.00  0.00     0.010 A 
ATOM     39  C   UNL A   1      40.137  30.445  29.543  1.00  0.00     0.010 A 
ATOM     40  C   UNL A   1      41.171  29.751  30.199  1.00  0.00    -0.014 A 
BRANCH  40  41
ATOM     41  C   UNL A   1      42.416  29.425  29.469  1.00  0.00     0.031 A 
ATOM     42  C   UNL A   1      42.557  28.039  28.901  1.00  0.00     0.074 A 
ATOM     43  C   UNL A   1      43.393  30.333  29.299  1.00  0.00     0.049 A 
ATOM     44  N   UNL A   1      43.570  27.504  28.273  1.00  0.00    -0.248 NA
ATOM     45  C   UNL A   1      41.400  27.139  29.059  1.00  0.00     0.031 C 
ATOM     46  C   UNL A   1      43.345  31.725  29.743  1.00  0.00     0.029 A 
ATOM     47  N   UNL A   1      44.624  30.209  28.705  1.00  0.00    -0.354 N 
ATOM     48  C   UNL A   1      43.172  26.211  27.956  1.00  0.00     0.074 A 
ATOM     49  C   UNL A   1      41.833  26.034  28.469  1.00  0.00     0.031 C 
ATOM     50  C   UNL A   1      44.505  32.324  29.417  1.00  0.00     0.029 A 
ATOM     51  C   UNL A   1      45.386  31.350  28.771  1.00  0.00     0.049 A 
ATOM     52  H   UNL A   1      44.932  29.380  28.273  1.00  0.00     0.167 HD
ATOM     53  C   UNL A   1      43.864  25.252  27.301  1.00  0.00     0.031 A 
ATOM     54  C   UNL A   1      46.656  31.574  28.379  1.00  0.00     0.031 A 
ATOM     55  C   UNL A   1      45.207  25.412  26.822  1.00  0.00     0.049 A 
ATOM     56  C   UNL A   1      47.445  30.457  27.747  1.00  0.00     0.074 A 
ATOM     57  C   UNL A   1      45.994  24.491  26.157  1.00  0.00     0.029 A 
ATOM     58  N   UNL A   1      45.965  26.562  26.967  1.00  0.00    -0.354 N 
ATOM     59  N   UNL A   1      47.058  29.237  27.461  1.00  0.00    -0.248 NA
ATOM     60  C   UNL A   1      48.844  30.745  27.393  1.00  0.00     0.031 C 
ATOM     61  C   UNL A   1      47.249  25.068  25.942  1.00  0.00     0.029 A 
ATOM     62  C   UNL A   1      47.222  26.366  26.428  1.00  0.00     0.049 A 
ATOM     63  H   UNL A   1      45.654  27.395  27.392  1.00  0.00     0.167 HD
ATOM     64  C   UNL A   1      48.160  28.616  26.880  1.00  0.00     0.074 A 
ATOM     65  C   UNL A   1      49.226  29.595  26.849  1.00  0.00     0.031 C 
ATOM     66  C   UNL A   1      48.274  27.349  26.412  1.00  0.00     0.031 A 
BRANCH  53  67
ATOM     67  C   UNL A   1      43.189  23.928  27.093  1.00  0.00    -0.014 A 
ATOM     68  C   UNL A   1      43.192  22.953  28.105  1.00  0.00     0.010 A 
ATOM     69  C   UNL A   1      42.493  23.682  25.896  1.00  0.00     0.010 A 
ATOM     70  C   UNL A   1      42.512  21.746  27.919  1.00  0.00     0.020 A 
ATOM     71  C   UNL A   1      41.799  22.484  25.714  1.00  0.00     0.020 A 
ATOM     72  C   UNL A   1      41.814  21.524  26.728  1.00  0.00     0.054 A 
BRANCH  72  73
ATOM     73  S   UNL A   1      40.910  19.963  26.536  1.00  0.00     0.124 S 
ATOM     74  O   UNL A   1      41.804  19.196  25.672  1.00  0.00    -0.237 OA
ATOM     75  O   UNL A   1      40.807  19.489  27.914  1.00  0.00    -0.237 OA
ATOM     76  O   UNL A   1      39.648  20.364  25.920  1.00  0.00    -0.744 OA
ENDBRANCH  72  73
ENDBRANCH  53  67
BRANCH  54  77
ATOM     77  C   UNL A   1      47.271  32.909  28.602  1.00  0.00    -0.014 A 
ATOM     78  C   UNL A   1      47.178  33.911  27.621  1.00  0.00     0.010 A 
ATOM     79  C   UNL A   1      47.937  33.190  29.809  1.00  0.00     0.010 A 
ATOM     80  C   UNL A   1      47.733  35.174  27.847  1.00  0.00     0.020 A 
ATOM     81  C   UNL A   1      48.477  34.457  30.046  1.00  0.00     0.020 A 
ATOM     82  C   UNL A   1      48.369  35.443  29.063  1.00  0.00     0.054 A 
BRANCH  82  83
ATOM     83  S   UNL A   1      49.028  37.109  29.350  1.00  0.00     0.124 S 
ATOM     84  O   UNL A   1      49.563  37.000  30.704  1.00  0.00    -0.237 OA
ATOM     85  O   UNL A   1      50.020  37.234  28.285  1.00  0.00    -0.237 OA
ATOM     86  O   UNL A   1      47.858  37.973  29.209  1.00  0.00    -0.744 OA
ENDBRANCH  82  83
ENDBRANCH  54  77
BRANCH  66  87
ATOM     87  C   UNL A   1      49.587  26.931  25.811  1.00  0.00    -0.014 A 
ATOM     88  C   UNL A   1      49.889  27.217  24.470  1.00  0.00     0.010 A 
ATOM     89  C   UNL A   1      50.576  26.359  26.634  1.00  0.00     0.010 A 
ATOM     90  C   UNL A   1      51.160  26.937  23.960  1.00  0.00     0.020 A 
ATOM     91  C   UNL A   1      51.853  26.095  26.133  1.00  0.00     0.020 A 
ATOM     92  C   UNL A   1      52.137  26.388  24.797  1.00  0.00     0.054 A 
BRANCH  92  93
ATOM     93  S   UNL A   1      53.795  26.099  24.121  1.00  0.00     0.124 S 
ATOM     94  O   UNL A   1      53.532  26.014  22.687  1.00  0.00    -0.237 OA
ATOM     95  O   UNL A   1      54.523  27.288  24.557  1.00  0.00    -0.237 OA
ATOM     96  O   UNL A   1      54.215  24.849  24.751  1.00  0.00    -0.744 OA
ENDBRANCH  92  93
ENDBRANCH  66  87
ENDBRANCH  40  41
ENDBRANCH  33  35
ENDBRANCH  32  33
ENDBRANCH  31  32
ENDBRANCH  30  31
ENDBRANCH  29  30
ENDBRANCH   1  29
TORSDOF 23
ENDMDL
MODEL 2
REMARK VINA RESULT:      -9.6      7.022     13.694
REMARK SMILES Cc1cc(OC(F)(F)F)cc2c1O[C@H](C(F)(F)F)C(C(=O)OCCOCCOCCOC(=O)c1ccc(-c3c4nc(c(-c5ccc(S(=O)(=O)[O-])cc5)c5ccc([nH]5)c(-c5ccc(S(=O)(=O)[O-])cc5)c5nc(c(-c6ccc(S(=O)(=O)[O-])cc6)c6ccc3[nH]6)C=C5)C=C4)cc1)=C2
REMARK SMILES IDX 27 1 26 2 25 3 24 4 23 5 22 6 20 7 21 8 19 9 1 10 2 11 3 12
REMARK SMILES IDX 12 13 4 14 11 15 13 16 10 17 94 18 14 19 5 20 6 21 7 22 8 23
REMARK SMILES IDX 9 24 15 25 16 26 17 27 18 28 28 29 29 30 30 31 31 32 32 33
REMARK SMILES IDX 33 34 34 35 35 36 93 37 36 38 92 39 37 40 38 41 39 42 86 43
REMARK SMILES IDX 40 44 91 45 85 46 87 47 41 48 90 49 84 50 83 51 42 53 72 54
REMARK SMILES IDX 53 55 71 56 54 57 57 58 70 59 88 60 55 61 56 62 69 64 89 65
REMARK SMILES IDX 58 66 43 67 44 68 52 69 45 70 51 71 46 72 47 73 48 74 49 75
REMARK SMILES IDX 50 76 73 77 74 78 82 79 75 80 81 81 76 82 77 83 78 84 79 85
REMARK SMILES IDX 80 86 59 87 60 88 68 89 61 90 67 91 62 92 63 93 64 94 65 95
REMARK SMILES IDX 66 96
REMARK H PARENT 87 52 57 63
REMARK Flexibility Score: inf
ROOT
ATOM      1  C   UNL A   1      42.327  19.935  26.087  1.00  0.00     0.188 C 
ENDROOT
BRANCH   1   2
ATOM      2  C   UNL A   1      43.287  18.942  25.393  1.00  0.00     0.188 C 
BRANCH   2   3
ATOM      3  O   UNL A   1      44.033  19.326  24.257  1.00  0.00    -0.376 OA
BRANCH   3   4
ATOM      4  C   UNL A   1      45.426  19.563  24.320  1.00  0.00     0.202 C 
BRANCH   4   5
ATOM      5  C   UNL A   1      46.042  20.963  24.222  1.00  0.00     0.261 C 
BRANCH   5   6
ATOM      6  O   UNL A   1      46.144  21.676  25.459  1.00  0.00    -0.460 OA
BRANCH   6   7
ATOM      7  C   UNL A   1      45.604  22.918  25.448  1.00  0.00     0.338 C 
ATOM      8  O   UNL A   1      44.863  23.387  24.599  1.00  0.00    -0.246 OA
BRANCH   7   9
ATOM      9  C   UNL A   1      45.966  23.623  26.690  1.00  0.00     0.087 C 
ATOM     10  C   UNL A   1      47.900  26.833  30.185  1.00  0.00     0.048 C 
ATOM     11  C   UNL A   1      46.772  25.840  30.137  1.00  0.00    -0.005 A 
ATOM     12  C   UNL A   1      45.878  25.763  31.221  1.00  0.00     0.054 A 
ATOM     13  C   UNL A   1      46.540  25.055  28.997  1.00  0.00     0.131 A 
ATOM     14  C   UNL A   1      44.786  24.895  31.186  1.00  0.00     0.130 A 
ATOM     15  C   UNL A   1      45.438  24.199  28.949  1.00  0.00     0.021 A 
ATOM     16  O   UNL A   1      47.430  25.187  27.967  1.00  0.00    -0.475 OA
ATOM     17  C   UNL A   1      44.581  24.105  30.051  1.00  0.00     0.058 A 
ATOM     18  C   UNL A   1      45.144  23.458  27.733  1.00  0.00     0.027 C 
ATOM     19  C   UNL A   1      47.200  24.480  26.721  1.00  0.00     0.316 C 
BRANCH  14  20
ATOM     20  O   UNL A   1      43.853  24.727  32.168  1.00  0.00    -0.406 OA
BRANCH  20  21
ATOM     21  C   UNL A   1      44.140  23.795  33.199  1.00  0.00     0.573 C 
ATOM     22  F   UNL A   1      45.401  23.326  33.090  1.00  0.00    -0.132 F 
ATOM     23  F   UNL A   1      43.976  24.355  34.418  1.00  0.00    -0.132 F 
ATOM     24  F   UNL A   1      43.288  22.752  33.100  1.00  0.00    -0.132 F 
ENDBRANCH  20  21
ENDBRANCH  14  20
BRANCH  19  25
ATOM     25  C   UNL A   1      47.235  25.506  25.580  1.00  0.00     0.430 C 
ATOM     26  F   UNL A   1      48.092  26.521  25.858  1.00  0.00    -0.167 F 
ATOM     27  F   UNL A   1      47.660  24.959  24.416  1.00  0.00    -0.167 F 
ATOM     28  F   UNL A   1      46.022  26.055  25.350  1.00  0.00    -0.167 F 
ENDBRANCH  19  25
ENDBRANCH   7   9
ENDBRANCH   6   7
ENDBRANCH   5   6
ENDBRANCH   4   5
ENDBRANCH   3   4
ENDBRANCH   2   3
ENDBRANCH   1   2
BRANCH   1  29
ATOM     29  O   UNL A   1      42.730  21.269  26.341  1.00  0.00    -0.376 OA
BRANCH  29  30
ATOM     30  C   UNL A   1      41.847  22.322  25.982  1.00  0.00     0.202 C 
BRANCH  30  31
ATOM     31  C   UNL A   1      41.582  23.460  26.974  1.00  0.00     0.261 C 
BRANCH  31  32
ATOM     32  O   UNL A   1      40.867  24.563  26.395  1.00  0.00    -0.460 OA
BRANCH  32  33
ATOM     33  C   UNL A   1      41.550  25.733  26.351  1.00  0.00     0.338 C 
ATOM     34  O   UNL A   1      41.956  26.316  25.362  1.00  0.00    -0.246 OA
BRANCH  33  35
ATOM     35  C   UNL A   1      41.584  26.327  27.698  1.00  0.00     0.060 A 
ATOM     36  C   UNL A   1      40.463  26.168  28.525  1.00  0.00     0.016 A 
ATOM     37  C   UNL A   1      42.673  27.094  28.111  1.00  0.00     0.016 A 
ATOM     38  C   UNL A   1      40.419  26.796  29.768  1.00  0.00     0.010 A 
ATOM     39  C   UNL A   1      42.609  27.760  29.339  1.00  0.00     0.010 A 
ATOM     40  C   UNL A   1      41.469  27.639  30.153  1.00  0.00    -0.014 A 
BRANCH  40  41
ATOM     41  C   UNL A   1      41.266  28.578  31.279  1.00  0.00     0.031 A 
ATOM     42  C   UNL A   1      40.172  29.603  31.152  1.00  0.00     0.074 A 
ATOM     43  C   UNL A   1      42.020  28.521  32.390  1.00  0.00     0.049 A 
ATOM     44  N   UNL A   1      39.840  30.561  31.976  1.00  0.00    -0.248 NA
ATOM     45  C   UNL A   1      39.340  29.535  29.937  1.00  0.00     0.031 C 
ATOM     46  C   UNL A   1      43.064  27.533  32.659  1.00  0.00     0.029 A 
ATOM     47  N   UNL A   1      42.019  29.323  33.504  1.00  0.00    -0.354 N 
ATOM     48  C   UNL A   1      38.760  31.204  31.384  1.00  0.00     0.074 A 
ATOM     49  C   UNL A   1      38.498  30.539  30.128  1.00  0.00     0.031 C 
ATOM     50  C   UNL A   1      43.614  27.797  33.858  1.00  0.00     0.029 A 
ATOM     51  C   UNL A   1      42.983  28.990  34.424  1.00  0.00     0.049 A 
ATOM     52  H   UNL A   1      41.388  30.068  33.630  1.00  0.00     0.167 HD
ATOM     53  C   UNL A   1      38.052  32.260  31.843  1.00  0.00     0.031 A 
ATOM     54  C   UNL A   1      43.331  29.594  35.579  1.00  0.00     0.031 A 
ATOM     55  C   UNL A   1      38.332  32.945  33.073  1.00  0.00     0.049 A 
ATOM     56  C   UNL A   1      42.598  30.834  36.018  1.00  0.00     0.074 A 
ATOM     57  C   UNL A   1      37.676  34.035  33.616  1.00  0.00     0.029 A 
ATOM     58  N   UNL A   1      39.358  32.616  33.944  1.00  0.00    -0.354 N 
ATOM     59  N   UNL A   1      41.584  31.436  35.444  1.00  0.00    -0.248 NA
ATOM     60  C   UNL A   1      43.061  31.482  37.255  1.00  0.00     0.031 C 
ATOM     61  C   UNL A   1      38.336  34.396  34.793  1.00  0.00     0.029 A 
ATOM     62  C   UNL A   1      39.371  33.498  35.008  1.00  0.00     0.049 A 
ATOM     63  H   UNL A   1      39.984  31.865  33.822  1.00  0.00     0.167 HD
ATOM     64  C   UNL A   1      41.278  32.524  36.257  1.00  0.00     0.074 A 
ATOM     65  C   UNL A   1      42.209  32.493  37.366  1.00  0.00     0.031 C 
ATOM     66  C   UNL A   1      40.309  33.458  36.099  1.00  0.00     0.031 A 
BRANCH  53  67
ATOM     67  C   UNL A   1      36.922  32.762  30.993  1.00  0.00    -0.014 A 
ATOM     68  C   UNL A   1      35.597  32.378  31.259  1.00  0.00     0.010 A 
ATOM     69  C   UNL A   1      37.184  33.675  29.956  1.00  0.00     0.010 A 
ATOM     70  C   UNL A   1      34.549  32.897  30.494  1.00  0.00     0.020 A 
ATOM     71  C   UNL A   1      36.138  34.208  29.201  1.00  0.00     0.020 A 
ATOM     72  C   UNL A   1      34.826  33.814  29.475  1.00  0.00     0.054 A 
BRANCH  72  73
ATOM     73  S   UNL A   1      33.438  34.498  28.529  1.00  0.00     0.124 S 
ATOM     74  O   UNL A   1      34.092  35.531  27.730  1.00  0.00    -0.237 OA
ATOM     75  O   UNL A   1      32.963  33.334  27.785  1.00  0.00    -0.237 OA
ATOM     76  O   UNL A   1      32.526  34.995  29.557  1.00  0.00    -0.744 OA
ENDBRANCH  72  73
ENDBRANCH  53  67
BRANCH  54  77
ATOM     77  C   UNL A   1      44.453  29.047  36.386  1.00  0.00    -0.014 A 
ATOM     78  C   UNL A   1      45.738  29.612  36.299  1.00  0.00     0.010 A 
ATOM     79  C   UNL A   1      44.236  27.970  37.264  1.00  0.00     0.010 A 
ATOM     80  C   UNL A   1      46.783  29.113  37.082  1.00  0.00     0.020 A 
ATOM     81  C   UNL A   1      45.274  27.480  38.061  1.00  0.00     0.020 A 
ATOM     82  C   UNL A   1      46.542  28.057  37.966  1.00  0.00     0.054 A 
BRANCH  82  83
ATOM     83  S   UNL A   1      47.904  27.470  39.011  1.00  0.00     0.124 S 
ATOM     84  O   UNL A   1      49.059  28.139  38.418  1.00  0.00    -0.237 OA
ATOM     85  O   UNL A   1      47.505  27.948  40.332  1.00  0.00    -0.237 OA
ATOM     86  O   UNL A   1      47.869  26.019  38.841  1.00  0.00    -0.744 OA
ENDBRANCH  82  83
ENDBRANCH  54  77
BRANCH  66  87
ATOM     87  C   UNL A   1      40.182  34.531  37.145  1.00  0.00    -0.014 A 
ATOM     88  C   UNL A   1      39.392  34.332  38.289  1.00  0.00     0.010 A 
ATOM     89  C   UNL A   1      40.962  35.698  37.040  1.00  0.00     0.010 A 
ATOM     90  C   UNL A   1      39.384  35.283  39.313  1.00  0.00     0.020 A 
ATOM     91  C   UNL A   1      40.971  36.642  38.070  1.00  0.00     0.020 A 
ATOM     92  C   UNL A   1      40.182  36.427  39.201  1.00  0.00     0.054 A 
BRANCH  92  93
ATOM     93  S   UNL A   1      40.198  37.609  40.576  1.00  0.00     0.124 S 
ATOM     94  O   UNL A   1      40.653  36.781  41.690  1.00  0.00    -0.237 OA
ATOM     95  O   UNL A   1      41.149  38.617  40.113  1.00  0.00    -0.237 OA
ATOM     96  O   UNL A   1      38.810  38.060  40.665  1.00  0.00    -0.744 OA
ENDBRANCH  92  93
ENDBRANCH  66  87
ENDBRANCH  40  41
ENDBRANCH  33  35
ENDBRANCH  32  33
ENDBRANCH  31  32
ENDBRANCH  30  31
ENDBRANCH  29  30
ENDBRANCH   1  29
TORSDOF 23
ENDMDL
MODEL 3
REMARK VINA RESULT:      -9.4      5.333      9.707
REMARK SMILES Cc1cc(OC(F)(F)F)cc2c1O[C@H](C(F)(F)F)C(C(=O)OCCOCCOCCOC(=O)c1ccc(-c3c4nc(c(-c5ccc(S(=O)(=O)[O-])cc5)c5ccc([nH]5)c(-c5ccc(S(=O)(=O)[O-])cc5)c5nc(c(-c6ccc(S(=O)(=O)[O-])cc6)c6ccc3[nH]6)C=C5)C=C4)cc1)=C2
REMARK SMILES IDX 27 1 26 2 25 3 24 4 23 5 22 6 20 7 21 8 19 9 1 10 2 11 3 12
REMARK SMILES IDX 12 13 4 14 11 15 13 16 10 17 94 18 14 19 5 20 6 21 7 22 8 23
REMARK SMILES IDX 9 24 15 25 16 26 17 27 18 28 28 29 29 30 30 31 31 32 32 33
REMARK SMILES IDX 33 34 34 35 35 36 93 37 36 38 92 39 37 40 38 41 39 42 86 43
REMARK SMILES IDX 40 44 91 45 85 46 87 47 41 48 90 49 84 50 83 51 42 53 72 54
REMARK SMILES IDX 53 55 71 56 54 57 57 58 70 59 88 60 55 61 56 62 69 64 89 65
REMARK SMILES IDX 58 66 43 67 44 68 52 69 45 70 51 71 46 72 47 73 48 74 49 75
REMARK SMILES IDX 50 76 73 77 74 78 82 79 75 80 81 81 76 82 77 83 78 84 79 85
REMARK SMILES IDX 80 86 59 87 60 88 68 89 61 90 67 91 62 92 63 93 64 94 65 95
REMARK SMILES IDX 66 96
REMARK H PARENT 87 52 57 63
REMARK Flexibility Score: inf
ROOT
ATOM      1  C   UNL A   1      35.154  33.942  28.305  1.00  0.00     0.188 C 
ENDROOT
BRANCH   1   2
ATOM      2  C   UNL A   1      35.525  32.503  28.726  1.00  0.00     0.188 C 
BRANCH   2   3
ATOM      3  O   UNL A   1      35.750  31.498  27.760  1.00  0.00    -0.376 OA
BRANCH   3   4
ATOM      4  C   UNL A   1      35.167  30.213  27.864  1.00  0.00     0.202 C 
BRANCH   4   5
ATOM      5  C   UNL A   1      34.295  29.598  26.764  1.00  0.00     0.261 C 
BRANCH   5   6
ATOM      6  O   UNL A   1      34.219  28.169  26.769  1.00  0.00    -0.460 OA
BRANCH   6   7
ATOM      7  C   UNL A   1      33.963  27.608  25.563  1.00  0.00     0.338 C 
ATOM      8  O   UNL A   1      34.247  28.064  24.467  1.00  0.00    -0.246 OA
BRANCH   7   9
ATOM      9  C   UNL A   1      33.358  26.278  25.757  1.00  0.00     0.087 C 
ATOM     10  C   UNL A   1      30.143  22.337  26.380  1.00  0.00     0.048 C 
ATOM     11  C   UNL A   1      31.588  22.503  25.994  1.00  0.00    -0.005 A 
ATOM     12  C   UNL A   1      32.316  21.381  25.561  1.00  0.00     0.054 A 
ATOM     13  C   UNL A   1      32.195  23.768  25.972  1.00  0.00     0.131 A 
ATOM     14  C   UNL A   1      33.641  21.507  25.139  1.00  0.00     0.130 A 
ATOM     15  C   UNL A   1      33.513  23.904  25.533  1.00  0.00     0.021 A 
ATOM     16  O   UNL A   1      31.432  24.825  26.385  1.00  0.00    -0.475 OA
ATOM     17  C   UNL A   1      34.237  22.771  25.142  1.00  0.00     0.058 A 
ATOM     18  C   UNL A   1      34.111  25.224  25.419  1.00  0.00     0.027 C 
ATOM     19  C   UNL A   1      31.961  26.173  26.298  1.00  0.00     0.316 C 
BRANCH  14  20
ATOM     20  O   UNL A   1      34.450  20.500  24.700  1.00  0.00    -0.406 OA
BRANCH  20  21
ATOM     21  C   UNL A   1      33.885  19.205  24.575  1.00  0.00     0.573 C 
ATOM     22  F   UNL A   1      32.939  19.181  23.613  1.00  0.00    -0.132 F 
ATOM     23  F   UNL A   1      34.835  18.287  24.290  1.00  0.00    -0.132 F 
ATOM     24  F   UNL A   1      33.309  18.861  25.747  1.00  0.00    -0.132 F 
ENDBRANCH  20  21
ENDBRANCH  14  20
BRANCH  19  25
ATOM     25  C   UNL A   1      30.957  27.027  25.510  1.00  0.00     0.430 C 
ATOM     26  F   UNL A   1      31.356  27.189  24.223  1.00  0.00    -0.167 F 
ATOM     27  F   UNL A   1      29.732  26.453  25.458  1.00  0.00    -0.167 F 
ATOM     28  F   UNL A   1      30.805  28.259  26.042  1.00  0.00    -0.167 F 
ENDBRANCH  19  25
ENDBRANCH   7   9
ENDBRANCH   6   7
ENDBRANCH   5   6
ENDBRANCH   4   5
ENDBRANCH   3   4
ENDBRANCH   2   3
ENDBRANCH   1   2
BRANCH   1  29
ATOM     29  O   UNL A   1      33.828  34.417  28.451  1.00  0.00    -0.376 OA
BRANCH  29  30
ATOM     30  C   UNL A   1      33.632  35.779  28.805  1.00  0.00     0.202 C 
BRANCH  30  31
ATOM     31  C   UNL A   1      32.769  36.129  30.022  1.00  0.00     0.261 C 
BRANCH  31  32
ATOM     32  O   UNL A   1      32.687  35.066  30.985  1.00  0.00    -0.460 OA
BRANCH  32  33
ATOM     33  C   UNL A   1      33.370  35.277  32.136  1.00  0.00     0.338 C 
ATOM     34  O   UNL A   1      32.990  35.884  33.122  1.00  0.00    -0.246 OA
BRANCH  33  35
ATOM     35  C   UNL A   1      34.617  34.493  32.112  1.00  0.00     0.060 A 
ATOM     36  C   UNL A   1      34.571  33.157  32.535  1.00  0.00     0.016 A 
ATOM     37  C   UNL A   1      35.826  35.088  31.753  1.00  0.00     0.016 A 
ATOM     38  C   UNL A   1      35.745  32.412  32.619  1.00  0.00     0.010 A 
ATOM     39  C   UNL A   1      37.008  34.354  31.879  1.00  0.00     0.010 A 
ATOM     40  C   UNL A   1      36.974  33.026  32.344  1.00  0.00    -0.014 A 
BRANCH  40  41
ATOM     41  C   UNL A   1      38.226  32.366  32.777  1.00  0.00     0.031 A 
ATOM     42  C   UNL A   1      38.707  32.622  34.180  1.00  0.00     0.074 A 
ATOM     43  C   UNL A   1      38.914  31.552  31.959  1.00  0.00     0.049 A 
ATOM     44  N   UNL A   1      39.796  32.202  34.767  1.00  0.00    -0.248 NA
ATOM     45  C   UNL A   1      37.842  33.456  35.034  1.00  0.00     0.031 C 
ATOM     46  C   UNL A   1      38.516  31.175  30.604  1.00  0.00     0.029 A 
ATOM     47  N   UNL A   1      40.104  30.898  32.157  1.00  0.00    -0.354 N 
ATOM     48  C   UNL A   1      39.745  32.715  36.058  1.00  0.00     0.074 A 
ATOM     49  C   UNL A   1      38.527  33.486  36.167  1.00  0.00     0.031 C 
ATOM     50  C   UNL A   1      39.455  30.364  30.085  1.00  0.00     0.029 A 
ATOM     51  C   UNL A   1      40.534  30.192  31.059  1.00  0.00     0.049 A 
ATOM     52  H   UNL A   1      40.603  30.932  33.004  1.00  0.00     0.167 HD
ATOM     53  C   UNL A   1      40.637  32.564  37.062  1.00  0.00     0.031 A 
ATOM     54  C   UNL A   1      41.679  29.508  30.857  1.00  0.00     0.031 A 
ATOM     55  C   UNL A   1      41.864  31.829  36.945  1.00  0.00     0.049 A 
ATOM     56  C   UNL A   1      42.707  29.442  31.954  1.00  0.00     0.074 A 
ATOM     57  C   UNL A   1      42.838  31.630  37.907  1.00  0.00     0.029 A 
ATOM     58  N   UNL A   1      42.291  31.184  35.797  1.00  0.00    -0.354 N 
ATOM     59  N   UNL A   1      42.649  29.939  33.167  1.00  0.00    -0.248 NA
ATOM     60  C   UNL A   1      43.960  28.730  31.654  1.00  0.00     0.031 C 
ATOM     61  C   UNL A   1      43.880  30.904  37.324  1.00  0.00     0.029 A 
ATOM     62  C   UNL A   1      43.529  30.608  36.015  1.00  0.00     0.049 A 
ATOM     63  H   UNL A   1      41.789  31.142  34.951  1.00  0.00     0.167 HD
ATOM     64  C   UNL A   1      43.849  29.588  33.779  1.00  0.00     0.074 A 
ATOM     65  C   UNL A   1      44.611  28.831  32.807  1.00  0.00     0.031 C 
ATOM     66  C   UNL A   1      44.277  29.865  35.035  1.00  0.00     0.031 A 
BRANCH  53  67
ATOM     67  C   UNL A   1      40.333  33.235  38.369  1.00  0.00    -0.014 A 
ATOM     68  C   UNL A   1      39.459  32.641  39.296  1.00  0.00     0.010 A 
ATOM     69  C   UNL A   1      40.976  34.441  38.698  1.00  0.00     0.010 A 
ATOM     70  C   UNL A   1      39.228  33.250  40.532  1.00  0.00     0.020 A 
ATOM     71  C   UNL A   1      40.760  35.043  39.939  1.00  0.00     0.020 A 
ATOM     72  C   UNL A   1      39.886  34.443  40.848  1.00  0.00     0.054 A 
BRANCH  72  73
ATOM     73  S   UNL A   1      39.593  35.184  42.478  1.00  0.00     0.124 S 
ATOM     74  O   UNL A   1      39.258  34.016  43.288  1.00  0.00    -0.237 OA
ATOM     75  O   UNL A   1      40.880  35.808  42.774  1.00  0.00    -0.237 OA
ATOM     76  O   UNL A   1      38.489  36.112  42.245  1.00  0.00    -0.744 OA
ENDBRANCH  72  73
ENDBRANCH  53  67
BRANCH  54  77
ATOM     77  C   UNL A   1      41.923  28.854  29.544  1.00  0.00    -0.014 A 
ATOM     78  C   UNL A   1      41.507  27.531  29.317  1.00  0.00     0.010 A 
ATOM     79  C   UNL A   1      42.554  29.563  28.505  1.00  0.00     0.010 A 
ATOM     80  C   UNL A   1      41.714  26.930  28.071  1.00  0.00     0.020 A 
ATOM     81  C   UNL A   1      42.746  28.971  27.254  1.00  0.00     0.020 A 
ATOM     82  C   UNL A   1      42.321  27.658  27.044  1.00  0.00     0.054 A 
BRANCH  82  83
ATOM     83  S   UNL A   1      42.522  26.871  25.421  1.00  0.00     0.124 S 
ATOM     84  O   UNL A   1      42.520  28.018  24.520  1.00  0.00    -0.237 OA
ATOM     85  O   UNL A   1      43.803  26.185  25.570  1.00  0.00    -0.237 OA
ATOM     86  O   UNL A   1      41.359  25.992  25.317  1.00  0.00    -0.744 OA
ENDBRANCH  82  83
ENDBRANCH  54  77
BRANCH  66  87
ATOM     87  C   UNL A   1      45.624  29.348  35.455  1.00  0.00    -0.014 A 
ATOM     88  C   UNL A   1      45.763  28.064  36.008  1.00  0.00     0.010 A 
ATOM     89  C   UNL A   1      46.777  30.107  35.176  1.00  0.00     0.010 A 
ATOM     90  C   UNL A   1      47.034  27.547  36.276  1.00  0.00     0.020 A 
ATOM     91  C   UNL A   1      48.049  29.586  35.425  1.00  0.00     0.020 A 
ATOM     92  C   UNL A   1      48.168  28.307  35.972  1.00  0.00     0.054 A 
BRANCH  92  93
ATOM     93  S   UNL A   1      49.803  27.580  36.271  1.00  0.00     0.124 S 
ATOM     94  O   UNL A   1      49.751  26.363  35.466  1.00  0.00    -0.237 OA
ATOM     95  O   UNL A   1      50.704  28.620  35.780  1.00  0.00    -0.237 OA
ATOM     96  O   UNL A   1      49.831  27.367  37.717  1.00  0.00    -0.744 OA
ENDBRANCH  92  93
ENDBRANCH  66  87
ENDBRANCH  40  41
ENDBRANCH  33  35
ENDBRANCH  32  33
ENDBRANCH  31  32
ENDBRANCH  30  31
ENDBRANCH  29  30
ENDBRANCH   1  29
TORSDOF 23
ENDMDL
