MODEL 1
REMARK VINA RESULT:      -7.9      0.000      0.000
REMARK SMILES CNS(=O)(=O)c1ccc(Oc2csc(C(=O)OCCOCCOCCOC(=O)c3ccc(-c4c5nc(c(-c6ccc(S(=O)(=O)[O-])cc6)c6ccc([nH]6)c(-c6ccc(S(=O)(=O)[O-])cc6)c6nc(c(-c7ccc(S(=O)(=O)[O-])cc7)c7ccc4[nH]7)C=C6)C=C5)cc3)c2)cc1
REMARK SMILES IDX 21 1 20 2 19 3 18 4 17 5 15 6 16 7 14 8 11 9 12 10 89 11
REMARK SMILES IDX 13 12 10 13 9 14 6 15 7 16 91 17 8 18 90 19 3 20 4 21 5 22
REMARK SMILES IDX 2 23 1 24 22 26 23 27 24 28 25 29 26 30 27 31 28 32 29 33
REMARK SMILES IDX 30 34 88 35 31 36 87 37 32 38 33 39 34 40 81 41 35 42 86 43
REMARK SMILES IDX 80 44 82 45 36 46 85 47 79 48 78 49 37 51 67 52 48 53 66 54
REMARK SMILES IDX 49 55 52 56 65 57 83 58 50 59 51 60 64 62 84 63 53 64 38 65
REMARK SMILES IDX 39 66 47 67 40 68 46 69 41 70 42 71 43 72 44 73 45 74 68 75
REMARK SMILES IDX 69 76 77 77 70 78 76 79 71 80 72 81 73 82 74 83 75 84 54 85
REMARK SMILES IDX 55 86 63 87 56 88 62 89 57 90 58 91 59 92 60 93 61 94
REMARK H PARENT 2 25 82 50 52 61
REMARK Flexibility Score: inf
ROOT
ATOM      1  C   UNL A   1      38.470  32.069  33.768  1.00  0.00     0.188 C 
ENDROOT
BRANCH   1   2
ATOM      2  O   UNL A   1      37.447  32.280  32.802  1.00  0.00    -0.376 OA
BRANCH   2   3
ATOM      3  C   UNL A   1      36.724  33.502  32.779  1.00  0.00     0.202 C 
BRANCH   3   4
ATOM      4  C   UNL A   1      35.641  33.731  31.714  1.00  0.00     0.261 C 
BRANCH   4   5
ATOM      5  O   UNL A   1      35.304  32.573  30.936  1.00  0.00    -0.459 OA
BRANCH   5   6
ATOM      6  C   UNL A   1      34.535  32.797  29.825  1.00  0.00     0.348 C 
ATOM      7  O   UNL A   1      33.806  33.768  29.672  1.00  0.00    -0.245 OA
BRANCH   6   8
ATOM      8  C   UNL A   1      34.795  31.766  28.840  1.00  0.00     0.116 A 
ATOM      9  C   UNL A   1      34.552  30.139  27.182  1.00  0.00     0.138 A 
ATOM     10  C   UNL A   1      35.887  30.001  27.485  1.00  0.00     0.112 A 
ATOM     11  C   UNL A   1      33.926  31.157  27.956  1.00  0.00     0.074 A 
ATOM     12  S   UNL A   1      36.372  31.105  28.705  1.00  0.00    -0.133 S 
BRANCH   9  13
ATOM     13  O   UNL A   1      33.886  29.503  26.196  1.00  0.00    -0.456 OA
BRANCH  13  14
ATOM     14  C   UNL A   1      33.214  28.315  26.318  1.00  0.00     0.127 A 
ATOM     15  C   UNL A   1      31.972  25.822  26.196  1.00  0.00     0.082 A 
ATOM     16  C   UNL A   1      33.286  25.961  25.746  1.00  0.00     0.025 A 
ATOM     17  C   UNL A   1      31.270  26.922  26.703  1.00  0.00     0.025 A 
ATOM     18  C   UNL A   1      33.903  27.207  25.815  1.00  0.00     0.048 A 
ATOM     19  C   UNL A   1      31.895  28.175  26.759  1.00  0.00     0.048 A 
BRANCH  15  20
ATOM     20  S   UNL A   1      31.182  24.239  26.061  1.00  0.00     0.240 S 
ATOM     21  O   UNL A   1      30.331  24.043  27.212  1.00  0.00    -0.207 OA
ATOM     22  O   UNL A   1      32.187  23.266  25.690  1.00  0.00    -0.207 OA
BRANCH  20  23
ATOM     23  N   UNL A   1      30.200  24.452  24.719  1.00  0.00    -0.214 NA
ATOM     24  C   UNL A   1      30.819  24.687  23.424  1.00  0.00     0.120 C 
ATOM     25  H   UNL A   1      29.629  23.612  24.630  1.00  0.00     0.141 HD
ENDBRANCH  20  23
ENDBRANCH  15  20
ENDBRANCH  13  14
ENDBRANCH   9  13
ENDBRANCH   6   8
ENDBRANCH   5   6
ENDBRANCH   4   5
ENDBRANCH   3   4
ENDBRANCH   2   3
ENDBRANCH   1   2
BRANCH   1  26
ATOM     26  C   UNL A   1      39.236  30.730  33.796  1.00  0.00     0.188 C 
BRANCH  26  27
ATOM     27  O   UNL A   1      38.627  29.710  33.038  1.00  0.00    -0.376 OA
BRANCH  27  28
ATOM     28  C   UNL A   1      39.412  28.617  32.598  1.00  0.00     0.202 C 
BRANCH  28  29
ATOM     29  C   UNL A   1      39.297  27.994  31.192  1.00  0.00     0.261 C 
BRANCH  29  30
ATOM     30  O   UNL A   1      38.987  28.854  30.091  1.00  0.00    -0.460 OA
BRANCH  30  31
ATOM     31  C   UNL A   1      39.999  29.155  29.244  1.00  0.00     0.338 C 
ATOM     32  O   UNL A   1      40.307  28.559  28.229  1.00  0.00    -0.246 OA
BRANCH  31  33
ATOM     33  C   UNL A   1      40.581  30.445  29.672  1.00  0.00     0.060 A 
ATOM     34  C   UNL A   1      41.974  30.590  29.681  1.00  0.00     0.016 A 
ATOM     35  C   UNL A   1      39.755  31.499  30.068  1.00  0.00     0.016 A 
ATOM     36  C   UNL A   1      42.545  31.792  30.106  1.00  0.00     0.010 A 
ATOM     37  C   UNL A   1      40.331  32.695  30.511  1.00  0.00     0.010 A 
ATOM     38  C   UNL A   1      41.730  32.840  30.554  1.00  0.00    -0.014 A 
BRANCH  38  39
ATOM     39  C   UNL A   1      42.332  34.031  31.204  1.00  0.00     0.031 A 
ATOM     40  C   UNL A   1      42.542  34.013  32.694  1.00  0.00     0.074 A 
ATOM     41  C   UNL A   1      42.693  35.110  30.485  1.00  0.00     0.049 A 
ATOM     42  N   UNL A   1      42.991  34.956  33.480  1.00  0.00    -0.248 NA
ATOM     43  C   UNL A   1      42.202  32.760  33.391  1.00  0.00     0.031 C 
ATOM     44  C   UNL A   1      42.583  35.237  29.032  1.00  0.00     0.029 A 
ATOM     45  N   UNL A   1      43.219  36.314  30.888  1.00  0.00    -0.354 N 
ATOM     46  C   UNL A   1      42.984  34.418  34.761  1.00  0.00     0.074 A 
ATOM     47  C   UNL A   1      42.461  33.073  34.653  1.00  0.00     0.031 C 
ATOM     48  C   UNL A   1      43.014  36.458  28.667  1.00  0.00     0.029 A 
ATOM     49  C   UNL A   1      43.396  37.211  29.861  1.00  0.00     0.049 A 
ATOM     50  H   UNL A   1      43.447  36.515  31.824  1.00  0.00     0.167 HD
ATOM     51  C   UNL A   1      43.382  34.988  35.923  1.00  0.00     0.031 A 
ATOM     52  C   UNL A   1      43.792  38.500  29.885  1.00  0.00     0.031 A 
ATOM     53  C   UNL A   1      43.883  36.331  36.034  1.00  0.00     0.049 A 
ATOM     54  C   UNL A   1      44.145  39.141  31.205  1.00  0.00     0.074 A 
ATOM     55  C   UNL A   1      44.314  36.997  37.169  1.00  0.00     0.029 A 
ATOM     56  N   UNL A   1      44.017  37.217  34.976  1.00  0.00    -0.354 N 
ATOM     57  N   UNL A   1      44.154  38.611  32.405  1.00  0.00    -0.248 NA
ATOM     58  C   UNL A   1      44.549  40.555  31.171  1.00  0.00     0.031 C 
ATOM     59  C   UNL A   1      44.655  38.304  36.806  1.00  0.00     0.029 A 
ATOM     60  C   UNL A   1      44.500  38.431  35.434  1.00  0.00     0.049 A 
ATOM     61  H   UNL A   1      43.800  37.013  34.037  1.00  0.00     0.167 HD
ATOM     62  C   UNL A   1      44.594  39.616  33.262  1.00  0.00     0.074 A 
ATOM     63  C   UNL A   1      44.856  40.780  32.441  1.00  0.00     0.031 C 
ATOM     64  C   UNL A   1      44.766  39.580  34.606  1.00  0.00     0.031 A 
BRANCH  51  65
ATOM     65  C   UNL A   1      43.268  34.166  37.180  1.00  0.00    -0.014 A 
ATOM     66  C   UNL A   1      44.316  33.321  37.590  1.00  0.00     0.010 A 
ATOM     67  C   UNL A   1      42.128  34.289  37.993  1.00  0.00     0.010 A 
ATOM     68  C   UNL A   1      44.213  32.596  38.780  1.00  0.00     0.020 A 
ATOM     69  C   UNL A   1      42.032  33.586  39.197  1.00  0.00     0.020 A 
ATOM     70  C   UNL A   1      43.072  32.735  39.577  1.00  0.00     0.054 A 
BRANCH  70  71
ATOM     71  S   UNL A   1      42.989  31.818  41.140  1.00  0.00     0.124 S 
ATOM     72  O   UNL A   1      41.589  31.402  41.171  1.00  0.00    -0.237 OA
ATOM     73  O   UNL A   1      43.959  30.746  40.933  1.00  0.00    -0.237 OA
ATOM     74  O   UNL A   1      43.365  32.810  42.145  1.00  0.00    -0.744 OA
ENDBRANCH  70  71
ENDBRANCH  51  65
BRANCH  52  75
ATOM     75  C   UNL A   1      43.844  39.295  28.625  1.00  0.00    -0.014 A 
ATOM     76  C   UNL A   1      45.034  39.395  27.883  1.00  0.00     0.010 A 
ATOM     77  C   UNL A   1      42.705  39.993  28.182  1.00  0.00     0.010 A 
ATOM     78  C   UNL A   1      45.094  40.202  26.742  1.00  0.00     0.020 A 
ATOM     79  C   UNL A   1      42.751  40.776  27.025  1.00  0.00     0.020 A 
ATOM     80  C   UNL A   1      43.951  40.891  26.322  1.00  0.00     0.054 A 
BRANCH  80  81
ATOM     81  S   UNL A   1      44.046  41.918  24.830  1.00  0.00     0.124 S 
ATOM     82  O   UNL A   1      42.804  41.571  24.144  1.00  0.00    -0.237 OA
ATOM     83  O   UNL A   1      44.109  43.270  25.379  1.00  0.00    -0.237 OA
ATOM     84  O   UNL A   1      45.270  41.461  24.176  1.00  0.00    -0.744 OA
ENDBRANCH  80  81
ENDBRANCH  52  75
BRANCH  64  85
ATOM     85  C   UNL A   1      45.307  40.816  35.277  1.00  0.00    -0.014 A 
ATOM     86  C   UNL A   1      46.688  41.069  35.345  1.00  0.00     0.010 A 
ATOM     87  C   UNL A   1      44.410  41.771  35.792  1.00  0.00     0.010 A 
ATOM     88  C   UNL A   1      47.163  42.240  35.945  1.00  0.00     0.020 A 
ATOM     89  C   UNL A   1      44.880  42.954  36.367  1.00  0.00     0.020 A 
ATOM     90  C   UNL A   1      46.256  43.175  36.451  1.00  0.00     0.054 A 
BRANCH  90  91
ATOM     91  S   UNL A   1      46.897  44.706  37.185  1.00  0.00     0.124 S 
ATOM     92  O   UNL A   1      48.323  44.412  37.304  1.00  0.00    -0.237 OA
ATOM     93  O   UNL A   1      46.543  45.712  36.187  1.00  0.00    -0.237 OA
ATOM     94  O   UNL A   1      46.176  44.812  38.451  1.00  0.00    -0.744 OA
ENDBRANCH  90  91
ENDBRANCH  64  85
ENDBRANCH  38  39
ENDBRANCH  31  33
ENDBRANCH  30  31
ENDBRANCH  29  30
ENDBRANCH  28  29
ENDBRANCH  27  28
ENDBRANCH  26  27
ENDBRANCH   1  26
TORSDOF 24
ENDMDL
MODEL 2
REMARK VINA RESULT:      -7.5      8.823     13.847
REMARK SMILES CNS(=O)(=O)c1ccc(Oc2csc(C(=O)OCCOCCOCCOC(=O)c3ccc(-c4c5nc(c(-c6ccc(S(=O)(=O)[O-])cc6)c6ccc([nH]6)c(-c6ccc(S(=O)(=O)[O-])cc6)c6nc(c(-c7ccc(S(=O)(=O)[O-])cc7)c7ccc4[nH]7)C=C6)C=C5)cc3)c2)cc1
REMARK SMILES IDX 21 1 20 2 19 3 18 4 17 5 15 6 16 7 14 8 11 9 12 10 89 11
REMARK SMILES IDX 13 12 10 13 9 14 6 15 7 16 91 17 8 18 90 19 3 20 4 21 5 22
REMARK SMILES IDX 2 23 1 24 22 26 23 27 24 28 25 29 26 30 27 31 28 32 29 33
REMARK SMILES IDX 30 34 88 35 31 36 87 37 32 38 33 39 34 40 81 41 35 42 86 43
REMARK SMILES IDX 80 44 82 45 36 46 85 47 79 48 78 49 37 51 67 52 48 53 66 54
REMARK SMILES IDX 49 55 52 56 65 57 83 58 50 59 51 60 64 62 84 63 53 64 38 65
REMARK SMILES IDX 39 66 47 67 40 68 46 69 41 70 42 71 43 72 44 73 45 74 68 75
REMARK SMILES IDX 69 76 77 77 70 78 76 79 71 80 72 81 73 82 74 83 75 84 54 85
REMARK SMILES IDX 55 86 63 87 56 88 62 89 57 90 58 91 59 92 60 93 61 94
REMARK H PARENT 2 25 82 50 52 61
REMARK Flexibility Score: inf
ROOT
ATOM      1  C   UNL A   1      38.717  31.643  33.302  1.00  0.00     0.188 C 
ENDROOT
BRANCH   1   2
ATOM      2  O   UNL A   1      37.535  32.069  32.634  1.00  0.00    -0.376 OA
BRANCH   2   3
ATOM      3  C   UNL A   1      37.162  33.440  32.642  1.00  0.00     0.202 C 
BRANCH   3   4
ATOM      4  C   UNL A   1      36.189  33.975  31.580  1.00  0.00     0.261 C 
BRANCH   4   5
ATOM      5  O   UNL A   1      35.205  33.031  31.133  1.00  0.00    -0.459 OA
BRANCH   5   6
ATOM      6  C   UNL A   1      34.796  33.160  29.832  1.00  0.00     0.348 C 
ATOM      7  O   UNL A   1      34.350  34.190  29.346  1.00  0.00    -0.245 OA
BRANCH   6   8
ATOM      8  C   UNL A   1      35.064  31.928  29.116  1.00  0.00     0.116 A 
ATOM      9  C   UNL A   1      34.923  30.107  27.661  1.00  0.00     0.138 A 
ATOM     10  C   UNL A   1      36.009  29.744  28.425  1.00  0.00     0.112 A 
ATOM     11  C   UNL A   1      34.384  31.365  28.054  1.00  0.00     0.074 A 
ATOM     12  S   UNL A   1      36.366  30.928  29.613  1.00  0.00    -0.133 S 
BRANCH   9  13
ATOM     13  O   UNL A   1      34.453  29.454  26.578  1.00  0.00    -0.456 OA
BRANCH  13  14
ATOM     14  C   UNL A   1      33.525  28.445  26.590  1.00  0.00     0.127 A 
ATOM     15  C   UNL A   1      31.678  26.391  26.216  1.00  0.00     0.082 A 
ATOM     16  C   UNL A   1      32.894  26.357  25.532  1.00  0.00     0.025 A 
ATOM     17  C   UNL A   1      31.374  27.447  27.082  1.00  0.00     0.025 A 
ATOM     18  C   UNL A   1      33.815  27.382  25.727  1.00  0.00     0.048 A 
ATOM     19  C   UNL A   1      32.302  28.481  27.265  1.00  0.00     0.048 A 
BRANCH  15  20
ATOM     20  S   UNL A   1      30.495  25.101  25.924  1.00  0.00     0.240 S 
ATOM     21  O   UNL A   1      30.684  24.590  24.585  1.00  0.00    -0.207 OA
ATOM     22  O   UNL A   1      29.202  25.565  26.379  1.00  0.00    -0.207 OA
BRANCH  20  23
ATOM     23  N   UNL A   1      30.991  23.920  27.005  1.00  0.00    -0.214 NA
ATOM     24  C   UNL A   1      30.433  22.581  26.890  1.00  0.00     0.120 C 
ATOM     25  H   UNL A   1      32.002  23.832  26.910  1.00  0.00     0.141 HD
ENDBRANCH  20  23
ENDBRANCH  15  20
ENDBRANCH  13  14
ENDBRANCH   9  13
ENDBRANCH   6   8
ENDBRANCH   5   6
ENDBRANCH   4   5
ENDBRANCH   3   4
ENDBRANCH   2   3
ENDBRANCH   1   2
BRANCH   1  26
ATOM     26  C   UNL A   1      39.157  30.166  33.217  1.00  0.00     0.188 C 
BRANCH  26  27
ATOM     27  O   UNL A   1      39.252  29.676  31.900  1.00  0.00    -0.376 OA
BRANCH  27  28
ATOM     28  C   UNL A   1      38.899  28.329  31.640  1.00  0.00     0.202 C 
BRANCH  28  29
ATOM     29  C   UNL A   1      38.621  27.777  30.227  1.00  0.00     0.261 C 
BRANCH  29  30
ATOM     30  O   UNL A   1      39.622  27.958  29.219  1.00  0.00    -0.460 OA
BRANCH  30  31
ATOM     31  C   UNL A   1      40.103  26.841  28.625  1.00  0.00     0.338 C 
ATOM     32  O   UNL A   1      39.508  26.098  27.867  1.00  0.00    -0.246 OA
BRANCH  31  33
ATOM     33  C   UNL A   1      41.549  26.755  28.923  1.00  0.00     0.060 A 
ATOM     34  C   UNL A   1      42.218  25.547  28.693  1.00  0.00     0.016 A 
ATOM     35  C   UNL A   1      42.234  27.859  29.435  1.00  0.00     0.016 A 
ATOM     36  C   UNL A   1      43.578  25.437  28.992  1.00  0.00     0.010 A 
ATOM     37  C   UNL A   1      43.592  27.739  29.752  1.00  0.00     0.010 A 
ATOM     38  C   UNL A   1      44.266  26.521  29.553  1.00  0.00    -0.014 A 
BRANCH  38  39
ATOM     39  C   UNL A   1      45.647  26.345  30.069  1.00  0.00     0.031 A 
ATOM     40  C   UNL A   1      46.803  26.686  29.167  1.00  0.00     0.074 A 
ATOM     41  C   UNL A   1      45.874  25.896  31.316  1.00  0.00     0.049 A 
ATOM     42  N   UNL A   1      48.086  26.554  29.380  1.00  0.00    -0.248 NA
ATOM     43  C   UNL A   1      46.466  27.254  27.850  1.00  0.00     0.031 C 
ATOM     44  C   UNL A   1      44.843  25.573  32.303  1.00  0.00     0.029 A 
ATOM     45  N   UNL A   1      47.054  25.625  31.965  1.00  0.00    -0.354 N 
ATOM     46  C   UNL A   1      48.711  27.016  28.227  1.00  0.00     0.074 A 
ATOM     47  C   UNL A   1      47.665  27.407  27.306  1.00  0.00     0.031 C 
ATOM     48  C   UNL A   1      45.437  25.131  33.426  1.00  0.00     0.029 A 
ATOM     49  C   UNL A   1      46.885  25.108  33.227  1.00  0.00     0.049 A 
ATOM     50  H   UNL A   1      47.938  25.786  31.563  1.00  0.00     0.167 HD
ATOM     51  C   UNL A   1      50.035  27.112  27.959  1.00  0.00     0.031 A 
ATOM     52  C   UNL A   1      47.792  24.641  34.110  1.00  0.00     0.031 A 
ATOM     53  C   UNL A   1      51.074  26.705  28.867  1.00  0.00     0.049 A 
ATOM     54  C   UNL A   1      49.258  24.677  33.752  1.00  0.00     0.074 A 
ATOM     55  C   UNL A   1      52.445  26.766  28.685  1.00  0.00     0.029 A 
ATOM     56  N   UNL A   1      50.861  26.157  30.122  1.00  0.00    -0.354 N 
ATOM     57  N   UNL A   1      49.833  25.137  32.667  1.00  0.00    -0.248 NA
ATOM     58  C   UNL A   1      50.199  24.134  34.744  1.00  0.00     0.031 C 
ATOM     59  C   UNL A   1      53.059  26.202  29.808  1.00  0.00     0.029 A 
ATOM     60  C   UNL A   1      52.073  25.852  30.716  1.00  0.00     0.049 A 
ATOM     61  H   UNL A   1      49.977  26.006  30.530  1.00  0.00     0.167 HD
ATOM     62  C   UNL A   1      51.202  24.968  32.860  1.00  0.00     0.074 A 
ATOM     63  C   UNL A   1      51.369  24.379  34.171  1.00  0.00     0.031 C 
ATOM     64  C   UNL A   1      52.227  25.275  32.028  1.00  0.00     0.031 A 
BRANCH  51  65
ATOM     65  C   UNL A   1      50.438  27.659  26.616  1.00  0.00    -0.014 A 
ATOM     66  C   UNL A   1      50.878  28.988  26.477  1.00  0.00     0.010 A 
ATOM     67  C   UNL A   1      50.439  26.816  25.491  1.00  0.00     0.010 A 
ATOM     68  C   UNL A   1      51.289  29.470  25.231  1.00  0.00     0.020 A 
ATOM     69  C   UNL A   1      50.874  27.285  24.248  1.00  0.00     0.020 A 
ATOM     70  C   UNL A   1      51.286  28.614  24.125  1.00  0.00     0.054 A 
BRANCH  70  71
ATOM     71  S   UNL A   1      51.871  29.254  22.532  1.00  0.00     0.124 S 
ATOM     72  O   UNL A   1      51.698  30.694  22.703  1.00  0.00    -0.237 OA
ATOM     73  O   UNL A   1      53.255  28.788  22.490  1.00  0.00    -0.237 OA
ATOM     74  O   UNL A   1      50.977  28.631  21.558  1.00  0.00    -0.744 OA
ENDBRANCH  70  71
ENDBRANCH  51  65
BRANCH  52  75
ATOM     75  C   UNL A   1      47.349  24.061  35.410  1.00  0.00    -0.014 A 
ATOM     76  C   UNL A   1      47.400  24.819  36.593  1.00  0.00     0.010 A 
ATOM     77  C   UNL A   1      46.910  22.726  35.475  1.00  0.00     0.010 A 
ATOM     78  C   UNL A   1      47.052  24.244  37.820  1.00  0.00     0.020 A 
ATOM     79  C   UNL A   1      46.532  22.156  36.695  1.00  0.00     0.020 A 
ATOM     80  C   UNL A   1      46.623  22.914  37.863  1.00  0.00     0.054 A 
BRANCH  80  81
ATOM     81  S   UNL A   1      46.159  22.194  39.462  1.00  0.00     0.124 S 
ATOM     82  O   UNL A   1      45.723  20.855  39.076  1.00  0.00    -0.237 OA
ATOM     83  O   UNL A   1      47.409  22.260  40.214  1.00  0.00    -0.237 OA
ATOM     84  O   UNL A   1      45.102  23.081  39.944  1.00  0.00    -0.744 OA
ENDBRANCH  80  81
ENDBRANCH  52  75
BRANCH  64  85
ATOM     85  C   UNL A   1      53.629  25.025  32.522  1.00  0.00    -0.014 A 
ATOM     86  C   UNL A   1      54.397  26.052  33.099  1.00  0.00     0.010 A 
ATOM     87  C   UNL A   1      54.161  23.723  32.463  1.00  0.00     0.010 A 
ATOM     88  C   UNL A   1      55.683  25.787  33.579  1.00  0.00     0.020 A 
ATOM     89  C   UNL A   1      55.434  23.449  32.967  1.00  0.00     0.020 A 
ATOM     90  C   UNL A   1      56.194  24.488  33.510  1.00  0.00     0.054 A 
BRANCH  90  91
ATOM     91  S   UNL A   1      57.848  24.162  34.181  1.00  0.00     0.124 S 
ATOM     92  O   UNL A   1      58.594  25.333  33.731  1.00  0.00    -0.237 OA
ATOM     93  O   UNL A   1      57.603  24.086  35.618  1.00  0.00    -0.237 OA
ATOM     94  O   UNL A   1      58.234  22.900  33.553  1.00  0.00    -0.744 OA
ENDBRANCH  90  91
ENDBRANCH  64  85
ENDBRANCH  38  39
ENDBRANCH  31  33
ENDBRANCH  30  31
ENDBRANCH  29  30
ENDBRANCH  28  29
ENDBRANCH  27  28
ENDBRANCH  26  27
ENDBRANCH   1  26
TORSDOF 24
ENDMDL
MODEL 3
REMARK VINA RESULT:      -7.0      9.083     14.000
REMARK SMILES CNS(=O)(=O)c1ccc(Oc2csc(C(=O)OCCOCCOCCOC(=O)c3ccc(-c4c5nc(c(-c6ccc(S(=O)(=O)[O-])cc6)c6ccc([nH]6)c(-c6ccc(S(=O)(=O)[O-])cc6)c6nc(c(-c7ccc(S(=O)(=O)[O-])cc7)c7ccc4[nH]7)C=C6)C=C5)cc3)c2)cc1
REMARK SMILES IDX 21 1 20 2 19 3 18 4 17 5 15 6 16 7 14 8 11 9 12 10 89 11
REMARK SMILES IDX 13 12 10 13 9 14 6 15 7 16 91 17 8 18 90 19 3 20 4 21 5 22
REMARK SMILES IDX 2 23 1 24 22 26 23 27 24 28 25 29 26 30 27 31 28 32 29 33
REMARK SMILES IDX 30 34 88 35 31 36 87 37 32 38 33 39 34 40 81 41 35 42 86 43
REMARK SMILES IDX 80 44 82 45 36 46 85 47 79 48 78 49 37 51 67 52 48 53 66 54
REMARK SMILES IDX 49 55 52 56 65 57 83 58 50 59 51 60 64 62 84 63 53 64 38 65
REMARK SMILES IDX 39 66 47 67 40 68 46 69 41 70 42 71 43 72 44 73 45 74 68 75
REMARK SMILES IDX 69 76 77 77 70 78 76 79 71 80 72 81 73 82 74 83 75 84 54 85
REMARK SMILES IDX 55 86 63 87 56 88 62 89 57 90 58 91 59 92 60 93 61 94
REMARK H PARENT 2 25 82 50 52 61
REMARK Flexibility Score: inf
ROOT
ATOM      1  C   UNL A   1      39.032  31.616  32.900  1.00  0.00     0.188 C 
ENDROOT
BRANCH   1   2
ATOM      2  O   UNL A   1      38.238  31.899  31.753  1.00  0.00    -0.376 OA
BRANCH   2   3
ATOM      3  C   UNL A   1      38.630  32.918  30.845  1.00  0.00     0.202 C 
BRANCH   3   4
ATOM      4  C   UNL A   1      37.949  33.022  29.471  1.00  0.00     0.261 C 
BRANCH   4   5
ATOM      5  O   UNL A   1      36.530  32.803  29.481  1.00  0.00    -0.459 OA
BRANCH   5   6
ATOM      6  C   UNL A   1      35.908  32.838  28.262  1.00  0.00     0.348 C 
ATOM      7  O   UNL A   1      35.919  33.799  27.506  1.00  0.00    -0.245 OA
BRANCH   6   8
ATOM      8  C   UNL A   1      35.328  31.539  27.979  1.00  0.00     0.116 A 
ATOM      9  C   UNL A   1      33.835  29.764  27.705  1.00  0.00     0.138 A 
ATOM     10  C   UNL A   1      35.036  29.127  27.492  1.00  0.00     0.112 A 
ATOM     11  C   UNL A   1      34.002  31.152  27.979  1.00  0.00     0.074 A 
ATOM     12  S   UNL A   1      36.356  30.213  27.626  1.00  0.00    -0.133 S 
BRANCH   9  13
ATOM     13  O   UNL A   1      32.606  29.224  27.566  1.00  0.00    -0.456 OA
BRANCH  13  14
ATOM     14  C   UNL A   1      31.877  29.176  26.406  1.00  0.00     0.127 A 
ATOM     15  C   UNL A   1      30.645  28.788  23.937  1.00  0.00     0.082 A 
ATOM     16  C   UNL A   1      30.992  27.683  24.714  1.00  0.00     0.025 A 
ATOM     17  C   UNL A   1      30.914  30.088  24.380  1.00  0.00     0.025 A 
ATOM     18  C   UNL A   1      31.602  27.883  25.950  1.00  0.00     0.048 A 
ATOM     19  C   UNL A   1      31.537  30.281  25.621  1.00  0.00     0.048 A 
BRANCH  15  20
ATOM     20  S   UNL A   1      29.909  28.518  22.344  1.00  0.00     0.240 S 
ATOM     21  O   UNL A   1      30.501  27.340  21.752  1.00  0.00    -0.207 OA
ATOM     22  O   UNL A   1      29.880  29.783  21.642  1.00  0.00    -0.207 OA
BRANCH  20  23
ATOM     23  N   UNL A   1      28.324  28.155  22.748  1.00  0.00    -0.214 NA
ATOM     24  C   UNL A   1      27.437  29.233  23.160  1.00  0.00     0.120 C 
ATOM     25  H   UNL A   1      27.901  27.714  21.932  1.00  0.00     0.141 HD
ENDBRANCH  20  23
ENDBRANCH  15  20
ENDBRANCH  13  14
ENDBRANCH   9  13
ENDBRANCH   6   8
ENDBRANCH   5   6
ENDBRANCH   4   5
ENDBRANCH   3   4
ENDBRANCH   2   3
ENDBRANCH   1   2
BRANCH   1  26
ATOM     26  C   UNL A   1      39.391  30.155  33.244  1.00  0.00     0.188 C 
BRANCH  26  27
ATOM     27  O   UNL A   1      39.974  29.446  32.175  1.00  0.00    -0.376 OA
BRANCH  27  28
ATOM     28  C   UNL A   1      39.403  28.214  31.774  1.00  0.00     0.202 C 
BRANCH  28  29
ATOM     29  C   UNL A   1      39.143  27.833  30.302  1.00  0.00     0.261 C 
BRANCH  29  30
ATOM     30  O   UNL A   1      40.058  28.302  29.307  1.00  0.00    -0.460 OA
BRANCH  30  31
ATOM     31  C   UNL A   1      40.578  27.377  28.467  1.00  0.00     0.338 C 
ATOM     32  O   UNL A   1      40.023  26.851  27.521  1.00  0.00    -0.246 OA
BRANCH  31  33
ATOM     33  C   UNL A   1      42.013  27.225  28.790  1.00  0.00     0.060 A 
ATOM     34  C   UNL A   1      42.635  25.993  28.551  1.00  0.00     0.016 A 
ATOM     35  C   UNL A   1      42.734  28.290  29.334  1.00  0.00     0.016 A 
ATOM     36  C   UNL A   1      43.983  25.819  28.873  1.00  0.00     0.010 A 
ATOM     37  C   UNL A   1      44.079  28.106  29.673  1.00  0.00     0.010 A 
ATOM     38  C   UNL A   1      44.705  26.864  29.466  1.00  0.00    -0.014 A 
BRANCH  38  39
ATOM     39  C   UNL A   1      46.067  26.620  30.003  1.00  0.00     0.031 A 
ATOM     40  C   UNL A   1      47.254  26.949  29.138  1.00  0.00     0.074 A 
ATOM     41  C   UNL A   1      46.250  26.122  31.239  1.00  0.00     0.049 A 
ATOM     42  N   UNL A   1      48.527  26.763  29.373  1.00  0.00    -0.248 NA
ATOM     43  C   UNL A   1      46.967  27.573  27.835  1.00  0.00     0.031 C 
ATOM     44  C   UNL A   1      45.186  25.802  32.192  1.00  0.00     0.029 A 
ATOM     45  N   UNL A   1      47.406  25.786  31.903  1.00  0.00    -0.354 N 
ATOM     46  C   UNL A   1      49.193  27.241  28.251  1.00  0.00     0.074 A 
ATOM     47  C   UNL A   1      48.182  27.701  27.322  1.00  0.00     0.031 C 
ATOM     48  C   UNL A   1      45.739  25.302  33.312  1.00  0.00     0.029 A 
ATOM     49  C   UNL A   1      47.190  25.232  33.142  1.00  0.00     0.049 A 
ATOM     50  H   UNL A   1      48.304  25.928  31.525  1.00  0.00     0.167 HD
ATOM     51  C   UNL A   1      50.525  27.298  28.014  1.00  0.00     0.031 A 
ATOM     52  C   UNL A   1      48.060  24.703  34.027  1.00  0.00     0.031 A 
ATOM     53  C   UNL A   1      51.528  26.823  28.928  1.00  0.00     0.049 A 
ATOM     54  C   UNL A   1      49.535  24.698  33.702  1.00  0.00     0.074 A 
ATOM     55  C   UNL A   1      52.905  26.839  28.777  1.00  0.00     0.029 A 
ATOM     56  N   UNL A   1      51.268  26.241  30.159  1.00  0.00    -0.354 N 
ATOM     57  N   UNL A   1      50.149  25.173  32.645  1.00  0.00    -0.248 NA
ATOM     58  C   UNL A   1      50.433  24.088  34.694  1.00  0.00     0.031 C 
ATOM     59  C   UNL A   1      53.474  26.217  29.893  1.00  0.00     0.029 A 
ATOM     60  C   UNL A   1      52.455  25.872  30.768  1.00  0.00     0.049 A 
ATOM     61  H   UNL A   1      50.371  26.109  30.543  1.00  0.00     0.167 HD
ATOM     62  C   UNL A   1      51.506  24.948  32.861  1.00  0.00     0.074 A 
ATOM     63  C   UNL A   1      51.623  24.309  34.154  1.00  0.00     0.031 C 
ATOM     64  C   UNL A   1      52.560  25.245  32.061  1.00  0.00     0.031 A 
BRANCH  51  65
ATOM     65  C   UNL A   1      50.978  27.875  26.699  1.00  0.00    -0.014 A 
ATOM     66  C   UNL A   1      51.011  27.086  25.535  1.00  0.00     0.010 A 
ATOM     67  C   UNL A   1      51.313  29.238  26.613  1.00  0.00     0.010 A 
ATOM     68  C   UNL A   1      51.393  27.646  24.313  1.00  0.00     0.020 A 
ATOM     69  C   UNL A   1      51.671  29.808  25.389  1.00  0.00     0.020 A 
ATOM     70  C   UNL A   1      51.719  29.004  24.248  1.00  0.00     0.054 A 
BRANCH  70  71
ATOM     71  S   UNL A   1      52.166  29.713  22.639  1.00  0.00     0.124 S 
ATOM     72  O   UNL A   1      53.000  28.660  22.066  1.00  0.00    -0.237 OA
ATOM     73  O   UNL A   1      50.864  29.900  22.001  1.00  0.00    -0.237 OA
ATOM     74  O   UNL A   1      52.869  30.946  22.985  1.00  0.00    -0.744 OA
ENDBRANCH  70  71
ENDBRANCH  51  65
BRANCH  52  75
ATOM     75  C   UNL A   1      47.568  24.096  35.297  1.00  0.00    -0.014 A 
ATOM     76  C   UNL A   1      47.452  24.866  36.468  1.00  0.00     0.010 A 
ATOM     77  C   UNL A   1      47.251  22.726  35.349  1.00  0.00     0.010 A 
ATOM     78  C   UNL A   1      47.060  24.273  37.672  1.00  0.00     0.020 A 
ATOM     79  C   UNL A   1      46.829  22.135  36.543  1.00  0.00     0.020 A 
ATOM     80  C   UNL A   1      46.753  22.908  37.702  1.00  0.00     0.054 A 
BRANCH  80  81
ATOM     81  S   UNL A   1      46.229  22.162  39.270  1.00  0.00     0.124 S 
ATOM     82  O   UNL A   1      47.445  22.260  40.073  1.00  0.00    -0.237 OA
ATOM     83  O   UNL A   1      45.128  23.029  39.681  1.00  0.00    -0.237 OA
ATOM     84  O   UNL A   1      45.838  20.807  38.891  1.00  0.00    -0.744 OA
ENDBRANCH  80  81
ENDBRANCH  52  75
BRANCH  64  85
ATOM     85  C   UNL A   1      53.941  24.928  32.575  1.00  0.00    -0.014 A 
ATOM     86  C   UNL A   1      54.569  25.738  33.538  1.00  0.00     0.010 A 
ATOM     87  C   UNL A   1      54.593  23.762  32.132  1.00  0.00     0.010 A 
ATOM     88  C   UNL A   1      55.837  25.404  34.022  1.00  0.00     0.020 A 
ATOM     89  C   UNL A   1      55.847  23.411  32.634  1.00  0.00     0.020 A 
ATOM     90  C   UNL A   1      56.468  24.243  33.568  1.00  0.00     0.054 A 
BRANCH  90  91
ATOM     91  S   UNL A   1      58.094  23.810  34.246  1.00  0.00     0.124 S 
ATOM     92  O   UNL A   1      58.841  23.454  33.042  1.00  0.00    -0.237 OA
ATOM     93  O   UNL A   1      58.509  25.047  34.901  1.00  0.00    -0.237 OA
ATOM     94  O   UNL A   1      57.808  22.698  35.151  1.00  0.00    -0.744 OA
ENDBRANCH  90  91
ENDBRANCH  64  85
ENDBRANCH  38  39
ENDBRANCH  31  33
ENDBRANCH  30  31
ENDBRANCH  29  30
ENDBRANCH  28  29
ENDBRANCH  27  28
ENDBRANCH  26  27
ENDBRANCH   1  26
TORSDOF 24
ENDMDL
