MODEL 1
REMARK VINA RESULT:      -9.0      0.000      0.000
REMARK SMILES O=C(CCCc1nc2cc(Cl)ccc2[nH]1)OCCOCCOCCOC(=O)c1ccc(-c2c3nc(c(-c4ccc(S(=O)(=O)[O-])cc4)c4ccc([nH]4)c(-c4ccc(S(=O)(=O)[O-])cc4)c4nc(c(-c5ccc(S(=O)(=O)[O-])cc5)c5ccc2[nH]5)C=C4)C=C3)cc1
REMARK SMILES IDX 20 1 19 2 18 3 17 4 16 5 2 6 1 7 3 8 4 9 5 10 6 11 7 12
REMARK SMILES IDX 15 13 8 14 14 15 9 17 13 18 10 19 12 20 11 21 21 22 22 23
REMARK SMILES IDX 23 24 24 25 25 26 26 27 27 28 28 29 29 30 87 31 30 32 86 33
REMARK SMILES IDX 31 34 32 35 33 36 80 37 34 38 85 39 79 40 81 41 35 42 84 43
REMARK SMILES IDX 78 44 77 45 36 47 66 48 47 49 65 50 48 51 51 52 64 53 82 54
REMARK SMILES IDX 49 55 50 56 63 58 83 59 52 60 37 61 38 62 46 63 39 64 45 65
REMARK SMILES IDX 40 66 41 67 42 68 43 69 44 70 67 71 68 72 76 73 69 74 75 75
REMARK SMILES IDX 70 76 71 77 72 78 73 79 74 80 53 81 54 82 62 83 55 84 61 85
REMARK SMILES IDX 56 86 57 87 58 88 59 89 60 90
REMARK H PARENT 15 16 81 46 51 57
REMARK Flexibility Score: inf
ROOT
ATOM      1  C   UNL A   1      40.402  21.493  27.217  1.00  0.00     0.188 C 
ENDROOT
BRANCH   1   2
ATOM      2  O   UNL A   1      39.348  22.082  26.466  1.00  0.00    -0.376 OA
BRANCH   2   3
ATOM      3  C   UNL A   1      39.112  23.461  26.734  1.00  0.00     0.202 C 
BRANCH   3   4
ATOM      4  C   UNL A   1      37.846  24.065  26.123  1.00  0.00     0.261 C 
BRANCH   4   5
ATOM      5  O   UNL A   1      36.702  23.202  26.031  1.00  0.00    -0.463 OA
BRANCH   5   6
ATOM      6  C   UNL A   1      36.062  22.875  24.891  1.00  0.00     0.305 C 
ATOM      7  O   UNL A   1      36.579  22.067  24.120  1.00  0.00    -0.252 OA
BRANCH   6   8
ATOM      8  C   UNL A   1      34.751  23.535  24.547  1.00  0.00     0.123 C 
BRANCH   8   9
ATOM      9  C   UNL A   1      33.892  22.744  23.563  1.00  0.00     0.020 C 
BRANCH   9  10
ATOM     10  C   UNL A   1      32.721  21.971  24.178  1.00  0.00     0.076 C 
BRANCH  10  11
ATOM     11  C   UNL A   1      33.007  20.539  24.508  1.00  0.00     0.107 A 
ATOM     12  N   UNL A   1      32.121  19.653  24.927  1.00  0.00    -0.233 NA
ATOM     13  N   UNL A   1      34.248  19.958  24.384  1.00  0.00    -0.342 N 
ATOM     14  C   UNL A   1      32.793  18.456  25.004  1.00  0.00     0.090 A 
ATOM     15  C   UNL A   1      34.128  18.617  24.654  1.00  0.00     0.066 A 
ATOM     16  H   UNL A   1      35.081  20.425  24.142  1.00  0.00     0.168 HD
ATOM     17  C   UNL A   1      32.309  17.178  25.320  1.00  0.00     0.051 A 
ATOM     18  C   UNL A   1      35.040  17.560  24.604  1.00  0.00     0.030 A 
ATOM     19  C   UNL A   1      33.201  16.103  25.259  1.00  0.00     0.043 A 
ATOM     20  C   UNL A   1      34.542  16.288  24.912  1.00  0.00     0.023 A 
ATOM     21  Cl  UNL A   1      32.627  14.514  25.599  1.00  0.00    -0.084 Cl
ENDBRANCH  10  11
ENDBRANCH   9  10
ENDBRANCH   8   9
ENDBRANCH   6   8
ENDBRANCH   5   6
ENDBRANCH   4   5
ENDBRANCH   3   4
ENDBRANCH   2   3
ENDBRANCH   1   2
BRANCH   1  22
ATOM     22  C   UNL A   1      40.964  20.202  26.613  1.00  0.00     0.188 C 
BRANCH  22  23
ATOM     23  O   UNL A   1      41.983  20.452  25.649  1.00  0.00    -0.376 OA
BRANCH  23  24
ATOM     24  C   UNL A   1      43.048  21.278  26.125  1.00  0.00     0.202 C 
BRANCH  24  25
ATOM     25  C   UNL A   1      43.372  22.518  25.270  1.00  0.00     0.261 C 
BRANCH  25  26
ATOM     26  O   UNL A   1      42.599  23.699  25.547  1.00  0.00    -0.460 OA
BRANCH  26  27
ATOM     27  C   UNL A   1      43.248  24.882  25.486  1.00  0.00     0.338 C 
ATOM     28  O   UNL A   1      44.062  25.233  24.653  1.00  0.00    -0.246 OA
BRANCH  27  29
ATOM     29  C   UNL A   1      42.774  25.724  26.602  1.00  0.00     0.060 A 
ATOM     30  C   UNL A   1      43.143  27.072  26.669  1.00  0.00     0.016 A 
ATOM     31  C   UNL A   1      42.012  25.146  27.619  1.00  0.00     0.016 A 
ATOM     32  C   UNL A   1      42.761  27.843  27.774  1.00  0.00     0.010 A 
ATOM     33  C   UNL A   1      41.638  25.917  28.724  1.00  0.00     0.010 A 
ATOM     34  C   UNL A   1      42.030  27.263  28.820  1.00  0.00    -0.014 A 
BRANCH  34  35
ATOM     35  C   UNL A   1      41.777  28.016  30.075  1.00  0.00     0.031 A 
ATOM     36  C   UNL A   1      40.645  29.009  30.118  1.00  0.00     0.074 A 
ATOM     37  C   UNL A   1      42.555  27.838  31.159  1.00  0.00     0.049 A 
ATOM     38  N   UNL A   1      40.280  29.806  31.089  1.00  0.00    -0.248 NA
ATOM     39  C   UNL A   1      39.816  29.116  28.906  1.00  0.00     0.031 C 
ATOM     40  C   UNL A   1      43.664  26.890  31.260  1.00  0.00     0.029 A 
ATOM     41  N   UNL A   1      42.535  28.464  32.383  1.00  0.00    -0.354 N 
ATOM     42  C   UNL A   1      39.180  30.507  30.610  1.00  0.00     0.074 A 
ATOM     43  C   UNL A   1      38.951  30.059  29.253  1.00  0.00     0.031 C 
ATOM     44  C   UNL A   1      44.231  27.010  32.474  1.00  0.00     0.029 A 
ATOM     45  C   UNL A   1      43.544  28.061  33.225  1.00  0.00     0.049 A 
ATOM     46  H   UNL A   1      41.862  29.138  32.633  1.00  0.00     0.167 HD
ATOM     47  C   UNL A   1      38.426  31.438  31.241  1.00  0.00     0.031 A 
ATOM     48  C   UNL A   1      43.890  28.503  34.451  1.00  0.00     0.031 A 
ATOM     49  C   UNL A   1      38.664  31.905  32.581  1.00  0.00     0.049 A 
ATOM     50  C   UNL A   1      43.084  29.599  35.101  1.00  0.00     0.074 A 
ATOM     51  C   UNL A   1      37.940  32.832  33.310  1.00  0.00     0.029 A 
ATOM     52  N   UNL A   1      39.713  31.493  33.388  1.00  0.00    -0.354 N 
ATOM     53  N   UNL A   1      42.020  30.219  34.649  1.00  0.00    -0.248 NA
ATOM     54  C   UNL A   1      43.524  30.050  36.431  1.00  0.00     0.031 C 
ATOM     55  C   UNL A   1      38.582  33.021  34.538  1.00  0.00     0.029 A 
ATOM     56  C   UNL A   1      39.674  32.171  34.595  1.00  0.00     0.049 A 
ATOM     57  H   UNL A   1      40.385  30.818  33.140  1.00  0.00     0.167 HD
ATOM     58  C   UNL A   1      41.651  31.116  35.648  1.00  0.00     0.074 A 
ATOM     59  C   UNL A   1      42.594  30.947  36.733  1.00  0.00     0.031 C 
ATOM     60  C   UNL A   1      40.620  31.997  35.666  1.00  0.00     0.031 A 
BRANCH  47  61
ATOM     61  C   UNL A   1      37.279  32.043  30.477  1.00  0.00    -0.014 A 
ATOM     62  C   UNL A   1      35.973  31.541  30.616  1.00  0.00     0.010 A 
ATOM     63  C   UNL A   1      37.501  33.167  29.660  1.00  0.00     0.010 A 
ATOM     64  C   UNL A   1      34.911  32.139  29.932  1.00  0.00     0.020 A 
ATOM     65  C   UNL A   1      36.439  33.780  28.992  1.00  0.00     0.020 A 
ATOM     66  C   UNL A   1      35.151  33.255  29.123  1.00  0.00     0.054 A 
BRANCH  66  67
ATOM     67  S   UNL A   1      33.749  34.037  28.279  1.00  0.00     0.124 S 
ATOM     68  O   UNL A   1      34.422  34.973  27.381  1.00  0.00    -0.237 OA
ATOM     69  O   UNL A   1      33.095  32.904  27.629  1.00  0.00    -0.237 OA
ATOM     70  O   UNL A   1      32.990  34.652  29.364  1.00  0.00    -0.744 OA
ENDBRANCH  66  67
ENDBRANCH  47  61
BRANCH  48  71
ATOM     71  C   UNL A   1      45.084  27.942  35.140  1.00  0.00    -0.014 A 
ATOM     72  C   UNL A   1      46.364  28.482  34.925  1.00  0.00     0.010 A 
ATOM     73  C   UNL A   1      44.946  26.833  35.996  1.00  0.00     0.010 A 
ATOM     74  C   UNL A   1      47.486  27.911  35.534  1.00  0.00     0.020 A 
ATOM     75  C   UNL A   1      46.061  26.276  36.626  1.00  0.00     0.020 A 
ATOM     76  C   UNL A   1      47.327  26.810  36.379  1.00  0.00     0.054 A 
BRANCH  76  77
ATOM     77  S   UNL A   1      48.788  26.101  37.190  1.00  0.00     0.124 S 
ATOM     78  O   UNL A   1      48.813  26.827  38.456  1.00  0.00    -0.237 OA
ATOM     79  O   UNL A   1      48.447  24.684  37.278  1.00  0.00    -0.237 OA
ATOM     80  O   UNL A   1      49.874  26.416  36.265  1.00  0.00    -0.744 OA
ENDBRANCH  76  77
ENDBRANCH  48  71
BRANCH  60  81
ATOM     81  C   UNL A   1      40.439  32.831  36.906  1.00  0.00    -0.014 A 
ATOM     82  C   UNL A   1      41.218  33.980  37.131  1.00  0.00     0.010 A 
ATOM     83  C   UNL A   1      39.434  32.494  37.832  1.00  0.00     0.010 A 
ATOM     84  C   UNL A   1      41.016  34.758  38.274  1.00  0.00     0.020 A 
ATOM     85  C   UNL A   1      39.212  33.284  38.963  1.00  0.00     0.020 A 
ATOM     86  C   UNL A   1      40.014  34.404  39.183  1.00  0.00     0.054 A 
BRANCH  86  87
ATOM     87  S   UNL A   1      39.741  35.455  40.638  1.00  0.00     0.124 S 
ATOM     88  O   UNL A   1      40.287  34.633  41.713  1.00  0.00    -0.237 OA
ATOM     89  O   UNL A   1      40.505  36.657  40.315  1.00  0.00    -0.237 OA
ATOM     90  O   UNL A   1      38.292  35.635  40.665  1.00  0.00    -0.744 OA
ENDBRANCH  86  87
ENDBRANCH  60  81
ENDBRANCH  34  35
ENDBRANCH  27  29
ENDBRANCH  26  27
ENDBRANCH  25  26
ENDBRANCH  24  25
ENDBRANCH  23  24
ENDBRANCH  22  23
ENDBRANCH   1  22
TORSDOF 23
ENDMDL
MODEL 2
REMARK VINA RESULT:      -9.0      2.462      3.623
REMARK SMILES O=C(CCCc1nc2cc(Cl)ccc2[nH]1)OCCOCCOCCOC(=O)c1ccc(-c2c3nc(c(-c4ccc(S(=O)(=O)[O-])cc4)c4ccc([nH]4)c(-c4ccc(S(=O)(=O)[O-])cc4)c4nc(c(-c5ccc(S(=O)(=O)[O-])cc5)c5ccc2[nH]5)C=C4)C=C3)cc1
REMARK SMILES IDX 20 1 19 2 18 3 17 4 16 5 2 6 1 7 3 8 4 9 5 10 6 11 7 12
REMARK SMILES IDX 15 13 8 14 14 15 9 17 13 18 10 19 12 20 11 21 21 22 22 23
REMARK SMILES IDX 23 24 24 25 25 26 26 27 27 28 28 29 29 30 87 31 30 32 86 33
REMARK SMILES IDX 31 34 32 35 33 36 80 37 34 38 85 39 79 40 81 41 35 42 84 43
REMARK SMILES IDX 78 44 77 45 36 47 66 48 47 49 65 50 48 51 51 52 64 53 82 54
REMARK SMILES IDX 49 55 50 56 63 58 83 59 52 60 37 61 38 62 46 63 39 64 45 65
REMARK SMILES IDX 40 66 41 67 42 68 43 69 44 70 67 71 68 72 76 73 69 74 75 75
REMARK SMILES IDX 70 76 71 77 72 78 73 79 74 80 53 81 54 82 62 83 55 84 61 85
REMARK SMILES IDX 56 86 57 87 58 88 59 89 60 90
REMARK H PARENT 15 16 81 46 51 57
REMARK Flexibility Score: inf
ROOT
ATOM      1  C   UNL A   1      40.722  21.820  27.389  1.00  0.00     0.188 C 
ENDROOT
BRANCH   1   2
ATOM      2  O   UNL A   1      39.599  22.121  26.569  1.00  0.00    -0.376 OA
BRANCH   2   3
ATOM      3  C   UNL A   1      39.044  23.420  26.756  1.00  0.00     0.202 C 
BRANCH   3   4
ATOM      4  C   UNL A   1      37.874  23.795  25.844  1.00  0.00     0.261 C 
BRANCH   4   5
ATOM      5  O   UNL A   1      36.671  23.029  25.994  1.00  0.00    -0.463 OA
BRANCH   5   6
ATOM      6  C   UNL A   1      36.136  22.225  25.054  1.00  0.00     0.305 C 
ATOM      7  O   UNL A   1      36.871  21.713  24.210  1.00  0.00    -0.252 OA
BRANCH   6   8
ATOM      8  C   UNL A   1      34.646  21.998  25.013  1.00  0.00     0.123 C 
BRANCH   8   9
ATOM      9  C   UNL A   1      33.983  22.426  23.707  1.00  0.00     0.020 C 
BRANCH   9  10
ATOM     10  C   UNL A   1      34.378  23.813  23.187  1.00  0.00     0.076 C 
BRANCH  10  11
ATOM     11  C   UNL A   1      33.773  24.966  23.927  1.00  0.00     0.107 A 
ATOM     12  N   UNL A   1      34.298  25.566  24.980  1.00  0.00    -0.233 NA
ATOM     13  N   UNL A   1      32.586  25.565  23.572  1.00  0.00    -0.342 N 
ATOM     14  C   UNL A   1      33.467  26.623  25.265  1.00  0.00     0.090 A 
ATOM     15  C   UNL A   1      32.391  26.654  24.386  1.00  0.00     0.066 A 
ATOM     16  H   UNL A   1      31.980  25.265  22.856  1.00  0.00     0.168 HD
ATOM     17  C   UNL A   1      33.599  27.628  26.234  1.00  0.00     0.051 A 
ATOM     18  C   UNL A   1      31.407  27.645  24.415  1.00  0.00     0.030 A 
ATOM     19  C   UNL A   1      32.635  28.639  26.270  1.00  0.00     0.043 A 
ATOM     20  C   UNL A   1      31.556  28.648  25.381  1.00  0.00     0.023 A 
ATOM     21  Cl  UNL A   1      32.793  29.913  27.419  1.00  0.00    -0.084 Cl
ENDBRANCH  10  11
ENDBRANCH   9  10
ENDBRANCH   8   9
ENDBRANCH   6   8
ENDBRANCH   5   6
ENDBRANCH   4   5
ENDBRANCH   3   4
ENDBRANCH   2   3
ENDBRANCH   1   2
BRANCH   1  22
ATOM     22  C   UNL A   1      41.562  20.635  26.901  1.00  0.00     0.188 C 
BRANCH  22  23
ATOM     23  O   UNL A   1      42.298  20.940  25.721  1.00  0.00    -0.376 OA
BRANCH  23  24
ATOM     24  C   UNL A   1      43.423  21.795  25.937  1.00  0.00     0.202 C 
BRANCH  24  25
ATOM     25  C   UNL A   1      43.273  23.245  25.438  1.00  0.00     0.261 C 
BRANCH  25  26
ATOM     26  O   UNL A   1      43.002  24.238  26.442  1.00  0.00    -0.460 OA
BRANCH  26  27
ATOM     27  C   UNL A   1      43.294  25.519  26.130  1.00  0.00     0.338 C 
ATOM     28  O   UNL A   1      43.857  25.922  25.130  1.00  0.00    -0.246 OA
BRANCH  27  29
ATOM     29  C   UNL A   1      42.775  26.384  27.207  1.00  0.00     0.060 A 
ATOM     30  C   UNL A   1      43.281  27.677  27.374  1.00  0.00     0.016 A 
ATOM     31  C   UNL A   1      41.825  25.875  28.095  1.00  0.00     0.016 A 
ATOM     32  C   UNL A   1      42.847  28.461  28.450  1.00  0.00     0.010 A 
ATOM     33  C   UNL A   1      41.397  26.658  29.172  1.00  0.00     0.010 A 
ATOM     34  C   UNL A   1      41.922  27.946  29.370  1.00  0.00    -0.014 A 
BRANCH  34  35
ATOM     35  C   UNL A   1      41.592  28.694  30.610  1.00  0.00     0.031 A 
ATOM     36  C   UNL A   1      40.429  29.650  30.602  1.00  0.00     0.074 A 
ATOM     37  C   UNL A   1      42.329  28.544  31.727  1.00  0.00     0.049 A 
ATOM     38  N   UNL A   1      39.997  30.437  31.553  1.00  0.00    -0.248 NA
ATOM     39  C   UNL A   1      39.648  29.727  29.356  1.00  0.00     0.031 C 
ATOM     40  C   UNL A   1      43.463  27.632  31.878  1.00  0.00     0.029 A 
ATOM     41  N   UNL A   1      42.238  29.172  32.946  1.00  0.00    -0.354 N 
ATOM     42  C   UNL A   1      38.897  31.101  31.025  1.00  0.00     0.074 A 
ATOM     43  C   UNL A   1      38.740  30.643  29.662  1.00  0.00     0.031 C 
ATOM     44  C   UNL A   1      43.974  27.773  33.115  1.00  0.00     0.029 A 
ATOM     45  C   UNL A   1      43.223  28.803  33.832  1.00  0.00     0.049 A 
ATOM     46  H   UNL A   1      41.533  29.824  33.165  1.00  0.00     0.167 HD
ATOM     47  C   UNL A   1      38.088  32.009  31.620  1.00  0.00     0.031 A 
ATOM     48  C   UNL A   1      43.503  29.260  35.070  1.00  0.00     0.031 A 
ATOM     49  C   UNL A   1      38.254  32.486  32.968  1.00  0.00     0.049 A 
ATOM     50  C   UNL A   1      42.634  30.330  35.681  1.00  0.00     0.074 A 
ATOM     51  C   UNL A   1      37.470  33.392  33.662  1.00  0.00     0.029 A 
ATOM     52  N   UNL A   1      39.280  32.110  33.820  1.00  0.00    -0.354 N 
ATOM     53  N   UNL A   1      41.572  30.915  35.182  1.00  0.00    -0.248 NA
ATOM     54  C   UNL A   1      43.003  30.798  37.026  1.00  0.00     0.031 C 
ATOM     55  C   UNL A   1      38.053  33.604  34.916  1.00  0.00     0.029 A 
ATOM     56  C   UNL A   1      39.168  32.790  35.021  1.00  0.00     0.049 A 
ATOM     57  H   UNL A   1      39.983  31.457  33.603  1.00  0.00     0.167 HD
ATOM     58  C   UNL A   1      41.132  31.801  36.162  1.00  0.00     0.074 A 
ATOM     59  C   UNL A   1      42.033  31.666  37.286  1.00  0.00     0.031 C 
ATOM     60  C   UNL A   1      40.074  32.649  36.132  1.00  0.00     0.031 A 
BRANCH  47  61
ATOM     61  C   UNL A   1      36.955  32.575  30.807  1.00  0.00    -0.014 A 
ATOM     62  C   UNL A   1      35.662  32.028  30.887  1.00  0.00     0.010 A 
ATOM     63  C   UNL A   1      37.174  33.707  30.001  1.00  0.00     0.010 A 
ATOM     64  C   UNL A   1      34.612  32.590  30.157  1.00  0.00     0.020 A 
ATOM     65  C   UNL A   1      36.122  34.284  29.286  1.00  0.00     0.020 A 
ATOM     66  C   UNL A   1      34.849  33.715  29.360  1.00  0.00     0.054 A 
BRANCH  66  67
ATOM     67  S   UNL A   1      33.459  34.449  28.454  1.00  0.00     0.124 S 
ATOM     68  O   UNL A   1      34.123  35.493  27.679  1.00  0.00    -0.237 OA
ATOM     69  O   UNL A   1      32.949  33.320  27.680  1.00  0.00    -0.237 OA
ATOM     70  O   UNL A   1      32.570  34.927  29.510  1.00  0.00    -0.744 OA
ENDBRANCH  66  67
ENDBRANCH  47  61
BRANCH  48  71
ATOM     71  C   UNL A   1      44.683  28.738  35.810  1.00  0.00    -0.014 A 
ATOM     72  C   UNL A   1      44.559  27.658  36.701  1.00  0.00     0.010 A 
ATOM     73  C   UNL A   1      45.942  29.349  35.649  1.00  0.00     0.010 A 
ATOM     74  C   UNL A   1      45.664  27.213  37.434  1.00  0.00     0.020 A 
ATOM     75  C   UNL A   1      47.053  28.890  36.359  1.00  0.00     0.020 A 
ATOM     76  C   UNL A   1      46.904  27.834  37.259  1.00  0.00     0.054 A 
BRANCH  76  77
ATOM     77  S   UNL A   1      48.337  27.222  38.191  1.00  0.00     0.124 S 
ATOM     78  O   UNL A   1      49.444  27.891  37.516  1.00  0.00    -0.237 OA
ATOM     79  O   UNL A   1      48.052  27.679  39.548  1.00  0.00    -0.237 OA
ATOM     80  O   UNL A   1      48.269  25.774  38.002  1.00  0.00    -0.744 OA
ENDBRANCH  76  77
ENDBRANCH  48  71
BRANCH  60  81
ATOM     81  C   UNL A   1      39.813  33.480  37.360  1.00  0.00    -0.014 A 
ATOM     82  C   UNL A   1      40.349  34.774  37.491  1.00  0.00     0.010 A 
ATOM     83  C   UNL A   1      38.972  32.982  38.373  1.00  0.00     0.010 A 
ATOM     84  C   UNL A   1      40.073  35.542  38.625  1.00  0.00     0.020 A 
ATOM     85  C   UNL A   1      38.674  33.757  39.497  1.00  0.00     0.020 A 
ATOM     86  C   UNL A   1      39.238  35.027  39.622  1.00  0.00     0.054 A 
BRANCH  86  87
ATOM     87  S   UNL A   1      38.858  36.060  41.065  1.00  0.00     0.124 S 
ATOM     88  O   UNL A   1      37.709  35.367  41.640  1.00  0.00    -0.237 OA
ATOM     89  O   UNL A   1      40.090  35.988  41.846  1.00  0.00    -0.237 OA
ATOM     90  O   UNL A   1      38.570  37.370  40.487  1.00  0.00    -0.744 OA
ENDBRANCH  86  87
ENDBRANCH  60  81
ENDBRANCH  34  35
ENDBRANCH  27  29
ENDBRANCH  26  27
ENDBRANCH  25  26
ENDBRANCH  24  25
ENDBRANCH  23  24
ENDBRANCH  22  23
ENDBRANCH   1  22
TORSDOF 23
ENDMDL
MODEL 3
REMARK VINA RESULT:      -8.9      6.323     11.240
REMARK SMILES O=C(CCCc1nc2cc(Cl)ccc2[nH]1)OCCOCCOCCOC(=O)c1ccc(-c2c3nc(c(-c4ccc(S(=O)(=O)[O-])cc4)c4ccc([nH]4)c(-c4ccc(S(=O)(=O)[O-])cc4)c4nc(c(-c5ccc(S(=O)(=O)[O-])cc5)c5ccc2[nH]5)C=C4)C=C3)cc1
REMARK SMILES IDX 20 1 19 2 18 3 17 4 16 5 2 6 1 7 3 8 4 9 5 10 6 11 7 12
REMARK SMILES IDX 15 13 8 14 14 15 9 17 13 18 10 19 12 20 11 21 21 22 22 23
REMARK SMILES IDX 23 24 24 25 25 26 26 27 27 28 28 29 29 30 87 31 30 32 86 33
REMARK SMILES IDX 31 34 32 35 33 36 80 37 34 38 85 39 79 40 81 41 35 42 84 43
REMARK SMILES IDX 78 44 77 45 36 47 66 48 47 49 65 50 48 51 51 52 64 53 82 54
REMARK SMILES IDX 49 55 50 56 63 58 83 59 52 60 37 61 38 62 46 63 39 64 45 65
REMARK SMILES IDX 40 66 41 67 42 68 43 69 44 70 67 71 68 72 76 73 69 74 75 75
REMARK SMILES IDX 70 76 71 77 72 78 73 79 74 80 53 81 54 82 62 83 55 84 61 85
REMARK SMILES IDX 56 86 57 87 58 88 59 89 60 90
REMARK H PARENT 15 16 81 46 51 57
REMARK Flexibility Score: inf
ROOT
ATOM      1  C   UNL A   1      32.859  27.909  26.600  1.00  0.00     0.188 C 
ENDROOT
BRANCH   1   2
ATOM      2  O   UNL A   1      33.318  27.697  25.270  1.00  0.00    -0.376 OA
BRANCH   2   3
ATOM      3  C   UNL A   1      33.900  26.419  25.028  1.00  0.00     0.202 C 
BRANCH   3   4
ATOM      4  C   UNL A   1      33.808  25.892  23.594  1.00  0.00     0.261 C 
BRANCH   4   5
ATOM      5  O   UNL A   1      32.851  24.850  23.353  1.00  0.00    -0.463 OA
BRANCH   5   6
ATOM      6  C   UNL A   1      31.512  24.996  23.396  1.00  0.00     0.305 C 
ATOM      7  O   UNL A   1      30.986  25.916  22.772  1.00  0.00    -0.252 OA
BRANCH   6   8
ATOM      8  C   UNL A   1      30.679  24.066  24.240  1.00  0.00     0.123 C 
BRANCH   8   9
ATOM      9  C   UNL A   1      30.613  24.450  25.716  1.00  0.00     0.020 C 
BRANCH   9  10
ATOM     10  C   UNL A   1      31.153  23.405  26.698  1.00  0.00     0.076 C 
BRANCH  10  11
ATOM     11  C   UNL A   1      32.217  22.505  26.147  1.00  0.00     0.107 A 
ATOM     12  N   UNL A   1      33.513  22.756  26.146  1.00  0.00    -0.233 NA
ATOM     13  N   UNL A   1      31.963  21.272  25.591  1.00  0.00    -0.342 N 
ATOM     14  C   UNL A   1      34.115  21.627  25.644  1.00  0.00     0.090 A 
ATOM     15  C   UNL A   1      33.165  20.674  25.300  1.00  0.00     0.066 A 
ATOM     16  H   UNL A   1      31.073  20.885  25.428  1.00  0.00     0.168 HD
ATOM     17  C   UNL A   1      35.479  21.330  25.499  1.00  0.00     0.051 A 
ATOM     18  C   UNL A   1      33.492  19.410  24.801  1.00  0.00     0.030 A 
ATOM     19  C   UNL A   1      35.829  20.065  25.018  1.00  0.00     0.043 A 
ATOM     20  C   UNL A   1      34.856  19.123  24.671  1.00  0.00     0.023 A 
ATOM     21  Cl  UNL A   1      37.495  19.652  24.871  1.00  0.00    -0.084 Cl
ENDBRANCH  10  11
ENDBRANCH   9  10
ENDBRANCH   8   9
ENDBRANCH   6   8
ENDBRANCH   5   6
ENDBRANCH   4   5
ENDBRANCH   3   4
ENDBRANCH   2   3
ENDBRANCH   1   2
BRANCH   1  22
ATOM     22  C   UNL A   1      31.932  29.117  26.764  1.00  0.00     0.188 C 
BRANCH  22  23
ATOM     23  O   UNL A   1      32.630  30.286  27.181  1.00  0.00    -0.376 OA
BRANCH  23  24
ATOM     24  C   UNL A   1      34.027  30.273  26.875  1.00  0.00     0.202 C 
BRANCH  24  25
ATOM     25  C   UNL A   1      34.981  30.398  28.078  1.00  0.00     0.261 C 
BRANCH  25  26
ATOM     26  O   UNL A   1      36.108  29.505  28.091  1.00  0.00    -0.460 OA
BRANCH  26  27
ATOM     27  C   UNL A   1      36.822  29.438  29.235  1.00  0.00     0.338 C 
ATOM     28  O   UNL A   1      36.419  29.628  30.366  1.00  0.00    -0.246 OA
BRANCH  27  29
ATOM     29  C   UNL A   1      38.205  29.049  28.891  1.00  0.00     0.060 A 
ATOM     30  C   UNL A   1      39.028  28.460  29.856  1.00  0.00     0.016 A 
ATOM     31  C   UNL A   1      38.699  29.337  27.617  1.00  0.00     0.016 A 
ATOM     32  C   UNL A   1      40.364  28.173  29.549  1.00  0.00     0.010 A 
ATOM     33  C   UNL A   1      40.035  29.056  27.316  1.00  0.00     0.010 A 
ATOM     34  C   UNL A   1      40.882  28.494  28.287  1.00  0.00    -0.014 A 
BRANCH  34  35
ATOM     35  C   UNL A   1      42.336  28.363  28.010  1.00  0.00     0.031 A 
ATOM     36  C   UNL A   1      43.233  29.552  28.230  1.00  0.00     0.074 A 
ATOM     37  C   UNL A   1      42.852  27.209  27.548  1.00  0.00     0.049 A 
ATOM     38  N   UNL A   1      44.516  29.673  28.006  1.00  0.00    -0.248 NA
ATOM     39  C   UNL A   1      42.599  30.765  28.774  1.00  0.00     0.031 C 
ATOM     40  C   UNL A   1      42.100  25.975  27.319  1.00  0.00     0.029 A 
ATOM     41  N   UNL A   1      44.137  26.893  27.176  1.00  0.00    -0.354 N 
ATOM     42  C   UNL A   1      44.846  30.970  28.383  1.00  0.00     0.074 A 
ATOM     43  C   UNL A   1      43.624  31.604  28.828  1.00  0.00     0.031 C 
ATOM     44  C   UNL A   1      42.934  25.041  26.827  1.00  0.00     0.029 A 
ATOM     45  C   UNL A   1      44.271  25.618  26.681  1.00  0.00     0.049 A 
ATOM     46  H   UNL A   1      44.891  27.522  27.256  1.00  0.00     0.167 HD
ATOM     47  C   UNL A   1      46.055  31.578  28.363  1.00  0.00     0.031 A 
ATOM     48  C   UNL A   1      45.341  24.993  26.148  1.00  0.00     0.031 A 
ATOM     49  C   UNL A   1      47.269  30.959  27.899  1.00  0.00     0.049 A 
ATOM     50  C   UNL A   1      46.659  25.720  26.063  1.00  0.00     0.074 A 
ATOM     51  C   UNL A   1      48.546  31.493  27.861  1.00  0.00     0.029 A 
ATOM     52  N   UNL A   1      47.355  29.678  27.379  1.00  0.00    -0.354 N 
ATOM     53  N   UNL A   1      46.961  26.931  26.464  1.00  0.00    -0.248 NA
ATOM     54  C   UNL A   1      47.782  24.990  25.455  1.00  0.00     0.031 C 
ATOM     55  C   UNL A   1      49.394  30.552  27.268  1.00  0.00     0.029 A 
ATOM     56  C   UNL A   1      48.657  29.414  26.987  1.00  0.00     0.049 A 
ATOM     57  H   UNL A   1      46.603  29.048  27.300  1.00  0.00     0.167 HD
ATOM     58  C   UNL A   1      48.313  27.099  26.180  1.00  0.00     0.074 A 
ATOM     59  C   UNL A   1      48.774  25.861  25.586  1.00  0.00     0.031 C 
ATOM     60  C   UNL A   1      49.103  28.180  26.395  1.00  0.00     0.031 A 
BRANCH  47  61
ATOM     61  C   UNL A   1      46.127  33.006  28.834  1.00  0.00    -0.014 A 
ATOM     62  C   UNL A   1      46.364  33.310  30.186  1.00  0.00     0.010 A 
ATOM     63  C   UNL A   1      46.020  34.053  27.901  1.00  0.00     0.010 A 
ATOM     64  C   UNL A   1      46.469  34.640  30.601  1.00  0.00     0.020 A 
ATOM     65  C   UNL A   1      46.145  35.383  28.310  1.00  0.00     0.020 A 
ATOM     66  C   UNL A   1      46.358  35.669  29.660  1.00  0.00     0.054 A 
BRANCH  66  67
ATOM     67  S   UNL A   1      46.539  37.385  30.219  1.00  0.00     0.124 S 
ATOM     68  O   UNL A   1      45.151  37.769  30.465  1.00  0.00    -0.237 OA
ATOM     69  O   UNL A   1      47.373  37.248  31.411  1.00  0.00    -0.237 OA
ATOM     70  O   UNL A   1      47.178  38.053  29.089  1.00  0.00    -0.744 OA
ENDBRANCH  66  67
ENDBRANCH  47  61
BRANCH  48  71
ATOM     71  C   UNL A   1      45.210  23.610  25.612  1.00  0.00    -0.014 A 
ATOM     72  C   UNL A   1      44.894  23.386  24.261  1.00  0.00     0.010 A 
ATOM     73  C   UNL A   1      45.371  22.505  26.469  1.00  0.00     0.010 A 
ATOM     74  C   UNL A   1      44.719  22.084  23.782  1.00  0.00     0.020 A 
ATOM     75  C   UNL A   1      45.222  21.203  25.989  1.00  0.00     0.020 A 
ATOM     76  C   UNL A   1      44.882  21.000  24.650  1.00  0.00     0.054 A 
BRANCH  76  77
ATOM     77  S   UNL A   1      44.686  19.315  24.005  1.00  0.00     0.124 S 
ATOM     78  O   UNL A   1      43.449  18.886  24.651  1.00  0.00    -0.237 OA
ATOM     79  O   UNL A   1      44.605  19.533  22.563  1.00  0.00    -0.237 OA
ATOM     80  O   UNL A   1      45.899  18.637  24.457  1.00  0.00    -0.744 OA
ENDBRANCH  76  77
ENDBRANCH  48  71
BRANCH  60  81
ATOM     81  C   UNL A   1      50.554  28.070  26.010  1.00  0.00    -0.014 A 
ATOM     82  C   UNL A   1      50.992  28.404  24.717  1.00  0.00     0.010 A 
ATOM     83  C   UNL A   1      51.502  27.681  26.975  1.00  0.00     0.010 A 
ATOM     84  C   UNL A   1      52.348  28.323  24.386  1.00  0.00     0.020 A 
ATOM     85  C   UNL A   1      52.862  27.623  26.656  1.00  0.00     0.020 A 
ATOM     86  C   UNL A   1      53.274  27.931  25.359  1.00  0.00     0.054 A 
BRANCH  86  87
ATOM     87  S   UNL A   1      55.034  27.876  24.920  1.00  0.00     0.124 S 
ATOM     88  O   UNL A   1      55.384  29.292  24.891  1.00  0.00    -0.237 OA
ATOM     89  O   UNL A   1      55.616  27.107  26.017  1.00  0.00    -0.237 OA
ATOM     90  O   UNL A   1      55.045  27.204  23.623  1.00  0.00    -0.744 OA
ENDBRANCH  86  87
ENDBRANCH  60  81
ENDBRANCH  34  35
ENDBRANCH  27  29
ENDBRANCH  26  27
ENDBRANCH  25  26
ENDBRANCH  24  25
ENDBRANCH  23  24
ENDBRANCH  22  23
ENDBRANCH   1  22
TORSDOF 23
ENDMDL
