MODEL 1
REMARK VINA RESULT:     -12.3      0.000      0.000
REMARK SMILES Cc1ccc(C[C@@H](Cc2cc(F)cc(Br)c2)C(=O)OCCOCCOCCOC(=O)c2ccc(-c3c4nc(c(-c5ccc(S(=O)(=O)[O-])cc5)c5ccc([nH]5)c(-c5ccc(S(=O)(=O)[O-])cc5)c5nc(c(-c6ccc(S(=O)(=O)[O-])cc6)c6ccc3[nH]6)C=C5)C=C4)cc2)cc1
REMARK SMILES IDX 24 1 23 2 22 3 21 4 20 5 19 6 17 7 18 8 7 9 6 10 5 11 1 12
REMARK SMILES IDX 2 13 3 14 92 15 4 16 91 17 8 18 9 19 10 20 16 21 11 22 14 23
REMARK SMILES IDX 12 24 13 25 15 26 25 27 26 28 27 29 28 30 29 31 30 32 31 33
REMARK SMILES IDX 32 34 90 35 33 36 89 37 34 38 35 39 36 40 83 41 37 42 88 43
REMARK SMILES IDX 82 44 84 45 38 46 87 47 81 48 80 49 39 51 69 52 50 53 68 54
REMARK SMILES IDX 51 55 54 56 67 57 85 58 52 59 53 60 66 62 86 63 55 64 40 65
REMARK SMILES IDX 41 66 49 67 42 68 48 69 43 70 44 71 45 72 46 73 47 74 70 75
REMARK SMILES IDX 71 76 79 77 72 78 78 79 73 80 74 81 75 82 76 83 77 84 56 85
REMARK SMILES IDX 57 86 65 87 58 88 64 89 59 90 60 91 61 92 62 93 63 94
REMARK H PARENT 84 50 54 61
REMARK Flexibility Score: inf
ROOT
ATOM      1  C   UNL A   1      31.845  29.134  24.345  1.00  0.00     0.188 C 
ENDROOT
BRANCH   1   2
ATOM      2  C   UNL A   1      30.652  30.098  24.233  1.00  0.00     0.188 C 
BRANCH   2   3
ATOM      3  O   UNL A   1      29.509  29.904  23.353  1.00  0.00    -0.376 OA
BRANCH   3   4
ATOM      4  C   UNL A   1      28.921  28.678  22.862  1.00  0.00     0.202 C 
BRANCH   4   5
ATOM      5  C   UNL A   1      28.604  27.096  23.615  1.00  0.00     0.261 C 
BRANCH   5   6
ATOM      6  O   UNL A   1      29.105  26.317  25.053  1.00  0.00    -0.463 OA
BRANCH   6   7
ATOM      7  C   UNL A   1      30.296  26.023  25.764  1.00  0.00     0.309 C 
ATOM      8  O   UNL A   1      30.717  26.592  26.773  1.00  0.00    -0.252 OA
BRANCH   7   9
ATOM      9  C   UNL A   1      31.277  24.973  25.329  1.00  0.00     0.108 C 
BRANCH   9  10
ATOM     10  C   UNL A   1      30.858  24.296  24.041  1.00  0.00     0.051 C 
BRANCH  10  11
ATOM     11  C   UNL A   1      31.389  22.884  24.051  1.00  0.00    -0.047 A 
ATOM     12  C   UNL A   1      33.605  19.225  24.439  1.00  0.00     0.044 C 
ATOM     13  C   UNL A   1      32.817  20.489  24.309  1.00  0.00    -0.051 A 
ATOM     14  C   UNL A   1      33.042  21.325  23.213  1.00  0.00     0.004 A 
ATOM     15  C   UNL A   1      31.886  20.866  25.285  1.00  0.00     0.004 A 
ATOM     16  C   UNL A   1      32.296  22.485  23.059  1.00  0.00     0.004 A 
ATOM     17  C   UNL A   1      31.187  22.066  25.168  1.00  0.00     0.004 A 
ENDBRANCH  10  11
ENDBRANCH   9  10
BRANCH   9  18
ATOM     18  C   UNL A   1      32.840  25.333  25.377  1.00  0.00     0.051 C 
BRANCH  18  19
ATOM     19  C   UNL A   1      33.977  24.392  25.670  1.00  0.00    -0.043 A 
ATOM     20  C   UNL A   1      33.917  23.524  26.776  1.00  0.00     0.043 A 
ATOM     21  C   UNL A   1      35.061  24.294  24.828  1.00  0.00     0.019 A 
ATOM     22  C   UNL A   1      34.748  22.413  26.847  1.00  0.00     0.124 A 
ATOM     23  C   UNL A   1      35.808  23.126  24.856  1.00  0.00     0.021 A 
ATOM     24  F   UNL A   1      34.577  21.523  27.832  1.00  0.00    -0.207 F 
ATOM     25  C   UNL A   1      35.657  22.162  25.842  1.00  0.00     0.055 A 
ATOM     26  Br  UNL A   1      36.790  22.813  23.323  1.00  0.00    -0.051 Br
ENDBRANCH  18  19
ENDBRANCH   9  18
ENDBRANCH   7   9
ENDBRANCH   6   7
ENDBRANCH   5   6
ENDBRANCH   4   5
ENDBRANCH   3   4
ENDBRANCH   2   3
ENDBRANCH   1   2
BRANCH   1  27
ATOM     27  O   UNL A   1      32.617  29.411  25.493  1.00  0.00    -0.376 OA
BRANCH  27  28
ATOM     28  C   UNL A   1      31.917  29.895  26.621  1.00  0.00     0.202 C 
BRANCH  28  29
ATOM     29  C   UNL A   1      32.534  31.135  27.291  1.00  0.00     0.261 C 
BRANCH  29  30
ATOM     30  O   UNL A   1      33.974  31.161  27.176  1.00  0.00    -0.460 OA
BRANCH  30  31
ATOM     31  C   UNL A   1      34.680  31.315  28.361  1.00  0.00     0.338 C 
ATOM     32  O   UNL A   1      34.426  32.154  29.169  1.00  0.00    -0.246 OA
BRANCH  31  33
ATOM     33  C   UNL A   1      35.745  30.249  28.447  1.00  0.00     0.060 A 
ATOM     34  C   UNL A   1      36.341  29.734  29.597  1.00  0.00     0.016 A 
ATOM     35  C   UNL A   1      36.339  29.897  27.290  1.00  0.00     0.016 A 
ATOM     36  C   UNL A   1      37.656  29.075  29.587  1.00  0.00     0.010 A 
ATOM     37  C   UNL A   1      37.666  29.459  27.362  1.00  0.00     0.010 A 
ATOM     38  C   UNL A   1      38.473  28.990  28.447  1.00  0.00    -0.014 A 
BRANCH  38  39
ATOM     39  C   UNL A   1      40.154  28.516  28.362  1.00  0.00     0.031 A 
ATOM     40  C   UNL A   1      40.994  27.037  27.942  1.00  0.00     0.074 A 
ATOM     41  C   UNL A   1      41.099  29.431  28.696  1.00  0.00     0.049 A 
ATOM     42  N   UNL A   1      42.224  26.913  27.439  1.00  0.00    -0.248 NA
ATOM     43  C   UNL A   1      40.514  25.631  28.083  1.00  0.00     0.031 C 
ATOM     44  C   UNL A   1      42.503  29.432  28.288  1.00  0.00     0.029 A 
ATOM     45  N   UNL A   1      41.061  30.440  29.644  1.00  0.00    -0.354 N 
ATOM     46  C   UNL A   1      42.527  25.569  27.154  1.00  0.00     0.074 A 
ATOM     47  C   UNL A   1      41.364  24.826  27.470  1.00  0.00     0.031 C 
ATOM     48  C   UNL A   1      43.229  30.054  29.219  1.00  0.00     0.029 A 
ATOM     49  C   UNL A   1      42.319  30.450  30.263  1.00  0.00     0.049 A 
ATOM     50  H   UNL A   1      40.301  31.033  29.843  1.00  0.00     0.167 HD
ATOM     51  C   UNL A   1      43.729  24.922  27.070  1.00  0.00     0.031 A 
ATOM     52  C   UNL A   1      42.552  30.409  31.600  1.00  0.00     0.031 A 
ATOM     53  C   UNL A   1      44.736  25.569  27.893  1.00  0.00     0.049 A 
ATOM     54  C   UNL A   1      43.663  29.448  32.019  1.00  0.00     0.074 A 
ATOM     55  C   UNL A   1      45.602  26.623  27.700  1.00  0.00     0.029 A 
ATOM     56  N   UNL A   1      44.747  25.315  29.266  1.00  0.00    -0.354 N 
ATOM     57  N   UNL A   1      44.439  28.737  31.226  1.00  0.00    -0.248 NA
ATOM     58  C   UNL A   1      43.897  29.138  33.431  1.00  0.00     0.031 C 
ATOM     59  C   UNL A   1      45.980  27.112  28.988  1.00  0.00     0.029 A 
ATOM     60  C   UNL A   1      45.382  26.337  29.973  1.00  0.00     0.049 A 
ATOM     61  H   UNL A   1      44.355  24.514  29.684  1.00  0.00     0.167 HD
ATOM     62  C   UNL A   1      44.972  27.690  31.968  1.00  0.00     0.074 A 
ATOM     63  C   UNL A   1      44.779  28.130  33.343  1.00  0.00     0.031 C 
ATOM     64  C   UNL A   1      45.294  26.445  31.449  1.00  0.00     0.031 A 
BRANCH  51  65
ATOM     65  C   UNL A   1      43.884  23.572  26.306  1.00  0.00    -0.014 A 
ATOM     66  C   UNL A   1      43.405  22.364  26.855  1.00  0.00     0.010 A 
ATOM     67  C   UNL A   1      44.638  23.410  25.107  1.00  0.00     0.010 A 
ATOM     68  C   UNL A   1      43.683  21.097  26.267  1.00  0.00     0.020 A 
ATOM     69  C   UNL A   1      44.868  22.168  24.479  1.00  0.00     0.020 A 
ATOM     70  C   UNL A   1      44.425  21.005  25.087  1.00  0.00     0.054 A 
BRANCH  70  71
ATOM     71  S   UNL A   1      44.899  19.384  24.402  1.00  0.00     0.124 S 
ATOM     72  O   UNL A   1      46.341  19.361  24.634  1.00  0.00    -0.237 OA
ATOM     73  O   UNL A   1      44.118  18.444  25.199  1.00  0.00    -0.237 OA
ATOM     74  O   UNL A   1      44.507  19.470  22.995  1.00  0.00    -0.744 OA
ENDBRANCH  70  71
ENDBRANCH  51  65
BRANCH  52  75
ATOM     75  C   UNL A   1      41.369  30.896  32.392  1.00  0.00    -0.014 A 
ATOM     76  C   UNL A   1      41.372  32.282  32.678  1.00  0.00     0.010 A 
ATOM     77  C   UNL A   1      40.121  30.232  32.378  1.00  0.00     0.010 A 
ATOM     78  C   UNL A   1      40.180  33.009  32.768  1.00  0.00     0.020 A 
ATOM     79  C   UNL A   1      38.916  30.961  32.500  1.00  0.00     0.020 A 
ATOM     80  C   UNL A   1      38.959  32.353  32.632  1.00  0.00     0.054 A 
BRANCH  80  81
ATOM     81  S   UNL A   1      37.482  33.392  32.384  1.00  0.00     0.124 S 
ATOM     82  O   UNL A   1      36.903  33.454  33.719  1.00  0.00    -0.237 OA
ATOM     83  O   UNL A   1      38.079  34.639  31.904  1.00  0.00    -0.237 OA
ATOM     84  O   UNL A   1      36.708  32.653  31.392  1.00  0.00    -0.744 OA
ENDBRANCH  80  81
ENDBRANCH  52  75
BRANCH  64  85
ATOM     85  C   UNL A   1      45.468  25.205  32.354  1.00  0.00    -0.014 A 
ATOM     86  C   UNL A   1      44.543  24.138  32.410  1.00  0.00     0.010 A 
ATOM     87  C   UNL A   1      46.618  25.038  33.158  1.00  0.00     0.010 A 
ATOM     88  C   UNL A   1      44.629  23.101  33.355  1.00  0.00     0.020 A 
ATOM     89  C   UNL A   1      46.763  23.956  34.053  1.00  0.00     0.020 A 
ATOM     90  C   UNL A   1      45.725  23.038  34.202  1.00  0.00     0.054 A 
BRANCH  90  91
ATOM     91  S   UNL A   1      45.783  21.762  35.493  1.00  0.00     0.124 S 
ATOM     92  O   UNL A   1      44.870  20.755  34.957  1.00  0.00    -0.237 OA
ATOM     93  O   UNL A   1      47.191  21.370  35.517  1.00  0.00    -0.237 OA
ATOM     94  O   UNL A   1      45.317  22.461  36.687  1.00  0.00    -0.744 OA
ENDBRANCH  90  91
ENDBRANCH  64  85
ENDBRANCH  38  39
ENDBRANCH  31  33
ENDBRANCH  30  31
ENDBRANCH  29  30
ENDBRANCH  28  29
ENDBRANCH  27  28
ENDBRANCH   1  27
TORSDOF 24
ENDMDL
MODEL 2
REMARK VINA RESULT:     -11.8      1.179      2.114
REMARK SMILES Cc1ccc(C[C@@H](Cc2cc(F)cc(Br)c2)C(=O)OCCOCCOCCOC(=O)c2ccc(-c3c4nc(c(-c5ccc(S(=O)(=O)[O-])cc5)c5ccc([nH]5)c(-c5ccc(S(=O)(=O)[O-])cc5)c5nc(c(-c6ccc(S(=O)(=O)[O-])cc6)c6ccc3[nH]6)C=C5)C=C4)cc2)cc1
REMARK SMILES IDX 24 1 23 2 22 3 21 4 20 5 19 6 17 7 18 8 7 9 6 10 5 11 1 12
REMARK SMILES IDX 2 13 3 14 92 15 4 16 91 17 8 18 9 19 10 20 16 21 11 22 14 23
REMARK SMILES IDX 12 24 13 25 15 26 25 27 26 28 27 29 28 30 29 31 30 32 31 33
REMARK SMILES IDX 32 34 90 35 33 36 89 37 34 38 35 39 36 40 83 41 37 42 88 43
REMARK SMILES IDX 82 44 84 45 38 46 87 47 81 48 80 49 39 51 69 52 50 53 68 54
REMARK SMILES IDX 51 55 54 56 67 57 85 58 52 59 53 60 66 62 86 63 55 64 40 65
REMARK SMILES IDX 41 66 49 67 42 68 48 69 43 70 44 71 45 72 46 73 47 74 70 75
REMARK SMILES IDX 71 76 79 77 72 78 78 79 73 80 74 81 75 82 76 83 77 84 56 85
REMARK SMILES IDX 57 86 65 87 58 88 64 89 59 90 60 91 61 92 62 93 63 94
REMARK H PARENT 84 50 54 61
REMARK Flexibility Score: inf
ROOT
ATOM      1  C   UNL A   1      32.079  29.044  24.302  1.00  0.00     0.188 C 
ENDROOT
BRANCH   1   2
ATOM      2  C   UNL A   1      30.849  29.956  24.153  1.00  0.00     0.188 C 
BRANCH   2   3
ATOM      3  O   UNL A   1      29.613  29.578  23.484  1.00  0.00    -0.376 OA
BRANCH   3   4
ATOM      4  C   UNL A   1      29.152  28.273  23.066  1.00  0.00     0.202 C 
BRANCH   4   5
ATOM      5  C   UNL A   1      29.070  26.694  23.884  1.00  0.00     0.261 C 
BRANCH   5   6
ATOM      6  O   UNL A   1      29.656  26.064  25.363  1.00  0.00    -0.463 OA
BRANCH   6   7
ATOM      7  C   UNL A   1      30.887  25.847  26.033  1.00  0.00     0.309 C 
ATOM      8  O   UNL A   1      31.383  26.545  26.919  1.00  0.00    -0.252 OA
BRANCH   7   9
ATOM      9  C   UNL A   1      31.820  24.720  25.696  1.00  0.00     0.108 C 
BRANCH   9  10
ATOM     10  C   UNL A   1      33.170  24.874  26.366  1.00  0.00     0.051 C 
BRANCH  10  11
ATOM     11  C   UNL A   1      34.102  23.830  25.803  1.00  0.00    -0.047 A 
ATOM     12  C   UNL A   1      37.378  21.424  24.413  1.00  0.00     0.044 C 
ATOM     13  C   UNL A   1      36.229  22.246  24.904  1.00  0.00    -0.051 A 
ATOM     14  C   UNL A   1      35.706  23.248  24.085  1.00  0.00     0.004 A 
ATOM     15  C   UNL A   1      35.694  22.051  26.184  1.00  0.00     0.004 A 
ATOM     16  C   UNL A   1      34.618  23.997  24.510  1.00  0.00     0.004 A 
ATOM     17  C   UNL A   1      34.647  22.851  26.640  1.00  0.00     0.004 A 
ENDBRANCH  10  11
ENDBRANCH   9  10
BRANCH   9  18
ATOM     18  C   UNL A   1      31.250  23.222  25.758  1.00  0.00     0.051 C 
BRANCH  18  19
ATOM     19  C   UNL A   1      31.530  22.106  24.789  1.00  0.00    -0.043 A 
ATOM     20  C   UNL A   1      31.531  22.348  23.403  1.00  0.00     0.043 A 
ATOM     21  C   UNL A   1      31.874  20.846  25.227  1.00  0.00     0.019 A 
ATOM     22  C   UNL A   1      32.147  21.456  22.532  1.00  0.00     0.124 A 
ATOM     23  C   UNL A   1      32.576  20.022  24.363  1.00  0.00     0.021 A 
ATOM     24  F   UNL A   1      32.264  21.775  21.237  1.00  0.00    -0.207 F 
ATOM     25  C   UNL A   1      32.744  20.314  23.017  1.00  0.00     0.055 A 
ATOM     26  Br  UNL A   1      33.526  18.675  25.198  1.00  0.00    -0.051 Br
ENDBRANCH  18  19
ENDBRANCH   9  18
ENDBRANCH   7   9
ENDBRANCH   6   7
ENDBRANCH   5   6
ENDBRANCH   4   5
ENDBRANCH   3   4
ENDBRANCH   2   3
ENDBRANCH   1   2
BRANCH   1  27
ATOM     27  O   UNL A   1      32.864  29.426  25.410  1.00  0.00    -0.376 OA
BRANCH  27  28
ATOM     28  C   UNL A   1      32.167  29.919  26.536  1.00  0.00     0.202 C 
BRANCH  28  29
ATOM     29  C   UNL A   1      32.808  31.138  27.220  1.00  0.00     0.261 C 
BRANCH  29  30
ATOM     30  O   UNL A   1      34.253  31.081  27.202  1.00  0.00    -0.460 OA
BRANCH  30  31
ATOM     31  C   UNL A   1      34.885  31.200  28.431  1.00  0.00     0.338 C 
ATOM     32  O   UNL A   1      34.587  32.020  29.243  1.00  0.00    -0.246 OA
BRANCH  31  33
ATOM     33  C   UNL A   1      35.936  30.124  28.555  1.00  0.00     0.060 A 
ATOM     34  C   UNL A   1      36.460  29.578  29.725  1.00  0.00     0.016 A 
ATOM     35  C   UNL A   1      36.596  29.794  27.427  1.00  0.00     0.016 A 
ATOM     36  C   UNL A   1      37.769  28.910  29.778  1.00  0.00     0.010 A 
ATOM     37  C   UNL A   1      37.914  29.345  27.567  1.00  0.00     0.010 A 
ATOM     38  C   UNL A   1      38.652  28.845  28.686  1.00  0.00    -0.014 A 
BRANCH  38  39
ATOM     39  C   UNL A   1      40.333  28.361  28.690  1.00  0.00     0.031 A 
ATOM     40  C   UNL A   1      41.188  26.889  28.275  1.00  0.00     0.074 A 
ATOM     41  C   UNL A   1      41.260  29.258  29.111  1.00  0.00     0.049 A 
ATOM     42  N   UNL A   1      42.446  26.772  27.846  1.00  0.00    -0.248 NA
ATOM     43  C   UNL A   1      40.692  25.484  28.341  1.00  0.00     0.031 C 
ATOM     44  C   UNL A   1      42.686  29.260  28.791  1.00  0.00     0.029 A 
ATOM     45  N   UNL A   1      41.169  30.236  30.088  1.00  0.00    -0.354 N 
ATOM     46  C   UNL A   1      42.758  25.435  27.536  1.00  0.00     0.074 A 
ATOM     47  C   UNL A   1      41.573  24.692  27.756  1.00  0.00     0.031 C 
ATOM     48  C   UNL A   1      43.357  29.846  29.785  1.00  0.00     0.029 A 
ATOM     49  C   UNL A   1      42.387  30.216  30.784  1.00  0.00     0.049 A 
ATOM     50  H   UNL A   1      40.402  30.828  30.259  1.00  0.00     0.167 HD
ATOM     51  C   UNL A   1      43.960  24.782  27.506  1.00  0.00     0.031 A 
ATOM     52  C   UNL A   1      42.536  30.130  32.130  1.00  0.00     0.031 A 
ATOM     53  C   UNL A   1      44.917  25.394  28.410  1.00  0.00     0.049 A 
ATOM     54  C   UNL A   1      43.614  29.147  32.586  1.00  0.00     0.074 A 
ATOM     55  C   UNL A   1      45.800  26.447  28.306  1.00  0.00     0.029 A 
ATOM     56  N   UNL A   1      44.841  25.096  29.772  1.00  0.00    -0.354 N 
ATOM     57  N   UNL A   1      44.433  28.456  31.820  1.00  0.00    -0.248 NA
ATOM     58  C   UNL A   1      43.758  28.790  33.998  1.00  0.00     0.031 C 
ATOM     59  C   UNL A   1      46.100  26.891  29.629  1.00  0.00     0.029 A 
ATOM     60  C   UNL A   1      45.437  26.090  30.549  1.00  0.00     0.049 A 
ATOM     61  H   UNL A   1      44.419  24.286  30.139  1.00  0.00     0.167 HD
ATOM     62  C   UNL A   1      44.913  27.382  32.558  1.00  0.00     0.074 A 
ATOM     63  C   UNL A   1      44.638  27.779  33.932  1.00  0.00     0.031 C 
ATOM     64  C   UNL A   1      45.259  26.151  32.020  1.00  0.00     0.031 A 
BRANCH  51  65
ATOM     65  C   UNL A   1      44.153  23.455  26.709  1.00  0.00    -0.014 A 
ATOM     66  C   UNL A   1      43.115  22.505  26.611  1.00  0.00     0.010 A 
ATOM     67  C   UNL A   1      45.397  23.019  26.166  1.00  0.00     0.010 A 
ATOM     68  C   UNL A   1      43.315  21.215  26.042  1.00  0.00     0.020 A 
ATOM     69  C   UNL A   1      45.593  21.769  25.544  1.00  0.00     0.020 A 
ATOM     70  C   UNL A   1      44.559  20.849  25.522  1.00  0.00     0.054 A 
BRANCH  70  71
ATOM     71  S   UNL A   1      44.861  19.157  24.916  1.00  0.00     0.124 S 
ATOM     72  O   UNL A   1      43.981  18.362  25.770  1.00  0.00    -0.237 OA
ATOM     73  O   UNL A   1      44.475  19.233  23.511  1.00  0.00    -0.237 OA
ATOM     74  O   UNL A   1      46.290  18.950  25.150  1.00  0.00    -0.744 OA
ENDBRANCH  70  71
ENDBRANCH  51  65
BRANCH  52  75
ATOM     75  C   UNL A   1      41.309  30.601  32.862  1.00  0.00    -0.014 A 
ATOM     76  C   UNL A   1      41.225  32.001  33.047  1.00  0.00     0.010 A 
ATOM     77  C   UNL A   1      40.103  29.864  32.874  1.00  0.00     0.010 A 
ATOM     78  C   UNL A   1      39.991  32.661  33.063  1.00  0.00     0.020 A 
ATOM     79  C   UNL A   1      38.855  30.526  32.921  1.00  0.00     0.020 A 
ATOM     80  C   UNL A   1      38.814  31.925  32.952  1.00  0.00     0.054 A 
BRANCH  80  81
ATOM     81  S   UNL A   1      37.285  32.854  32.602  1.00  0.00     0.124 S 
ATOM     82  O   UNL A   1      37.144  32.713  31.159  1.00  0.00    -0.237 OA
ATOM     83  O   UNL A   1      36.306  32.116  33.400  1.00  0.00    -0.237 OA
ATOM     84  O   UNL A   1      37.587  34.200  33.081  1.00  0.00    -0.744 OA
ENDBRANCH  80  81
ENDBRANCH  52  75
BRANCH  64  85
ATOM     85  C   UNL A   1      45.369  24.881  32.894  1.00  0.00    -0.014 A 
ATOM     86  C   UNL A   1      46.491  24.577  33.697  1.00  0.00     0.010 A 
ATOM     87  C   UNL A   1      44.304  23.957  32.983  1.00  0.00     0.010 A 
ATOM     88  C   UNL A   1      46.648  23.344  34.353  1.00  0.00     0.020 A 
ATOM     89  C   UNL A   1      44.411  22.750  33.708  1.00  0.00     0.020 A 
ATOM     90  C   UNL A   1      45.617  22.417  34.322  1.00  0.00     0.054 A 
BRANCH  90  91
ATOM     91  S   UNL A   1      45.862  20.784  35.078  1.00  0.00     0.124 S 
ATOM     92  O   UNL A   1      44.580  20.135  34.810  1.00  0.00    -0.237 OA
ATOM     93  O   UNL A   1      46.999  20.237  34.339  1.00  0.00    -0.237 OA
ATOM     94  O   UNL A   1      46.130  21.092  36.480  1.00  0.00    -0.744 OA
ENDBRANCH  90  91
ENDBRANCH  64  85
ENDBRANCH  38  39
ENDBRANCH  31  33
ENDBRANCH  30  31
ENDBRANCH  29  30
ENDBRANCH  28  29
ENDBRANCH  27  28
ENDBRANCH   1  27
TORSDOF 24
ENDMDL
MODEL 3
REMARK VINA RESULT:     -10.6      1.519      2.132
REMARK SMILES Cc1ccc(C[C@@H](Cc2cc(F)cc(Br)c2)C(=O)OCCOCCOCCOC(=O)c2ccc(-c3c4nc(c(-c5ccc(S(=O)(=O)[O-])cc5)c5ccc([nH]5)c(-c5ccc(S(=O)(=O)[O-])cc5)c5nc(c(-c6ccc(S(=O)(=O)[O-])cc6)c6ccc3[nH]6)C=C5)C=C4)cc2)cc1
REMARK SMILES IDX 24 1 23 2 22 3 21 4 20 5 19 6 17 7 18 8 7 9 6 10 5 11 1 12
REMARK SMILES IDX 2 13 3 14 92 15 4 16 91 17 8 18 9 19 10 20 16 21 11 22 14 23
REMARK SMILES IDX 12 24 13 25 15 26 25 27 26 28 27 29 28 30 29 31 30 32 31 33
REMARK SMILES IDX 32 34 90 35 33 36 89 37 34 38 35 39 36 40 83 41 37 42 88 43
REMARK SMILES IDX 82 44 84 45 38 46 87 47 81 48 80 49 39 51 69 52 50 53 68 54
REMARK SMILES IDX 51 55 54 56 67 57 85 58 52 59 53 60 66 62 86 63 55 64 40 65
REMARK SMILES IDX 41 66 49 67 42 68 48 69 43 70 44 71 45 72 46 73 47 74 70 75
REMARK SMILES IDX 71 76 79 77 72 78 78 79 73 80 74 81 75 82 76 83 77 84 56 85
REMARK SMILES IDX 57 86 65 87 58 88 64 89 59 90 60 91 61 92 62 93 63 94
REMARK H PARENT 84 50 54 61
REMARK Flexibility Score: inf
ROOT
ATOM      1  C   UNL A   1      32.082  28.712  23.749  1.00  0.00     0.188 C 
ENDROOT
BRANCH   1   2
ATOM      2  C   UNL A   1      30.719  29.410  23.882  1.00  0.00     0.188 C 
BRANCH   2   3
ATOM      3  O   UNL A   1      29.472  28.907  23.325  1.00  0.00    -0.376 OA
BRANCH   3   4
ATOM      4  C   UNL A   1      28.998  27.547  23.204  1.00  0.00     0.202 C 
BRANCH   4   5
ATOM      5  C   UNL A   1      28.982  26.162  24.324  1.00  0.00     0.261 C 
BRANCH   5   6
ATOM      6  O   UNL A   1      29.833  25.747  25.748  1.00  0.00    -0.463 OA
BRANCH   6   7
ATOM      7  C   UNL A   1      31.147  25.414  26.164  1.00  0.00     0.309 C 
ATOM      8  O   UNL A   1      31.836  26.008  26.996  1.00  0.00    -0.252 OA
BRANCH   7   9
ATOM      9  C   UNL A   1      31.934  24.278  25.576  1.00  0.00     0.108 C 
BRANCH   9  10
ATOM     10  C   UNL A   1      31.039  23.206  24.987  1.00  0.00     0.051 C 
BRANCH  10  11
ATOM     11  C   UNL A   1      31.886  21.996  24.680  1.00  0.00    -0.047 A 
ATOM     12  C   UNL A   1      33.587  18.105  24.033  1.00  0.00     0.044 C 
ATOM     13  C   UNL A   1      33.004  19.466  24.242  1.00  0.00    -0.051 A 
ATOM     14  C   UNL A   1      32.978  20.008  25.529  1.00  0.00     0.004 A 
ATOM     15  C   UNL A   1      32.452  20.189  23.178  1.00  0.00     0.004 A 
ATOM     16  C   UNL A   1      32.472  21.284  25.736  1.00  0.00     0.004 A 
ATOM     17  C   UNL A   1      31.879  21.441  23.397  1.00  0.00     0.004 A 
ENDBRANCH  10  11
ENDBRANCH   9  10
BRANCH   9  18
ATOM     18  C   UNL A   1      33.194  24.632  24.648  1.00  0.00     0.051 C 
BRANCH  18  19
ATOM     19  C   UNL A   1      34.519  23.921  24.611  1.00  0.00    -0.043 A 
ATOM     20  C   UNL A   1      34.970  23.313  23.425  1.00  0.00     0.043 A 
ATOM     21  C   UNL A   1      35.360  23.916  25.702  1.00  0.00     0.019 A 
ATOM     22  C   UNL A   1      36.314  22.997  23.261  1.00  0.00     0.124 A 
ATOM     23  C   UNL A   1      36.711  23.697  25.485  1.00  0.00     0.021 A 
ATOM     24  F   UNL A   1      36.746  22.554  22.074  1.00  0.00    -0.207 F 
ATOM     25  C   UNL A   1      37.215  23.257  24.269  1.00  0.00     0.055 A 
ATOM     26  Br  UNL A   1      37.810  24.326  26.831  1.00  0.00    -0.051 Br
ENDBRANCH  18  19
ENDBRANCH   9  18
ENDBRANCH   7   9
ENDBRANCH   6   7
ENDBRANCH   5   6
ENDBRANCH   4   5
ENDBRANCH   3   4
ENDBRANCH   2   3
ENDBRANCH   1   2
BRANCH   1  27
ATOM     27  O   UNL A   1      32.873  28.916  24.900  1.00  0.00    -0.376 OA
BRANCH  27  28
ATOM     28  C   UNL A   1      32.185  28.983  26.132  1.00  0.00     0.202 C 
BRANCH  28  29
ATOM     29  C   UNL A   1      32.616  30.132  27.060  1.00  0.00     0.261 C 
BRANCH  29  30
ATOM     30  O   UNL A   1      34.048  30.175  27.251  1.00  0.00    -0.460 OA
BRANCH  30  31
ATOM     31  C   UNL A   1      34.548  31.308  27.878  1.00  0.00     0.338 C 
ATOM     32  O   UNL A   1      34.045  32.384  27.781  1.00  0.00    -0.246 OA
BRANCH  31  33
ATOM     33  C   UNL A   1      35.759  30.930  28.695  1.00  0.00     0.060 A 
ATOM     34  C   UNL A   1      36.608  31.781  29.399  1.00  0.00     0.016 A 
ATOM     35  C   UNL A   1      36.199  29.662  28.569  1.00  0.00     0.016 A 
ATOM     36  C   UNL A   1      37.986  31.415  29.759  1.00  0.00     0.010 A 
ATOM     37  C   UNL A   1      37.569  29.442  28.743  1.00  0.00     0.010 A 
ATOM     38  C   UNL A   1      38.606  30.223  29.345  1.00  0.00    -0.014 A 
BRANCH  38  39
ATOM     39  C   UNL A   1      40.301  29.804  29.438  1.00  0.00     0.031 A 
ATOM     40  C   UNL A   1      41.259  28.433  28.916  1.00  0.00     0.074 A 
ATOM     41  C   UNL A   1      41.146  30.670  30.054  1.00  0.00     0.049 A 
ATOM     42  N   UNL A   1      42.553  28.420  28.590  1.00  0.00    -0.248 NA
ATOM     43  C   UNL A   1      40.827  27.014  28.755  1.00  0.00     0.031 C 
ATOM     44  C   UNL A   1      42.592  30.767  29.866  1.00  0.00     0.029 A 
ATOM     45  N   UNL A   1      40.926  31.506  31.136  1.00  0.00    -0.354 N 
ATOM     46  C   UNL A   1      42.954  27.148  28.140  1.00  0.00     0.074 A 
ATOM     47  C   UNL A   1      41.791  26.339  28.154  1.00  0.00     0.031 C 
ATOM     48  C   UNL A   1      43.147  31.240  30.984  1.00  0.00     0.029 A 
ATOM     49  C   UNL A   1      42.080  31.439  31.930  1.00  0.00     0.049 A 
ATOM     50  H   UNL A   1      40.119  32.042  31.312  1.00  0.00     0.167 HD
ATOM     51  C   UNL A   1      44.183  26.549  28.135  1.00  0.00     0.031 A 
ATOM     52  C   UNL A   1      42.118  31.181  33.262  1.00  0.00     0.031 A 
ATOM     53  C   UNL A   1      45.030  27.070  29.193  1.00  0.00     0.049 A 
ATOM     54  C   UNL A   1      43.199  30.186  33.683  1.00  0.00     0.074 A 
ATOM     55  C   UNL A   1      45.867  28.158  29.305  1.00  0.00     0.029 A 
ATOM     56  N   UNL A   1      44.854  26.591  30.493  1.00  0.00    -0.354 N 
ATOM     57  N   UNL A   1      44.112  29.633  32.911  1.00  0.00    -0.248 NA
ATOM     58  C   UNL A   1      43.240  29.650  35.045  1.00  0.00     0.031 C 
ATOM     59  C   UNL A   1      46.032  28.434  30.697  1.00  0.00     0.029 A 
ATOM     60  C   UNL A   1      45.333  27.494  31.443  1.00  0.00     0.049 A 
ATOM     61  H   UNL A   1      44.442  25.724  30.712  1.00  0.00     0.167 HD
ATOM     62  C   UNL A   1      44.579  28.488  33.546  1.00  0.00     0.074 A 
ATOM     63  C   UNL A   1      44.170  28.689  34.929  1.00  0.00     0.031 C 
ATOM     64  C   UNL A   1      45.028  27.353  32.887  1.00  0.00     0.031 A 
BRANCH  51  65
ATOM     65  C   UNL A   1      44.507  25.347  27.195  1.00  0.00    -0.014 A 
ATOM     66  C   UNL A   1      44.309  25.437  25.801  1.00  0.00     0.010 A 
ATOM     67  C   UNL A   1      44.864  24.045  27.651  1.00  0.00     0.010 A 
ATOM     68  C   UNL A   1      44.429  24.309  24.940  1.00  0.00     0.020 A 
ATOM     69  C   UNL A   1      45.048  22.933  26.803  1.00  0.00     0.020 A 
ATOM     70  C   UNL A   1      44.786  23.058  25.449  1.00  0.00     0.054 A 
BRANCH  70  71
ATOM     71  S   UNL A   1      44.811  21.583  24.379  1.00  0.00     0.124 S 
ATOM     72  O   UNL A   1      44.429  22.136  23.082  1.00  0.00    -0.237 OA
ATOM     73  O   UNL A   1      46.191  21.119  24.483  1.00  0.00    -0.237 OA
ATOM     74  O   UNL A   1      43.817  20.695  24.982  1.00  0.00    -0.744 OA
ENDBRANCH  70  71
ENDBRANCH  51  65
BRANCH  52  75
ATOM     75  C   UNL A   1      40.812  31.505  33.935  1.00  0.00    -0.014 A 
ATOM     76  C   UNL A   1      40.469  32.877  33.941  1.00  0.00     0.010 A 
ATOM     77  C   UNL A   1      39.762  30.565  34.047  1.00  0.00     0.010 A 
ATOM     78  C   UNL A   1      39.134  33.294  33.879  1.00  0.00     0.020 A 
ATOM     79  C   UNL A   1      38.413  30.986  34.016  1.00  0.00     0.020 A 
ATOM     80  C   UNL A   1      38.115  32.346  33.869  1.00  0.00     0.054 A 
BRANCH  80  81
ATOM     81  S   UNL A   1      36.448  32.924  33.413  1.00  0.00     0.124 S 
ATOM     82  O   UNL A   1      36.726  34.102  32.600  1.00  0.00    -0.237 OA
ATOM     83  O   UNL A   1      35.927  31.770  32.681  1.00  0.00    -0.237 OA
ATOM     84  O   UNL A   1      35.812  33.181  34.701  1.00  0.00    -0.744 OA
ENDBRANCH  80  81
ENDBRANCH  52  75
BRANCH  64  85
ATOM     85  C   UNL A   1      45.125  25.983  33.596  1.00  0.00    -0.014 A 
ATOM     86  C   UNL A   1      45.938  25.741  34.726  1.00  0.00     0.010 A 
ATOM     87  C   UNL A   1      44.344  24.883  33.176  1.00  0.00     0.010 A 
ATOM     88  C   UNL A   1      46.143  24.456  35.256  1.00  0.00     0.020 A 
ATOM     89  C   UNL A   1      44.474  23.601  33.754  1.00  0.00     0.020 A 
ATOM     90  C   UNL A   1      45.436  23.381  34.738  1.00  0.00     0.054 A 
BRANCH  90  91
ATOM     91  S   UNL A   1      45.781  21.707  35.351  1.00  0.00     0.124 S 
ATOM     92  O   UNL A   1      47.072  21.422  34.730  1.00  0.00    -0.237 OA
ATOM     93  O   UNL A   1      45.817  21.881  36.803  1.00  0.00    -0.237 OA
ATOM     94  O   UNL A   1      44.656  20.921  34.853  1.00  0.00    -0.744 OA
ENDBRANCH  90  91
ENDBRANCH  64  85
ENDBRANCH  38  39
ENDBRANCH  31  33
ENDBRANCH  30  31
ENDBRANCH  29  30
ENDBRANCH  28  29
ENDBRANCH  27  28
ENDBRANCH   1  27
TORSDOF 24
ENDMDL
