MODEL 1
REMARK VINA RESULT:     -10.7      0.000      0.000
REMARK SMILES CCOc1ccc(C(=O)N2CCC(C(=O)OCCOCCOCCOC(=O)c3ccc(-c4c5nc(c(-c6ccc(S(=O)(=O)[O-])cc6)c6ccc([nH]6)c(-c6ccc(S(=O)(=O)[O-])cc6)c6nc(c(-c7ccc(S(=O)(=O)[O-])cc7)c7ccc4[nH]7)C=C6)C=C5)cc3)(c3ccccc3)CC2)cc1OC
REMARK SMILES IDX 20 1 19 2 18 3 17 4 16 5 14 6 15 7 13 8 8 9 9 10 10 11 11 12
REMARK SMILES IDX 95 13 12 14 94 15 7 16 4 17 5 18 97 19 6 20 96 21 3 22 2 23
REMARK SMILES IDX 1 24 98 25 99 26 88 27 89 28 93 29 90 30 92 31 91 32 21 33
REMARK SMILES IDX 22 34 23 35 24 36 25 37 26 38 27 39 28 40 29 41 87 42 30 43
REMARK SMILES IDX 86 44 31 45 32 46 33 47 80 48 34 49 85 50 79 51 81 52 35 53
REMARK SMILES IDX 84 54 78 55 77 56 36 58 66 59 47 60 65 61 48 62 51 63 64 64
REMARK SMILES IDX 82 65 49 66 50 67 63 69 83 70 52 71 37 72 38 73 46 74 39 75
REMARK SMILES IDX 45 76 40 77 41 78 42 79 43 80 44 81 67 82 68 83 76 84 69 85
REMARK SMILES IDX 75 86 70 87 71 88 72 89 73 90 74 91 53 92 54 93 62 94 55 95
REMARK SMILES IDX 61 96 56 97 57 98 58 99 59 100 60 101
REMARK H PARENT 81 57 51 68
REMARK Flexibility Score: inf
ROOT
ATOM      1  C   UNL A   1      40.978  20.450  27.346  1.00  0.00     0.188 C 
ENDROOT
BRANCH   1   2
ATOM      2  O   UNL A   1      40.147  20.499  26.188  1.00  0.00    -0.376 OA
BRANCH   2   3
ATOM      3  C   UNL A   1      39.253  21.589  26.017  1.00  0.00     0.202 C 
BRANCH   3   4
ATOM      4  C   UNL A   1      37.941  21.300  25.283  1.00  0.00     0.261 C 
BRANCH   4   5
ATOM      5  O   UNL A   1      36.936  22.318  25.455  1.00  0.00    -0.463 OA
BRANCH   5   6
ATOM      6  C   UNL A   1      36.351  22.780  24.320  1.00  0.00     0.316 C 
ATOM      7  O   UNL A   1      36.943  22.841  23.245  1.00  0.00    -0.251 OA
BRANCH   6   8
ATOM      8  C   UNL A   1      34.878  23.284  24.498  1.00  0.00     0.096 C 
ATOM      9  C   UNL A   1      32.684  26.934  25.635  1.00  0.00     0.253 C 
ATOM     10  O   UNL A   1      32.745  27.416  26.763  1.00  0.00    -0.269 OA
ATOM     11  N   UNL A   1      33.424  25.807  25.238  1.00  0.00    -0.339 N 
ATOM     12  C   UNL A   1      33.441  24.710  26.185  1.00  0.00     0.121 C 
ATOM     13  C   UNL A   1      33.785  25.544  23.846  1.00  0.00     0.121 C 
ATOM     14  C   UNL A   1      34.515  23.648  25.965  1.00  0.00     0.045 C 
ATOM     15  C   UNL A   1      34.958  24.605  23.688  1.00  0.00     0.045 C 
BRANCH   9  16
ATOM     16  C   UNL A   1      31.683  27.485  24.682  1.00  0.00     0.043 A 
ATOM     17  C   UNL A   1      29.739  28.436  22.912  1.00  0.00     0.161 A 
ATOM     18  C   UNL A   1      30.908  29.180  23.153  1.00  0.00     0.051 A 
ATOM     19  C   UNL A   1      29.530  27.226  23.567  1.00  0.00     0.161 A 
ATOM     20  C   UNL A   1      31.887  28.702  24.034  1.00  0.00     0.018 A 
ATOM     21  C   UNL A   1      30.467  26.817  24.510  1.00  0.00     0.064 A 
BRANCH  17  22
ATOM     22  O   UNL A   1      28.837  28.918  22.006  1.00  0.00    -0.490 OA
BRANCH  22  23
ATOM     23  C   UNL A   1      28.341  30.208  22.378  1.00  0.00     0.226 C 
ATOM     24  C   UNL A   1      28.616  31.181  21.246  1.00  0.00     0.049 C 
ENDBRANCH  22  23
ENDBRANCH  17  22
BRANCH  19  25
ATOM     25  O   UNL A   1      28.480  26.363  23.467  1.00  0.00    -0.493 OA
ATOM     26  C   UNL A   1      27.345  26.567  24.294  1.00  0.00     0.278 C 
ENDBRANCH  19  25
ENDBRANCH   9  16
BRANCH   8  27
ATOM     27  C   UNL A   1      33.867  22.239  23.930  1.00  0.00    -0.031 A 
ATOM     28  C   UNL A   1      33.678  20.978  24.533  1.00  0.00     0.005 A 
ATOM     29  C   UNL A   1      33.056  22.504  22.809  1.00  0.00     0.005 A 
ATOM     30  C   UNL A   1      32.762  20.039  24.035  1.00  0.00     0.000 A 
ATOM     31  C   UNL A   1      32.140  21.570  22.308  1.00  0.00     0.000 A 
ATOM     32  C   UNL A   1      31.994  20.333  22.919  1.00  0.00     0.000 A 
ENDBRANCH   8  27
ENDBRANCH   6   8
ENDBRANCH   5   6
ENDBRANCH   4   5
ENDBRANCH   3   4
ENDBRANCH   2   3
ENDBRANCH   1   2
BRANCH   1  33
ATOM     33  C   UNL A   1      42.070  21.513  27.540  1.00  0.00     0.188 C 
BRANCH  33  34
ATOM     34  O   UNL A   1      42.605  22.014  26.328  1.00  0.00    -0.376 OA
BRANCH  34  35
ATOM     35  C   UNL A   1      43.664  22.943  26.456  1.00  0.00     0.202 C 
BRANCH  35  36
ATOM     36  C   UNL A   1      43.426  24.206  25.625  1.00  0.00     0.261 C 
BRANCH  36  37
ATOM     37  O   UNL A   1      43.434  25.433  26.378  1.00  0.00    -0.460 OA
BRANCH  37  38
ATOM     38  C   UNL A   1      42.742  26.471  25.846  1.00  0.00     0.338 C 
ATOM     39  O   UNL A   1      42.510  26.661  24.672  1.00  0.00    -0.246 OA
BRANCH  38  40
ATOM     40  C   UNL A   1      42.125  27.234  26.957  1.00  0.00     0.060 A 
ATOM     41  C   UNL A   1      42.311  28.623  27.005  1.00  0.00     0.016 A 
ATOM     42  C   UNL A   1      41.393  26.586  27.954  1.00  0.00     0.016 A 
ATOM     43  C   UNL A   1      41.824  29.356  28.090  1.00  0.00     0.010 A 
ATOM     44  C   UNL A   1      40.917  27.319  29.047  1.00  0.00     0.010 A 
ATOM     45  C   UNL A   1      41.177  28.698  29.144  1.00  0.00    -0.014 A 
BRANCH  45  46
ATOM     46  C   UNL A   1      41.001  29.393  30.445  1.00  0.00     0.031 A 
ATOM     47  C   UNL A   1      39.863  30.375  30.576  1.00  0.00     0.074 A 
ATOM     48  C   UNL A   1      41.802  29.157  31.499  1.00  0.00     0.049 A 
ATOM     49  N   UNL A   1      39.507  31.105  31.600  1.00  0.00    -0.248 NA
ATOM     50  C   UNL A   1      39.020  30.559  29.382  1.00  0.00     0.031 C 
ATOM     51  C   UNL A   1      42.919  28.216  31.521  1.00  0.00     0.029 A 
ATOM     52  N   UNL A   1      41.794  29.703  32.760  1.00  0.00    -0.354 N 
ATOM     53  C   UNL A   1      38.407  31.842  31.173  1.00  0.00     0.074 A 
ATOM     54  C   UNL A   1      38.176  31.495  29.788  1.00  0.00     0.031 C 
ATOM     55  C   UNL A   1      43.495  28.253  32.737  1.00  0.00     0.029 A 
ATOM     56  C   UNL A   1      42.802  29.238  33.569  1.00  0.00     0.049 A 
ATOM     57  H   UNL A   1      41.130  30.366  33.055  1.00  0.00     0.167 HD
ATOM     58  C   UNL A   1      37.649  32.724  31.867  1.00  0.00     0.031 A 
ATOM     59  C   UNL A   1      43.134  29.575  34.832  1.00  0.00     0.031 A 
ATOM     60  C   UNL A   1      37.883  33.089  33.237  1.00  0.00     0.049 A 
ATOM     61  C   UNL A   1      42.306  30.594  35.575  1.00  0.00     0.074 A 
ATOM     62  C   UNL A   1      37.163  33.965  34.032  1.00  0.00     0.029 A 
ATOM     63  N   UNL A   1      38.926  32.608  34.016  1.00  0.00    -0.354 N 
ATOM     64  N   UNL A   1      41.251  31.258  35.167  1.00  0.00    -0.248 NA
ATOM     65  C   UNL A   1      42.707  30.894  36.958  1.00  0.00     0.031 C 
ATOM     66  C   UNL A   1      37.801  34.052  35.274  1.00  0.00     0.029 A 
ATOM     67  C   UNL A   1      38.879  33.182  35.275  1.00  0.00     0.049 A 
ATOM     68  H   UNL A   1      39.598  31.954  33.717  1.00  0.00     0.167 HD
ATOM     69  C   UNL A   1      40.843  32.029  36.253  1.00  0.00     0.074 A 
ATOM     70  C   UNL A   1      41.760  31.739  37.338  1.00  0.00     0.031 C 
ATOM     71  C   UNL A   1      39.800  32.892  36.347  1.00  0.00     0.031 A 
BRANCH  58  72
ATOM     72  C   UNL A   1      36.518  33.386  31.125  1.00  0.00    -0.014 A 
ATOM     73  C   UNL A   1      36.653  33.774  29.778  1.00  0.00     0.010 A 
ATOM     74  C   UNL A   1      35.303  33.633  31.789  1.00  0.00     0.010 A 
ATOM     75  C   UNL A   1      35.615  34.446  29.129  1.00  0.00     0.020 A 
ATOM     76  C   UNL A   1      34.251  34.278  31.133  1.00  0.00     0.020 A 
ATOM     77  C   UNL A   1      34.423  34.702  29.815  1.00  0.00     0.054 A 
BRANCH  77  78
ATOM     78  S   UNL A   1      33.094  35.584  28.952  1.00  0.00     0.124 S 
ATOM     79  O   UNL A   1      33.846  36.508  28.107  1.00  0.00    -0.237 OA
ATOM     80  O   UNL A   1      32.400  34.509  28.246  1.00  0.00    -0.237 OA
ATOM     81  O   UNL A   1      32.334  36.207  30.033  1.00  0.00    -0.744 OA
ENDBRANCH  77  78
ENDBRANCH  58  72
BRANCH  59  82
ATOM     82  C   UNL A   1      44.311  28.935  35.483  1.00  0.00    -0.014 A 
ATOM     83  C   UNL A   1      44.172  27.730  36.194  1.00  0.00     0.010 A 
ATOM     84  C   UNL A   1      45.583  29.528  35.384  1.00  0.00     0.010 A 
ATOM     85  C   UNL A   1      45.282  27.133  36.799  1.00  0.00     0.020 A 
ATOM     86  C   UNL A   1      46.700  28.921  35.965  1.00  0.00     0.020 A 
ATOM     87  C   UNL A   1      46.541  27.729  36.676  1.00  0.00     0.054 A 
BRANCH  87  88
ATOM     88  S   UNL A   1      47.979  26.898  37.407  1.00  0.00     0.124 S 
ATOM     89  O   UNL A   1      48.721  26.476  36.224  1.00  0.00    -0.237 OA
ATOM     90  O   UNL A   1      48.593  27.968  38.192  1.00  0.00    -0.237 OA
ATOM     91  O   UNL A   1      47.386  25.820  38.194  1.00  0.00    -0.744 OA
ENDBRANCH  87  88
ENDBRANCH  59  82
BRANCH  71  92
ATOM     92  C   UNL A   1      39.556  33.550  37.682  1.00  0.00    -0.014 A 
ATOM     93  C   UNL A   1      38.689  32.987  38.636  1.00  0.00     0.010 A 
ATOM     94  C   UNL A   1      40.236  34.742  37.997  1.00  0.00     0.010 A 
ATOM     95  C   UNL A   1      38.469  33.631  39.858  1.00  0.00     0.020 A 
ATOM     96  C   UNL A   1      40.041  35.372  39.229  1.00  0.00     0.020 A 
ATOM     97  C   UNL A   1      39.141  34.824  40.144  1.00  0.00     0.054 A 
BRANCH  97  98
ATOM     98  S   UNL A   1      38.847  35.637  41.738  1.00  0.00     0.124 S 
ATOM     99  O   UNL A   1      38.997  37.047  41.391  1.00  0.00    -0.237 OA
ATOM    100  O   UNL A   1      37.488  35.213  42.071  1.00  0.00    -0.237 OA
ATOM    101  O   UNL A   1      39.892  35.093  42.603  1.00  0.00    -0.744 OA
ENDBRANCH  97  98
ENDBRANCH  71  92
ENDBRANCH  45  46
ENDBRANCH  38  40
ENDBRANCH  37  38
ENDBRANCH  36  37
ENDBRANCH  35  36
ENDBRANCH  34  35
ENDBRANCH  33  34
ENDBRANCH   1  33
TORSDOF 25
ENDMDL
MODEL 2
REMARK VINA RESULT:     -10.4      1.988      8.687
REMARK SMILES CCOc1ccc(C(=O)N2CCC(C(=O)OCCOCCOCCOC(=O)c3ccc(-c4c5nc(c(-c6ccc(S(=O)(=O)[O-])cc6)c6ccc([nH]6)c(-c6ccc(S(=O)(=O)[O-])cc6)c6nc(c(-c7ccc(S(=O)(=O)[O-])cc7)c7ccc4[nH]7)C=C6)C=C5)cc3)(c3ccccc3)CC2)cc1OC
REMARK SMILES IDX 20 1 19 2 18 3 17 4 16 5 14 6 15 7 13 8 8 9 9 10 10 11 11 12
REMARK SMILES IDX 95 13 12 14 94 15 7 16 4 17 5 18 97 19 6 20 96 21 3 22 2 23
REMARK SMILES IDX 1 24 98 25 99 26 88 27 89 28 93 29 90 30 92 31 91 32 21 33
REMARK SMILES IDX 22 34 23 35 24 36 25 37 26 38 27 39 28 40 29 41 87 42 30 43
REMARK SMILES IDX 86 44 31 45 32 46 33 47 80 48 34 49 85 50 79 51 81 52 35 53
REMARK SMILES IDX 84 54 78 55 77 56 36 58 66 59 47 60 65 61 48 62 51 63 64 64
REMARK SMILES IDX 82 65 49 66 50 67 63 69 83 70 52 71 37 72 38 73 46 74 39 75
REMARK SMILES IDX 45 76 40 77 41 78 42 79 43 80 44 81 67 82 68 83 76 84 69 85
REMARK SMILES IDX 75 86 70 87 71 88 72 89 73 90 74 91 53 92 54 93 62 94 55 95
REMARK SMILES IDX 61 96 56 97 57 98 58 99 59 100 60 101
REMARK H PARENT 81 57 51 68
REMARK Flexibility Score: inf
ROOT
ATOM      1  C   UNL A   1      35.778  22.913  23.963  1.00  0.00     0.188 C 
ENDROOT
BRANCH   1   2
ATOM      2  O   UNL A   1      34.833  23.190  22.931  1.00  0.00    -0.376 OA
BRANCH   2   3
ATOM      3  C   UNL A   1      33.496  23.517  23.280  1.00  0.00     0.202 C 
BRANCH   3   4
ATOM      4  C   UNL A   1      32.597  24.044  22.158  1.00  0.00     0.261 C 
BRANCH   4   5
ATOM      5  O   UNL A   1      31.401  24.700  22.624  1.00  0.00    -0.463 OA
BRANCH   5   6
ATOM      6  C   UNL A   1      31.194  25.962  22.170  1.00  0.00     0.316 C 
ATOM      7  O   UNL A   1      31.170  26.241  20.973  1.00  0.00    -0.251 OA
BRANCH   6   8
ATOM      8  C   UNL A   1      31.044  27.048  23.290  1.00  0.00     0.096 C 
ATOM      9  C   UNL A   1      32.812  28.138  27.177  1.00  0.00     0.253 C 
ATOM     10  O   UNL A   1      32.712  27.425  28.172  1.00  0.00    -0.269 OA
ATOM     11  N   UNL A   1      32.308  27.778  25.916  1.00  0.00    -0.339 N 
ATOM     12  C   UNL A   1      30.973  27.213  25.919  1.00  0.00     0.121 C 
ATOM     13  C   UNL A   1      32.849  28.304  24.664  1.00  0.00     0.121 C 
ATOM     14  C   UNL A   1      30.551  26.478  24.649  1.00  0.00     0.045 C 
ATOM     15  C   UNL A   1      32.532  27.452  23.458  1.00  0.00     0.045 C 
BRANCH   9  16
ATOM     16  C   UNL A   1      33.376  29.506  27.340  1.00  0.00     0.043 A 
ATOM     17  C   UNL A   1      34.338  32.115  27.628  1.00  0.00     0.161 A 
ATOM     18  C   UNL A   1      35.191  31.015  27.832  1.00  0.00     0.051 A 
ATOM     19  C   UNL A   1      33.000  31.915  27.297  1.00  0.00     0.161 A 
ATOM     20  C   UNL A   1      34.712  29.707  27.681  1.00  0.00     0.018 A 
ATOM     21  C   UNL A   1      32.523  30.610  27.249  1.00  0.00     0.064 A 
BRANCH  17  22
ATOM     22  O   UNL A   1      34.862  33.372  27.735  1.00  0.00    -0.490 OA
BRANCH  22  23
ATOM     23  C   UNL A   1      33.845  34.362  27.921  1.00  0.00     0.226 C 
ATOM     24  C   UNL A   1      34.508  35.687  28.253  1.00  0.00     0.049 C 
ENDBRANCH  22  23
ENDBRANCH  17  22
BRANCH  19  25
ATOM     25  O   UNL A   1      32.026  32.837  27.055  1.00  0.00    -0.493 OA
ATOM     26  C   UNL A   1      30.961  32.492  26.184  1.00  0.00     0.278 C 
ENDBRANCH  19  25
ENDBRANCH   9  16
BRANCH   8  27
ATOM     27  C   UNL A   1      30.110  28.204  22.813  1.00  0.00    -0.031 A 
ATOM     28  C   UNL A   1      28.728  28.211  23.089  1.00  0.00     0.005 A 
ATOM     29  C   UNL A   1      30.596  29.327  22.114  1.00  0.00     0.005 A 
ATOM     30  C   UNL A   1      27.886  29.253  22.675  1.00  0.00     0.000 A 
ATOM     31  C   UNL A   1      29.759  30.371  21.697  1.00  0.00     0.000 A 
ATOM     32  C   UNL A   1      28.400  30.334  21.975  1.00  0.00     0.000 A 
ENDBRANCH   8  27
ENDBRANCH   6   8
ENDBRANCH   5   6
ENDBRANCH   4   5
ENDBRANCH   3   4
ENDBRANCH   2   3
ENDBRANCH   1   2
BRANCH   1  33
ATOM     33  C   UNL A   1      35.695  23.678  25.292  1.00  0.00     0.188 C 
BRANCH  33  34
ATOM     34  O   UNL A   1      36.621  23.236  26.267  1.00  0.00    -0.376 OA
BRANCH  34  35
ATOM     35  C   UNL A   1      37.854  22.748  25.774  1.00  0.00     0.202 C 
BRANCH  35  36
ATOM     36  C   UNL A   1      39.050  23.333  26.529  1.00  0.00     0.261 C 
BRANCH  36  37
ATOM     37  O   UNL A   1      39.041  24.767  26.656  1.00  0.00    -0.460 OA
BRANCH  37  38
ATOM     38  C   UNL A   1      40.214  25.349  27.006  1.00  0.00     0.338 C 
ATOM     39  O   UNL A   1      41.290  25.188  26.472  1.00  0.00    -0.246 OA
BRANCH  38  40
ATOM     40  C   UNL A   1      39.930  26.388  28.025  1.00  0.00     0.060 A 
ATOM     41  C   UNL A   1      40.561  27.635  27.908  1.00  0.00     0.016 A 
ATOM     42  C   UNL A   1      39.073  26.129  29.096  1.00  0.00     0.016 A 
ATOM     43  C   UNL A   1      40.388  28.601  28.903  1.00  0.00     0.010 A 
ATOM     44  C   UNL A   1      38.911  27.091  30.098  1.00  0.00     0.010 A 
ATOM     45  C   UNL A   1      39.611  28.310  30.032  1.00  0.00    -0.014 A 
BRANCH  45  46
ATOM     46  C   UNL A   1      39.729  29.162  31.243  1.00  0.00     0.031 A 
ATOM     47  C   UNL A   1      40.893  28.917  32.171  1.00  0.00     0.074 A 
ATOM     48  C   UNL A   1      38.852  30.144  31.518  1.00  0.00     0.049 A 
ATOM     49  N   UNL A   1      41.210  29.521  33.286  1.00  0.00    -0.248 NA
ATOM     50  C   UNL A   1      41.819  27.838  31.785  1.00  0.00     0.031 C 
ATOM     51  C   UNL A   1      37.700  30.507  30.697  1.00  0.00     0.029 A 
ATOM     52  N   UNL A   1      38.799  31.014  32.579  1.00  0.00    -0.354 N 
ATOM     53  C   UNL A   1      42.363  28.890  33.741  1.00  0.00     0.074 A 
ATOM     54  C   UNL A   1      42.669  27.836  32.799  1.00  0.00     0.031 C 
ATOM     55  C   UNL A   1      37.049  31.525  31.287  1.00  0.00     0.029 A 
ATOM     56  C   UNL A   1      37.724  31.868  32.540  1.00  0.00     0.049 A 
ATOM     57  H   UNL A   1      39.468  31.025  33.300  1.00  0.00     0.167 HD
ATOM     58  C   UNL A   1      43.108  29.162  34.839  1.00  0.00     0.031 A 
ATOM     59  C   UNL A   1      37.323  32.811  33.417  1.00  0.00     0.031 A 
ATOM     60  C   UNL A   1      42.799  30.194  35.791  1.00  0.00     0.049 A 
ATOM     61  C   UNL A   1      38.140  33.069  34.659  1.00  0.00     0.074 A 
ATOM     62  C   UNL A   1      43.500  30.555  36.929  1.00  0.00     0.029 A 
ATOM     63  N   UNL A   1      41.691  31.025  35.723  1.00  0.00    -0.354 N 
ATOM     64  N   UNL A   1      39.244  32.484  35.059  1.00  0.00    -0.248 NA
ATOM     65  C   UNL A   1      37.662  34.129  35.559  1.00  0.00     0.031 C 
ATOM     66  C   UNL A   1      42.787  31.570  37.577  1.00  0.00     0.029 A 
ATOM     67  C   UNL A   1      41.677  31.885  36.808  1.00  0.00     0.049 A 
ATOM     68  H   UNL A   1      41.014  31.007  35.008  1.00  0.00     0.167 HD
ATOM     69  C   UNL A   1      39.611  33.129  36.239  1.00  0.00     0.074 A 
ATOM     70  C   UNL A   1      38.614  34.153  36.480  1.00  0.00     0.031 C 
ATOM     71  C   UNL A   1      40.678  32.899  37.044  1.00  0.00     0.031 A 
BRANCH  58  72
ATOM     72  C   UNL A   1      44.310  28.288  35.084  1.00  0.00    -0.014 A 
ATOM     73  C   UNL A   1      45.528  28.514  34.416  1.00  0.00     0.010 A 
ATOM     74  C   UNL A   1      44.214  27.216  35.990  1.00  0.00     0.010 A 
ATOM     75  C   UNL A   1      46.610  27.651  34.608  1.00  0.00     0.020 A 
ATOM     76  C   UNL A   1      45.304  26.369  36.207  1.00  0.00     0.020 A 
ATOM     77  C   UNL A   1      46.487  26.578  35.497  1.00  0.00     0.054 A 
BRANCH  77  78
ATOM     78  S   UNL A   1      47.903  25.467  35.722  1.00  0.00     0.124 S 
ATOM     79  O   UNL A   1      47.323  24.406  36.544  1.00  0.00    -0.237 OA
ATOM     80  O   UNL A   1      48.235  25.087  34.351  1.00  0.00    -0.237 OA
ATOM     81  O   UNL A   1      48.896  26.302  36.393  1.00  0.00    -0.744 OA
ENDBRANCH  77  78
ENDBRANCH  58  72
BRANCH  59  82
ATOM     82  C   UNL A   1      36.082  33.590  33.151  1.00  0.00    -0.014 A 
ATOM     83  C   UNL A   1      36.143  34.842  32.514  1.00  0.00     0.010 A 
ATOM     84  C   UNL A   1      34.829  33.074  33.528  1.00  0.00     0.010 A 
ATOM     85  C   UNL A   1      34.974  35.566  32.264  1.00  0.00     0.020 A 
ATOM     86  C   UNL A   1      33.655  33.783  33.255  1.00  0.00     0.020 A 
ATOM     87  C   UNL A   1      33.735  35.030  32.631  1.00  0.00     0.054 A 
BRANCH  87  88
ATOM     88  S   UNL A   1      32.226  35.954  32.230  1.00  0.00     0.124 S 
ATOM     89  O   UNL A   1      32.373  36.168  30.794  1.00  0.00    -0.237 OA
ATOM     90  O   UNL A   1      31.173  35.022  32.627  1.00  0.00    -0.237 OA
ATOM     91  O   UNL A   1      32.331  37.153  33.058  1.00  0.00    -0.744 OA
ENDBRANCH  87  88
ENDBRANCH  59  82
BRANCH  71  92
ATOM     92  C   UNL A   1      40.861  33.802  38.238  1.00  0.00    -0.014 A 
ATOM     93  C   UNL A   1      40.315  33.485  39.494  1.00  0.00     0.010 A 
ATOM     94  C   UNL A   1      41.623  34.978  38.102  1.00  0.00     0.010 A 
ATOM     95  C   UNL A   1      40.485  34.352  40.579  1.00  0.00     0.020 A 
ATOM     96  C   UNL A   1      41.821  35.832  39.190  1.00  0.00     0.020 A 
ATOM     97  C   UNL A   1      41.232  35.524  40.418  1.00  0.00     0.054 A 
BRANCH  97  98
ATOM     98  S   UNL A   1      41.447  36.630  41.839  1.00  0.00     0.124 S 
ATOM     99  O   UNL A   1      40.327  36.247  42.694  1.00  0.00    -0.237 OA
ATOM    100  O   UNL A   1      42.772  36.264  42.336  1.00  0.00    -0.237 OA
ATOM    101  O   UNL A   1      41.356  37.967  41.255  1.00  0.00    -0.744 OA
ENDBRANCH  97  98
ENDBRANCH  71  92
ENDBRANCH  45  46
ENDBRANCH  38  40
ENDBRANCH  37  38
ENDBRANCH  36  37
ENDBRANCH  35  36
ENDBRANCH  34  35
ENDBRANCH  33  34
ENDBRANCH   1  33
TORSDOF 25
ENDMDL
MODEL 3
REMARK VINA RESULT:     -10.4      2.014      8.278
REMARK SMILES CCOc1ccc(C(=O)N2CCC(C(=O)OCCOCCOCCOC(=O)c3ccc(-c4c5nc(c(-c6ccc(S(=O)(=O)[O-])cc6)c6ccc([nH]6)c(-c6ccc(S(=O)(=O)[O-])cc6)c6nc(c(-c7ccc(S(=O)(=O)[O-])cc7)c7ccc4[nH]7)C=C6)C=C5)cc3)(c3ccccc3)CC2)cc1OC
REMARK SMILES IDX 20 1 19 2 18 3 17 4 16 5 14 6 15 7 13 8 8 9 9 10 10 11 11 12
REMARK SMILES IDX 95 13 12 14 94 15 7 16 4 17 5 18 97 19 6 20 96 21 3 22 2 23
REMARK SMILES IDX 1 24 98 25 99 26 88 27 89 28 93 29 90 30 92 31 91 32 21 33
REMARK SMILES IDX 22 34 23 35 24 36 25 37 26 38 27 39 28 40 29 41 87 42 30 43
REMARK SMILES IDX 86 44 31 45 32 46 33 47 80 48 34 49 85 50 79 51 81 52 35 53
REMARK SMILES IDX 84 54 78 55 77 56 36 58 66 59 47 60 65 61 48 62 51 63 64 64
REMARK SMILES IDX 82 65 49 66 50 67 63 69 83 70 52 71 37 72 38 73 46 74 39 75
REMARK SMILES IDX 45 76 40 77 41 78 42 79 43 80 44 81 67 82 68 83 76 84 69 85
REMARK SMILES IDX 75 86 70 87 71 88 72 89 73 90 74 91 53 92 54 93 62 94 55 95
REMARK SMILES IDX 61 96 56 97 57 98 58 99 59 100 60 101
REMARK H PARENT 81 57 51 68
REMARK Flexibility Score: inf
ROOT
ATOM      1  C   UNL A   1      37.544  20.746  25.004  1.00  0.00     0.188 C 
ENDROOT
BRANCH   1   2
ATOM      2  O   UNL A   1      36.289  20.658  25.675  1.00  0.00    -0.376 OA
BRANCH   2   3
ATOM      3  C   UNL A   1      35.175  20.091  25.000  1.00  0.00     0.202 C 
BRANCH   3   4
ATOM      4  C   UNL A   1      33.785  20.523  25.474  1.00  0.00     0.261 C 
BRANCH   4   5
ATOM      5  O   UNL A   1      33.098  21.397  24.556  1.00  0.00    -0.463 OA
BRANCH   5   6
ATOM      6  C   UNL A   1      32.357  22.388  25.114  1.00  0.00     0.316 C 
ATOM      7  O   UNL A   1      31.310  22.173  25.721  1.00  0.00    -0.251 OA
BRANCH   6   8
ATOM      8  C   UNL A   1      32.909  23.835  24.876  1.00  0.00     0.096 C 
ATOM      9  C   UNL A   1      31.524  28.019  24.950  1.00  0.00     0.253 C 
ATOM     10  O   UNL A   1      30.690  28.452  24.160  1.00  0.00    -0.269 OA
ATOM     11  N   UNL A   1      31.932  26.674  24.980  1.00  0.00    -0.339 N 
ATOM     12  C   UNL A   1      32.199  26.077  23.687  1.00  0.00     0.121 C 
ATOM     13  C   UNL A   1      32.473  26.034  26.178  1.00  0.00     0.121 C 
ATOM     14  C   UNL A   1      32.273  24.552  23.652  1.00  0.00     0.045 C 
ATOM     15  C   UNL A   1      32.380  24.527  26.159  1.00  0.00     0.045 C 
BRANCH   9  16
ATOM     16  C   UNL A   1      32.237  28.985  25.829  1.00  0.00     0.043 A 
ATOM     17  C   UNL A   1      33.657  30.733  27.486  1.00  0.00     0.161 A 
ATOM     18  C   UNL A   1      32.407  31.107  26.961  1.00  0.00     0.051 A 
ATOM     19  C   UNL A   1      34.209  29.494  27.171  1.00  0.00     0.161 A 
ATOM     20  C   UNL A   1      31.691  30.230  26.136  1.00  0.00     0.018 A 
ATOM     21  C   UNL A   1      33.527  28.679  26.273  1.00  0.00     0.064 A 
BRANCH  17  22
ATOM     22  O   UNL A   1      34.296  31.600  28.326  1.00  0.00    -0.490 OA
BRANCH  22  23
ATOM     23  C   UNL A   1      34.118  32.963  27.927  1.00  0.00     0.226 C 
ATOM     24  C   UNL A   1      33.871  33.806  29.165  1.00  0.00     0.049 C 
ENDBRANCH  22  23
ENDBRANCH  17  22
BRANCH  19  25
ATOM     25  O   UNL A   1      35.390  28.948  27.578  1.00  0.00    -0.493 OA
ATOM     26  C   UNL A   1      36.598  29.627  27.274  1.00  0.00     0.278 C 
ENDBRANCH  19  25
ENDBRANCH   9  16
BRANCH   8  27
ATOM     27  C   UNL A   1      34.465  23.816  24.748  1.00  0.00    -0.031 A 
ATOM     28  C   UNL A   1      35.111  23.570  23.519  1.00  0.00     0.005 A 
ATOM     29  C   UNL A   1      35.316  24.080  25.839  1.00  0.00     0.005 A 
ATOM     30  C   UNL A   1      36.508  23.564  23.394  1.00  0.00     0.000 A 
ATOM     31  C   UNL A   1      36.712  24.076  25.720  1.00  0.00     0.000 A 
ATOM     32  C   UNL A   1      37.311  23.814  24.497  1.00  0.00     0.000 A 
ENDBRANCH   8  27
ENDBRANCH   6   8
ENDBRANCH   5   6
ENDBRANCH   4   5
ENDBRANCH   3   4
ENDBRANCH   2   3
ENDBRANCH   1   2
BRANCH   1  33
ATOM     33  C   UNL A   1      38.763  20.007  25.577  1.00  0.00     0.188 C 
BRANCH  33  34
ATOM     34  O   UNL A   1      39.513  20.770  26.504  1.00  0.00    -0.376 OA
BRANCH  34  35
ATOM     35  C   UNL A   1      39.297  22.168  26.473  1.00  0.00     0.202 C 
BRANCH  35  36
ATOM     36  C   UNL A   1      40.539  22.953  26.902  1.00  0.00     0.261 C 
BRANCH  36  37
ATOM     37  O   UNL A   1      40.271  24.105  27.721  1.00  0.00    -0.460 OA
BRANCH  37  38
ATOM     38  C   UNL A   1      40.292  25.308  27.095  1.00  0.00     0.338 C 
ATOM     39  O   UNL A   1      40.370  25.501  25.901  1.00  0.00    -0.246 OA
BRANCH  38  40
ATOM     40  C   UNL A   1      39.986  26.358  28.097  1.00  0.00     0.060 A 
ATOM     41  C   UNL A   1      40.635  27.596  27.994  1.00  0.00     0.016 A 
ATOM     42  C   UNL A   1      39.089  26.116  29.140  1.00  0.00     0.016 A 
ATOM     43  C   UNL A   1      40.442  28.570  28.976  1.00  0.00     0.010 A 
ATOM     44  C   UNL A   1      38.906  27.087  30.130  1.00  0.00     0.010 A 
ATOM     45  C   UNL A   1      39.622  28.297  30.080  1.00  0.00    -0.014 A 
BRANCH  45  46
ATOM     46  C   UNL A   1      39.710  29.155  31.289  1.00  0.00     0.031 A 
ATOM     47  C   UNL A   1      40.847  28.911  32.250  1.00  0.00     0.074 A 
ATOM     48  C   UNL A   1      38.830  30.142  31.533  1.00  0.00     0.049 A 
ATOM     49  N   UNL A   1      41.135  29.520  33.371  1.00  0.00    -0.248 NA
ATOM     50  C   UNL A   1      41.778  27.826  31.897  1.00  0.00     0.031 C 
ATOM     51  C   UNL A   1      37.703  30.505  30.678  1.00  0.00     0.029 A 
ATOM     52  N   UNL A   1      38.751  31.019  32.588  1.00  0.00    -0.354 N 
ATOM     53  C   UNL A   1      42.272  28.887  33.862  1.00  0.00     0.074 A 
ATOM     54  C   UNL A   1      42.601  27.827  32.934  1.00  0.00     0.031 C 
ATOM     55  C   UNL A   1      37.039  31.529  31.244  1.00  0.00     0.029 A 
ATOM     56  C   UNL A   1      37.681  31.876  32.514  1.00  0.00     0.049 A 
ATOM     57  H   UNL A   1      39.400  31.031  33.328  1.00  0.00     0.167 HD
ATOM     58  C   UNL A   1      42.987  29.163  34.978  1.00  0.00     0.031 A 
ATOM     59  C   UNL A   1      37.259  32.826  33.374  1.00  0.00     0.031 A 
ATOM     60  C   UNL A   1      42.656  30.201  35.915  1.00  0.00     0.049 A 
ATOM     61  C   UNL A   1      38.042  33.088  34.637  1.00  0.00     0.074 A 
ATOM     62  C   UNL A   1      43.326  30.566  37.070  1.00  0.00     0.029 A 
ATOM     63  N   UNL A   1      41.553  31.036  35.812  1.00  0.00    -0.354 N 
ATOM     64  N   UNL A   1      39.132  32.501  35.071  1.00  0.00    -0.248 NA
ATOM     65  C   UNL A   1      37.543  34.155  35.517  1.00  0.00     0.031 C 
ATOM     66  C   UNL A   1      42.599  31.587  37.692  1.00  0.00     0.029 A 
ATOM     67  C   UNL A   1      41.513  31.902  36.891  1.00  0.00     0.049 A 
ATOM     68  H   UNL A   1      40.897  31.016  35.078  1.00  0.00     0.167 HD
ATOM     69  C   UNL A   1      39.468  33.150  36.257  1.00  0.00     0.074 A 
ATOM     70  C   UNL A   1      38.470  34.180  36.465  1.00  0.00     0.031 C 
ATOM     71  C   UNL A   1      40.512  32.921  37.093  1.00  0.00     0.031 A 
BRANCH  58  72
ATOM     72  C   UNL A   1      44.178  28.285  35.262  1.00  0.00    -0.014 A 
ATOM     73  C   UNL A   1      44.112  27.243  36.206  1.00  0.00     0.010 A 
ATOM     74  C   UNL A   1      45.386  28.514  34.578  1.00  0.00     0.010 A 
ATOM     75  C   UNL A   1      45.246  26.484  36.501  1.00  0.00     0.020 A 
ATOM     76  C   UNL A   1      46.515  27.736  34.850  1.00  0.00     0.020 A 
ATOM     77  C   UNL A   1      46.444  26.742  35.826  1.00  0.00     0.054 A 
BRANCH  77  78
ATOM     78  S   UNL A   1      47.906  25.749  36.234  1.00  0.00     0.124 S 
ATOM     79  O   UNL A   1      47.742  24.597  35.350  1.00  0.00    -0.237 OA
ATOM     80  O   UNL A   1      49.009  26.646  35.897  1.00  0.00    -0.237 OA
ATOM     81  O   UNL A   1      47.748  25.468  37.659  1.00  0.00    -0.744 OA
ENDBRANCH  77  78
ENDBRANCH  58  72
BRANCH  59  82
ATOM     82  C   UNL A   1      36.030  33.608  33.069  1.00  0.00    -0.014 A 
ATOM     83  C   UNL A   1      34.766  33.149  33.479  1.00  0.00     0.010 A 
ATOM     84  C   UNL A   1      36.121  34.825  32.370  1.00  0.00     0.010 A 
ATOM     85  C   UNL A   1      33.616  33.890  33.192  1.00  0.00     0.020 A 
ATOM     86  C   UNL A   1      34.977  35.583  32.104  1.00  0.00     0.020 A 
ATOM     87  C   UNL A   1      33.729  35.107  32.511  1.00  0.00     0.054 A 
BRANCH  87  88
ATOM     88  S   UNL A   1      32.231  36.087  32.214  1.00  0.00     0.124 S 
ATOM     89  O   UNL A   1      32.384  36.459  30.811  1.00  0.00    -0.237 OA
ATOM     90  O   UNL A   1      31.167  35.127  32.502  1.00  0.00    -0.237 OA
ATOM     91  O   UNL A   1      32.346  37.184  33.171  1.00  0.00    -0.744 OA
ENDBRANCH  87  88
ENDBRANCH  59  82
BRANCH  71  92
ATOM     92  C   UNL A   1      40.664  33.830  38.286  1.00  0.00    -0.014 A 
ATOM     93  C   UNL A   1      41.319  35.071  38.191  1.00  0.00     0.010 A 
ATOM     94  C   UNL A   1      40.110  33.445  39.522  1.00  0.00     0.010 A 
ATOM     95  C   UNL A   1      41.460  35.885  39.320  1.00  0.00     0.020 A 
ATOM     96  C   UNL A   1      40.223  34.269  40.645  1.00  0.00     0.020 A 
ATOM     97  C   UNL A   1      40.918  35.475  40.542  1.00  0.00     0.054 A 
BRANCH  97  98
ATOM     98  S   UNL A   1      41.106  36.549  41.991  1.00  0.00     0.124 S 
ATOM     99  O   UNL A   1      42.399  37.178  41.737  1.00  0.00    -0.237 OA
ATOM    100  O   UNL A   1      39.946  37.434  41.890  1.00  0.00    -0.237 OA
ATOM    101  O   UNL A   1      41.076  35.620  43.118  1.00  0.00    -0.744 OA
ENDBRANCH  97  98
ENDBRANCH  71  92
ENDBRANCH  45  46
ENDBRANCH  38  40
ENDBRANCH  37  38
ENDBRANCH  36  37
ENDBRANCH  35  36
ENDBRANCH  34  35
ENDBRANCH  33  34
ENDBRANCH   1  33
TORSDOF 25
ENDMDL
