MODEL 1
REMARK VINA RESULT:     -10.2      0.000      0.000
REMARK SMILES C[NH+]1CCN(C(=O)c2ccc3c(c2)N(CC(=O)OCCOCCOCCOC(=O)c2ccc(-c4c5nc(c(-c6ccc(S(=O)(=O)[O-])cc6)c6ccc([nH]6)c(-c6ccc(S(=O)(=O)[O-])cc6)c6nc(c(-c7ccc(S(=O)(=O)[O-])cc7)c7ccc4[nH]7)C=C6)C=C5)cc2)C(=O)CO3)CC1
REMARK SMILES IDX 23 1 22 2 21 3 20 4 19 5 18 6 16 7 17 8 15 9 14 10 8 11 9 12
REMARK SMILES IDX 13 13 10 14 12 15 11 16 93 17 90 18 92 19 91 20 6 21 1 22
REMARK SMILES IDX 2 23 3 24 95 25 4 27 94 28 5 29 7 30 24 31 25 32 26 33 27 34
REMARK SMILES IDX 28 35 29 36 30 37 31 38 89 39 32 40 88 41 33 42 34 43 35 44
REMARK SMILES IDX 82 45 36 46 87 47 81 48 83 49 37 50 86 51 80 52 79 53 38 55
REMARK SMILES IDX 68 56 49 57 67 58 50 59 53 60 66 61 84 62 51 63 52 64 65 66
REMARK SMILES IDX 85 67 54 68 39 69 40 70 48 71 41 72 47 73 42 74 43 75 44 76
REMARK SMILES IDX 45 77 46 78 69 79 70 80 78 81 71 82 77 83 72 84 73 85 74 86
REMARK SMILES IDX 75 87 76 88 55 89 56 90 64 91 57 92 63 93 58 94 59 95 60 96
REMARK SMILES IDX 61 97 62 98
REMARK H PARENT 2 26 83 54 53 65
REMARK Flexibility Score: inf
ROOT
ATOM      1  C   UNL A   1      45.627  26.975  25.017  1.00  0.00     0.188 C 
ENDROOT
BRANCH   1   2
ATOM      2  C   UNL A   1      47.005  26.492  25.378  1.00  0.00     0.188 C 
BRANCH   2   3
ATOM      3  O   UNL A   1      47.063  25.317  26.146  1.00  0.00    -0.376 OA
BRANCH   3   4
ATOM      4  C   UNL A   1      45.968  25.091  27.033  1.00  0.00     0.202 C 
BRANCH   4   5
ATOM      5  C   UNL A   1      45.119  23.804  26.839  1.00  0.00     0.261 C 
BRANCH   5   6
ATOM      6  O   UNL A   1      44.279  23.366  27.974  1.00  0.00    -0.462 OA
BRANCH   6   7
ATOM      7  C   UNL A   1      42.923  23.410  27.761  1.00  0.00     0.326 C 
ATOM      8  O   UNL A   1      42.157  23.956  28.560  1.00  0.00    -0.250 OA
BRANCH   7   9
ATOM      9  C   UNL A   1      42.329  22.808  26.412  1.00  0.00     0.248 C 
BRANCH   9  10
ATOM     10  N   UNL A   1      41.744  21.489  26.121  1.00  0.00    -0.295 N 
ATOM     11  C   UNL A   1      37.895  21.714  25.415  1.00  0.00     0.042 A 
ATOM     12  C   UNL A   1      37.696  20.361  25.145  1.00  0.00     0.018 A 
ATOM     13  C   UNL A   1      39.163  21.932  26.108  1.00  0.00     0.044 A 
ATOM     14  C   UNL A   1      38.728  19.403  25.344  1.00  0.00     0.049 A 
ATOM     15  C   UNL A   1      40.321  21.084  26.049  1.00  0.00     0.087 A 
ATOM     16  C   UNL A   1      40.035  19.767  25.719  1.00  0.00     0.143 A 
ATOM     17  O   UNL A   1      40.966  18.763  25.682  1.00  0.00    -0.482 OA
ATOM     18  C   UNL A   1      42.724  20.493  26.076  1.00  0.00     0.265 C 
ATOM     19  C   UNL A   1      42.198  19.092  26.297  1.00  0.00     0.330 C 
ATOM     20  O   UNL A   1      43.931  20.728  25.997  1.00  0.00    -0.270 OA
BRANCH  11  21
ATOM     21  C   UNL A   1      36.630  22.699  25.124  1.00  0.00     0.254 C 
ATOM     22  C   UNL A   1      31.950  21.204  22.377  1.00  0.00     0.332 C 
ATOM     23  N   UNL A   1      32.500  21.835  23.600  1.00  0.00    -0.334 N 
ATOM     24  C   UNL A   1      33.297  23.040  23.270  1.00  0.00     0.283 C 
ATOM     25  C   UNL A   1      33.305  20.855  24.342  1.00  0.00     0.283 C 
ATOM     26  H   UNL A   1      31.725  22.140  24.188  1.00  0.00     0.347 HD
ATOM     27  C   UNL A   1      34.310  23.571  24.386  1.00  0.00     0.181 C 
ATOM     28  C   UNL A   1      34.157  21.469  25.507  1.00  0.00     0.181 C 
ATOM     29  N   UNL A   1      35.141  22.496  25.046  1.00  0.00    -0.327 N 
ATOM     30  O   UNL A   1      37.021  23.866  24.941  1.00  0.00    -0.269 OA
ENDBRANCH  11  21
ENDBRANCH   9  10
ENDBRANCH   7   9
ENDBRANCH   6   7
ENDBRANCH   5   6
ENDBRANCH   4   5
ENDBRANCH   3   4
ENDBRANCH   2   3
ENDBRANCH   1   2
BRANCH   1  31
ATOM     31  O   UNL A   1      45.060  28.171  25.480  1.00  0.00    -0.376 OA
BRANCH  31  32
ATOM     32  C   UNL A   1      43.806  27.850  26.081  1.00  0.00     0.202 C 
BRANCH  32  33
ATOM     33  C   UNL A   1      42.544  27.559  25.194  1.00  0.00     0.261 C 
BRANCH  33  34
ATOM     34  O   UNL A   1      41.411  26.504  25.411  1.00  0.00    -0.460 OA
BRANCH  34  35
ATOM     35  C   UNL A   1      40.529  26.163  26.419  1.00  0.00     0.338 C 
ATOM     36  O   UNL A   1      39.676  25.287  26.328  1.00  0.00    -0.246 OA
BRANCH  35  37
ATOM     37  C   UNL A   1      40.442  27.029  27.672  1.00  0.00     0.060 A 
ATOM     38  C   UNL A   1      39.816  26.520  28.815  1.00  0.00     0.016 A 
ATOM     39  C   UNL A   1      40.780  28.366  27.731  1.00  0.00     0.016 A 
ATOM     40  C   UNL A   1      39.518  27.346  29.915  1.00  0.00     0.010 A 
ATOM     41  C   UNL A   1      40.580  29.195  28.834  1.00  0.00     0.010 A 
ATOM     42  C   UNL A   1      39.970  28.680  29.961  1.00  0.00    -0.014 A 
BRANCH  42  43
ATOM     43  C   UNL A   1      40.143  29.407  31.242  1.00  0.00     0.031 A 
ATOM     44  C   UNL A   1      41.244  29.103  32.227  1.00  0.00     0.074 A 
ATOM     45  C   UNL A   1      39.112  30.210  31.581  1.00  0.00     0.049 A 
ATOM     46  N   UNL A   1      41.454  29.634  33.406  1.00  0.00    -0.248 NA
ATOM     47  C   UNL A   1      42.184  28.021  31.891  1.00  0.00     0.031 C 
ATOM     48  C   UNL A   1      37.882  30.367  30.788  1.00  0.00     0.029 A 
ATOM     49  N   UNL A   1      38.910  31.036  32.648  1.00  0.00    -0.354 N 
ATOM     50  C   UNL A   1      42.515  28.926  33.969  1.00  0.00     0.074 A 
ATOM     51  C   UNL A   1      42.884  27.904  33.015  1.00  0.00     0.031 C 
ATOM     52  C   UNL A   1      37.116  31.317  31.328  1.00  0.00     0.029 A 
ATOM     53  C   UNL A   1      37.758  31.781  32.544  1.00  0.00     0.049 A 
ATOM     54  H   UNL A   1      39.525  31.093  33.415  1.00  0.00     0.167 HD
ATOM     55  C   UNL A   1      43.115  29.128  35.171  1.00  0.00     0.031 A 
ATOM     56  C   UNL A   1      37.274  32.753  33.332  1.00  0.00     0.031 A 
ATOM     57  C   UNL A   1      42.718  30.190  36.067  1.00  0.00     0.049 A 
ATOM     58  C   UNL A   1      38.079  33.110  34.536  1.00  0.00     0.074 A 
ATOM     59  C   UNL A   1      43.315  30.604  37.245  1.00  0.00     0.029 A 
ATOM     60  N   UNL A   1      41.619  31.019  35.866  1.00  0.00    -0.354 N 
ATOM     61  N   UNL A   1      39.157  32.516  34.993  1.00  0.00    -0.248 NA
ATOM     62  C   UNL A   1      37.631  34.264  35.314  1.00  0.00     0.031 C 
ATOM     63  C   UNL A   1      42.561  31.662  37.768  1.00  0.00     0.029 A 
ATOM     64  C   UNL A   1      41.522  31.941  36.892  1.00  0.00     0.049 A 
ATOM     65  H   UNL A   1      41.000  30.957  35.104  1.00  0.00     0.167 HD
ATOM     66  C   UNL A   1      39.520  33.223  36.126  1.00  0.00     0.074 A 
ATOM     67  C   UNL A   1      38.565  34.313  36.254  1.00  0.00     0.031 C 
ATOM     68  C   UNL A   1      40.537  32.988  36.990  1.00  0.00     0.031 A 
BRANCH  55  69
ATOM     69  C   UNL A   1      44.266  28.229  35.580  1.00  0.00    -0.014 A 
ATOM     70  C   UNL A   1      45.581  28.481  35.146  1.00  0.00     0.010 A 
ATOM     71  C   UNL A   1      44.053  27.168  36.484  1.00  0.00     0.010 A 
ATOM     72  C   UNL A   1      46.646  27.678  35.575  1.00  0.00     0.020 A 
ATOM     73  C   UNL A   1      45.120  26.380  36.941  1.00  0.00     0.020 A 
ATOM     74  C   UNL A   1      46.410  26.633  36.472  1.00  0.00     0.054 A 
BRANCH  74  75
ATOM     75  S   UNL A   1      47.822  25.648  37.054  1.00  0.00     0.124 S 
ATOM     76  O   UNL A   1      47.161  24.482  37.632  1.00  0.00    -0.237 OA
ATOM     77  O   UNL A   1      48.568  25.398  35.823  1.00  0.00    -0.237 OA
ATOM     78  O   UNL A   1      48.487  26.526  38.013  1.00  0.00    -0.744 OA
ENDBRANCH  74  75
ENDBRANCH  55  69
BRANCH  56  79
ATOM     79  C   UNL A   1      36.045  33.478  32.916  1.00  0.00    -0.014 A 
ATOM     80  C   UNL A   1      34.793  33.073  33.413  1.00  0.00     0.010 A 
ATOM     81  C   UNL A   1      36.131  34.661  32.161  1.00  0.00     0.010 A 
ATOM     82  C   UNL A   1      33.651  33.837  33.161  1.00  0.00     0.020 A 
ATOM     83  C   UNL A   1      34.995  35.443  31.930  1.00  0.00     0.020 A 
ATOM     84  C   UNL A   1      33.760  35.021  32.426  1.00  0.00     0.054 A 
BRANCH  84  85
ATOM     85  S   UNL A   1      32.279  36.043  32.188  1.00  0.00     0.124 S 
ATOM     86  O   UNL A   1      32.314  36.293  30.751  1.00  0.00    -0.237 OA
ATOM     87  O   UNL A   1      31.208  35.163  32.651  1.00  0.00    -0.237 OA
ATOM     88  O   UNL A   1      32.529  37.207  33.036  1.00  0.00    -0.744 OA
ENDBRANCH  84  85
ENDBRANCH  56  79
BRANCH  68  89
ATOM     89  C   UNL A   1      40.640  33.939  38.144  1.00  0.00    -0.014 A 
ATOM     90  C   UNL A   1      39.955  33.680  39.344  1.00  0.00     0.010 A 
ATOM     91  C   UNL A   1      41.424  35.097  38.020  1.00  0.00     0.010 A 
ATOM     92  C   UNL A   1      40.014  34.598  40.391  1.00  0.00     0.020 A 
ATOM     93  C   UNL A   1      41.506  36.003  39.077  1.00  0.00     0.020 A 
ATOM     94  C   UNL A   1      40.785  35.757  40.247  1.00  0.00     0.054 A 
BRANCH  94  95
ATOM     95  S   UNL A   1      40.853  36.929  41.626  1.00  0.00     0.124 S 
ATOM     96  O   UNL A   1      41.564  36.158  42.641  1.00  0.00    -0.237 OA
ATOM     97  O   UNL A   1      41.593  38.052  41.056  1.00  0.00    -0.237 OA
ATOM     98  O   UNL A   1      39.447  37.200  41.918  1.00  0.00    -0.744 OA
ENDBRANCH  94  95
ENDBRANCH  68  89
ENDBRANCH  42  43
ENDBRANCH  35  37
ENDBRANCH  34  35
ENDBRANCH  33  34
ENDBRANCH  32  33
ENDBRANCH  31  32
ENDBRANCH   1  31
TORSDOF 22
ENDMDL
MODEL 2
REMARK VINA RESULT:      -9.1      7.830     11.542
REMARK SMILES C[NH+]1CCN(C(=O)c2ccc3c(c2)N(CC(=O)OCCOCCOCCOC(=O)c2ccc(-c4c5nc(c(-c6ccc(S(=O)(=O)[O-])cc6)c6ccc([nH]6)c(-c6ccc(S(=O)(=O)[O-])cc6)c6nc(c(-c7ccc(S(=O)(=O)[O-])cc7)c7ccc4[nH]7)C=C6)C=C5)cc2)C(=O)CO3)CC1
REMARK SMILES IDX 23 1 22 2 21 3 20 4 19 5 18 6 16 7 17 8 15 9 14 10 8 11 9 12
REMARK SMILES IDX 13 13 10 14 12 15 11 16 93 17 90 18 92 19 91 20 6 21 1 22
REMARK SMILES IDX 2 23 3 24 95 25 4 27 94 28 5 29 7 30 24 31 25 32 26 33 27 34
REMARK SMILES IDX 28 35 29 36 30 37 31 38 89 39 32 40 88 41 33 42 34 43 35 44
REMARK SMILES IDX 82 45 36 46 87 47 81 48 83 49 37 50 86 51 80 52 79 53 38 55
REMARK SMILES IDX 68 56 49 57 67 58 50 59 53 60 66 61 84 62 51 63 52 64 65 66
REMARK SMILES IDX 85 67 54 68 39 69 40 70 48 71 41 72 47 73 42 74 43 75 44 76
REMARK SMILES IDX 45 77 46 78 69 79 70 80 78 81 71 82 77 83 72 84 73 85 74 86
REMARK SMILES IDX 75 87 76 88 55 89 56 90 64 91 57 92 63 93 58 94 59 95 60 96
REMARK SMILES IDX 61 97 62 98
REMARK H PARENT 2 26 83 54 53 65
REMARK Flexibility Score: inf
ROOT
ATOM      1  C   UNL A   1      42.155  19.539  26.050  1.00  0.00     0.188 C 
ENDROOT
BRANCH   1   2
ATOM      2  C   UNL A   1      41.600  19.748  27.433  1.00  0.00     0.188 C 
BRANCH   2   3
ATOM      3  O   UNL A   1      40.535  20.657  27.537  1.00  0.00    -0.376 OA
BRANCH   3   4
ATOM      4  C   UNL A   1      39.832  20.944  26.329  1.00  0.00     0.202 C 
BRANCH   4   5
ATOM      5  C   UNL A   1      39.123  22.320  26.199  1.00  0.00     0.261 C 
BRANCH   5   6
ATOM      6  O   UNL A   1      37.644  22.327  26.205  1.00  0.00    -0.462 OA
BRANCH   6   7
ATOM      7  C   UNL A   1      37.044  21.914  25.041  1.00  0.00     0.326 C 
ATOM      8  O   UNL A   1      37.263  22.475  23.963  1.00  0.00    -0.250 OA
BRANCH   7   9
ATOM      9  C   UNL A   1      36.101  20.633  25.066  1.00  0.00     0.248 C 
BRANCH   9  10
ATOM     10  N   UNL A   1      34.633  20.516  25.050  1.00  0.00    -0.295 N 
ATOM     11  C   UNL A   1      32.881  23.995  25.486  1.00  0.00     0.042 A 
ATOM     12  C   UNL A   1      31.570  23.535  25.380  1.00  0.00     0.018 A 
ATOM     13  C   UNL A   1      33.804  22.896  25.761  1.00  0.00     0.044 A 
ATOM     14  C   UNL A   1      31.269  22.146  25.334  1.00  0.00     0.049 A 
ATOM     15  C   UNL A   1      33.605  21.514  25.425  1.00  0.00     0.087 A 
ATOM     16  C   UNL A   1      32.271  21.158  25.284  1.00  0.00     0.143 A 
ATOM     17  O   UNL A   1      31.836  19.881  25.046  1.00  0.00    -0.482 OA
ATOM     18  C   UNL A   1      34.226  19.205  24.789  1.00  0.00     0.265 C 
ATOM     19  C   UNL A   1      32.821  18.886  25.250  1.00  0.00     0.330 C 
ATOM     20  O   UNL A   1      34.977  18.334  24.344  1.00  0.00    -0.270 OA
BRANCH  11  21
ATOM     21  C   UNL A   1      33.076  25.613  25.510  1.00  0.00     0.254 C 
ATOM     22  C   UNL A   1      30.251  29.246  22.269  1.00  0.00     0.332 C 
ATOM     23  N   UNL A   1      30.667  28.909  23.651  1.00  0.00    -0.334 N 
ATOM     24  C   UNL A   1      32.143  28.899  23.781  1.00  0.00     0.283 C 
ATOM     25  C   UNL A   1      30.093  27.612  24.037  1.00  0.00     0.283 C 
ATOM     26  H   UNL A   1      30.315  29.628  24.283  1.00  0.00     0.347 HD
ATOM     27  C   UNL A   1      32.758  28.136  25.042  1.00  0.00     0.181 C 
ATOM     28  C   UNL A   1      30.673  27.021  25.368  1.00  0.00     0.181 C 
ATOM     29  N   UNL A   1      32.148  26.783  25.320  1.00  0.00    -0.327 N 
ATOM     30  O   UNL A   1      34.261  25.904  25.751  1.00  0.00    -0.269 OA
ENDBRANCH  11  21
ENDBRANCH   9  10
ENDBRANCH   7   9
ENDBRANCH   6   7
ENDBRANCH   5   6
ENDBRANCH   4   5
ENDBRANCH   3   4
ENDBRANCH   2   3
ENDBRANCH   1   2
BRANCH   1  31
ATOM     31  O   UNL A   1      43.496  19.243  25.770  1.00  0.00    -0.376 OA
BRANCH  31  32
ATOM     32  C   UNL A   1      44.029  20.329  25.013  1.00  0.00     0.202 C 
BRANCH  32  33
ATOM     33  C   UNL A   1      44.168  21.757  25.650  1.00  0.00     0.261 C 
BRANCH  33  34
ATOM     34  O   UNL A   1      43.053  22.690  26.224  1.00  0.00    -0.460 OA
BRANCH  34  35
ATOM     35  C   UNL A   1      42.889  24.042  26.459  1.00  0.00     0.338 C 
ATOM     36  O   UNL A   1      41.804  24.607  26.538  1.00  0.00    -0.246 OA
BRANCH  35  37
ATOM     37  C   UNL A   1      44.103  24.966  26.433  1.00  0.00     0.060 A 
ATOM     38  C   UNL A   1      44.538  25.493  25.213  1.00  0.00     0.016 A 
ATOM     39  C   UNL A   1      44.938  25.199  27.508  1.00  0.00     0.016 A 
ATOM     40  C   UNL A   1      45.769  26.168  25.104  1.00  0.00     0.010 A 
ATOM     41  C   UNL A   1      46.121  25.936  27.458  1.00  0.00     0.010 A 
ATOM     42  C   UNL A   1      46.536  26.461  26.250  1.00  0.00    -0.014 A 
BRANCH  42  43
ATOM     43  C   UNL A   1      47.523  27.568  26.272  1.00  0.00     0.031 A 
ATOM     44  C   UNL A   1      49.014  27.353  26.205  1.00  0.00     0.074 A 
ATOM     45  C   UNL A   1      47.010  28.776  26.589  1.00  0.00     0.049 A 
ATOM     46  N   UNL A   1      49.971  28.243  26.278  1.00  0.00    -0.248 NA
ATOM     47  C   UNL A   1      49.503  25.967  26.120  1.00  0.00     0.031 C 
ATOM     48  C   UNL A   1      45.597  29.023  26.917  1.00  0.00     0.029 A 
ATOM     49  N   UNL A   1      47.581  30.012  26.693  1.00  0.00    -0.354 N 
ATOM     50  C   UNL A   1      51.169  27.529  26.295  1.00  0.00     0.074 A 
ATOM     51  C   UNL A   1      50.815  26.127  26.257  1.00  0.00     0.031 C 
ATOM     52  C   UNL A   1      45.391  30.333  27.065  1.00  0.00     0.029 A 
ATOM     53  C   UNL A   1      46.664  31.013  26.920  1.00  0.00     0.049 A 
ATOM     54  H   UNL A   1      48.549  30.171  26.612  1.00  0.00     0.167 HD
ATOM     55  C   UNL A   1      52.436  28.015  26.333  1.00  0.00     0.031 A 
ATOM     56  C   UNL A   1      46.825  32.343  26.987  1.00  0.00     0.031 A 
ATOM     57  C   UNL A   1      52.723  29.432  26.337  1.00  0.00     0.049 A 
ATOM     58  C   UNL A   1      48.209  32.866  26.799  1.00  0.00     0.074 A 
ATOM     59  C   UNL A   1      53.946  30.072  26.235  1.00  0.00     0.029 A 
ATOM     60  N   UNL A   1      51.759  30.429  26.436  1.00  0.00    -0.354 N 
ATOM     61  N   UNL A   1      49.324  32.183  26.685  1.00  0.00    -0.248 NA
ATOM     62  C   UNL A   1      48.363  34.319  26.726  1.00  0.00     0.031 C 
ATOM     63  C   UNL A   1      53.721  31.453  26.301  1.00  0.00     0.029 A 
ATOM     64  C   UNL A   1      52.356  31.676  26.393  1.00  0.00     0.049 A 
ATOM     65  H   UNL A   1      50.792  30.270  26.523  1.00  0.00     0.167 HD
ATOM     66  C   UNL A   1      50.325  33.125  26.531  1.00  0.00     0.074 A 
ATOM     67  C   UNL A   1      49.670  34.424  26.525  1.00  0.00     0.031 C 
ATOM     68  C   UNL A   1      51.663  32.940  26.419  1.00  0.00     0.031 A 
BRANCH  55  69
ATOM     69  C   UNL A   1      53.598  27.041  26.340  1.00  0.00    -0.014 A 
ATOM     70  C   UNL A   1      54.212  26.644  27.543  1.00  0.00     0.010 A 
ATOM     71  C   UNL A   1      54.031  26.440  25.141  1.00  0.00     0.010 A 
ATOM     72  C   UNL A   1      55.248  25.700  27.545  1.00  0.00     0.020 A 
ATOM     73  C   UNL A   1      55.047  25.472  25.140  1.00  0.00     0.020 A 
ATOM     74  C   UNL A   1      55.658  25.118  26.343  1.00  0.00     0.054 A 
BRANCH  74  75
ATOM     75  S   UNL A   1      56.963  23.855  26.387  1.00  0.00     0.124 S 
ATOM     76  O   UNL A   1      57.626  24.147  27.656  1.00  0.00    -0.237 OA
ATOM     77  O   UNL A   1      56.204  22.607  26.351  1.00  0.00    -0.237 OA
ATOM     78  O   UNL A   1      57.756  24.131  25.192  1.00  0.00    -0.744 OA
ENDBRANCH  74  75
ENDBRANCH  55  69
BRANCH  56  79
ATOM     79  C   UNL A   1      45.627  33.210  27.135  1.00  0.00    -0.014 A 
ATOM     80  C   UNL A   1      45.177  33.567  28.418  1.00  0.00     0.010 A 
ATOM     81  C   UNL A   1      45.033  33.810  26.010  1.00  0.00     0.010 A 
ATOM     82  C   UNL A   1      44.154  34.506  28.574  1.00  0.00     0.020 A 
ATOM     83  C   UNL A   1      44.028  34.771  26.163  1.00  0.00     0.020 A 
ATOM     84  C   UNL A   1      43.591  35.107  27.445  1.00  0.00     0.054 A 
BRANCH  84  85
ATOM     85  S   UNL A   1      42.327  36.389  27.675  1.00  0.00     0.124 S 
ATOM     86  O   UNL A   1      41.174  35.603  28.099  1.00  0.00    -0.237 OA
ATOM     87  O   UNL A   1      42.923  37.243  28.702  1.00  0.00    -0.237 OA
ATOM     88  O   UNL A   1      42.220  37.002  26.353  1.00  0.00    -0.744 OA
ENDBRANCH  84  85
ENDBRANCH  56  79
BRANCH  68  89
ATOM     89  C   UNL A   1      52.481  34.188  26.290  1.00  0.00    -0.014 A 
ATOM     90  C   UNL A   1      52.972  34.841  27.435  1.00  0.00     0.010 A 
ATOM     91  C   UNL A   1      52.756  34.708  25.016  1.00  0.00     0.010 A 
ATOM     92  C   UNL A   1      53.686  36.031  27.306  1.00  0.00     0.020 A 
ATOM     93  C   UNL A   1      53.494  35.884  24.883  1.00  0.00     0.020 A 
ATOM     94  C   UNL A   1      53.936  36.547  26.030  1.00  0.00     0.054 A 
BRANCH  94  95
ATOM     95  S   UNL A   1      54.875  38.090  25.889  1.00  0.00     0.124 S 
ATOM     96  O   UNL A   1      54.894  38.558  27.272  1.00  0.00    -0.237 OA
ATOM     97  O   UNL A   1      56.159  37.637  25.361  1.00  0.00    -0.237 OA
ATOM     98  O   UNL A   1      54.077  38.895  24.967  1.00  0.00    -0.744 OA
ENDBRANCH  94  95
ENDBRANCH  68  89
ENDBRANCH  42  43
ENDBRANCH  35  37
ENDBRANCH  34  35
ENDBRANCH  33  34
ENDBRANCH  32  33
ENDBRANCH  31  32
ENDBRANCH   1  31
TORSDOF 22
ENDMDL
MODEL 3
REMARK VINA RESULT:      -8.8      7.582     11.773
REMARK SMILES C[NH+]1CCN(C(=O)c2ccc3c(c2)N(CC(=O)OCCOCCOCCOC(=O)c2ccc(-c4c5nc(c(-c6ccc(S(=O)(=O)[O-])cc6)c6ccc([nH]6)c(-c6ccc(S(=O)(=O)[O-])cc6)c6nc(c(-c7ccc(S(=O)(=O)[O-])cc7)c7ccc4[nH]7)C=C6)C=C5)cc2)C(=O)CO3)CC1
REMARK SMILES IDX 23 1 22 2 21 3 20 4 19 5 18 6 16 7 17 8 15 9 14 10 8 11 9 12
REMARK SMILES IDX 13 13 10 14 12 15 11 16 93 17 90 18 92 19 91 20 6 21 1 22
REMARK SMILES IDX 2 23 3 24 95 25 4 27 94 28 5 29 7 30 24 31 25 32 26 33 27 34
REMARK SMILES IDX 28 35 29 36 30 37 31 38 89 39 32 40 88 41 33 42 34 43 35 44
REMARK SMILES IDX 82 45 36 46 87 47 81 48 83 49 37 50 86 51 80 52 79 53 38 55
REMARK SMILES IDX 68 56 49 57 67 58 50 59 53 60 66 61 84 62 51 63 52 64 65 66
REMARK SMILES IDX 85 67 54 68 39 69 40 70 48 71 41 72 47 73 42 74 43 75 44 76
REMARK SMILES IDX 45 77 46 78 69 79 70 80 78 81 71 82 77 83 72 84 73 85 74 86
REMARK SMILES IDX 75 87 76 88 55 89 56 90 64 91 57 92 63 93 58 94 59 95 60 96
REMARK SMILES IDX 61 97 62 98
REMARK H PARENT 2 26 83 54 53 65
REMARK Flexibility Score: inf
ROOT
ATOM      1  C   UNL A   1      41.972  20.167  26.061  1.00  0.00     0.188 C 
ENDROOT
BRANCH   1   2
ATOM      2  C   UNL A   1      41.388  20.365  27.433  1.00  0.00     0.188 C 
BRANCH   2   3
ATOM      3  O   UNL A   1      40.375  21.332  27.536  1.00  0.00    -0.376 OA
BRANCH   3   4
ATOM      4  C   UNL A   1      40.122  22.106  26.364  1.00  0.00     0.202 C 
BRANCH   4   5
ATOM      5  C   UNL A   1      39.754  23.606  26.538  1.00  0.00     0.261 C 
BRANCH   5   6
ATOM      6  O   UNL A   1      38.330  23.978  26.399  1.00  0.00    -0.462 OA
BRANCH   6   7
ATOM      7  C   UNL A   1      37.594  23.198  25.541  1.00  0.00     0.326 C 
ATOM      8  O   UNL A   1      37.421  23.517  24.361  1.00  0.00    -0.250 OA
BRANCH   7   9
ATOM      9  C   UNL A   1      37.012  21.810  26.058  1.00  0.00     0.248 C 
BRANCH   9  10
ATOM     10  N   UNL A   1      35.979  20.927  25.491  1.00  0.00    -0.295 N 
ATOM     11  C   UNL A   1      32.397  22.493  25.768  1.00  0.00     0.042 A 
ATOM     12  C   UNL A   1      31.714  21.463  25.123  1.00  0.00     0.018 A 
ATOM     13  C   UNL A   1      33.725  22.060  26.194  1.00  0.00     0.044 A 
ATOM     14  C   UNL A   1      32.364  20.249  24.766  1.00  0.00     0.049 A 
ATOM     15  C   UNL A   1      34.505  21.005  25.608  1.00  0.00     0.087 A 
ATOM     16  C   UNL A   1      33.748  20.054  24.939  1.00  0.00     0.143 A 
ATOM     17  O   UNL A   1      34.264  18.919  24.372  1.00  0.00    -0.482 OA
ATOM     18  C   UNL A   1      36.542  19.788  24.908  1.00  0.00     0.265 C 
ATOM     19  C   UNL A   1      35.589  18.622  24.772  1.00  0.00     0.330 C 
ATOM     20  O   UNL A   1      37.742  19.681  24.644  1.00  0.00    -0.270 OA
BRANCH  11  21
ATOM     21  C   UNL A   1      31.528  23.832  26.101  1.00  0.00     0.254 C 
ATOM     22  C   UNL A   1      31.902  28.695  23.292  1.00  0.00     0.332 C 
ATOM     23  N   UNL A   1      30.987  27.651  23.811  1.00  0.00    -0.334 N 
ATOM     24  C   UNL A   1      31.074  27.545  25.286  1.00  0.00     0.283 C 
ATOM     25  C   UNL A   1      31.292  26.364  23.169  1.00  0.00     0.283 C 
ATOM     26  H   UNL A   1      30.028  27.914  23.585  1.00  0.00     0.347 HD
ATOM     27  C   UNL A   1      30.516  26.206  25.954  1.00  0.00     0.181 C 
ATOM     28  C   UNL A   1      30.579  25.131  23.824  1.00  0.00     0.181 C 
ATOM     29  N   UNL A   1      30.937  24.932  25.262  1.00  0.00    -0.327 N 
ATOM     30  O   UNL A   1      31.323  23.923  27.324  1.00  0.00    -0.269 OA
ENDBRANCH  11  21
ENDBRANCH   9  10
ENDBRANCH   7   9
ENDBRANCH   6   7
ENDBRANCH   5   6
ENDBRANCH   4   5
ENDBRANCH   3   4
ENDBRANCH   2   3
ENDBRANCH   1   2
BRANCH   1  31
ATOM     31  O   UNL A   1      43.343  20.055  25.792  1.00  0.00    -0.376 OA
BRANCH  31  32
ATOM     32  C   UNL A   1      43.804  21.333  25.358  1.00  0.00     0.202 C 
BRANCH  32  33
ATOM     33  C   UNL A   1      44.165  22.450  26.401  1.00  0.00     0.261 C 
BRANCH  33  34
ATOM     34  O   UNL A   1      43.212  23.413  27.179  1.00  0.00    -0.460 OA
BRANCH  34  35
ATOM     35  C   UNL A   1      43.311  24.637  27.813  1.00  0.00     0.338 C 
ATOM     36  O   UNL A   1      42.443  25.119  28.532  1.00  0.00    -0.246 OA
BRANCH  35  37
ATOM     37  C   UNL A   1      44.468  25.572  27.476  1.00  0.00     0.060 A 
ATOM     38  C   UNL A   1      44.564  26.109  26.188  1.00  0.00     0.016 A 
ATOM     39  C   UNL A   1      45.554  25.808  28.295  1.00  0.00     0.016 A 
ATOM     40  C   UNL A   1      45.718  26.795  25.764  1.00  0.00     0.010 A 
ATOM     41  C   UNL A   1      46.677  26.556  27.941  1.00  0.00     0.010 A 
ATOM     42  C   UNL A   1      46.756  27.089  26.670  1.00  0.00    -0.014 A 
BRANCH  42  43
ATOM     43  C   UNL A   1      47.706  28.206  26.440  1.00  0.00     0.031 A 
ATOM     44  C   UNL A   1      49.164  28.002  26.118  1.00  0.00     0.074 A 
ATOM     45  C   UNL A   1      47.232  29.428  26.764  1.00  0.00     0.049 A 
ATOM     46  N   UNL A   1      50.099  28.904  25.957  1.00  0.00    -0.248 NA
ATOM     47  C   UNL A   1      49.661  26.618  26.037  1.00  0.00     0.031 C 
ATOM     48  C   UNL A   1      45.896  29.682  27.327  1.00  0.00     0.029 A 
ATOM     49  N   UNL A   1      47.784  30.673  26.681  1.00  0.00    -0.354 N 
ATOM     50  C   UNL A   1      51.296  28.205  25.803  1.00  0.00     0.074 A 
ATOM     51  C   UNL A   1      50.972  26.800  25.922  1.00  0.00     0.031 C 
ATOM     52  C   UNL A   1      45.691  30.997  27.423  1.00  0.00     0.029 A 
ATOM     53  C   UNL A   1      46.902  31.678  27.005  1.00  0.00     0.049 A 
ATOM     54  H   UNL A   1      48.718  30.836  26.416  1.00  0.00     0.167 HD
ATOM     55  C   UNL A   1      52.538  28.705  25.578  1.00  0.00     0.031 A 
ATOM     56  C   UNL A   1      47.042  33.011  26.954  1.00  0.00     0.031 A 
ATOM     57  C   UNL A   1      52.790  30.122  25.436  1.00  0.00     0.049 A 
ATOM     58  C   UNL A   1      48.358  33.534  26.483  1.00  0.00     0.074 A 
ATOM     59  C   UNL A   1      53.959  30.766  25.072  1.00  0.00     0.029 A 
ATOM     60  N   UNL A   1      51.836  31.114  25.643  1.00  0.00    -0.354 N 
ATOM     61  N   UNL A   1      49.448  32.856  26.215  1.00  0.00    -0.248 NA
ATOM     62  C   UNL A   1      48.463  34.980  26.288  1.00  0.00     0.031 C 
ATOM     63  C   UNL A   1      53.719  32.145  25.087  1.00  0.00     0.029 A 
ATOM     64  C   UNL A   1      52.388  32.361  25.411  1.00  0.00     0.049 A 
ATOM     65  H   UNL A   1      50.905  30.951  25.914  1.00  0.00     0.167 HD
ATOM     66  C   UNL A   1      50.384  33.795  25.820  1.00  0.00     0.074 A 
ATOM     67  C   UNL A   1      49.710  35.084  25.847  1.00  0.00     0.031 C 
ATOM     68  C   UNL A   1      51.683  33.616  25.479  1.00  0.00     0.031 A 
BRANCH  55  69
ATOM     69  C   UNL A   1      53.704  27.746  25.438  1.00  0.00    -0.014 A 
ATOM     70  C   UNL A   1      54.294  27.490  24.186  1.00  0.00     0.010 A 
ATOM     71  C   UNL A   1      54.283  27.159  26.581  1.00  0.00     0.010 A 
ATOM     72  C   UNL A   1      55.408  26.646  24.074  1.00  0.00     0.020 A 
ATOM     73  C   UNL A   1      55.416  26.337  26.479  1.00  0.00     0.020 A 
ATOM     74  C   UNL A   1      55.964  26.076  25.222  1.00  0.00     0.054 A 
BRANCH  74  75
ATOM     75  S   UNL A   1      57.442  25.035  25.049  1.00  0.00     0.124 S 
ATOM     76  O   UNL A   1      57.913  25.395  23.714  1.00  0.00    -0.237 OA
ATOM     77  O   UNL A   1      58.285  25.488  26.153  1.00  0.00    -0.237 OA
ATOM     78  O   UNL A   1      56.928  23.674  25.182  1.00  0.00    -0.744 OA
ENDBRANCH  74  75
ENDBRANCH  55  69
BRANCH  56  79
ATOM     79  C   UNL A   1      45.872  33.874  27.260  1.00  0.00    -0.014 A 
ATOM     80  C   UNL A   1      44.880  34.081  26.284  1.00  0.00     0.010 A 
ATOM     81  C   UNL A   1      45.660  34.358  28.564  1.00  0.00     0.010 A 
ATOM     82  C   UNL A   1      43.700  34.756  26.606  1.00  0.00     0.020 A 
ATOM     83  C   UNL A   1      44.468  35.010  28.897  1.00  0.00     0.020 A 
ATOM     84  C   UNL A   1      43.499  35.210  27.913  1.00  0.00     0.054 A 
BRANCH  84  85
ATOM     85  S   UNL A   1      41.921  36.005  28.329  1.00  0.00     0.124 S 
ATOM     86  O   UNL A   1      41.145  35.791  27.112  1.00  0.00    -0.237 OA
ATOM     87  O   UNL A   1      41.483  35.247  29.500  1.00  0.00    -0.237 OA
ATOM     88  O   UNL A   1      42.299  37.390  28.600  1.00  0.00    -0.744 OA
ENDBRANCH  84  85
ENDBRANCH  56  79
BRANCH  68  89
ATOM     89  C   UNL A   1      52.437  34.861  25.122  1.00  0.00    -0.014 A 
ATOM     90  C   UNL A   1      53.238  35.510  26.078  1.00  0.00     0.010 A 
ATOM     91  C   UNL A   1      52.338  35.382  23.822  1.00  0.00     0.010 A 
ATOM     92  C   UNL A   1      53.891  36.696  25.751  1.00  0.00     0.020 A 
ATOM     93  C   UNL A   1      53.013  36.554  23.484  1.00  0.00     0.020 A 
ATOM     94  C   UNL A   1      53.769  37.214  24.457  1.00  0.00     0.054 A 
BRANCH  94  95
ATOM     95  S   UNL A   1      54.635  38.752  24.053  1.00  0.00     0.124 S 
ATOM     96  O   UNL A   1      54.563  38.763  22.595  1.00  0.00    -0.237 OA
ATOM     97  O   UNL A   1      53.828  39.762  24.731  1.00  0.00    -0.237 OA
ATOM     98  O   UNL A   1      55.971  38.552  24.611  1.00  0.00    -0.744 OA
ENDBRANCH  94  95
ENDBRANCH  68  89
ENDBRANCH  42  43
ENDBRANCH  35  37
ENDBRANCH  34  35
ENDBRANCH  33  34
ENDBRANCH  32  33
ENDBRANCH  31  32
ENDBRANCH   1  31
TORSDOF 22
ENDMDL
