MODEL 1
REMARK VINA RESULT:     -11.1      0.000      0.000
REMARK SMILES O=C(OCCOCCOCCOC(=O)[C@H]1[C@H]2CC[C@H](CC2)[C@H]1C(=O)Nc1ccc(C(=O)N2CCCC2)cc1)c1ccc(-c2c3nc(c(-c4ccc(S(=O)(=O)[O-])cc4)c4ccc([nH]4)c(-c4ccc(S(=O)(=O)[O-])cc4)c4nc(c(-c5ccc(S(=O)(=O)[O-])cc5)c5ccc2[nH]5)C=C4)C=C3)cc1
REMARK SMILES IDX 7 1 6 2 5 3 4 4 3 5 2 6 1 7 39 8 40 9 98 10 41 11 97 12
REMARK SMILES IDX 42 13 43 14 44 15 91 16 45 17 96 18 90 19 92 20 46 21 95 22
REMARK SMILES IDX 89 23 88 24 47 26 77 27 58 28 76 29 59 30 62 31 75 32 93 33
REMARK SMILES IDX 60 34 61 35 74 37 94 38 63 39 48 40 49 41 57 42 50 43 56 44
REMARK SMILES IDX 51 45 52 46 53 47 54 48 55 49 78 50 79 51 87 52 80 53 86 54
REMARK SMILES IDX 81 55 82 56 83 57 84 58 85 59 64 60 65 61 73 62 66 63 72 64
REMARK SMILES IDX 67 65 68 66 69 67 70 68 71 69 8 70 9 71 10 72 11 73 12 74
REMARK SMILES IDX 13 75 14 76 15 77 16 78 22 79 21 80 17 81 19 82 20 83 18 84
REMARK SMILES IDX 23 85 24 86 25 87 26 89 27 90 38 91 28 92 37 93 29 94 30 95
REMARK SMILES IDX 31 96 32 97 33 98 36 99 34 100 35 101
REMARK H PARENT 92 25 62 36 25 88
REMARK Flexibility Score: inf
ROOT
ATOM      1  C   UNL A   1      31.647  29.119  24.086  1.00  0.00     0.188 C 
ENDROOT
BRANCH   1   2
ATOM      2  O   UNL A   1      31.637  30.173  25.041  1.00  0.00    -0.376 OA
BRANCH   2   3
ATOM      3  C   UNL A   1      31.767  29.798  26.405  1.00  0.00     0.202 C 
BRANCH   3   4
ATOM      4  C   UNL A   1      32.824  30.531  27.230  1.00  0.00     0.261 C 
BRANCH   4   5
ATOM      5  O   UNL A   1      32.789  32.016  27.296  1.00  0.00    -0.460 OA
BRANCH   5   6
ATOM      6  C   UNL A   1      33.443  33.189  28.023  1.00  0.00     0.338 C 
ATOM      7  O   UNL A   1      32.450  33.933  27.865  1.00  0.00    -0.246 OA
BRANCH   6   8
ATOM      8  C   UNL A   1      35.288  33.318  29.151  1.00  0.00     0.060 A 
ATOM      9  C   UNL A   1      35.571  32.561  30.530  1.00  0.00     0.016 A 
ATOM     10  C   UNL A   1      36.585  34.004  29.057  1.00  0.00     0.016 A 
ATOM     11  C   UNL A   1      36.697  32.109  31.174  1.00  0.00     0.010 A 
ATOM     12  C   UNL A   1      37.809  33.674  29.859  1.00  0.00     0.010 A 
ATOM     13  C   UNL A   1      37.883  32.611  30.790  1.00  0.00    -0.014 A 
BRANCH  13  14
ATOM     14  C   UNL A   1      38.957  32.131  31.692  1.00  0.00     0.031 A 
ATOM     15  C   UNL A   1      39.851  31.079  31.113  1.00  0.00     0.074 A 
ATOM     16  C   UNL A   1      39.553  32.913  32.633  1.00  0.00     0.049 A 
ATOM     17  N   UNL A   1      40.907  30.533  31.634  1.00  0.00    -0.248 NA
ATOM     18  C   UNL A   1      39.606  30.705  29.703  1.00  0.00     0.031 C 
ATOM     19  C   UNL A   1      39.374  34.349  32.820  1.00  0.00     0.029 A 
ATOM     20  N   UNL A   1      40.394  32.611  33.670  1.00  0.00    -0.354 N 
ATOM     21  C   UNL A   1      41.446  29.751  30.628  1.00  0.00     0.074 A 
ATOM     22  C   UNL A   1      40.635  29.918  29.449  1.00  0.00     0.031 C 
ATOM     23  C   UNL A   1      39.749  34.720  34.055  1.00  0.00     0.029 A 
ATOM     24  C   UNL A   1      40.369  33.572  34.671  1.00  0.00     0.049 A 
ATOM     25  H   UNL A   1      40.955  31.803  33.702  1.00  0.00     0.167 HD
ATOM     26  C   UNL A   1      42.509  28.931  30.730  1.00  0.00     0.031 A 
ATOM     27  C   UNL A   1      40.791  33.499  35.946  1.00  0.00     0.031 A 
ATOM     28  C   UNL A   1      43.200  28.764  31.976  1.00  0.00     0.049 A 
ATOM     29  C   UNL A   1      41.693  32.340  36.217  1.00  0.00     0.074 A 
ATOM     30  C   UNL A   1      44.155  27.832  32.319  1.00  0.00     0.029 A 
ATOM     31  N   UNL A   1      42.968  29.549  33.107  1.00  0.00    -0.354 N 
ATOM     32  N   UNL A   1      42.060  31.412  35.362  1.00  0.00    -0.248 NA
ATOM     33  C   UNL A   1      42.321  32.246  37.532  1.00  0.00     0.031 C 
ATOM     34  C   UNL A   1      44.424  27.989  33.683  1.00  0.00     0.029 A 
ATOM     35  C   UNL A   1      43.720  29.086  34.167  1.00  0.00     0.049 A 
ATOM     36  H   UNL A   1      42.359  30.321  33.142  1.00  0.00     0.167 HD
ATOM     37  C   UNL A   1      43.032  30.672  35.996  1.00  0.00     0.074 A 
ATOM     38  C   UNL A   1      43.161  31.236  37.332  1.00  0.00     0.031 C 
ATOM     39  C   UNL A   1      43.777  29.659  35.494  1.00  0.00     0.031 A 
BRANCH  26  40
ATOM     40  C   UNL A   1      42.758  28.037  29.553  1.00  0.00    -0.014 A 
ATOM     41  C   UNL A   1      43.571  28.419  28.468  1.00  0.00     0.010 A 
ATOM     42  C   UNL A   1      42.030  26.836  29.472  1.00  0.00     0.010 A 
ATOM     43  C   UNL A   1      43.610  27.637  27.308  1.00  0.00     0.020 A 
ATOM     44  C   UNL A   1      42.093  26.036  28.332  1.00  0.00     0.020 A 
ATOM     45  C   UNL A   1      42.869  26.451  27.250  1.00  0.00     0.054 A 
BRANCH  45  46
ATOM     46  S   UNL A   1      42.943  25.451  25.740  1.00  0.00     0.124 S 
ATOM     47  O   UNL A   1      43.181  24.112  26.275  1.00  0.00    -0.237 OA
ATOM     48  O   UNL A   1      41.623  25.667  25.154  1.00  0.00    -0.237 OA
ATOM     49  O   UNL A   1      44.057  26.030  24.994  1.00  0.00    -0.744 OA
ENDBRANCH  45  46
ENDBRANCH  26  40
BRANCH  27  50
ATOM     50  C   UNL A   1      40.387  34.505  36.972  1.00  0.00    -0.014 A 
ATOM     51  C   UNL A   1      39.283  34.323  37.821  1.00  0.00     0.010 A 
ATOM     52  C   UNL A   1      41.140  35.694  37.105  1.00  0.00     0.010 A 
ATOM     53  C   UNL A   1      38.935  35.303  38.767  1.00  0.00     0.020 A 
ATOM     54  C   UNL A   1      40.803  36.671  38.054  1.00  0.00     0.020 A 
ATOM     55  C   UNL A   1      39.697  36.471  38.878  1.00  0.00     0.054 A 
BRANCH  55  56
ATOM     56  S   UNL A   1      39.238  37.708  40.131  1.00  0.00     0.124 S 
ATOM     57  O   UNL A   1      40.468  38.483  40.265  1.00  0.00    -0.237 OA
ATOM     58  O   UNL A   1      38.121  38.399  39.492  1.00  0.00    -0.237 OA
ATOM     59  O   UNL A   1      38.880  36.902  41.297  1.00  0.00    -0.744 OA
ENDBRANCH  55  56
ENDBRANCH  27  50
BRANCH  39  60
ATOM     60  C   UNL A   1      44.818  29.100  36.407  1.00  0.00    -0.014 A 
ATOM     61  C   UNL A   1      46.089  29.685  36.496  1.00  0.00     0.010 A 
ATOM     62  C   UNL A   1      44.462  28.044  37.265  1.00  0.00     0.010 A 
ATOM     63  C   UNL A   1      47.002  29.211  37.431  1.00  0.00     0.020 A 
ATOM     64  C   UNL A   1      45.358  27.598  38.229  1.00  0.00     0.020 A 
ATOM     65  C   UNL A   1      46.623  28.182  38.302  1.00  0.00     0.054 A 
BRANCH  65  66
ATOM     66  S   UNL A   1      47.794  27.662  39.577  1.00  0.00     0.124 S 
ATOM     67  O   UNL A   1      47.546  26.224  39.645  1.00  0.00    -0.237 OA
ATOM     68  O   UNL A   1      49.079  28.053  39.002  1.00  0.00    -0.237 OA
ATOM     69  O   UNL A   1      47.386  28.423  40.755  1.00  0.00    -0.744 OA
ENDBRANCH  65  66
ENDBRANCH  39  60
ENDBRANCH  13  14
ENDBRANCH   6   8
ENDBRANCH   5   6
ENDBRANCH   4   5
ENDBRANCH   3   4
ENDBRANCH   2   3
ENDBRANCH   1   2
BRANCH   1  70
ATOM     70  C   UNL A   1      30.254  28.728  23.604  1.00  0.00     0.188 C 
BRANCH  70  71
ATOM     71  O   UNL A   1      30.115  27.399  23.124  1.00  0.00    -0.376 OA
BRANCH  71  72
ATOM     72  C   UNL A   1      30.814  26.410  23.867  1.00  0.00     0.202 C 
BRANCH  72  73
ATOM     73  C   UNL A   1      30.970  25.004  23.253  1.00  0.00     0.261 C 
BRANCH  73  74
ATOM     74  O   UNL A   1      32.127  24.700  22.447  1.00  0.00    -0.463 OA
BRANCH  74  75
ATOM     75  C   UNL A   1      32.953  23.706  22.869  1.00  0.00     0.310 C 
ATOM     76  O   UNL A   1      33.749  23.123  22.142  1.00  0.00    -0.252 OA
BRANCH  75  77
ATOM     77  C   UNL A   1      32.682  23.261  24.312  1.00  0.00     0.115 C 
ATOM     78  C   UNL A   1      32.047  21.815  24.622  1.00  0.00     0.004 C 
ATOM     79  C   UNL A   1      33.603  23.746  25.457  1.00  0.00     0.096 C 
ATOM     80  C   UNL A   1      32.854  20.781  25.451  1.00  0.00     0.005 C 
ATOM     81  C   UNL A   1      30.920  22.085  25.636  1.00  0.00     0.005 C 
ATOM     82  C   UNL A   1      33.144  22.861  26.702  1.00  0.00     0.002 C 
ATOM     83  C   UNL A   1      33.646  21.459  26.539  1.00  0.00     0.005 C 
ATOM     84  C   UNL A   1      31.585  22.711  26.883  1.00  0.00     0.005 C 
BRANCH  79  85
ATOM     85  C   UNL A   1      35.112  24.476  25.168  1.00  0.00     0.228 C 
ATOM     86  O   UNL A   1      35.028  25.667  24.786  1.00  0.00    -0.274 OA
ATOM     87  N   UNL A   1      36.461  24.097  25.248  1.00  0.00    -0.326 N 
ATOM     88  H   UNL A   1      37.081  24.788  24.918  1.00  0.00     0.169 HD
BRANCH  87  89
ATOM     89  C   UNL A   1      37.126  22.907  25.711  1.00  0.00     0.041 A 
ATOM     90  C   UNL A   1      37.066  21.145  24.996  1.00  0.00     0.027 A 
ATOM     91  C   UNL A   1      38.579  23.434  26.520  1.00  0.00     0.027 A 
ATOM     92  C   UNL A   1      38.584  20.072  25.224  1.00  0.00     0.016 A 
ATOM     93  C   UNL A   1      39.992  22.440  26.638  1.00  0.00     0.016 A 
ATOM     94  C   UNL A   1      40.021  20.750  26.130  1.00  0.00     0.040 A 
BRANCH  94  95
ATOM     95  C   UNL A   1      41.159  20.115  26.957  1.00  0.00     0.253 C 
ATOM     96  O   UNL A   1      40.877  19.617  28.043  1.00  0.00    -0.269 OA
ATOM     97  N   UNL A   1      42.445  19.897  26.322  1.00  0.00    -0.339 N 
ATOM     98  C   UNL A   1      43.371  20.848  25.655  1.00  0.00     0.120 C 
ATOM     99  C   UNL A   1      43.040  18.564  26.235  1.00  0.00     0.120 C 
ATOM    100  C   UNL A   1      44.144  20.019  24.626  1.00  0.00     0.023 C 
ATOM    101  C   UNL A   1      44.287  18.683  25.331  1.00  0.00     0.023 C 
ENDBRANCH  94  95
ENDBRANCH  87  89
ENDBRANCH  79  85
ENDBRANCH  75  77
ENDBRANCH  74  75
ENDBRANCH  73  74
ENDBRANCH  72  73
ENDBRANCH  71  72
ENDBRANCH  70  71
ENDBRANCH   1  70
TORSDOF 23
ENDMDL
MODEL 2
REMARK VINA RESULT:     -10.9      2.239      8.675
REMARK SMILES O=C(OCCOCCOCCOC(=O)[C@H]1[C@H]2CC[C@H](CC2)[C@H]1C(=O)Nc1ccc(C(=O)N2CCCC2)cc1)c1ccc(-c2c3nc(c(-c4ccc(S(=O)(=O)[O-])cc4)c4ccc([nH]4)c(-c4ccc(S(=O)(=O)[O-])cc4)c4nc(c(-c5ccc(S(=O)(=O)[O-])cc5)c5ccc2[nH]5)C=C4)C=C3)cc1
REMARK SMILES IDX 7 1 6 2 5 3 4 4 3 5 2 6 1 7 39 8 40 9 98 10 41 11 97 12
REMARK SMILES IDX 42 13 43 14 44 15 91 16 45 17 96 18 90 19 92 20 46 21 95 22
REMARK SMILES IDX 89 23 88 24 47 26 77 27 58 28 76 29 59 30 62 31 75 32 93 33
REMARK SMILES IDX 60 34 61 35 74 37 94 38 63 39 48 40 49 41 57 42 50 43 56 44
REMARK SMILES IDX 51 45 52 46 53 47 54 48 55 49 78 50 79 51 87 52 80 53 86 54
REMARK SMILES IDX 81 55 82 56 83 57 84 58 85 59 64 60 65 61 73 62 66 63 72 64
REMARK SMILES IDX 67 65 68 66 69 67 70 68 71 69 8 70 9 71 10 72 11 73 12 74
REMARK SMILES IDX 13 75 14 76 15 77 16 78 22 79 21 80 17 81 19 82 20 83 18 84
REMARK SMILES IDX 23 85 24 86 25 87 26 89 27 90 38 91 28 92 37 93 29 94 30 95
REMARK SMILES IDX 31 96 32 97 33 98 36 99 34 100 35 101
REMARK H PARENT 92 25 62 36 25 88
REMARK Flexibility Score: inf
ROOT
ATOM      1  C   UNL A   1      38.133  21.881  25.714  1.00  0.00     0.188 C 
ENDROOT
BRANCH   1   2
ATOM      2  O   UNL A   1      39.331  22.179  26.420  1.00  0.00    -0.376 OA
BRANCH   2   3
ATOM      3  C   UNL A   1      40.381  21.226  26.322  1.00  0.00     0.202 C 
BRANCH   3   4
ATOM      4  C   UNL A   1      41.794  21.768  26.114  1.00  0.00     0.261 C 
BRANCH   4   5
ATOM      5  O   UNL A   1      42.017  23.238  26.141  1.00  0.00    -0.460 OA
BRANCH   5   6
ATOM      6  C   UNL A   1      43.040  24.277  26.597  1.00  0.00     0.338 C 
ATOM      7  O   UNL A   1      43.973  23.741  25.958  1.00  0.00    -0.246 OA
BRANCH   6   8
ATOM      8  C   UNL A   1      42.800  26.131  27.691  1.00  0.00     0.060 A 
ATOM      9  C   UNL A   1      41.664  26.410  28.779  1.00  0.00     0.016 A 
ATOM     10  C   UNL A   1      43.440  27.453  27.762  1.00  0.00     0.016 A 
ATOM     11  C   UNL A   1      41.552  27.229  29.876  1.00  0.00     0.010 A 
ATOM     12  C   UNL A   1      43.229  28.470  28.845  1.00  0.00     0.010 A 
ATOM     13  C   UNL A   1      42.406  28.261  29.977  1.00  0.00    -0.014 A 
BRANCH  13  14
ATOM     14  C   UNL A   1      42.039  29.118  31.130  1.00  0.00     0.031 A 
ATOM     15  C   UNL A   1      40.804  29.944  30.941  1.00  0.00     0.074 A 
ATOM     16  C   UNL A   1      42.295  28.785  32.424  1.00  0.00     0.049 A 
ATOM     17  N   UNL A   1      40.207  30.720  31.793  1.00  0.00    -0.248 NA
ATOM     18  C   UNL A   1      40.067  29.752  29.673  1.00  0.00     0.031 C 
ATOM     19  C   UNL A   1      42.808  27.511  32.916  1.00  0.00     0.029 A 
ATOM     20  N   UNL A   1      42.222  29.510  33.583  1.00  0.00    -0.354 N 
ATOM     21  C   UNL A   1      39.037  31.112  31.170  1.00  0.00     0.074 A 
ATOM     22  C   UNL A   1      38.975  30.463  29.885  1.00  0.00     0.031 C 
ATOM     23  C   UNL A   1      43.338  27.651  34.141  1.00  0.00     0.029 A 
ATOM     24  C   UNL A   1      43.026  28.987  34.586  1.00  0.00     0.049 A 
ATOM     25  H   UNL A   1      41.661  30.311  33.693  1.00  0.00     0.167 HD
ATOM     26  C   UNL A   1      38.129  31.987  31.642  1.00  0.00     0.031 A 
ATOM     27  C   UNL A   1      43.464  29.557  35.724  1.00  0.00     0.031 A 
ATOM     28  C   UNL A   1      38.325  32.654  32.897  1.00  0.00     0.049 A 
ATOM     29  C   UNL A   1      42.721  30.797  36.101  1.00  0.00     0.074 A 
ATOM     30  C   UNL A   1      37.627  33.714  33.434  1.00  0.00     0.029 A 
ATOM     31  N   UNL A   1      39.335  32.327  33.804  1.00  0.00    -0.354 N 
ATOM     32  N   UNL A   1      41.749  31.368  35.427  1.00  0.00    -0.248 NA
ATOM     33  C   UNL A   1      43.021  31.416  37.389  1.00  0.00     0.031 C 
ATOM     34  C   UNL A   1      38.279  34.092  34.613  1.00  0.00     0.029 A 
ATOM     35  C   UNL A   1      39.317  33.203  34.869  1.00  0.00     0.049 A 
ATOM     36  H   UNL A   1      39.967  31.580  33.698  1.00  0.00     0.167 HD
ATOM     37  C   UNL A   1      41.250  32.358  36.241  1.00  0.00     0.074 A 
ATOM     38  C   UNL A   1      42.067  32.340  37.447  1.00  0.00     0.031 C 
ATOM     39  C   UNL A   1      40.185  33.167  36.026  1.00  0.00     0.031 A 
BRANCH  26  40
ATOM     40  C   UNL A   1      37.057  32.399  30.678  1.00  0.00    -0.014 A 
ATOM     41  C   UNL A   1      37.272  33.358  29.669  1.00  0.00     0.010 A 
ATOM     42  C   UNL A   1      35.756  31.913  30.893  1.00  0.00     0.010 A 
ATOM     43  C   UNL A   1      36.194  33.854  28.928  1.00  0.00     0.020 A 
ATOM     44  C   UNL A   1      34.684  32.378  30.133  1.00  0.00     0.020 A 
ATOM     45  C   UNL A   1      34.906  33.360  29.167  1.00  0.00     0.054 A 
BRANCH  45  46
ATOM     46  S   UNL A   1      33.527  34.011  28.189  1.00  0.00     0.124 S 
ATOM     47  O   UNL A   1      34.210  34.910  27.262  1.00  0.00    -0.237 OA
ATOM     48  O   UNL A   1      32.964  32.803  27.593  1.00  0.00    -0.237 OA
ATOM     49  O   UNL A   1      32.678  34.668  29.181  1.00  0.00    -0.744 OA
ENDBRANCH  45  46
ENDBRANCH  26  40
BRANCH  27  50
ATOM     50  C   UNL A   1      44.584  28.974  36.520  1.00  0.00    -0.014 A 
ATOM     51  C   UNL A   1      45.910  29.421  36.406  1.00  0.00     0.010 A 
ATOM     52  C   UNL A   1      44.310  27.931  37.433  1.00  0.00     0.010 A 
ATOM     53  C   UNL A   1      46.934  28.836  37.171  1.00  0.00     0.020 A 
ATOM     54  C   UNL A   1      45.326  27.349  38.206  1.00  0.00     0.020 A 
ATOM     55  C   UNL A   1      46.636  27.804  38.067  1.00  0.00     0.054 A 
BRANCH  55  56
ATOM     56  S   UNL A   1      47.978  27.086  39.063  1.00  0.00     0.124 S 
ATOM     57  O   UNL A   1      48.157  28.088  40.109  1.00  0.00    -0.237 OA
ATOM     58  O   UNL A   1      47.398  25.816  39.497  1.00  0.00    -0.237 OA
ATOM     59  O   UNL A   1      49.086  26.967  38.117  1.00  0.00    -0.744 OA
ENDBRANCH  55  56
ENDBRANCH  27  50
BRANCH  39  60
ATOM     60  C   UNL A   1      39.836  34.098  37.140  1.00  0.00    -0.014 A 
ATOM     61  C   UNL A   1      38.965  33.703  38.164  1.00  0.00     0.010 A 
ATOM     62  C   UNL A   1      40.490  35.342  37.205  1.00  0.00     0.010 A 
ATOM     63  C   UNL A   1      38.742  34.551  39.244  1.00  0.00     0.020 A 
ATOM     64  C   UNL A   1      40.302  36.170  38.304  1.00  0.00     0.020 A 
ATOM     65  C   UNL A   1      39.425  35.770  39.313  1.00  0.00     0.054 A 
BRANCH  65  66
ATOM     66  S   UNL A   1      39.195  36.799  40.781  1.00  0.00     0.124 S 
ATOM     67  O   UNL A   1      40.574  37.110  41.150  1.00  0.00    -0.237 OA
ATOM     68  O   UNL A   1      38.415  37.919  40.260  1.00  0.00    -0.237 OA
ATOM     69  O   UNL A   1      38.482  35.926  41.710  1.00  0.00    -0.744 OA
ENDBRANCH  65  66
ENDBRANCH  39  60
ENDBRANCH  13  14
ENDBRANCH   6   8
ENDBRANCH   5   6
ENDBRANCH   4   5
ENDBRANCH   3   4
ENDBRANCH   2   3
ENDBRANCH   1   2
BRANCH   1  70
ATOM     70  C   UNL A   1      37.616  23.051  24.883  1.00  0.00     0.188 C 
BRANCH  70  71
ATOM     71  O   UNL A   1      36.469  23.714  25.393  1.00  0.00    -0.376 OA
BRANCH  71  72
ATOM     72  C   UNL A   1      35.319  23.663  24.560  1.00  0.00     0.202 C 
BRANCH  72  73
ATOM     73  C   UNL A   1      34.550  24.972  24.288  1.00  0.00     0.261 C 
BRANCH  73  74
ATOM     74  O   UNL A   1      34.193  25.323  22.935  1.00  0.00    -0.463 OA
BRANCH  74  75
ATOM     75  C   UNL A   1      32.902  25.677  22.689  1.00  0.00     0.310 C 
ATOM     76  O   UNL A   1      32.188  25.126  21.859  1.00  0.00    -0.252 OA
BRANCH  75  77
ATOM     77  C   UNL A   1      32.468  26.946  23.433  1.00  0.00     0.115 C 
ATOM     78  C   UNL A   1      32.460  28.374  22.689  1.00  0.00     0.004 C 
ATOM     79  C   UNL A   1      31.388  26.864  24.537  1.00  0.00     0.096 C 
ATOM     80  C   UNL A   1      31.125  29.147  22.520  1.00  0.00     0.005 C 
ATOM     81  C   UNL A   1      33.155  29.337  23.670  1.00  0.00     0.005 C 
ATOM     82  C   UNL A   1      31.054  28.393  24.845  1.00  0.00     0.002 C 
ATOM     83  C   UNL A   1      30.239  28.968  23.726  1.00  0.00     0.005 C 
ATOM     84  C   UNL A   1      32.305  29.345  24.961  1.00  0.00     0.005 C 
BRANCH  79  85
ATOM     85  C   UNL A   1      30.400  25.495  24.749  1.00  0.00     0.228 C 
ATOM     86  O   UNL A   1      29.181  25.724  24.572  1.00  0.00    -0.274 OA
ATOM     87  N   UNL A   1      30.587  24.142  25.071  1.00  0.00    -0.326 N 
ATOM     88  H   UNL A   1      29.743  23.646  25.181  1.00  0.00     0.169 HD
BRANCH  87  89
ATOM     89  C   UNL A   1      31.757  23.328  25.276  1.00  0.00     0.041 A 
ATOM     90  C   UNL A   1      32.552  22.762  26.909  1.00  0.00     0.027 A 
ATOM     91  C   UNL A   1      31.898  22.300  23.874  1.00  0.00     0.027 A 
ATOM     92  C   UNL A   1      33.458  21.122  26.901  1.00  0.00     0.016 A 
ATOM     93  C   UNL A   1      32.674  20.753  23.928  1.00  0.00     0.016 A 
ATOM     94  C   UNL A   1      33.556  20.171  25.342  1.00  0.00     0.040 A 
BRANCH  94  95
ATOM     95  C   UNL A   1      34.561  19.145  24.777  1.00  0.00     0.253 C 
ATOM     96  O   UNL A   1      35.727  19.500  24.625  1.00  0.00    -0.269 OA
ATOM     97  N   UNL A   1      34.166  17.751  24.697  1.00  0.00    -0.339 N 
ATOM     98  C   UNL A   1      33.019  17.107  24.006  1.00  0.00     0.120 C 
ATOM     99  C   UNL A   1      34.920  16.701  25.379  1.00  0.00     0.120 C 
ATOM    100  C   UNL A   1      32.720  15.835  24.801  1.00  0.00     0.023 C 
ATOM    101  C   UNL A   1      34.104  15.396  25.241  1.00  0.00     0.023 C 
ENDBRANCH  94  95
ENDBRANCH  87  89
ENDBRANCH  79  85
ENDBRANCH  75  77
ENDBRANCH  74  75
ENDBRANCH  73  74
ENDBRANCH  72  73
ENDBRANCH  71  72
ENDBRANCH  70  71
ENDBRANCH   1  70
TORSDOF 23
ENDMDL
MODEL 3
REMARK VINA RESULT:     -10.8      5.669     12.202
REMARK SMILES O=C(OCCOCCOCCOC(=O)[C@H]1[C@H]2CC[C@H](CC2)[C@H]1C(=O)Nc1ccc(C(=O)N2CCCC2)cc1)c1ccc(-c2c3nc(c(-c4ccc(S(=O)(=O)[O-])cc4)c4ccc([nH]4)c(-c4ccc(S(=O)(=O)[O-])cc4)c4nc(c(-c5ccc(S(=O)(=O)[O-])cc5)c5ccc2[nH]5)C=C4)C=C3)cc1
REMARK SMILES IDX 7 1 6 2 5 3 4 4 3 5 2 6 1 7 39 8 40 9 98 10 41 11 97 12
REMARK SMILES IDX 42 13 43 14 44 15 91 16 45 17 96 18 90 19 92 20 46 21 95 22
REMARK SMILES IDX 89 23 88 24 47 26 77 27 58 28 76 29 59 30 62 31 75 32 93 33
REMARK SMILES IDX 60 34 61 35 74 37 94 38 63 39 48 40 49 41 57 42 50 43 56 44
REMARK SMILES IDX 51 45 52 46 53 47 54 48 55 49 78 50 79 51 87 52 80 53 86 54
REMARK SMILES IDX 81 55 82 56 83 57 84 58 85 59 64 60 65 61 73 62 66 63 72 64
REMARK SMILES IDX 67 65 68 66 69 67 70 68 71 69 8 70 9 71 10 72 11 73 12 74
REMARK SMILES IDX 13 75 14 76 15 77 16 78 22 79 21 80 17 81 19 82 20 83 18 84
REMARK SMILES IDX 23 85 24 86 25 87 26 89 27 90 38 91 28 92 37 93 29 94 30 95
REMARK SMILES IDX 31 96 32 97 33 98 36 99 34 100 35 101
REMARK H PARENT 92 25 62 36 25 88
REMARK Flexibility Score: inf
ROOT
ATOM      1  C   UNL A   1      33.162  29.355  27.077  1.00  0.00     0.188 C 
ENDROOT
BRANCH   1   2
ATOM      2  O   UNL A   1      33.472  30.572  27.745  1.00  0.00    -0.376 OA
BRANCH   2   3
ATOM      3  C   UNL A   1      34.782  31.088  27.552  1.00  0.00     0.202 C 
BRANCH   3   4
ATOM      4  C   UNL A   1      35.633  31.309  28.801  1.00  0.00     0.261 C 
BRANCH   4   5
ATOM      5  O   UNL A   1      35.941  30.149  29.681  1.00  0.00    -0.460 OA
BRANCH   5   6
ATOM      6  C   UNL A   1      36.972  29.673  30.702  1.00  0.00     0.338 C 
ATOM      7  O   UNL A   1      36.166  29.745  31.656  1.00  0.00    -0.246 OA
BRANCH   6   8
ATOM      8  C   UNL A   1      38.975  28.887  30.447  1.00  0.00     0.060 A 
ATOM      9  C   UNL A   1      39.696  28.664  29.038  1.00  0.00     0.016 A 
ATOM     10  C   UNL A   1      40.073  28.391  31.288  1.00  0.00     0.016 A 
ATOM     11  C   UNL A   1      41.001  28.635  28.612  1.00  0.00     0.010 A 
ATOM     12  C   UNL A   1      41.488  28.170  30.839  1.00  0.00     0.010 A 
ATOM     13  C   UNL A   1      41.960  28.460  29.537  1.00  0.00    -0.014 A 
BRANCH  13  14
ATOM     14  C   UNL A   1      43.280  28.299  28.882  1.00  0.00     0.031 A 
ATOM     15  C   UNL A   1      44.251  29.412  29.127  1.00  0.00     0.074 A 
ATOM     16  C   UNL A   1      43.862  27.091  28.654  1.00  0.00     0.049 A 
ATOM     17  N   UNL A   1      45.490  29.508  28.750  1.00  0.00    -0.248 NA
ATOM     18  C   UNL A   1      43.810  30.487  30.041  1.00  0.00     0.031 C 
ATOM     19  C   UNL A   1      43.401  25.791  29.130  1.00  0.00     0.029 A 
ATOM     20  N   UNL A   1      44.949  26.730  27.902  1.00  0.00    -0.354 N 
ATOM     21  C   UNL A   1      45.972  30.646  29.370  1.00  0.00     0.074 A 
ATOM     22  C   UNL A   1      44.916  31.193  30.183  1.00  0.00     0.031 C 
ATOM     23  C   UNL A   1      43.929  24.799  28.396  1.00  0.00     0.029 A 
ATOM     24  C   UNL A   1      44.912  25.395  27.525  1.00  0.00     0.049 A 
ATOM     25  H   UNL A   1      45.675  27.348  27.658  1.00  0.00     0.167 HD
ATOM     26  C   UNL A   1      47.192  31.192  29.211  1.00  0.00     0.031 A 
ATOM     27  C   UNL A   1      45.596  24.753  26.561  1.00  0.00     0.031 A 
ATOM     28  C   UNL A   1      48.148  30.621  28.306  1.00  0.00     0.049 A 
ATOM     29  C   UNL A   1      46.778  25.513  26.053  1.00  0.00     0.074 A 
ATOM     30  C   UNL A   1      49.342  31.146  27.862  1.00  0.00     0.029 A 
ATOM     31  N   UNL A   1      47.983  29.387  27.676  1.00  0.00    -0.354 N 
ATOM     32  N   UNL A   1      47.162  26.713  26.427  1.00  0.00    -0.248 NA
ATOM     33  C   UNL A   1      47.671  24.850  25.107  1.00  0.00     0.031 C 
ATOM     34  C   UNL A   1      49.847  30.277  26.889  1.00  0.00     0.029 A 
ATOM     35  C   UNL A   1      49.026  29.158  26.802  1.00  0.00     0.049 A 
ATOM     36  H   UNL A   1      47.233  28.769  27.833  1.00  0.00     0.167 HD
ATOM     37  C   UNL A   1      48.389  26.922  25.840  1.00  0.00     0.074 A 
ATOM     38  C   UNL A   1      48.661  25.735  25.041  1.00  0.00     0.031 C 
ATOM     39  C   UNL A   1      49.226  27.974  25.994  1.00  0.00     0.031 A 
BRANCH  26  40
ATOM     40  C   UNL A   1      47.389  32.542  29.833  1.00  0.00    -0.014 A 
ATOM     41  C   UNL A   1      47.055  33.738  29.169  1.00  0.00     0.010 A 
ATOM     42  C   UNL A   1      48.068  32.608  31.062  1.00  0.00     0.010 A 
ATOM     43  C   UNL A   1      47.441  34.972  29.706  1.00  0.00     0.020 A 
ATOM     44  C   UNL A   1      48.424  33.837  31.618  1.00  0.00     0.020 A 
ATOM     45  C   UNL A   1      48.124  35.011  30.926  1.00  0.00     0.054 A 
BRANCH  45  46
ATOM     46  S   UNL A   1      48.606  36.620  31.605  1.00  0.00     0.124 S 
ATOM     47  O   UNL A   1      47.635  36.800  32.681  1.00  0.00    -0.237 OA
ATOM     48  O   UNL A   1      49.982  36.383  32.034  1.00  0.00    -0.237 OA
ATOM     49  O   UNL A   1      48.457  37.533  30.474  1.00  0.00    -0.744 OA
ENDBRANCH  45  46
ENDBRANCH  26  40
BRANCH  27  50
ATOM     50  C   UNL A   1      45.195  23.402  26.071  1.00  0.00    -0.014 A 
ATOM     51  C   UNL A   1      43.865  23.068  25.766  1.00  0.00     0.010 A 
ATOM     52  C   UNL A   1      46.185  22.408  25.901  1.00  0.00     0.010 A 
ATOM     53  C   UNL A   1      43.533  21.779  25.315  1.00  0.00     0.020 A 
ATOM     54  C   UNL A   1      45.862  21.122  25.444  1.00  0.00     0.020 A 
ATOM     55  C   UNL A   1      44.533  20.814  25.157  1.00  0.00     0.054 A 
BRANCH  55  56
ATOM     56  S   UNL A   1      44.075  19.162  24.546  1.00  0.00     0.124 S 
ATOM     57  O   UNL A   1      44.331  19.280  23.114  1.00  0.00    -0.237 OA
ATOM     58  O   UNL A   1      44.992  18.293  25.282  1.00  0.00    -0.237 OA
ATOM     59  O   UNL A   1      42.668  19.032  24.919  1.00  0.00    -0.744 OA
ENDBRANCH  55  56
ENDBRANCH  27  50
BRANCH  39  60
ATOM     60  C   UNL A   1      50.535  27.878  25.282  1.00  0.00    -0.014 A 
ATOM     61  C   UNL A   1      51.632  27.236  25.874  1.00  0.00     0.010 A 
ATOM     62  C   UNL A   1      50.615  28.342  23.957  1.00  0.00     0.010 A 
ATOM     63  C   UNL A   1      52.805  27.066  25.147  1.00  0.00     0.020 A 
ATOM     64  C   UNL A   1      51.771  28.134  23.215  1.00  0.00     0.020 A 
ATOM     65  C   UNL A   1      52.859  27.501  23.818  1.00  0.00     0.054 A 
BRANCH  65  66
ATOM     66  S   UNL A   1      54.360  27.169  22.867  1.00  0.00     0.124 S 
ATOM     67  O   UNL A   1      53.846  26.363  21.763  1.00  0.00    -0.237 OA
ATOM     68  O   UNL A   1      54.810  28.513  22.511  1.00  0.00    -0.237 OA
ATOM     69  O   UNL A   1      55.220  26.460  23.811  1.00  0.00    -0.744 OA
ENDBRANCH  65  66
ENDBRANCH  39  60
ENDBRANCH  13  14
ENDBRANCH   6   8
ENDBRANCH   5   6
ENDBRANCH   4   5
ENDBRANCH   3   4
ENDBRANCH   2   3
ENDBRANCH   1   2
BRANCH   1  70
ATOM     70  C   UNL A   1      31.692  28.964  27.189  1.00  0.00     0.188 C 
BRANCH  70  71
ATOM     71  O   UNL A   1      31.436  27.633  27.611  1.00  0.00    -0.376 OA
BRANCH  71  72
ATOM     72  C   UNL A   1      31.221  26.696  26.564  1.00  0.00     0.202 C 
BRANCH  72  73
ATOM     73  C   UNL A   1      31.797  25.274  26.722  1.00  0.00     0.261 C 
BRANCH  73  74
ATOM     74  O   UNL A   1      32.660  24.735  25.698  1.00  0.00    -0.463 OA
BRANCH  74  75
ATOM     75  C   UNL A   1      33.917  25.243  25.593  1.00  0.00     0.310 C 
ATOM     76  O   UNL A   1      34.185  26.435  25.695  1.00  0.00    -0.252 OA
BRANCH  75  77
ATOM     77  C   UNL A   1      34.960  24.202  25.165  1.00  0.00     0.115 C 
ATOM     78  C   UNL A   1      35.648  23.233  26.250  1.00  0.00     0.004 C 
ATOM     79  C   UNL A   1      34.858  23.532  23.774  1.00  0.00     0.096 C 
ATOM     80  C   UNL A   1      35.450  21.697  26.148  1.00  0.00     0.005 C 
ATOM     81  C   UNL A   1      37.154  23.287  25.933  1.00  0.00     0.005 C 
ATOM     82  C   UNL A   1      35.939  22.361  23.847  1.00  0.00     0.002 C 
ATOM     83  C   UNL A   1      35.424  21.250  24.709  1.00  0.00     0.005 C 
ATOM     84  C   UNL A   1      37.322  22.761  24.489  1.00  0.00     0.005 C 
BRANCH  79  85
ATOM     85  C   UNL A   1      33.458  23.631  22.813  1.00  0.00     0.228 C 
ATOM     86  O   UNL A   1      33.162  22.553  22.245  1.00  0.00    -0.274 OA
ATOM     87  N   UNL A   1      32.518  24.618  22.478  1.00  0.00    -0.326 N 
ATOM     88  H   UNL A   1      31.859  24.319  21.809  1.00  0.00     0.169 HD
BRANCH  87  89
ATOM     89  C   UNL A   1      32.317  25.976  22.910  1.00  0.00     0.041 A 
ATOM     90  C   UNL A   1      33.380  27.515  22.558  1.00  0.00     0.027 A 
ATOM     91  C   UNL A   1      30.599  26.178  23.131  1.00  0.00     0.027 A 
ATOM     92  C   UNL A   1      32.503  29.168  22.486  1.00  0.00     0.016 A 
ATOM     93  C   UNL A   1      29.813  27.714  22.976  1.00  0.00     0.016 A 
ATOM     94  C   UNL A   1      30.698  29.228  22.778  1.00  0.00     0.040 A 
BRANCH  94  95
ATOM     95  C   UNL A   1      29.737  30.312  23.310  1.00  0.00     0.253 C 
ATOM     96  O   UNL A   1      29.894  30.710  24.460  1.00  0.00    -0.269 OA
ATOM     97  N   UNL A   1      28.871  30.998  22.370  1.00  0.00    -0.339 N 
ATOM     98  C   UNL A   1      27.855  30.469  21.423  1.00  0.00     0.120 C 
ATOM     99  C   UNL A   1      28.911  32.451  22.211  1.00  0.00     0.120 C 
ATOM    100  C   UNL A   1      27.790  31.484  20.280  1.00  0.00     0.023 C 
ATOM    101  C   UNL A   1      28.014  32.799  21.002  1.00  0.00     0.023 C 
ENDBRANCH  94  95
ENDBRANCH  87  89
ENDBRANCH  79  85
ENDBRANCH  75  77
ENDBRANCH  74  75
ENDBRANCH  73  74
ENDBRANCH  72  73
ENDBRANCH  71  72
ENDBRANCH  70  71
ENDBRANCH   1  70
TORSDOF 23
ENDMDL
