MODEL 1
REMARK VINA RESULT:      -9.6      0.000      0.000
REMARK SMILES O=C(CCN1C(=O)/C(=C/c2cc(Br)cc(Br)c2O)SC1=S)OCCOCCOCCOC(=O)c1ccc(-c2c3nc(c(-c4ccc(S(=O)(=O)[O-])cc4)c4ccc([nH]4)c(-c4ccc(S(=O)(=O)[O-])cc4)c4nc(c(-c5ccc(S(=O)(=O)[O-])cc5)c5ccc2[nH]5)C=C4)C=C3)cc1
REMARK SMILES IDX 26 1 25 2 24 3 23 4 22 5 2 6 1 7 3 8 4 9 5 10 6 11 20 12
REMARK SMILES IDX 7 13 8 14 19 15 21 16 9 17 10 18 11 19 17 20 12 21 15 22
REMARK SMILES IDX 13 23 14 24 16 25 18 26 27 28 28 29 29 30 30 31 31 32 32 33
REMARK SMILES IDX 33 34 34 35 35 36 93 37 36 38 92 39 37 40 38 41 39 42 86 43
REMARK SMILES IDX 40 44 91 45 85 46 87 47 41 48 90 49 84 50 83 51 42 53 72 54
REMARK SMILES IDX 53 55 71 56 54 57 57 58 70 59 88 60 55 61 56 62 69 64 89 65
REMARK SMILES IDX 58 66 43 67 44 68 52 69 45 70 51 71 46 72 47 73 48 74 49 75
REMARK SMILES IDX 50 76 73 77 74 78 82 79 75 80 81 81 76 82 77 83 78 84 79 85
REMARK SMILES IDX 80 86 59 87 60 88 68 89 61 90 67 91 62 92 63 93 64 94 65 95
REMARK SMILES IDX 66 96
REMARK H PARENT 18 27 87 52 57 63
REMARK Flexibility Score: inf
ROOT
ATOM      1  C   UNL A   1      37.214  19.671  24.888  1.00  0.00     0.188 C 
ENDROOT
BRANCH   1   2
ATOM      2  O   UNL A   1      35.834  19.306  25.003  1.00  0.00    -0.376 OA
BRANCH   2   3
ATOM      3  C   UNL A   1      35.509  17.981  24.621  1.00  0.00     0.202 C 
BRANCH   3   4
ATOM      4  C   UNL A   1      34.128  17.856  23.993  1.00  0.00     0.261 C 
BRANCH   4   5
ATOM      5  O   UNL A   1      33.339  19.046  24.067  1.00  0.00    -0.463 OA
BRANCH   5   6
ATOM      6  C   UNL A   1      32.580  19.205  25.187  1.00  0.00     0.307 C 
ATOM      7  O   UNL A   1      32.295  18.250  25.899  1.00  0.00    -0.252 OA
BRANCH   6   8
ATOM      8  C   UNL A   1      31.963  20.575  25.376  1.00  0.00     0.144 C 
BRANCH   8   9
ATOM      9  C   UNL A   1      32.977  21.693  25.629  1.00  0.00     0.139 C 
BRANCH   9  10
ATOM     10  N   UNL A   1      32.494  23.009  25.177  1.00  0.00    -0.292 N 
ATOM     11  C   UNL A   1      31.921  23.865  26.101  1.00  0.00     0.266 C 
ATOM     12  C   UNL A   1      32.638  23.500  23.892  1.00  0.00     0.148 C 
ATOM     13  O   UNL A   1      31.702  23.622  27.280  1.00  0.00    -0.268 OA
ATOM     14  C   UNL A   1      31.771  25.228  25.518  1.00  0.00     0.081 C 
ATOM     15  S   UNL A   1      32.173  25.201  23.854  1.00  0.00    -0.054 SA
ATOM     16  S   UNL A   1      33.186  22.709  22.532  1.00  0.00    -0.052 S 
ATOM     17  C   UNL A   1      31.534  26.278  26.320  1.00  0.00     0.033 C 
BRANCH  17  18
ATOM     18  C   UNL A   1      31.579  27.715  25.987  1.00  0.00     0.020 A 
ATOM     19  C   UNL A   1      30.786  28.228  24.950  1.00  0.00     0.027 A 
ATOM     20  C   UNL A   1      32.365  28.615  26.735  1.00  0.00     0.137 A 
ATOM     21  C   UNL A   1      30.802  29.592  24.649  1.00  0.00     0.019 A 
ATOM     22  C   UNL A   1      32.356  29.987  26.438  1.00  0.00     0.061 A 
ATOM     23  Br  UNL A   1      29.748  30.246  23.223  1.00  0.00    -0.051 Br
ATOM     24  C   UNL A   1      31.580  30.476  25.389  1.00  0.00     0.035 A 
ATOM     25  Br  UNL A   1      33.385  31.231  27.439  1.00  0.00    -0.047 Br
BRANCH  20  26
ATOM     26  O   UNL A   1      33.170  28.196  27.767  1.00  0.00    -0.506 OA
ATOM     27  H   UNL A   1      34.098  28.144  27.645  1.00  0.00     0.293 HD
ENDBRANCH  20  26
ENDBRANCH  17  18
ENDBRANCH   9  10
ENDBRANCH   8   9
ENDBRANCH   6   8
ENDBRANCH   5   6
ENDBRANCH   4   5
ENDBRANCH   3   4
ENDBRANCH   2   3
ENDBRANCH   1   2
BRANCH   1  28
ATOM     28  C   UNL A   1      37.510  21.147  24.594  1.00  0.00     0.188 C 
BRANCH  28  29
ATOM     29  O   UNL A   1      38.441  21.821  25.437  1.00  0.00    -0.376 OA
BRANCH  29  30
ATOM     30  C   UNL A   1      38.062  23.057  26.036  1.00  0.00     0.202 C 
BRANCH  30  31
ATOM     31  C   UNL A   1      39.143  23.756  26.858  1.00  0.00     0.261 C 
BRANCH  31  32
ATOM     32  O   UNL A   1      38.965  25.181  26.872  1.00  0.00    -0.460 OA
BRANCH  32  33
ATOM     33  C   UNL A   1      40.096  25.920  26.952  1.00  0.00     0.338 C 
ATOM     34  O   UNL A   1      41.083  25.842  26.244  1.00  0.00    -0.246 OA
BRANCH  33  35
ATOM     35  C   UNL A   1      39.919  26.960  27.982  1.00  0.00     0.060 A 
ATOM     36  C   UNL A   1      40.416  28.247  27.733  1.00  0.00     0.016 A 
ATOM     37  C   UNL A   1      39.343  26.641  29.212  1.00  0.00     0.016 A 
ATOM     38  C   UNL A   1      40.391  29.208  28.745  1.00  0.00     0.010 A 
ATOM     39  C   UNL A   1      39.330  27.598  30.225  1.00  0.00     0.010 A 
ATOM     40  C   UNL A   1      39.891  28.869  30.008  1.00  0.00    -0.014 A 
BRANCH  40  41
ATOM     41  C   UNL A   1      40.113  29.746  31.179  1.00  0.00     0.031 A 
ATOM     42  C   UNL A   1      41.263  29.432  32.093  1.00  0.00     0.074 A 
ATOM     43  C   UNL A   1      39.254  30.737  31.473  1.00  0.00     0.049 A 
ATOM     44  N   UNL A   1      41.544  29.921  33.271  1.00  0.00    -0.248 NA
ATOM     45  C   UNL A   1      42.213  28.413  31.617  1.00  0.00     0.031 C 
ATOM     46  C   UNL A   1      38.121  31.144  30.647  1.00  0.00     0.029 A 
ATOM     47  N   UNL A   1      39.184  31.547  32.578  1.00  0.00    -0.354 N 
ATOM     48  C   UNL A   1      42.683  29.246  33.694  1.00  0.00     0.074 A 
ATOM     49  C   UNL A   1      43.034  28.308  32.651  1.00  0.00     0.031 C 
ATOM     50  C   UNL A   1      37.438  32.103  31.296  1.00  0.00     0.029 A 
ATOM     51  C   UNL A   1      38.062  32.340  32.597  1.00  0.00     0.049 A 
ATOM     52  H   UNL A   1      39.868  31.560  33.285  1.00  0.00     0.167 HD
ATOM     53  C   UNL A   1      43.367  29.388  34.855  1.00  0.00     0.031 A 
ATOM     54  C   UNL A   1      37.569  33.129  33.572  1.00  0.00     0.031 A 
ATOM     55  C   UNL A   1      42.992  30.305  35.895  1.00  0.00     0.049 A 
ATOM     56  C   UNL A   1      38.313  33.243  34.876  1.00  0.00     0.074 A 
ATOM     57  C   UNL A   1      43.630  30.554  37.097  1.00  0.00     0.029 A 
ATOM     58  N   UNL A   1      41.864  31.115  35.864  1.00  0.00    -0.354 N 
ATOM     59  N   UNL A   1      39.412  32.632  35.252  1.00  0.00    -0.248 NA
ATOM     60  C   UNL A   1      37.757  34.156  35.884  1.00  0.00     0.031 C 
ATOM     61  C   UNL A   1      42.857  31.471  37.817  1.00  0.00     0.029 A 
ATOM     62  C   UNL A   1      41.772  31.842  37.037  1.00  0.00     0.049 A 
ATOM     63  H   UNL A   1      41.224  31.163  35.117  1.00  0.00     0.167 HD
ATOM     64  C   UNL A   1      39.694  33.105  36.528  1.00  0.00     0.074 A 
ATOM     65  C   UNL A   1      38.652  34.056  36.860  1.00  0.00     0.031 C 
ATOM     66  C   UNL A   1      40.727  32.788  37.348  1.00  0.00     0.031 A 
BRANCH  53  67
ATOM     67  C   UNL A   1      44.549  28.480  35.073  1.00  0.00    -0.014 A 
ATOM     68  C   UNL A   1      44.408  27.226  35.695  1.00  0.00     0.010 A 
ATOM     69  C   UNL A   1      45.826  28.899  34.659  1.00  0.00     0.010 A 
ATOM     70  C   UNL A   1      45.531  26.437  35.956  1.00  0.00     0.020 A 
ATOM     71  C   UNL A   1      46.949  28.098  34.891  1.00  0.00     0.020 A 
ATOM     72  C   UNL A   1      46.797  26.884  35.562  1.00  0.00     0.054 A 
BRANCH  72  73
ATOM     73  S   UNL A   1      48.242  25.853  35.934  1.00  0.00     0.124 S 
ATOM     74  O   UNL A   1      49.230  26.370  34.990  1.00  0.00    -0.237 OA
ATOM     75  O   UNL A   1      48.500  26.153  37.340  1.00  0.00    -0.237 OA
ATOM     76  O   UNL A   1      47.776  24.494  35.666  1.00  0.00    -0.744 OA
ENDBRANCH  72  73
ENDBRANCH  53  67
BRANCH  54  77
ATOM     77  C   UNL A   1      36.283  33.840  33.347  1.00  0.00    -0.014 A 
ATOM     78  C   UNL A   1      36.267  35.161  32.870  1.00  0.00     0.010 A 
ATOM     79  C   UNL A   1      35.061  33.169  33.543  1.00  0.00     0.010 A 
ATOM     80  C   UNL A   1      35.054  35.793  32.579  1.00  0.00     0.020 A 
ATOM     81  C   UNL A   1      33.848  33.788  33.231  1.00  0.00     0.020 A 
ATOM     82  C   UNL A   1      33.853  35.099  32.750  1.00  0.00     0.054 A 
BRANCH  82  83
ATOM     83  S   UNL A   1      32.301  35.900  32.258  1.00  0.00     0.124 S 
ATOM     84  O   UNL A   1      31.305  34.921  32.681  1.00  0.00    -0.237 OA
ATOM     85  O   UNL A   1      32.333  37.144  33.024  1.00  0.00    -0.237 OA
ATOM     86  O   UNL A   1      32.445  36.066  30.814  1.00  0.00    -0.744 OA
ENDBRANCH  82  83
ENDBRANCH  54  77
BRANCH  66  87
ATOM     87  C   UNL A   1      40.819  33.499  38.673  1.00  0.00    -0.014 A 
ATOM     88  C   UNL A   1      40.285  32.936  39.844  1.00  0.00     0.010 A 
ATOM     89  C   UNL A   1      41.546  34.701  38.757  1.00  0.00     0.010 A 
ATOM     90  C   UNL A   1      40.470  33.569  41.077  1.00  0.00     0.020 A 
ATOM     91  C   UNL A   1      41.752  35.324  39.990  1.00  0.00     0.020 A 
ATOM     92  C   UNL A   1      41.207  34.756  41.143  1.00  0.00     0.054 A 
BRANCH  92  93
ATOM     93  S   UNL A   1      41.501  35.514  42.765  1.00  0.00     0.124 S 
ATOM     94  O   UNL A   1      41.202  34.412  43.674  1.00  0.00    -0.237 OA
ATOM     95  O   UNL A   1      42.908  35.902  42.687  1.00  0.00    -0.237 OA
ATOM     96  O   UNL A   1      40.556  36.627  42.804  1.00  0.00    -0.744 OA
ENDBRANCH  92  93
ENDBRANCH  66  87
ENDBRANCH  40  41
ENDBRANCH  33  35
ENDBRANCH  32  33
ENDBRANCH  31  32
ENDBRANCH  30  31
ENDBRANCH  29  30
ENDBRANCH  28  29
ENDBRANCH   1  28
TORSDOF 24
ENDMDL
MODEL 2
REMARK VINA RESULT:      -8.7      1.845      2.517
REMARK SMILES O=C(CCN1C(=O)/C(=C/c2cc(Br)cc(Br)c2O)SC1=S)OCCOCCOCCOC(=O)c1ccc(-c2c3nc(c(-c4ccc(S(=O)(=O)[O-])cc4)c4ccc([nH]4)c(-c4ccc(S(=O)(=O)[O-])cc4)c4nc(c(-c5ccc(S(=O)(=O)[O-])cc5)c5ccc2[nH]5)C=C4)C=C3)cc1
REMARK SMILES IDX 26 1 25 2 24 3 23 4 22 5 2 6 1 7 3 8 4 9 5 10 6 11 20 12
REMARK SMILES IDX 7 13 8 14 19 15 21 16 9 17 10 18 11 19 17 20 12 21 15 22
REMARK SMILES IDX 13 23 14 24 16 25 18 26 27 28 28 29 29 30 30 31 31 32 32 33
REMARK SMILES IDX 33 34 34 35 35 36 93 37 36 38 92 39 37 40 38 41 39 42 86 43
REMARK SMILES IDX 40 44 91 45 85 46 87 47 41 48 90 49 84 50 83 51 42 53 72 54
REMARK SMILES IDX 53 55 71 56 54 57 57 58 70 59 88 60 55 61 56 62 69 64 89 65
REMARK SMILES IDX 58 66 43 67 44 68 52 69 45 70 51 71 46 72 47 73 48 74 49 75
REMARK SMILES IDX 50 76 73 77 74 78 82 79 75 80 81 81 76 82 77 83 78 84 79 85
REMARK SMILES IDX 80 86 59 87 60 88 68 89 61 90 67 91 62 92 63 93 64 94 65 95
REMARK SMILES IDX 66 96
REMARK H PARENT 18 27 87 52 57 63
REMARK Flexibility Score: inf
ROOT
ATOM      1  C   UNL A   1      37.365  18.931  25.002  1.00  0.00     0.188 C 
ENDROOT
BRANCH   1   2
ATOM      2  O   UNL A   1      35.996  19.035  24.597  1.00  0.00    -0.376 OA
BRANCH   2   3
ATOM      3  C   UNL A   1      35.204  17.874  24.783  1.00  0.00     0.202 C 
BRANCH   3   4
ATOM      4  C   UNL A   1      33.918  17.884  23.970  1.00  0.00     0.261 C 
BRANCH   4   5
ATOM      5  O   UNL A   1      33.485  19.188  23.572  1.00  0.00    -0.463 OA
BRANCH   5   6
ATOM      6  C   UNL A   1      32.804  19.914  24.503  1.00  0.00     0.307 C 
ATOM      7  O   UNL A   1      31.931  19.400  25.192  1.00  0.00    -0.252 OA
BRANCH   6   8
ATOM      8  C   UNL A   1      33.058  21.406  24.489  1.00  0.00     0.144 C 
BRANCH   8   9
ATOM      9  C   UNL A   1      31.962  22.225  23.803  1.00  0.00     0.139 C 
BRANCH   9  10
ATOM     10  N   UNL A   1      31.775  23.550  24.419  1.00  0.00    -0.292 N 
ATOM     11  C   UNL A   1      32.357  24.654  23.822  1.00  0.00     0.266 C 
ATOM     12  C   UNL A   1      30.986  23.797  25.528  1.00  0.00     0.148 C 
ATOM     13  O   UNL A   1      33.089  24.650  22.841  1.00  0.00    -0.268 OA
ATOM     14  C   UNL A   1      31.817  25.909  24.417  1.00  0.00     0.081 C 
ATOM     15  S   UNL A   1      30.823  25.537  25.761  1.00  0.00    -0.054 SA
ATOM     16  S   UNL A   1      30.232  22.702  26.532  1.00  0.00    -0.052 S 
ATOM     17  C   UNL A   1      31.999  27.081  23.791  1.00  0.00     0.033 C 
BRANCH  17  18
ATOM     18  C   UNL A   1      31.366  28.383  24.079  1.00  0.00     0.020 A 
ATOM     19  C   UNL A   1      31.850  29.193  25.115  1.00  0.00     0.027 A 
ATOM     20  C   UNL A   1      30.306  28.872  23.287  1.00  0.00     0.137 A 
ATOM     21  C   UNL A   1      31.274  30.439  25.374  1.00  0.00     0.019 A 
ATOM     22  C   UNL A   1      29.750  30.135  23.542  1.00  0.00     0.061 A 
ATOM     23  Br  UNL A   1      31.928  31.493  26.801  1.00  0.00    -0.051 Br
ATOM     24  C   UNL A   1      30.228  30.917  24.591  1.00  0.00     0.035 A 
ATOM     25  Br  UNL A   1      28.336  30.835  22.483  1.00  0.00    -0.047 Br
BRANCH  20  26
ATOM     26  O   UNL A   1      29.772  28.142  22.252  1.00  0.00    -0.506 OA
ATOM     27  H   UNL A   1      28.973  28.420  21.847  1.00  0.00     0.293 HD
ENDBRANCH  20  26
ENDBRANCH  17  18
ENDBRANCH   9  10
ENDBRANCH   8   9
ENDBRANCH   6   8
ENDBRANCH   5   6
ENDBRANCH   4   5
ENDBRANCH   3   4
ENDBRANCH   2   3
ENDBRANCH   1   2
BRANCH   1  28
ATOM     28  C   UNL A   1      38.239  20.174  24.790  1.00  0.00     0.188 C 
BRANCH  28  29
ATOM     29  O   UNL A   1      38.079  21.265  25.693  1.00  0.00    -0.376 OA
BRANCH  29  30
ATOM     30  C   UNL A   1      37.403  22.438  25.248  1.00  0.00     0.202 C 
BRANCH  30  31
ATOM     31  C   UNL A   1      37.546  23.667  26.143  1.00  0.00     0.261 C 
BRANCH  31  32
ATOM     32  O   UNL A   1      38.730  24.418  25.832  1.00  0.00    -0.460 OA
BRANCH  32  33
ATOM     33  C   UNL A   1      39.699  24.416  26.777  1.00  0.00     0.338 C 
ATOM     34  O   UNL A   1      40.574  23.586  26.938  1.00  0.00    -0.246 OA
BRANCH  33  35
ATOM     35  C   UNL A   1      39.624  25.672  27.546  1.00  0.00     0.060 A 
ATOM     36  C   UNL A   1      40.119  26.848  26.967  1.00  0.00     0.016 A 
ATOM     37  C   UNL A   1      39.145  25.666  28.857  1.00  0.00     0.016 A 
ATOM     38  C   UNL A   1      40.193  28.018  27.726  1.00  0.00     0.010 A 
ATOM     39  C   UNL A   1      39.231  26.831  29.616  1.00  0.00     0.010 A 
ATOM     40  C   UNL A   1      39.794  27.997  29.067  1.00  0.00    -0.014 A 
BRANCH  40  41
ATOM     41  C   UNL A   1      40.125  29.113  29.982  1.00  0.00     0.031 A 
ATOM     42  C   UNL A   1      41.371  29.001  30.814  1.00  0.00     0.074 A 
ATOM     43  C   UNL A   1      39.287  30.152  30.136  1.00  0.00     0.049 A 
ATOM     44  N   UNL A   1      41.767  29.740  31.816  1.00  0.00    -0.248 NA
ATOM     45  C   UNL A   1      42.280  27.893  30.480  1.00  0.00     0.031 C 
ATOM     46  C   UNL A   1      38.066  30.374  29.366  1.00  0.00     0.029 A 
ATOM     47  N   UNL A   1      39.322  31.190  31.031  1.00  0.00    -0.354 N 
ATOM     48  C   UNL A   1      42.955  29.167  32.255  1.00  0.00     0.074 A 
ATOM     49  C   UNL A   1      43.208  28.016  31.417  1.00  0.00     0.031 C 
ATOM     50  C   UNL A   1      37.442  31.460  29.851  1.00  0.00     0.029 A 
ATOM     51  C   UNL A   1      38.197  31.977  30.992  1.00  0.00     0.049 A 
ATOM     52  H   UNL A   1      40.077  31.355  31.641  1.00  0.00     0.167 HD
ATOM     53  C   UNL A   1      43.756  29.560  33.274  1.00  0.00     0.031 A 
ATOM     54  C   UNL A   1      37.798  32.970  31.813  1.00  0.00     0.031 A 
ATOM     55  C   UNL A   1      43.479  30.691  34.116  1.00  0.00     0.049 A 
ATOM     56  C   UNL A   1      38.675  33.367  32.971  1.00  0.00     0.074 A 
ATOM     57  C   UNL A   1      44.237  31.197  35.157  1.00  0.00     0.029 A 
ATOM     58  N   UNL A   1      42.342  31.483  34.025  1.00  0.00    -0.354 N 
ATOM     59  N   UNL A   1      39.817  32.846  33.354  1.00  0.00    -0.248 NA
ATOM     60  C   UNL A   1      38.215  34.488  33.801  1.00  0.00     0.031 C 
ATOM     61  C   UNL A   1      43.532  32.259  35.731  1.00  0.00     0.029 A 
ATOM     62  C   UNL A   1      42.364  32.456  35.009  1.00  0.00     0.049 A 
ATOM     63  H   UNL A   1      41.626  31.368  33.359  1.00  0.00     0.167 HD
ATOM     64  C   UNL A   1      40.226  33.591  34.454  1.00  0.00     0.074 A 
ATOM     65  C   UNL A   1      39.210  34.602  34.674  1.00  0.00     0.031 C 
ATOM     66  C   UNL A   1      41.344  33.457  35.209  1.00  0.00     0.031 A 
BRANCH  53  67
ATOM     67  C   UNL A   1      44.968  28.714  33.563  1.00  0.00    -0.014 A 
ATOM     68  C   UNL A   1      46.214  28.987  32.969  1.00  0.00     0.010 A 
ATOM     69  C   UNL A   1      44.853  27.616  34.435  1.00  0.00     0.010 A 
ATOM     70  C   UNL A   1      47.304  28.142  33.193  1.00  0.00     0.020 A 
ATOM     71  C   UNL A   1      45.949  26.785  34.684  1.00  0.00     0.020 A 
ATOM     72  C   UNL A   1      47.161  27.038  34.040  1.00  0.00     0.054 A 
BRANCH  72  73
ATOM     73  S   UNL A   1      48.583  25.942  34.294  1.00  0.00     0.124 S 
ATOM     74  O   UNL A   1      49.467  26.340  33.202  1.00  0.00    -0.237 OA
ATOM     75  O   UNL A   1      49.037  26.307  35.633  1.00  0.00    -0.237 OA
ATOM     76  O   UNL A   1      48.013  24.602  34.178  1.00  0.00    -0.744 OA
ENDBRANCH  72  73
ENDBRANCH  53  67
BRANCH  54  77
ATOM     77  C   UNL A   1      36.485  33.624  31.573  1.00  0.00    -0.014 A 
ATOM     78  C   UNL A   1      35.450  33.521  32.517  1.00  0.00     0.010 A 
ATOM     79  C   UNL A   1      36.289  34.417  30.426  1.00  0.00     0.010 A 
ATOM     80  C   UNL A   1      34.247  34.209  32.325  1.00  0.00     0.020 A 
ATOM     81  C   UNL A   1      35.099  35.125  30.243  1.00  0.00     0.020 A 
ATOM     82  C   UNL A   1      34.084  35.017  31.195  1.00  0.00     0.054 A 
BRANCH  82  83
ATOM     83  S   UNL A   1      32.561  35.989  31.026  1.00  0.00     0.124 S 
ATOM     84  O   UNL A   1      32.125  35.640  29.678  1.00  0.00    -0.237 OA
ATOM     85  O   UNL A   1      31.735  35.470  32.114  1.00  0.00    -0.237 OA
ATOM     86  O   UNL A   1      33.014  37.366  31.203  1.00  0.00    -0.744 OA
ENDBRANCH  82  83
ENDBRANCH  54  77
BRANCH  66  87
ATOM     87  C   UNL A   1      41.565  34.446  36.323  1.00  0.00    -0.014 A 
ATOM     88  C   UNL A   1      42.389  35.571  36.150  1.00  0.00     0.010 A 
ATOM     89  C   UNL A   1      40.849  34.296  37.526  1.00  0.00     0.010 A 
ATOM     90  C   UNL A   1      42.499  36.526  37.166  1.00  0.00     0.020 A 
ATOM     91  C   UNL A   1      40.939  35.260  38.533  1.00  0.00     0.020 A 
ATOM     92  C   UNL A   1      41.769  36.367  38.348  1.00  0.00     0.054 A 
BRANCH  92  93
ATOM     93  S   UNL A   1      41.866  37.660  39.617  1.00  0.00     0.124 S 
ATOM     94  O   UNL A   1      42.259  36.898  40.799  1.00  0.00    -0.237 OA
ATOM     95  O   UNL A   1      42.885  38.560  39.080  1.00  0.00    -0.237 OA
ATOM     96  O   UNL A   1      40.514  38.212  39.654  1.00  0.00    -0.744 OA
ENDBRANCH  92  93
ENDBRANCH  66  87
ENDBRANCH  40  41
ENDBRANCH  33  35
ENDBRANCH  32  33
ENDBRANCH  31  32
ENDBRANCH  30  31
ENDBRANCH  29  30
ENDBRANCH  28  29
ENDBRANCH   1  28
TORSDOF 24
ENDMDL
MODEL 3
REMARK VINA RESULT:      -7.5      6.718     10.999
REMARK SMILES O=C(CCN1C(=O)/C(=C/c2cc(Br)cc(Br)c2O)SC1=S)OCCOCCOCCOC(=O)c1ccc(-c2c3nc(c(-c4ccc(S(=O)(=O)[O-])cc4)c4ccc([nH]4)c(-c4ccc(S(=O)(=O)[O-])cc4)c4nc(c(-c5ccc(S(=O)(=O)[O-])cc5)c5ccc2[nH]5)C=C4)C=C3)cc1
REMARK SMILES IDX 26 1 25 2 24 3 23 4 22 5 2 6 1 7 3 8 4 9 5 10 6 11 20 12
REMARK SMILES IDX 7 13 8 14 19 15 21 16 9 17 10 18 11 19 17 20 12 21 15 22
REMARK SMILES IDX 13 23 14 24 16 25 18 26 27 28 28 29 29 30 30 31 31 32 32 33
REMARK SMILES IDX 33 34 34 35 35 36 93 37 36 38 92 39 37 40 38 41 39 42 86 43
REMARK SMILES IDX 40 44 91 45 85 46 87 47 41 48 90 49 84 50 83 51 42 53 72 54
REMARK SMILES IDX 53 55 71 56 54 57 57 58 70 59 88 60 55 61 56 62 69 64 89 65
REMARK SMILES IDX 58 66 43 67 44 68 52 69 45 70 51 71 46 72 47 73 48 74 49 75
REMARK SMILES IDX 50 76 73 77 74 78 82 79 75 80 81 81 76 82 77 83 78 84 79 85
REMARK SMILES IDX 80 86 59 87 60 88 68 89 61 90 67 91 62 92 63 93 64 94 65 95
REMARK SMILES IDX 66 96
REMARK H PARENT 18 27 87 52 57 63
REMARK Flexibility Score: inf
ROOT
ATOM      1  C   UNL A   1      44.024  29.865  28.512  1.00  0.00     0.188 C 
ENDROOT
BRANCH   1   2
ATOM      2  O   UNL A   1      43.046  29.017  29.123  1.00  0.00    -0.376 OA
BRANCH   2   3
ATOM      3  C   UNL A   1      41.708  29.205  28.695  1.00  0.00     0.202 C 
BRANCH   3   4
ATOM      4  C   UNL A   1      40.894  30.090  29.629  1.00  0.00     0.261 C 
BRANCH   4   5
ATOM      5  O   UNL A   1      39.500  30.146  29.318  1.00  0.00    -0.463 OA
BRANCH   5   6
ATOM      6  C   UNL A   1      38.869  31.329  29.563  1.00  0.00     0.307 C 
ATOM      7  O   UNL A   1      39.417  32.218  30.203  1.00  0.00    -0.252 OA
BRANCH   6   8
ATOM      8  C   UNL A   1      37.408  31.389  29.170  1.00  0.00     0.144 C 
BRANCH   8   9
ATOM      9  C   UNL A   1      36.460  30.716  30.166  1.00  0.00     0.139 C 
BRANCH   9  10
ATOM     10  N   UNL A   1      36.402  31.420  31.459  1.00  0.00    -0.292 N 
ATOM     11  C   UNL A   1      37.154  30.940  32.517  1.00  0.00     0.266 C 
ATOM     12  C   UNL A   1      35.701  32.591  31.686  1.00  0.00     0.148 C 
ATOM     13  O   UNL A   1      37.836  29.925  32.522  1.00  0.00    -0.268 OA
ATOM     14  C   UNL A   1      37.187  31.938  33.622  1.00  0.00     0.081 C 
ATOM     15  S   UNL A   1      36.122  33.233  33.273  1.00  0.00    -0.054 SA
ATOM     16  S   UNL A   1      34.632  33.375  30.676  1.00  0.00    -0.052 S 
ATOM     17  C   UNL A   1      38.097  31.825  34.601  1.00  0.00     0.033 C 
BRANCH  17  18
ATOM     18  C   UNL A   1      38.449  32.808  35.645  1.00  0.00     0.020 A 
ATOM     19  C   UNL A   1      38.106  32.573  36.984  1.00  0.00     0.027 A 
ATOM     20  C   UNL A   1      39.187  33.969  35.337  1.00  0.00     0.137 A 
ATOM     21  C   UNL A   1      38.462  33.485  37.980  1.00  0.00     0.019 A 
ATOM     22  C   UNL A   1      39.558  34.867  36.350  1.00  0.00     0.061 A 
ATOM     23  Br  UNL A   1      37.955  33.156  39.772  1.00  0.00    -0.051 Br
ATOM     24  C   UNL A   1      39.189  34.630  37.672  1.00  0.00     0.035 A 
ATOM     25  Br  UNL A   1      40.571  36.430  35.976  1.00  0.00    -0.047 Br
BRANCH  20  26
ATOM     26  O   UNL A   1      39.563  34.275  34.051  1.00  0.00    -0.506 OA
ATOM     27  H   UNL A   1      40.465  34.435  33.853  1.00  0.00     0.293 HD
ENDBRANCH  20  26
ENDBRANCH  17  18
ENDBRANCH   9  10
ENDBRANCH   8   9
ENDBRANCH   6   8
ENDBRANCH   5   6
ENDBRANCH   4   5
ENDBRANCH   3   4
ENDBRANCH   2   3
ENDBRANCH   1   2
BRANCH   1  28
ATOM     28  C   UNL A   1      43.623  30.532  27.189  1.00  0.00     0.188 C 
BRANCH  28  29
ATOM     29  O   UNL A   1      44.608  30.622  26.162  1.00  0.00    -0.376 OA
BRANCH  29  30
ATOM     30  C   UNL A   1      45.581  31.660  26.228  1.00  0.00     0.202 C 
BRANCH  30  31
ATOM     31  C   UNL A   1      45.236  32.943  25.474  1.00  0.00     0.261 C 
BRANCH  31  32
ATOM     32  O   UNL A   1      45.151  34.073  26.356  1.00  0.00    -0.460 OA
BRANCH  32  33
ATOM     33  C   UNL A   1      43.913  34.585  26.547  1.00  0.00     0.338 C 
ATOM     34  O   UNL A   1      42.985  34.594  25.758  1.00  0.00    -0.246 OA
BRANCH  33  35
ATOM     35  C   UNL A   1      43.792  35.045  27.942  1.00  0.00     0.060 A 
ATOM     36  C   UNL A   1      44.940  35.071  28.746  1.00  0.00     0.016 A 
ATOM     37  C   UNL A   1      42.541  35.367  28.470  1.00  0.00     0.016 A 
ATOM     38  C   UNL A   1      44.828  35.361  30.107  1.00  0.00     0.010 A 
ATOM     39  C   UNL A   1      42.430  35.645  29.832  1.00  0.00     0.010 A 
ATOM     40  C   UNL A   1      43.565  35.602  30.660  1.00  0.00    -0.014 A 
BRANCH  40  41
ATOM     41  C   UNL A   1      43.363  35.620  32.126  1.00  0.00     0.031 A 
ATOM     42  C   UNL A   1      43.696  36.881  32.872  1.00  0.00     0.074 A 
ATOM     43  C   UNL A   1      42.984  34.513  32.786  1.00  0.00     0.049 A 
ATOM     44  N   UNL A   1      43.792  37.082  34.160  1.00  0.00    -0.248 NA
ATOM     45  C   UNL A   1      43.979  38.068  32.050  1.00  0.00     0.031 C 
ATOM     46  C   UNL A   1      42.612  33.245  32.163  1.00  0.00     0.029 A 
ATOM     47  N   UNL A   1      42.896  34.272  34.133  1.00  0.00    -0.354 N 
ATOM     48  C   UNL A   1      44.178  38.409  34.303  1.00  0.00     0.074 A 
ATOM     49  C   UNL A   1      44.309  38.961  32.972  1.00  0.00     0.031 C 
ATOM     50  C   UNL A   1      42.377  32.342  33.130  1.00  0.00     0.029 A 
ATOM     51  C   UNL A   1      42.627  32.959  34.433  1.00  0.00     0.049 A 
ATOM     52  H   UNL A   1      43.015  34.970  34.817  1.00  0.00     0.167 HD
ATOM     53  C   UNL A   1      44.416  39.101  35.442  1.00  0.00     0.031 A 
ATOM     54  C   UNL A   1      42.629  32.317  35.618  1.00  0.00     0.031 A 
ATOM     55  C   UNL A   1      44.309  38.534  36.758  1.00  0.00     0.049 A 
ATOM     56  C   UNL A   1      42.940  33.087  36.874  1.00  0.00     0.074 A 
ATOM     57  C   UNL A   1      44.495  39.152  37.982  1.00  0.00     0.029 A 
ATOM     58  N   UNL A   1      44.003  37.206  37.022  1.00  0.00    -0.354 N 
ATOM     59  N   UNL A   1      43.265  34.352  37.003  1.00  0.00    -0.248 NA
ATOM     60  C   UNL A   1      42.879  32.348  38.142  1.00  0.00     0.031 C 
ATOM     61  C   UNL A   1      44.358  38.185  38.982  1.00  0.00     0.029 A 
ATOM     62  C   UNL A   1      44.024  36.978  38.386  1.00  0.00     0.049 A 
ATOM     63  H   UNL A   1      43.801  36.526  36.338  1.00  0.00     0.167 HD
ATOM     64  C   UNL A   1      43.421  34.568  38.368  1.00  0.00     0.074 A 
ATOM     65  C   UNL A   1      43.153  33.303  39.023  1.00  0.00     0.031 C 
ATOM     66  C   UNL A   1      43.749  35.711  39.020  1.00  0.00     0.031 A 
BRANCH  53  67
ATOM     67  C   UNL A   1      44.876  40.528  35.298  1.00  0.00    -0.014 A 
ATOM     68  C   UNL A   1      46.194  40.841  34.919  1.00  0.00     0.010 A 
ATOM     69  C   UNL A   1      43.974  41.575  35.561  1.00  0.00     0.010 A 
ATOM     70  C   UNL A   1      46.618  42.172  34.867  1.00  0.00     0.020 A 
ATOM     71  C   UNL A   1      44.386  42.908  35.482  1.00  0.00     0.020 A 
ATOM     72  C   UNL A   1      45.713  43.198  35.161  1.00  0.00     0.054 A 
BRANCH  72  73
ATOM     73  S   UNL A   1      46.293  44.915  35.111  1.00  0.00     0.124 S 
ATOM     74  O   UNL A   1      45.218  45.574  34.374  1.00  0.00    -0.237 OA
ATOM     75  O   UNL A   1      46.390  45.264  36.526  1.00  0.00    -0.237 OA
ATOM     76  O   UNL A   1      47.570  44.829  34.406  1.00  0.00    -0.744 OA
ENDBRANCH  72  73
ENDBRANCH  53  67
BRANCH  54  77
ATOM     77  C   UNL A   1      42.358  30.855  35.650  1.00  0.00    -0.014 A 
ATOM     78  C   UNL A   1      43.413  29.930  35.608  1.00  0.00     0.010 A 
ATOM     79  C   UNL A   1      41.039  30.384  35.798  1.00  0.00     0.010 A 
ATOM     80  C   UNL A   1      43.157  28.559  35.726  1.00  0.00     0.020 A 
ATOM     81  C   UNL A   1      40.781  29.019  35.940  1.00  0.00     0.020 A 
ATOM     82  C   UNL A   1      41.843  28.114  35.903  1.00  0.00     0.054 A 
BRANCH  82  83
ATOM     83  S   UNL A   1      41.548  26.343  36.167  1.00  0.00     0.124 S 
ATOM     84  O   UNL A   1      40.798  25.977  34.970  1.00  0.00    -0.237 OA
ATOM     85  O   UNL A   1      42.905  25.807  36.253  1.00  0.00    -0.237 OA
ATOM     86  O   UNL A   1      40.794  26.305  37.417  1.00  0.00    -0.744 OA
ENDBRANCH  82  83
ENDBRANCH  54  77
BRANCH  66  87
ATOM     87  C   UNL A   1      43.799  35.674  40.525  1.00  0.00    -0.014 A 
ATOM     88  C   UNL A   1      44.997  35.417  41.212  1.00  0.00     0.010 A 
ATOM     89  C   UNL A   1      42.643  36.007  41.258  1.00  0.00     0.010 A 
ATOM     90  C   UNL A   1      45.037  35.485  42.608  1.00  0.00     0.020 A 
ATOM     91  C   UNL A   1      42.686  36.099  42.651  1.00  0.00     0.020 A 
ATOM     92  C   UNL A   1      43.882  35.831  43.318  1.00  0.00     0.054 A 
BRANCH  92  93
ATOM     93  S   UNL A   1      43.981  35.993  45.122  1.00  0.00     0.124 S 
ATOM     94  O   UNL A   1      45.317  35.474  45.402  1.00  0.00    -0.237 OA
ATOM     95  O   UNL A   1      43.807  37.429  45.326  1.00  0.00    -0.237 OA
ATOM     96  O   UNL A   1      42.878  35.164  45.605  1.00  0.00    -0.744 OA
ENDBRANCH  92  93
ENDBRANCH  66  87
ENDBRANCH  40  41
ENDBRANCH  33  35
ENDBRANCH  32  33
ENDBRANCH  31  32
ENDBRANCH  30  31
ENDBRANCH  29  30
ENDBRANCH  28  29
ENDBRANCH   1  28
TORSDOF 24
ENDMDL
