MODEL 1
REMARK VINA RESULT:     -10.0      0.000      0.000
REMARK SMILES O=C(OCCOCCOCCOC(=O)[C@H]1CC2(CC[NH+](C(=O)C3CC3)CC2)CN1C(=O)CCn1cccn1)c1ccc(-c2c3nc(c(-c4ccc(S(=O)(=O)[O-])cc4)c4ccc([nH]4)c(-c4ccc(S(=O)(=O)[O-])cc4)c4nc(c(-c5ccc(S(=O)(=O)[O-])cc5)c5ccc2[nH]5)C=C4)C=C3)cc1
REMARK SMILES IDX 8 1 7 2 6 3 5 4 4 5 3 6 2 7 1 8 39 9 40 10 98 11 41 12 97 13
REMARK SMILES IDX 42 14 43 15 44 16 91 17 45 18 96 19 90 20 92 21 46 22 95 23
REMARK SMILES IDX 89 24 88 25 47 27 77 28 58 29 76 30 59 31 62 32 75 33 93 34
REMARK SMILES IDX 60 35 61 36 74 38 94 39 63 40 48 41 49 42 57 43 50 44 56 45
REMARK SMILES IDX 51 46 52 47 53 48 54 49 55 50 78 51 79 52 87 53 80 54 86 55
REMARK SMILES IDX 81 56 82 57 83 58 84 59 85 60 64 61 65 62 73 63 66 64 72 65
REMARK SMILES IDX 67 66 68 67 69 68 70 69 71 70 9 71 10 72 11 73 12 74 13 75
REMARK SMILES IDX 14 76 15 77 16 78 29 79 17 80 28 81 18 82 27 83 19 84 26 85
REMARK SMILES IDX 20 86 30 88 31 89 32 90 33 91 34 92 35 93 38 94 36 95 37 96
REMARK SMILES IDX 21 97 22 98 23 99 24 100 25 101
REMARK H PARENT 92 26 62 37 20 87
REMARK Flexibility Score: inf
ROOT
ATOM      1  C   UNL A   1      32.100  30.008  25.668  1.00  0.00     0.188 C 
ENDROOT
BRANCH   1   2
ATOM      2  C   UNL A   1      32.494  30.188  27.164  1.00  0.00     0.188 C 
BRANCH   2   3
ATOM      3  O   UNL A   1      33.118  31.395  27.584  1.00  0.00    -0.376 OA
BRANCH   3   4
ATOM      4  C   UNL A   1      32.674  32.618  27.047  1.00  0.00     0.202 C 
BRANCH   4   5
ATOM      5  C   UNL A   1      33.009  33.834  27.900  1.00  0.00     0.261 C 
BRANCH   5   6
ATOM      6  O   UNL A   1      32.988  33.684  29.333  1.00  0.00    -0.460 OA
BRANCH   6   7
ATOM      7  C   UNL A   1      33.767  34.287  30.257  1.00  0.00     0.338 C 
ATOM      8  O   UNL A   1      33.244  34.785  31.254  1.00  0.00    -0.246 OA
BRANCH   7   9
ATOM      9  C   UNL A   1      35.246  34.302  30.157  1.00  0.00     0.060 A 
ATOM     10  C   UNL A   1      35.922  34.308  28.935  1.00  0.00     0.016 A 
ATOM     11  C   UNL A   1      35.950  34.068  31.356  1.00  0.00     0.016 A 
ATOM     12  C   UNL A   1      37.250  33.920  28.897  1.00  0.00     0.010 A 
ATOM     13  C   UNL A   1      37.269  33.651  31.319  1.00  0.00     0.010 A 
ATOM     14  C   UNL A   1      37.867  33.487  30.076  1.00  0.00    -0.014 A 
BRANCH  14  15
ATOM     15  C   UNL A   1      39.041  32.648  29.924  1.00  0.00     0.031 A 
ATOM     16  C   UNL A   1      38.808  31.219  29.639  1.00  0.00     0.074 A 
ATOM     17  C   UNL A   1      40.272  33.178  30.073  1.00  0.00     0.049 A 
ATOM     18  N   UNL A   1      38.977  30.221  30.442  1.00  0.00    -0.248 NA
ATOM     19  C   UNL A   1      38.221  30.864  28.342  1.00  0.00     0.031 C 
ATOM     20  C   UNL A   1      40.649  34.597  30.098  1.00  0.00     0.029 A 
ATOM     21  N   UNL A   1      41.471  32.542  30.142  1.00  0.00    -0.354 N 
ATOM     22  C   UNL A   1      38.699  29.083  29.695  1.00  0.00     0.074 A 
ATOM     23  C   UNL A   1      38.093  29.543  28.468  1.00  0.00     0.031 C 
ATOM     24  C   UNL A   1      41.988  34.703  29.943  1.00  0.00     0.029 A 
ATOM     25  C   UNL A   1      42.568  33.370  29.948  1.00  0.00     0.049 A 
ATOM     26  H   UNL A   1      41.554  31.577  30.315  1.00  0.00     0.167 HD
ATOM     27  C   UNL A   1      39.183  27.858  30.041  1.00  0.00     0.031 A 
ATOM     28  C   UNL A   1      43.845  32.975  29.721  1.00  0.00     0.031 A 
ATOM     29  C   UNL A   1      39.690  27.836  31.387  1.00  0.00     0.049 A 
ATOM     30  C   UNL A   1      43.971  31.581  30.221  1.00  0.00     0.074 A 
ATOM     31  C   UNL A   1      39.139  28.047  32.636  1.00  0.00     0.029 A 
ATOM     32  N   UNL A   1      41.053  27.933  31.550  1.00  0.00    -0.354 N 
ATOM     33  N   UNL A   1      43.894  31.267  31.484  1.00  0.00    -0.248 NA
ATOM     34  C   UNL A   1      43.709  30.490  29.294  1.00  0.00     0.031 C 
ATOM     35  C   UNL A   1      40.152  28.725  33.373  1.00  0.00     0.029 A 
ATOM     36  C   UNL A   1      41.280  28.837  32.557  1.00  0.00     0.049 A 
ATOM     37  H   UNL A   1      41.738  27.444  31.039  1.00  0.00     0.167 HD
ATOM     38  C   UNL A   1      43.170  30.082  31.516  1.00  0.00     0.074 A 
ATOM     39  C   UNL A   1      43.164  29.604  30.135  1.00  0.00     0.031 C 
ATOM     40  C   UNL A   1      42.409  29.742  32.599  1.00  0.00     0.031 A 
BRANCH  27  41
ATOM     41  C   UNL A   1      39.543  26.790  29.040  1.00  0.00    -0.014 A 
ATOM     42  C   UNL A   1      38.827  25.577  29.044  1.00  0.00     0.010 A 
ATOM     43  C   UNL A   1      40.738  26.828  28.291  1.00  0.00     0.010 A 
ATOM     44  C   UNL A   1      39.321  24.440  28.392  1.00  0.00     0.020 A 
ATOM     45  C   UNL A   1      41.216  25.714  27.601  1.00  0.00     0.020 A 
ATOM     46  C   UNL A   1      40.524  24.515  27.688  1.00  0.00     0.054 A 
BRANCH  46  47
ATOM     47  S   UNL A   1      41.220  23.014  26.957  1.00  0.00     0.124 S 
ATOM     48  O   UNL A   1      40.190  22.646  25.990  1.00  0.00    -0.237 OA
ATOM     49  O   UNL A   1      42.477  23.498  26.393  1.00  0.00    -0.237 OA
ATOM     50  O   UNL A   1      41.360  22.111  28.096  1.00  0.00    -0.744 OA
ENDBRANCH  46  47
ENDBRANCH  27  41
BRANCH  28  51
ATOM     51  C   UNL A   1      44.802  33.591  28.765  1.00  0.00    -0.014 A 
ATOM     52  C   UNL A   1      45.913  34.330  29.210  1.00  0.00     0.010 A 
ATOM     53  C   UNL A   1      44.767  33.222  27.403  1.00  0.00     0.010 A 
ATOM     54  C   UNL A   1      46.975  34.635  28.336  1.00  0.00     0.020 A 
ATOM     55  C   UNL A   1      45.813  33.529  26.527  1.00  0.00     0.020 A 
ATOM     56  C   UNL A   1      46.926  34.214  27.004  1.00  0.00     0.054 A 
BRANCH  56  57
ATOM     57  S   UNL A   1      48.374  34.446  25.929  1.00  0.00     0.124 S 
ATOM     58  O   UNL A   1      48.847  33.078  25.746  1.00  0.00    -0.237 OA
ATOM     59  O   UNL A   1      47.794  35.079  24.748  1.00  0.00    -0.237 OA
ATOM     60  O   UNL A   1      49.255  35.305  26.719  1.00  0.00    -0.744 OA
ENDBRANCH  56  57
ENDBRANCH  28  51
BRANCH  40  61
ATOM     61  C   UNL A   1      42.575  30.536  33.875  1.00  0.00    -0.014 A 
ATOM     62  C   UNL A   1      42.006  31.809  34.079  1.00  0.00     0.010 A 
ATOM     63  C   UNL A   1      43.188  29.894  34.965  1.00  0.00     0.010 A 
ATOM     64  C   UNL A   1      42.072  32.430  35.337  1.00  0.00     0.020 A 
ATOM     65  C   UNL A   1      43.241  30.499  36.223  1.00  0.00     0.020 A 
ATOM     66  C   UNL A   1      42.689  31.768  36.402  1.00  0.00     0.054 A 
BRANCH  66  67
ATOM     67  S   UNL A   1      42.724  32.550  38.039  1.00  0.00     0.124 S 
ATOM     68  O   UNL A   1      41.670  33.555  37.935  1.00  0.00    -0.237 OA
ATOM     69  O   UNL A   1      42.442  31.433  38.939  1.00  0.00    -0.237 OA
ATOM     70  O   UNL A   1      44.081  33.085  38.142  1.00  0.00    -0.744 OA
ENDBRANCH  66  67
ENDBRANCH  40  61
ENDBRANCH  14  15
ENDBRANCH   7   9
ENDBRANCH   6   7
ENDBRANCH   5   6
ENDBRANCH   4   5
ENDBRANCH   3   4
ENDBRANCH   2   3
ENDBRANCH   1   2
BRANCH   1  71
ATOM     71  O   UNL A   1      33.169  29.651  24.755  1.00  0.00    -0.376 OA
BRANCH  71  72
ATOM     72  C   UNL A   1      32.733  29.247  23.443  1.00  0.00     0.202 C 
BRANCH  72  73
ATOM     73  C   UNL A   1      33.567  28.112  22.692  1.00  0.00     0.261 C 
BRANCH  73  74
ATOM     74  O   UNL A   1      34.312  27.105  23.474  1.00  0.00    -0.462 OA
BRANCH  74  75
ATOM     75  C   UNL A   1      33.823  26.396  24.544  1.00  0.00     0.328 C 
ATOM     76  O   UNL A   1      34.271  26.530  25.684  1.00  0.00    -0.250 OA
BRANCH  75  77
ATOM     77  C   UNL A   1      32.653  25.280  24.209  1.00  0.00     0.195 C 
ATOM     78  C   UNL A   1      33.166  23.805  24.411  1.00  0.00     0.046 C 
ATOM     79  N   UNL A   1      31.247  25.072  24.650  1.00  0.00    -0.328 N 
ATOM     80  C   UNL A   1      31.918  22.834  24.445  1.00  0.00     0.001 C 
ATOM     81  C   UNL A   1      30.740  23.780  24.249  1.00  0.00     0.128 C 
ATOM     82  C   UNL A   1      31.650  22.024  25.750  1.00  0.00     0.071 C 
ATOM     83  C   UNL A   1      31.987  21.796  23.322  1.00  0.00     0.071 C 
ATOM     84  C   UNL A   1      32.591  20.851  26.026  1.00  0.00     0.270 C 
ATOM     85  C   UNL A   1      33.059  20.749  23.619  1.00  0.00     0.270 C 
ATOM     86  N   UNL A   1      32.766  20.008  24.849  1.00  0.00    -0.272 N 
ATOM     87  H   UNL A   1      33.505  19.459  24.502  1.00  0.00     0.356 HD
BRANCH  79  88
ATOM     88  C   UNL A   1      30.340  25.928  25.196  1.00  0.00     0.225 C 
ATOM     89  O   UNL A   1      30.511  26.544  26.249  1.00  0.00    -0.275 OA
BRANCH  88  90
ATOM     90  C   UNL A   1      29.202  26.224  24.331  1.00  0.00     0.124 C 
BRANCH  90  91
ATOM     91  C   UNL A   1      29.659  27.237  23.266  1.00  0.00     0.154 C 
BRANCH  91  92
ATOM     92  N   UNL A   1      29.149  28.549  22.861  1.00  0.00    -0.272 N 
ATOM     93  C   UNL A   1      27.860  29.005  23.038  1.00  0.00     0.108 A 
ATOM     94  N   UNL A   1      29.737  29.294  21.895  1.00  0.00    -0.182 NA
ATOM     95  C   UNL A   1      27.724  30.180  22.328  1.00  0.00     0.042 A 
ATOM     96  C   UNL A   1      28.923  30.309  21.633  1.00  0.00     0.135 A 
ENDBRANCH  91  92
ENDBRANCH  90  91
ENDBRANCH  88  90
ENDBRANCH  79  88
BRANCH  86  97
ATOM     97  C   UNL A   1      32.853  18.613  24.779  1.00  0.00     0.315 C 
ATOM     98  O   UNL A   1      31.882  17.919  25.089  1.00  0.00    -0.231 OA
BRANCH  97  99
ATOM     99  C   UNL A   1      34.061  17.827  24.380  1.00  0.00     0.119 C 
ATOM    100  C   UNL A   1      34.323  16.352  24.375  1.00  0.00     0.019 C 
ATOM    101  C   UNL A   1      34.139  17.083  23.072  1.00  0.00     0.019 C 
ENDBRANCH  97  99
ENDBRANCH  86  97
ENDBRANCH  75  77
ENDBRANCH  74  75
ENDBRANCH  73  74
ENDBRANCH  72  73
ENDBRANCH  71  72
ENDBRANCH   1  71
TORSDOF 26
ENDMDL
MODEL 2
REMARK VINA RESULT:      -9.9      3.064      4.358
REMARK SMILES O=C(OCCOCCOCCOC(=O)[C@H]1CC2(CC[NH+](C(=O)C3CC3)CC2)CN1C(=O)CCn1cccn1)c1ccc(-c2c3nc(c(-c4ccc(S(=O)(=O)[O-])cc4)c4ccc([nH]4)c(-c4ccc(S(=O)(=O)[O-])cc4)c4nc(c(-c5ccc(S(=O)(=O)[O-])cc5)c5ccc2[nH]5)C=C4)C=C3)cc1
REMARK SMILES IDX 8 1 7 2 6 3 5 4 4 5 3 6 2 7 1 8 39 9 40 10 98 11 41 12 97 13
REMARK SMILES IDX 42 14 43 15 44 16 91 17 45 18 96 19 90 20 92 21 46 22 95 23
REMARK SMILES IDX 89 24 88 25 47 27 77 28 58 29 76 30 59 31 62 32 75 33 93 34
REMARK SMILES IDX 60 35 61 36 74 38 94 39 63 40 48 41 49 42 57 43 50 44 56 45
REMARK SMILES IDX 51 46 52 47 53 48 54 49 55 50 78 51 79 52 87 53 80 54 86 55
REMARK SMILES IDX 81 56 82 57 83 58 84 59 85 60 64 61 65 62 73 63 66 64 72 65
REMARK SMILES IDX 67 66 68 67 69 68 70 69 71 70 9 71 10 72 11 73 12 74 13 75
REMARK SMILES IDX 14 76 15 77 16 78 29 79 17 80 28 81 18 82 27 83 19 84 26 85
REMARK SMILES IDX 20 86 30 88 31 89 32 90 33 91 34 92 35 93 38 94 36 95 37 96
REMARK SMILES IDX 21 97 22 98 23 99 24 100 25 101
REMARK H PARENT 92 26 62 37 20 87
REMARK Flexibility Score: inf
ROOT
ATOM      1  C   UNL A   1      32.595  30.047  25.313  1.00  0.00     0.188 C 
ENDROOT
BRANCH   1   2
ATOM      2  C   UNL A   1      32.500  29.496  26.767  1.00  0.00     0.188 C 
BRANCH   2   3
ATOM      3  O   UNL A   1      33.055  30.247  27.839  1.00  0.00    -0.376 OA
BRANCH   3   4
ATOM      4  C   UNL A   1      33.997  31.253  27.554  1.00  0.00     0.202 C 
BRANCH   4   5
ATOM      5  C   UNL A   1      35.395  30.971  28.088  1.00  0.00     0.261 C 
BRANCH   5   6
ATOM      6  O   UNL A   1      35.548  30.748  29.503  1.00  0.00    -0.460 OA
BRANCH   6   7
ATOM      7  C   UNL A   1      36.683  30.562  30.212  1.00  0.00     0.338 C 
ATOM      8  O   UNL A   1      36.948  31.328  31.138  1.00  0.00    -0.246 OA
BRANCH   7   9
ATOM      9  C   UNL A   1      37.590  29.414  29.967  1.00  0.00     0.060 A 
ATOM     10  C   UNL A   1      38.413  28.876  30.959  1.00  0.00     0.016 A 
ATOM     11  C   UNL A   1      37.762  29.038  28.620  1.00  0.00     0.016 A 
ATOM     12  C   UNL A   1      39.499  28.102  30.585  1.00  0.00     0.010 A 
ATOM     13  C   UNL A   1      38.863  28.291  28.240  1.00  0.00     0.010 A 
ATOM     14  C   UNL A   1      39.770  27.920  29.225  1.00  0.00    -0.014 A 
BRANCH  14  15
ATOM     15  C   UNL A   1      41.131  27.553  28.878  1.00  0.00     0.031 A 
ATOM     16  C   UNL A   1      41.340  26.194  28.344  1.00  0.00     0.074 A 
ATOM     17  C   UNL A   1      42.137  28.429  29.077  1.00  0.00     0.049 A 
ATOM     18  N   UNL A   1      41.893  25.192  28.941  1.00  0.00    -0.248 NA
ATOM     19  C   UNL A   1      40.776  25.880  27.026  1.00  0.00     0.031 C 
ATOM     20  C   UNL A   1      42.042  29.869  29.350  1.00  0.00     0.029 A 
ATOM     21  N   UNL A   1      43.476  28.224  28.983  1.00  0.00    -0.354 N 
ATOM     22  C   UNL A   1      41.924  24.163  28.008  1.00  0.00     0.074 A 
ATOM     23  C   UNL A   1      41.089  24.589  26.911  1.00  0.00     0.031 C 
ATOM     24  C   UNL A   1      43.256  30.435  29.167  1.00  0.00     0.029 A 
ATOM     25  C   UNL A   1      44.228  29.388  28.905  1.00  0.00     0.049 A 
ATOM     26  H   UNL A   1      43.879  27.326  28.973  1.00  0.00     0.167 HD
ATOM     27  C   UNL A   1      42.804  23.128  28.104  1.00  0.00     0.031 A 
ATOM     28  C   UNL A   1      45.537  29.480  28.562  1.00  0.00     0.031 A 
ATOM     29  C   UNL A   1      43.418  23.058  29.404  1.00  0.00     0.049 A 
ATOM     30  C   UNL A   1      46.148  28.145  28.792  1.00  0.00     0.074 A 
ATOM     31  C   UNL A   1      42.950  22.869  30.689  1.00  0.00     0.029 A 
ATOM     32  N   UNL A   1      44.687  23.573  29.531  1.00  0.00    -0.354 N 
ATOM     33  N   UNL A   1      46.296  27.622  29.977  1.00  0.00    -0.248 NA
ATOM     34  C   UNL A   1      46.161  27.194  27.689  1.00  0.00     0.031 C 
ATOM     35  C   UNL A   1      43.758  23.715  31.501  1.00  0.00     0.029 A 
ATOM     36  C   UNL A   1      44.708  24.324  30.679  1.00  0.00     0.049 A 
ATOM     37  H   UNL A   1      45.440  23.427  28.914  1.00  0.00     0.167 HD
ATOM     38  C   UNL A   1      45.994  26.276  29.816  1.00  0.00     0.074 A 
ATOM     39  C   UNL A   1      46.010  26.054  28.372  1.00  0.00     0.031 C 
ATOM     40  C   UNL A   1      45.488  25.533  30.846  1.00  0.00     0.031 A 
BRANCH  27  41
ATOM     41  C   UNL A   1      43.389  22.417  26.911  1.00  0.00    -0.014 A 
ATOM     42  C   UNL A   1      42.728  21.284  26.396  1.00  0.00     0.010 A 
ATOM     43  C   UNL A   1      44.704  22.654  26.460  1.00  0.00     0.010 A 
ATOM     44  C   UNL A   1      43.380  20.395  25.533  1.00  0.00     0.020 A 
ATOM     45  C   UNL A   1      45.346  21.799  25.564  1.00  0.00     0.020 A 
ATOM     46  C   UNL A   1      44.693  20.652  25.136  1.00  0.00     0.054 A 
BRANCH  46  47
ATOM     47  S   UNL A   1      45.571  19.436  24.124  1.00  0.00     0.124 S 
ATOM     48  O   UNL A   1      45.392  18.214  24.902  1.00  0.00    -0.237 OA
ATOM     49  O   UNL A   1      44.839  19.498  22.862  1.00  0.00    -0.237 OA
ATOM     50  O   UNL A   1      46.935  19.954  24.074  1.00  0.00    -0.744 OA
ENDBRANCH  46  47
ENDBRANCH  27  41
BRANCH  28  51
ATOM     51  C   UNL A   1      46.151  30.525  27.702  1.00  0.00    -0.014 A 
ATOM     52  C   UNL A   1      45.452  31.094  26.622  1.00  0.00     0.010 A 
ATOM     53  C   UNL A   1      47.343  31.159  28.113  1.00  0.00     0.010 A 
ATOM     54  C   UNL A   1      45.899  32.285  26.018  1.00  0.00     0.020 A 
ATOM     55  C   UNL A   1      47.799  32.337  27.513  1.00  0.00     0.020 A 
ATOM     56  C   UNL A   1      47.060  32.910  26.483  1.00  0.00     0.054 A 
BRANCH  56  57
ATOM     57  S   UNL A   1      47.533  34.538  25.828  1.00  0.00     0.124 S 
ATOM     58  O   UNL A   1      47.629  35.344  27.041  1.00  0.00    -0.237 OA
ATOM     59  O   UNL A   1      48.796  34.255  25.154  1.00  0.00    -0.237 OA
ATOM     60  O   UNL A   1      46.425  34.888  24.940  1.00  0.00    -0.744 OA
ENDBRANCH  56  57
ENDBRANCH  28  51
BRANCH  40  61
ATOM     61  C   UNL A   1      45.513  26.118  32.239  1.00  0.00    -0.014 A 
ATOM     62  C   UNL A   1      46.524  25.841  33.182  1.00  0.00     0.010 A 
ATOM     63  C   UNL A   1      44.569  27.116  32.542  1.00  0.00     0.010 A 
ATOM     64  C   UNL A   1      46.571  26.530  34.404  1.00  0.00     0.020 A 
ATOM     65  C   UNL A   1      44.623  27.816  33.750  1.00  0.00     0.020 A 
ATOM     66  C   UNL A   1      45.619  27.515  34.679  1.00  0.00     0.054 A 
BRANCH  66  67
ATOM     67  S   UNL A   1      45.716  28.441  36.237  1.00  0.00     0.124 S 
ATOM     68  O   UNL A   1      45.859  29.819  35.779  1.00  0.00    -0.237 OA
ATOM     69  O   UNL A   1      44.445  28.120  36.885  1.00  0.00    -0.237 OA
ATOM     70  O   UNL A   1      46.894  27.885  36.901  1.00  0.00    -0.744 OA
ENDBRANCH  66  67
ENDBRANCH  40  61
ENDBRANCH  14  15
ENDBRANCH   7   9
ENDBRANCH   6   7
ENDBRANCH   5   6
ENDBRANCH   4   5
ENDBRANCH   3   4
ENDBRANCH   2   3
ENDBRANCH   1   2
BRANCH   1  71
ATOM     71  O   UNL A   1      33.610  29.456  24.462  1.00  0.00    -0.376 OA
BRANCH  71  72
ATOM     72  C   UNL A   1      33.226  29.306  23.081  1.00  0.00     0.202 C 
BRANCH  72  73
ATOM     73  C   UNL A   1      33.610  27.945  22.341  1.00  0.00     0.261 C 
BRANCH  73  74
ATOM     74  O   UNL A   1      34.225  26.838  23.103  1.00  0.00    -0.462 OA
BRANCH  74  75
ATOM     75  C   UNL A   1      33.750  26.314  24.280  1.00  0.00     0.328 C 
ATOM     76  O   UNL A   1      34.232  26.606  25.375  1.00  0.00    -0.250 OA
BRANCH  75  77
ATOM     77  C   UNL A   1      32.545  25.192  24.147  1.00  0.00     0.195 C 
ATOM     78  C   UNL A   1      33.100  23.719  24.194  1.00  0.00     0.046 C 
ATOM     79  N   UNL A   1      31.256  24.951  24.851  1.00  0.00    -0.328 N 
ATOM     80  C   UNL A   1      31.891  22.729  24.442  1.00  0.00     0.001 C 
ATOM     81  C   UNL A   1      30.690  23.664  24.515  1.00  0.00     0.128 C 
ATOM     82  C   UNL A   1      31.894  21.875  25.747  1.00  0.00     0.071 C 
ATOM     83  C   UNL A   1      31.744  21.728  23.294  1.00  0.00     0.071 C 
ATOM     84  C   UNL A   1      32.880  20.708  25.792  1.00  0.00     0.270 C 
ATOM     85  C   UNL A   1      32.861  20.688  23.338  1.00  0.00     0.270 C 
ATOM     86  N   UNL A   1      32.825  19.905  24.576  1.00  0.00    -0.272 N 
ATOM     87  H   UNL A   1      33.484  19.377  24.071  1.00  0.00     0.356 HD
BRANCH  79  88
ATOM     88  C   UNL A   1      30.470  25.776  25.594  1.00  0.00     0.225 C 
ATOM     89  O   UNL A   1      30.884  26.510  26.492  1.00  0.00    -0.275 OA
BRANCH  88  90
ATOM     90  C   UNL A   1      29.094  25.881  25.115  1.00  0.00     0.124 C 
BRANCH  90  91
ATOM     91  C   UNL A   1      29.116  26.569  23.739  1.00  0.00     0.154 C 
BRANCH  91  92
ATOM     92  N   UNL A   1      28.785  27.927  23.303  1.00  0.00    -0.272 N 
ATOM     93  C   UNL A   1      29.604  29.032  23.405  1.00  0.00     0.108 A 
ATOM     94  N   UNL A   1      27.509  28.354  23.150  1.00  0.00    -0.182 NA
ATOM     95  C   UNL A   1      28.854  30.147  23.097  1.00  0.00     0.042 A 
ATOM     96  C   UNL A   1      27.556  29.666  22.951  1.00  0.00     0.135 A 
ENDBRANCH  91  92
ENDBRANCH  90  91
ENDBRANCH  88  90
ENDBRANCH  79  88
BRANCH  86  97
ATOM     97  C   UNL A   1      32.907  18.513  24.444  1.00  0.00     0.315 C 
ATOM     98  O   UNL A   1      31.932  17.811  24.718  1.00  0.00    -0.231 OA
BRANCH  97  99
ATOM     99  C   UNL A   1      34.114  17.742  24.015  1.00  0.00     0.119 C 
ATOM    100  C   UNL A   1      34.908  16.681  24.715  1.00  0.00     0.019 C 
ATOM    101  C   UNL A   1      34.029  16.312  23.549  1.00  0.00     0.019 C 
ENDBRANCH  97  99
ENDBRANCH  86  97
ENDBRANCH  75  77
ENDBRANCH  74  75
ENDBRANCH  73  74
ENDBRANCH  72  73
ENDBRANCH  71  72
ENDBRANCH   1  71
TORSDOF 26
ENDMDL
MODEL 3
REMARK VINA RESULT:      -9.6      3.244      7.726
REMARK SMILES O=C(OCCOCCOCCOC(=O)[C@H]1CC2(CC[NH+](C(=O)C3CC3)CC2)CN1C(=O)CCn1cccn1)c1ccc(-c2c3nc(c(-c4ccc(S(=O)(=O)[O-])cc4)c4ccc([nH]4)c(-c4ccc(S(=O)(=O)[O-])cc4)c4nc(c(-c5ccc(S(=O)(=O)[O-])cc5)c5ccc2[nH]5)C=C4)C=C3)cc1
REMARK SMILES IDX 8 1 7 2 6 3 5 4 4 5 3 6 2 7 1 8 39 9 40 10 98 11 41 12 97 13
REMARK SMILES IDX 42 14 43 15 44 16 91 17 45 18 96 19 90 20 92 21 46 22 95 23
REMARK SMILES IDX 89 24 88 25 47 27 77 28 58 29 76 30 59 31 62 32 75 33 93 34
REMARK SMILES IDX 60 35 61 36 74 38 94 39 63 40 48 41 49 42 57 43 50 44 56 45
REMARK SMILES IDX 51 46 52 47 53 48 54 49 55 50 78 51 79 52 87 53 80 54 86 55
REMARK SMILES IDX 81 56 82 57 83 58 84 59 85 60 64 61 65 62 73 63 66 64 72 65
REMARK SMILES IDX 67 66 68 67 69 68 70 69 71 70 9 71 10 72 11 73 12 74 13 75
REMARK SMILES IDX 14 76 15 77 16 78 29 79 17 80 28 81 18 82 27 83 19 84 26 85
REMARK SMILES IDX 20 86 30 88 31 89 32 90 33 91 34 92 35 93 38 94 36 95 37 96
REMARK SMILES IDX 21 97 22 98 23 99 24 100 25 101
REMARK H PARENT 92 26 62 37 20 87
REMARK Flexibility Score: inf
ROOT
ATOM      1  C   UNL A   1      32.158  29.864  25.330  1.00  0.00     0.188 C 
ENDROOT
BRANCH   1   2
ATOM      2  C   UNL A   1      32.461  29.843  26.858  1.00  0.00     0.188 C 
BRANCH   2   3
ATOM      3  O   UNL A   1      32.920  31.027  27.498  1.00  0.00    -0.376 OA
BRANCH   3   4
ATOM      4  C   UNL A   1      32.407  32.271  27.085  1.00  0.00     0.202 C 
BRANCH   4   5
ATOM      5  C   UNL A   1      33.045  33.470  27.774  1.00  0.00     0.261 C 
BRANCH   5   6
ATOM      6  O   UNL A   1      33.376  33.353  29.171  1.00  0.00    -0.460 OA
BRANCH   6   7
ATOM      7  C   UNL A   1      34.345  33.986  29.867  1.00  0.00     0.338 C 
ATOM      8  O   UNL A   1      34.149  35.134  30.266  1.00  0.00    -0.246 OA
BRANCH   7   9
ATOM      9  C   UNL A   1      35.617  33.320  30.239  1.00  0.00     0.060 A 
ATOM     10  C   UNL A   1      35.666  32.029  30.771  1.00  0.00     0.016 A 
ATOM     11  C   UNL A   1      36.764  34.139  30.256  1.00  0.00     0.016 A 
ATOM     12  C   UNL A   1      36.799  31.627  31.458  1.00  0.00     0.010 A 
ATOM     13  C   UNL A   1      37.885  33.753  30.968  1.00  0.00     0.010 A 
ATOM     14  C   UNL A   1      37.843  32.539  31.644  1.00  0.00    -0.014 A 
BRANCH  14  15
ATOM     15  C   UNL A   1      38.749  32.274  32.746  1.00  0.00     0.031 A 
ATOM     16  C   UNL A   1      38.457  32.944  34.027  1.00  0.00     0.074 A 
ATOM     17  C   UNL A   1      39.817  31.470  32.561  1.00  0.00     0.049 A 
ATOM     18  N   UNL A   1      39.100  33.926  34.564  1.00  0.00    -0.248 NA
ATOM     19  C   UNL A   1      37.245  32.542  34.751  1.00  0.00     0.031 C 
ATOM     20  C   UNL A   1      40.078  30.555  31.443  1.00  0.00     0.029 A 
ATOM     21  N   UNL A   1      40.862  31.237  33.397  1.00  0.00    -0.354 N 
ATOM     22  C   UNL A   1      38.492  34.152  35.793  1.00  0.00     0.074 A 
ATOM     23  C   UNL A   1      37.271  33.383  35.786  1.00  0.00     0.031 C 
ATOM     24  C   UNL A   1      41.076  29.710  31.786  1.00  0.00     0.029 A 
ATOM     25  C   UNL A   1      41.609  30.113  33.076  1.00  0.00     0.049 A 
ATOM     26  H   UNL A   1      41.072  31.816  34.165  1.00  0.00     0.167 HD
ATOM     27  C   UNL A   1      39.139  34.779  36.813  1.00  0.00     0.031 A 
ATOM     28  C   UNL A   1      42.538  29.511  33.862  1.00  0.00     0.031 A 
ATOM     29  C   UNL A   1      40.331  35.452  36.367  1.00  0.00     0.049 A 
ATOM     30  C   UNL A   1      42.989  30.515  34.859  1.00  0.00     0.074 A 
ATOM     31  C   UNL A   1      40.592  36.476  35.479  1.00  0.00     0.029 A 
ATOM     32  N   UNL A   1      41.532  34.816  36.581  1.00  0.00    -0.354 N 
ATOM     33  N   UNL A   1      43.668  31.582  34.541  1.00  0.00    -0.248 NA
ATOM     34  C   UNL A   1      42.287  30.585  36.133  1.00  0.00     0.031 C 
ATOM     35  C   UNL A   1      41.814  36.110  34.846  1.00  0.00     0.029 A 
ATOM     36  C   UNL A   1      42.259  34.917  35.422  1.00  0.00     0.049 A 
ATOM     37  H   UNL A   1      41.817  34.373  37.412  1.00  0.00     0.167 HD
ATOM     38  C   UNL A   1      43.147  32.592  35.340  1.00  0.00     0.074 A 
ATOM     39  C   UNL A   1      42.367  31.900  36.363  1.00  0.00     0.031 C 
ATOM     40  C   UNL A   1      43.165  33.898  34.938  1.00  0.00     0.031 A 
BRANCH  27  41
ATOM     41  C   UNL A   1      38.902  34.469  38.269  1.00  0.00    -0.014 A 
ATOM     42  C   UNL A   1      39.202  35.448  39.237  1.00  0.00     0.010 A 
ATOM     43  C   UNL A   1      38.665  33.158  38.733  1.00  0.00     0.010 A 
ATOM     44  C   UNL A   1      39.330  35.114  40.591  1.00  0.00     0.020 A 
ATOM     45  C   UNL A   1      38.746  32.825  40.085  1.00  0.00     0.020 A 
ATOM     46  C   UNL A   1      39.117  33.798  41.002  1.00  0.00     0.054 A 
BRANCH  46  47
ATOM     47  S   UNL A   1      39.408  33.348  42.730  1.00  0.00     0.124 S 
ATOM     48  O   UNL A   1      39.504  31.893  42.649  1.00  0.00    -0.237 OA
ATOM     49  O   UNL A   1      40.653  34.050  43.027  1.00  0.00    -0.237 OA
ATOM     50  O   UNL A   1      38.228  33.861  43.420  1.00  0.00    -0.744 OA
ENDBRANCH  46  47
ENDBRANCH  27  41
BRANCH  28  51
ATOM     51  C   UNL A   1      42.740  28.047  34.023  1.00  0.00    -0.014 A 
ATOM     52  C   UNL A   1      43.606  27.327  33.181  1.00  0.00     0.010 A 
ATOM     53  C   UNL A   1      42.279  27.401  35.191  1.00  0.00     0.010 A 
ATOM     54  C   UNL A   1      44.038  26.032  33.526  1.00  0.00     0.020 A 
ATOM     55  C   UNL A   1      42.697  26.112  35.536  1.00  0.00     0.020 A 
ATOM     56  C   UNL A   1      43.596  25.441  34.714  1.00  0.00     0.054 A 
BRANCH  56  57
ATOM     57  S   UNL A   1      44.297  23.851  35.248  1.00  0.00     0.124 S 
ATOM     58  O   UNL A   1      45.543  23.791  34.489  1.00  0.00    -0.237 OA
ATOM     59  O   UNL A   1      44.442  24.036  36.689  1.00  0.00    -0.237 OA
ATOM     60  O   UNL A   1      43.283  22.877  34.850  1.00  0.00    -0.744 OA
ENDBRANCH  56  57
ENDBRANCH  28  51
BRANCH  40  61
ATOM     61  C   UNL A   1      44.002  34.271  33.735  1.00  0.00    -0.014 A 
ATOM     62  C   UNL A   1      45.358  34.648  33.818  1.00  0.00     0.010 A 
ATOM     63  C   UNL A   1      43.439  34.069  32.463  1.00  0.00     0.010 A 
ATOM     64  C   UNL A   1      46.120  34.839  32.655  1.00  0.00     0.020 A 
ATOM     65  C   UNL A   1      44.198  34.241  31.303  1.00  0.00     0.020 A 
ATOM     66  C   UNL A   1      45.533  34.632  31.403  1.00  0.00     0.054 A 
BRANCH  66  67
ATOM     67  S   UNL A   1      46.536  34.827  29.903  1.00  0.00     0.124 S 
ATOM     68  O   UNL A   1      46.488  36.268  29.673  1.00  0.00    -0.237 OA
ATOM     69  O   UNL A   1      47.836  34.298  30.311  1.00  0.00    -0.237 OA
ATOM     70  O   UNL A   1      45.835  34.019  28.906  1.00  0.00    -0.744 OA
ENDBRANCH  66  67
ENDBRANCH  40  61
ENDBRANCH  14  15
ENDBRANCH   7   9
ENDBRANCH   6   7
ENDBRANCH   5   6
ENDBRANCH   4   5
ENDBRANCH   3   4
ENDBRANCH   2   3
ENDBRANCH   1   2
BRANCH   1  71
ATOM     71  O   UNL A   1      33.253  29.507  24.448  1.00  0.00    -0.376 OA
BRANCH  71  72
ATOM     72  C   UNL A   1      32.861  29.187  23.099  1.00  0.00     0.202 C 
BRANCH  72  73
ATOM     73  C   UNL A   1      33.624  27.996  22.359  1.00  0.00     0.261 C 
BRANCH  73  74
ATOM     74  O   UNL A   1      34.284  26.938  23.151  1.00  0.00    -0.462 OA
BRANCH  74  75
ATOM     75  C   UNL A   1      33.800  26.384  24.311  1.00  0.00     0.328 C 
ATOM     76  O   UNL A   1      34.253  26.673  25.419  1.00  0.00    -0.250 OA
BRANCH  75  77
ATOM     77  C   UNL A   1      32.628  25.233  24.138  1.00  0.00     0.195 C 
ATOM     78  C   UNL A   1      33.190  23.779  24.358  1.00  0.00     0.046 C 
ATOM     79  N   UNL A   1      31.274  25.022  24.719  1.00  0.00    -0.328 N 
ATOM     80  C   UNL A   1      31.971  22.788  24.553  1.00  0.00     0.001 C 
ATOM     81  C   UNL A   1      30.760  23.704  24.426  1.00  0.00     0.128 C 
ATOM     82  C   UNL A   1      31.844  22.036  25.912  1.00  0.00     0.071 C 
ATOM     83  C   UNL A   1      31.958  21.700  23.477  1.00  0.00     0.071 C 
ATOM     84  C   UNL A   1      32.832  20.895  26.152  1.00  0.00     0.270 C 
ATOM     85  C   UNL A   1      33.076  20.688  23.719  1.00  0.00     0.270 C 
ATOM     86  N   UNL A   1      32.915  20.000  25.003  1.00  0.00    -0.272 N 
ATOM     87  H   UNL A   1      33.630  19.448  24.613  1.00  0.00     0.356 HD
BRANCH  79  88
ATOM     88  C   UNL A   1      30.404  25.887  25.308  1.00  0.00     0.225 C 
ATOM     89  O   UNL A   1      30.615  26.469  26.373  1.00  0.00    -0.275 OA
BRANCH  88  90
ATOM     90  C   UNL A   1      29.255  26.237  24.478  1.00  0.00     0.124 C 
BRANCH  90  91
ATOM     91  C   UNL A   1      29.723  27.239  23.408  1.00  0.00     0.154 C 
BRANCH  91  92
ATOM     92  N   UNL A   1      29.159  28.495  22.909  1.00  0.00    -0.272 N 
ATOM     93  C   UNL A   1      27.841  28.887  23.014  1.00  0.00     0.108 A 
ATOM     94  N   UNL A   1      29.743  29.217  21.924  1.00  0.00    -0.182 NA
ATOM     95  C   UNL A   1      27.669  30.010  22.232  1.00  0.00     0.042 A 
ATOM     96  C   UNL A   1      28.885  30.168  21.574  1.00  0.00     0.135 A 
ENDBRANCH  91  92
ENDBRANCH  90  91
ENDBRANCH  88  90
ENDBRANCH  79  88
BRANCH  86  97
ATOM     97  C   UNL A   1      33.025  18.605  24.988  1.00  0.00     0.315 C 
ATOM     98  O   UNL A   1      32.153  17.913  25.518  1.00  0.00    -0.231 OA
BRANCH  97  99
ATOM     99  C   UNL A   1      34.153  17.819  24.400  1.00  0.00     0.119 C 
ATOM    100  C   UNL A   1      34.391  16.342  24.318  1.00  0.00     0.019 C 
ATOM    101  C   UNL A   1      34.035  17.113  23.075  1.00  0.00     0.019 C 
ENDBRANCH  97  99
ENDBRANCH  86  97
ENDBRANCH  75  77
ENDBRANCH  74  75
ENDBRANCH  73  74
ENDBRANCH  72  73
ENDBRANCH  71  72
ENDBRANCH   1  71
TORSDOF 26
ENDMDL
