MODEL 1
REMARK VINA RESULT:     -10.1      0.000      0.000
REMARK SMILES Cc1cc(Cl)cc2c1O[C@H](C(F)(F)F)C(C(=O)OCCOCCOCCOC(=O)c1ccc(-c3c4nc(c(-c5ccc(S(=O)(=O)[O-])cc5)c5ccc([nH]5)c(-c5ccc(S(=O)(=O)[O-])cc5)c5nc(c(-c6ccc(S(=O)(=O)[O-])cc6)c6ccc3[nH]6)C=C5)C=C4)cc1)=C2
REMARK SMILES IDX 23 1 22 2 21 3 20 4 19 5 18 6 16 7 17 8 15 9 1 10 2 11 3 12
REMARK SMILES IDX 8 13 4 14 7 15 9 16 5 17 6 18 90 19 10 20 11 21 12 22 13 23
REMARK SMILES IDX 14 24 24 25 25 26 26 27 27 28 28 29 29 30 30 31 31 32 89 33
REMARK SMILES IDX 32 34 88 35 33 36 34 37 35 38 82 39 36 40 87 41 81 42 83 43
REMARK SMILES IDX 37 44 86 45 80 46 79 47 38 49 68 50 49 51 67 52 50 53 53 54
REMARK SMILES IDX 66 55 84 56 51 57 52 58 65 60 85 61 54 62 39 63 40 64 48 65
REMARK SMILES IDX 41 66 47 67 42 68 43 69 44 70 45 71 46 72 69 73 70 74 78 75
REMARK SMILES IDX 71 76 77 77 72 78 73 79 74 80 75 81 76 82 55 83 56 84 64 85
REMARK SMILES IDX 57 86 63 87 58 88 59 89 60 90 61 91 62 92
REMARK H PARENT 83 48 53 59
REMARK Flexibility Score: inf
ROOT
ATOM      1  C   UNL A   1      30.177  30.655  24.315  1.00  0.00     0.188 C 
ENDROOT
BRANCH   1   2
ATOM      2  C   UNL A   1      29.523  29.686  23.308  1.00  0.00     0.188 C 
BRANCH   2   3
ATOM      3  O   UNL A   1      30.209  28.498  22.926  1.00  0.00    -0.376 OA
BRANCH   3   4
ATOM      4  C   UNL A   1      29.951  27.276  23.607  1.00  0.00     0.202 C 
BRANCH   4   5
ATOM      5  C   UNL A   1      30.656  27.003  24.942  1.00  0.00     0.261 C 
BRANCH   5   6
ATOM      6  O   UNL A   1      31.392  25.769  24.971  1.00  0.00    -0.460 OA
BRANCH   6   7
ATOM      7  C   UNL A   1      32.666  25.844  24.518  1.00  0.00     0.338 C 
ATOM      8  O   UNL A   1      33.224  26.828  24.059  1.00  0.00    -0.246 OA
BRANCH   7   9
ATOM      9  C   UNL A   1      33.356  24.562  24.757  1.00  0.00     0.087 C 
ATOM     10  C   UNL A   1      34.854  19.666  24.730  1.00  0.00     0.048 C 
ATOM     11  C   UNL A   1      35.485  20.979  25.096  1.00  0.00    -0.007 A 
ATOM     12  C   UNL A   1      36.845  21.027  25.437  1.00  0.00     0.027 A 
ATOM     13  C   UNL A   1      34.750  22.176  25.044  1.00  0.00     0.131 A 
ATOM     14  C   UNL A   1      37.453  22.246  25.733  1.00  0.00     0.042 A 
ATOM     15  C   UNL A   1      35.375  23.400  25.305  1.00  0.00     0.019 A 
ATOM     16  O   UNL A   1      33.426  22.068  24.718  1.00  0.00    -0.475 OA
ATOM     17  Cl  UNL A   1      39.121  22.286  26.152  1.00  0.00    -0.084 Cl
ATOM     18  C   UNL A   1      36.727  23.432  25.668  1.00  0.00     0.032 A 
ATOM     19  C   UNL A   1      34.639  24.641  25.130  1.00  0.00     0.027 C 
ATOM     20  C   UNL A   1      32.618  23.267  24.567  1.00  0.00     0.316 C 
BRANCH  20  21
ATOM     21  C   UNL A   1      31.907  23.183  23.209  1.00  0.00     0.430 C 
ATOM     22  F   UNL A   1      32.008  21.936  22.682  1.00  0.00    -0.167 F 
ATOM     23  F   UNL A   1      30.583  23.448  23.309  1.00  0.00    -0.167 F 
ATOM     24  F   UNL A   1      32.426  24.045  22.305  1.00  0.00    -0.167 F 
ENDBRANCH  20  21
ENDBRANCH   7   9
ENDBRANCH   6   7
ENDBRANCH   5   6
ENDBRANCH   4   5
ENDBRANCH   3   4
ENDBRANCH   2   3
ENDBRANCH   1   2
BRANCH   1  25
ATOM     25  O   UNL A   1      31.350  30.154  24.913  1.00  0.00    -0.376 OA
BRANCH  25  26
ATOM     26  C   UNL A   1      31.793  30.696  26.144  1.00  0.00     0.202 C 
BRANCH  26  27
ATOM     27  C   UNL A   1      32.790  29.987  27.081  1.00  0.00     0.261 C 
BRANCH  27  28
ATOM     28  O   UNL A   1      34.175  30.321  26.970  1.00  0.00    -0.460 OA
BRANCH  28  29
ATOM     29  C   UNL A   1      34.748  30.936  28.030  1.00  0.00     0.338 C 
ATOM     30  O   UNL A   1      34.246  31.786  28.742  1.00  0.00    -0.246 OA
BRANCH  29  31
ATOM     31  C   UNL A   1      36.038  30.263  28.294  1.00  0.00     0.060 A 
ATOM     32  C   UNL A   1      36.267  29.706  29.558  1.00  0.00     0.016 A 
ATOM     33  C   UNL A   1      37.011  30.180  27.294  1.00  0.00     0.016 A 
ATOM     34  C   UNL A   1      37.488  29.088  29.836  1.00  0.00     0.010 A 
ATOM     35  C   UNL A   1      38.240  29.582  27.581  1.00  0.00     0.010 A 
ATOM     36  C   UNL A   1      38.494  29.058  28.860  1.00  0.00    -0.014 A 
BRANCH  36  37
ATOM     37  C   UNL A   1      39.873  28.648  29.218  1.00  0.00     0.031 A 
ATOM     38  C   UNL A   1      40.748  29.635  29.942  1.00  0.00     0.074 A 
ATOM     39  C   UNL A   1      40.345  27.429  28.902  1.00  0.00     0.049 A 
ATOM     40  N   UNL A   1      42.009  29.541  30.267  1.00  0.00    -0.248 NA
ATOM     41  C   UNL A   1      40.108  30.896  30.356  1.00  0.00     0.031 C 
ATOM     42  C   UNL A   1      39.579  26.361  28.262  1.00  0.00     0.029 A 
ATOM     43  N   UNL A   1      41.595  26.890  29.076  1.00  0.00    -0.354 N 
ATOM     44  C   UNL A   1      42.318  30.727  30.924  1.00  0.00     0.074 A 
ATOM     45  C   UNL A   1      41.116  31.534  30.931  1.00  0.00     0.031 C 
ATOM     46  C   UNL A   1      40.381  25.295  28.087  1.00  0.00     0.029 A 
ATOM     47  C   UNL A   1      41.724  25.620  28.566  1.00  0.00     0.049 A 
ATOM     48  H   UNL A   1      42.331  27.367  29.524  1.00  0.00     0.167 HD
ATOM     49  C   UNL A   1      43.494  31.112  31.472  1.00  0.00     0.031 A 
ATOM     50  C   UNL A   1      42.808  24.824  28.471  1.00  0.00     0.031 A 
ATOM     51  C   UNL A   1      44.696  30.324  31.432  1.00  0.00     0.049 A 
ATOM     52  C   UNL A   1      44.135  25.315  28.994  1.00  0.00     0.074 A 
ATOM     53  C   UNL A   1      45.949  30.640  31.929  1.00  0.00     0.029 A 
ATOM     54  N   UNL A   1      44.799  29.065  30.860  1.00  0.00    -0.354 N 
ATOM     55  N   UNL A   1      44.421  26.453  29.582  1.00  0.00    -0.248 NA
ATOM     56  C   UNL A   1      45.285  24.412  28.839  1.00  0.00     0.031 C 
ATOM     57  C   UNL A   1      46.819  29.590  31.617  1.00  0.00     0.029 A 
ATOM     58  C   UNL A   1      46.096  28.596  30.978  1.00  0.00     0.049 A 
ATOM     59  H   UNL A   1      44.058  28.578  30.432  1.00  0.00     0.167 HD
ATOM     60  C   UNL A   1      45.774  26.389  29.896  1.00  0.00     0.074 A 
ATOM     61  C   UNL A   1      46.248  25.099  29.438  1.00  0.00     0.031 C 
ATOM     62  C   UNL A   1      46.554  27.311  30.513  1.00  0.00     0.031 A 
BRANCH  49  63
ATOM     63  C   UNL A   1      43.542  32.462  32.131  1.00  0.00    -0.014 A 
ATOM     64  C   UNL A   1      43.399  32.594  33.524  1.00  0.00     0.010 A 
ATOM     65  C   UNL A   1      43.771  33.612  31.352  1.00  0.00     0.010 A 
ATOM     66  C   UNL A   1      43.458  33.854  34.125  1.00  0.00     0.020 A 
ATOM     67  C   UNL A   1      43.855  34.872  31.953  1.00  0.00     0.020 A 
ATOM     68  C   UNL A   1      43.686  34.986  33.334  1.00  0.00     0.054 A 
BRANCH  68  69
ATOM     69  S   UNL A   1      43.790  36.605  34.145  1.00  0.00     0.124 S 
ATOM     70  O   UNL A   1      44.599  37.366  33.196  1.00  0.00    -0.237 OA
ATOM     71  O   UNL A   1      42.389  37.006  34.239  1.00  0.00    -0.237 OA
ATOM     72  O   UNL A   1      44.439  36.313  35.421  1.00  0.00    -0.744 OA
ENDBRANCH  68  69
ENDBRANCH  49  63
BRANCH  50  73
ATOM     73  C   UNL A   1      42.691  23.481  27.842  1.00  0.00    -0.014 A 
ATOM     74  C   UNL A   1      42.261  22.374  28.595  1.00  0.00     0.010 A 
ATOM     75  C   UNL A   1      43.003  23.302  26.481  1.00  0.00     0.010 A 
ATOM     76  C   UNL A   1      42.148  21.113  28.002  1.00  0.00     0.020 A 
ATOM     77  C   UNL A   1      42.866  22.047  25.878  1.00  0.00     0.020 A 
ATOM     78  C   UNL A   1      42.446  20.958  26.645  1.00  0.00     0.054 A 
BRANCH  78  79
ATOM     79  S   UNL A   1      42.229  19.326  25.883  1.00  0.00     0.124 S 
ATOM     80  O   UNL A   1      40.786  19.279  25.671  1.00  0.00    -0.237 OA
ATOM     81  O   UNL A   1      43.044  19.433  24.676  1.00  0.00    -0.237 OA
ATOM     82  O   UNL A   1      42.743  18.405  26.895  1.00  0.00    -0.744 OA
ENDBRANCH  78  79
ENDBRANCH  50  73
BRANCH  62  83
ATOM     83  C   UNL A   1      47.991  26.946  30.773  1.00  0.00    -0.014 A 
ATOM     84  C   UNL A   1      49.023  27.377  29.921  1.00  0.00     0.010 A 
ATOM     85  C   UNL A   1      48.317  26.198  31.919  1.00  0.00     0.010 A 
ATOM     86  C   UNL A   1      50.352  27.034  30.192  1.00  0.00     0.020 A 
ATOM     87  C   UNL A   1      49.646  25.876  32.208  1.00  0.00     0.020 A 
ATOM     88  C   UNL A   1      50.653  26.282  31.331  1.00  0.00     0.054 A 
BRANCH  88  89
ATOM     89  S   UNL A   1      52.387  25.869  31.673  1.00  0.00     0.124 S 
ATOM     90  O   UNL A   1      52.278  24.507  32.188  1.00  0.00    -0.237 OA
ATOM     91  O   UNL A   1      53.011  25.996  30.357  1.00  0.00    -0.237 OA
ATOM     92  O   UNL A   1      52.798  26.874  32.650  1.00  0.00    -0.744 OA
ENDBRANCH  88  89
ENDBRANCH  62  83
ENDBRANCH  36  37
ENDBRANCH  29  31
ENDBRANCH  28  29
ENDBRANCH  27  28
ENDBRANCH  26  27
ENDBRANCH  25  26
ENDBRANCH   1  25
TORSDOF 21
ENDMDL
MODEL 2
REMARK VINA RESULT:      -9.9      3.346      4.693
REMARK SMILES Cc1cc(Cl)cc2c1O[C@H](C(F)(F)F)C(C(=O)OCCOCCOCCOC(=O)c1ccc(-c3c4nc(c(-c5ccc(S(=O)(=O)[O-])cc5)c5ccc([nH]5)c(-c5ccc(S(=O)(=O)[O-])cc5)c5nc(c(-c6ccc(S(=O)(=O)[O-])cc6)c6ccc3[nH]6)C=C5)C=C4)cc1)=C2
REMARK SMILES IDX 23 1 22 2 21 3 20 4 19 5 18 6 16 7 17 8 15 9 1 10 2 11 3 12
REMARK SMILES IDX 8 13 4 14 7 15 9 16 5 17 6 18 90 19 10 20 11 21 12 22 13 23
REMARK SMILES IDX 14 24 24 25 25 26 26 27 27 28 28 29 29 30 30 31 31 32 89 33
REMARK SMILES IDX 32 34 88 35 33 36 34 37 35 38 82 39 36 40 87 41 81 42 83 43
REMARK SMILES IDX 37 44 86 45 80 46 79 47 38 49 68 50 49 51 67 52 50 53 53 54
REMARK SMILES IDX 66 55 84 56 51 57 52 58 65 60 85 61 54 62 39 63 40 64 48 65
REMARK SMILES IDX 41 66 47 67 42 68 43 69 44 70 45 71 46 72 69 73 70 74 78 75
REMARK SMILES IDX 71 76 77 77 72 78 73 79 74 80 75 81 76 82 55 83 56 84 64 85
REMARK SMILES IDX 57 86 63 87 58 88 59 89 60 90 61 91 62 92
REMARK H PARENT 83 48 53 59
REMARK Flexibility Score: inf
ROOT
ATOM      1  C   UNL A   1      34.697  33.659  30.347  1.00  0.00     0.188 C 
ENDROOT
BRANCH   1   2
ATOM      2  C   UNL A   1      34.552  33.164  28.893  1.00  0.00     0.188 C 
BRANCH   2   3
ATOM      3  O   UNL A   1      34.172  31.814  28.643  1.00  0.00    -0.376 OA
BRANCH   3   4
ATOM      4  C   UNL A   1      33.595  31.456  27.392  1.00  0.00     0.202 C 
BRANCH   4   5
ATOM      5  C   UNL A   1      32.770  30.168  27.293  1.00  0.00     0.261 C 
BRANCH   5   6
ATOM      6  O   UNL A   1      33.204  29.275  26.254  1.00  0.00    -0.460 OA
BRANCH   6   7
ATOM      7  C   UNL A   1      32.236  28.864  25.401  1.00  0.00     0.338 C 
ATOM      8  O   UNL A   1      31.322  29.537  24.951  1.00  0.00    -0.246 OA
BRANCH   7   9
ATOM      9  C   UNL A   1      32.497  27.474  24.983  1.00  0.00     0.087 C 
ATOM     10  C   UNL A   1      33.856  23.241  22.442  1.00  0.00     0.048 C 
ATOM     11  C   UNL A   1      33.608  23.596  23.881  1.00  0.00    -0.007 A 
ATOM     12  C   UNL A   1      33.872  22.653  24.887  1.00  0.00     0.027 A 
ATOM     13  C   UNL A   1      33.172  24.882  24.245  1.00  0.00     0.131 A 
ATOM     14  C   UNL A   1      33.690  22.987  26.228  1.00  0.00     0.042 A 
ATOM     15  C   UNL A   1      33.029  25.222  25.595  1.00  0.00     0.019 A 
ATOM     16  O   UNL A   1      32.918  25.755  23.224  1.00  0.00    -0.475 OA
ATOM     17  Cl  UNL A   1      34.016  21.819  27.447  1.00  0.00    -0.084 Cl
ATOM     18  C   UNL A   1      33.271  24.265  26.587  1.00  0.00     0.032 A 
ATOM     19  C   UNL A   1      32.696  26.587  25.966  1.00  0.00     0.027 C 
ATOM     20  C   UNL A   1      32.540  27.127  23.522  1.00  0.00     0.316 C 
BRANCH  20  21
ATOM     21  C   UNL A   1      33.466  28.051  22.719  1.00  0.00     0.430 C 
ATOM     22  F   UNL A   1      32.806  29.163  22.305  1.00  0.00    -0.167 F 
ATOM     23  F   UNL A   1      34.517  28.483  23.454  1.00  0.00    -0.167 F 
ATOM     24  F   UNL A   1      33.963  27.445  21.616  1.00  0.00    -0.167 F 
ENDBRANCH  20  21
ENDBRANCH   7   9
ENDBRANCH   6   7
ENDBRANCH   5   6
ENDBRANCH   4   5
ENDBRANCH   3   4
ENDBRANCH   2   3
ENDBRANCH   1   2
BRANCH   1  25
ATOM     25  O   UNL A   1      34.533  32.649  31.315  1.00  0.00    -0.376 OA
BRANCH  25  26
ATOM     26  C   UNL A   1      35.675  32.022  31.871  1.00  0.00     0.202 C 
BRANCH  26  27
ATOM     27  C   UNL A   1      36.259  30.694  31.351  1.00  0.00     0.261 C 
BRANCH  27  28
ATOM     28  O   UNL A   1      37.111  30.735  30.205  1.00  0.00    -0.460 OA
BRANCH  28  29
ATOM     29  C   UNL A   1      36.994  29.724  29.313  1.00  0.00     0.338 C 
ATOM     30  O   UNL A   1      35.972  29.335  28.778  1.00  0.00    -0.246 OA
BRANCH  29  31
ATOM     31  C   UNL A   1      38.359  29.284  28.955  1.00  0.00     0.060 A 
ATOM     32  C   UNL A   1      39.179  28.736  29.949  1.00  0.00     0.016 A 
ATOM     33  C   UNL A   1      38.822  29.409  27.643  1.00  0.00     0.016 A 
ATOM     34  C   UNL A   1      40.480  28.338  29.638  1.00  0.00     0.010 A 
ATOM     35  C   UNL A   1      40.132  29.032  27.338  1.00  0.00     0.010 A 
ATOM     36  C   UNL A   1      40.976  28.519  28.340  1.00  0.00    -0.014 A 
BRANCH  36  37
ATOM     37  C   UNL A   1      42.421  28.351  28.058  1.00  0.00     0.031 A 
ATOM     38  C   UNL A   1      43.344  29.506  28.339  1.00  0.00     0.074 A 
ATOM     39  C   UNL A   1      42.908  27.202  27.558  1.00  0.00     0.049 A 
ATOM     40  N   UNL A   1      44.618  29.630  28.081  1.00  0.00    -0.248 NA
ATOM     41  C   UNL A   1      42.743  30.677  29.001  1.00  0.00     0.031 C 
ATOM     42  C   UNL A   1      42.131  25.989  27.305  1.00  0.00     0.029 A 
ATOM     43  N   UNL A   1      44.182  26.875  27.165  1.00  0.00    -0.354 N 
ATOM     44  C   UNL A   1      44.976  30.889  28.549  1.00  0.00     0.074 A 
ATOM     45  C   UNL A   1      43.778  31.499  29.085  1.00  0.00     0.031 C 
ATOM     46  C   UNL A   1      42.945  25.051  26.789  1.00  0.00     0.029 A 
ATOM     47  C   UNL A   1      44.289  25.610  26.638  1.00  0.00     0.049 A 
ATOM     48  H   UNL A   1      44.947  27.488  27.253  1.00  0.00     0.167 HD
ATOM     49  C   UNL A   1      46.191  31.485  28.534  1.00  0.00     0.031 A 
ATOM     50  C   UNL A   1      45.342  24.986  26.075  1.00  0.00     0.031 A 
ATOM     51  C   UNL A   1      47.372  30.892  27.968  1.00  0.00     0.049 A 
ATOM     52  C   UNL A   1      46.662  25.709  25.972  1.00  0.00     0.074 A 
ATOM     53  C   UNL A   1      48.645  31.428  27.874  1.00  0.00     0.029 A 
ATOM     54  N   UNL A   1      47.428  29.629  27.397  1.00  0.00    -0.354 N 
ATOM     55  N   UNL A   1      46.978  26.912  26.387  1.00  0.00    -0.248 NA
ATOM     56  C   UNL A   1      47.767  24.986  25.325  1.00  0.00     0.031 C 
ATOM     57  C   UNL A   1      49.458  30.508  27.204  1.00  0.00     0.029 A 
ATOM     58  C   UNL A   1      48.707  29.374  26.935  1.00  0.00     0.049 A 
ATOM     59  H   UNL A   1      46.668  29.006  27.330  1.00  0.00     0.167 HD
ATOM     60  C   UNL A   1      48.325  27.079  26.081  1.00  0.00     0.074 A 
ATOM     61  C   UNL A   1      48.764  25.850  25.451  1.00  0.00     0.031 C 
ATOM     62  C   UNL A   1      49.128  28.148  26.306  1.00  0.00     0.031 A 
BRANCH  49  63
ATOM     63  C   UNL A   1      46.292  32.867  29.119  1.00  0.00    -0.014 A 
ATOM     64  C   UNL A   1      46.803  33.070  30.413  1.00  0.00     0.010 A 
ATOM     65  C   UNL A   1      45.906  33.980  28.350  1.00  0.00     0.010 A 
ATOM     66  C   UNL A   1      46.902  34.361  30.939  1.00  0.00     0.020 A 
ATOM     67  C   UNL A   1      46.026  35.275  28.864  1.00  0.00     0.020 A 
ATOM     68  C   UNL A   1      46.512  35.456  30.160  1.00  0.00     0.054 A 
BRANCH  68  69
ATOM     69  S   UNL A   1      46.683  37.122  30.858  1.00  0.00     0.124 S 
ATOM     70  O   UNL A   1      46.823  36.837  32.284  1.00  0.00    -0.237 OA
ATOM     71  O   UNL A   1      47.884  37.624  30.196  1.00  0.00    -0.237 OA
ATOM     72  O   UNL A   1      45.439  37.786  30.476  1.00  0.00    -0.744 OA
ENDBRANCH  68  69
ENDBRANCH  49  63
BRANCH  50  73
ATOM     73  C   UNL A   1      45.192  23.603  25.547  1.00  0.00    -0.014 A 
ATOM     74  C   UNL A   1      45.520  22.494  26.347  1.00  0.00     0.010 A 
ATOM     75  C   UNL A   1      44.713  23.386  24.241  1.00  0.00     0.010 A 
ATOM     76  C   UNL A   1      45.375  21.195  25.851  1.00  0.00     0.020 A 
ATOM     77  C   UNL A   1      44.543  22.087  23.752  1.00  0.00     0.020 A 
ATOM     78  C   UNL A   1      44.882  20.999  24.558  1.00  0.00     0.054 A 
BRANCH  78  79
ATOM     79  S   UNL A   1      44.641  19.302  23.962  1.00  0.00     0.124 S 
ATOM     80  O   UNL A   1      43.417  18.909  24.651  1.00  0.00    -0.237 OA
ATOM     81  O   UNL A   1      44.523  19.491  22.518  1.00  0.00    -0.237 OA
ATOM     82  O   UNL A   1      45.854  18.612  24.395  1.00  0.00    -0.744 OA
ENDBRANCH  78  79
ENDBRANCH  50  73
BRANCH  62  83
ATOM     83  C   UNL A   1      50.576  28.027  25.911  1.00  0.00    -0.014 A 
ATOM     84  C   UNL A   1      51.028  28.434  24.644  1.00  0.00     0.010 A 
ATOM     85  C   UNL A   1      51.508  27.541  26.847  1.00  0.00     0.010 A 
ATOM     86  C   UNL A   1      52.380  28.321  24.306  1.00  0.00     0.020 A 
ATOM     87  C   UNL A   1      52.864  27.452  26.523  1.00  0.00     0.020 A 
ATOM     88  C   UNL A   1      53.289  27.827  25.247  1.00  0.00     0.054 A 
BRANCH  88  89
ATOM     89  S   UNL A   1      55.042  27.713  24.793  1.00  0.00     0.124 S 
ATOM     90  O   UNL A   1      55.703  27.964  26.071  1.00  0.00    -0.237 OA
ATOM     91  O   UNL A   1      55.152  26.347  24.286  1.00  0.00    -0.237 OA
ATOM     92  O   UNL A   1      55.210  28.760  23.788  1.00  0.00    -0.744 OA
ENDBRANCH  88  89
ENDBRANCH  62  83
ENDBRANCH  36  37
ENDBRANCH  29  31
ENDBRANCH  28  29
ENDBRANCH  27  28
ENDBRANCH  26  27
ENDBRANCH  25  26
ENDBRANCH   1  25
TORSDOF 21
ENDMDL
MODEL 3
REMARK VINA RESULT:      -9.8      4.463      9.793
REMARK SMILES Cc1cc(Cl)cc2c1O[C@H](C(F)(F)F)C(C(=O)OCCOCCOCCOC(=O)c1ccc(-c3c4nc(c(-c5ccc(S(=O)(=O)[O-])cc5)c5ccc([nH]5)c(-c5ccc(S(=O)(=O)[O-])cc5)c5nc(c(-c6ccc(S(=O)(=O)[O-])cc6)c6ccc3[nH]6)C=C5)C=C4)cc1)=C2
REMARK SMILES IDX 23 1 22 2 21 3 20 4 19 5 18 6 16 7 17 8 15 9 1 10 2 11 3 12
REMARK SMILES IDX 8 13 4 14 7 15 9 16 5 17 6 18 90 19 10 20 11 21 12 22 13 23
REMARK SMILES IDX 14 24 24 25 25 26 26 27 27 28 28 29 29 30 30 31 31 32 89 33
REMARK SMILES IDX 32 34 88 35 33 36 34 37 35 38 82 39 36 40 87 41 81 42 83 43
REMARK SMILES IDX 37 44 86 45 80 46 79 47 38 49 68 50 49 51 67 52 50 53 53 54
REMARK SMILES IDX 66 55 84 56 51 57 52 58 65 60 85 61 54 62 39 63 40 64 48 65
REMARK SMILES IDX 41 66 47 67 42 68 43 69 44 70 45 71 46 72 69 73 70 74 78 75
REMARK SMILES IDX 71 76 77 77 72 78 73 79 74 80 75 81 76 82 55 83 56 84 64 85
REMARK SMILES IDX 57 86 63 87 58 88 59 89 60 90 61 91 62 92
REMARK H PARENT 83 48 53 59
REMARK Flexibility Score: inf
ROOT
ATOM      1  C   UNL A   1      38.454  23.314  26.140  1.00  0.00     0.188 C 
ENDROOT
BRANCH   1   2
ATOM      2  C   UNL A   1      37.038  22.880  25.705  1.00  0.00     0.188 C 
BRANCH   2   3
ATOM      3  O   UNL A   1      36.678  21.503  25.751  1.00  0.00    -0.376 OA
BRANCH   3   4
ATOM      4  C   UNL A   1      35.558  21.035  25.008  1.00  0.00     0.202 C 
BRANCH   4   5
ATOM      5  C   UNL A   1      34.189  20.953  25.695  1.00  0.00     0.261 C 
BRANCH   5   6
ATOM      6  O   UNL A   1      33.775  22.179  26.320  1.00  0.00    -0.460 OA
BRANCH   6   7
ATOM      7  C   UNL A   1      32.669  22.754  25.793  1.00  0.00     0.338 C 
ATOM      8  O   UNL A   1      31.537  22.296  25.787  1.00  0.00    -0.246 OA
BRANCH   7   9
ATOM      9  C   UNL A   1      32.996  24.106  25.302  1.00  0.00     0.087 C 
ATOM     10  C   UNL A   1      34.021  28.212  22.420  1.00  0.00     0.048 C 
ATOM     11  C   UNL A   1      33.549  27.980  23.827  1.00  0.00    -0.007 A 
ATOM     12  C   UNL A   1      33.167  29.070  24.623  1.00  0.00     0.027 A 
ATOM     13  C   UNL A   1      33.425  26.678  24.344  1.00  0.00     0.131 A 
ATOM     14  C   UNL A   1      32.684  28.863  25.914  1.00  0.00     0.042 A 
ATOM     15  C   UNL A   1      32.903  26.475  25.626  1.00  0.00     0.019 A 
ATOM     16  O   UNL A   1      33.824  25.654  23.529  1.00  0.00    -0.475 OA
ATOM     17  Cl  UNL A   1      32.223  30.212  26.876  1.00  0.00    -0.084 Cl
ATOM     18  C   UNL A   1      32.549  27.573  26.419  1.00  0.00     0.032 A 
ATOM     19  C   UNL A   1      32.665  25.124  26.105  1.00  0.00     0.027 C 
ATOM     20  C   UNL A   1      33.653  24.277  23.962  1.00  0.00     0.316 C 
BRANCH  20  21
ATOM     21  C   UNL A   1      32.922  23.523  22.841  1.00  0.00     0.430 C 
ATOM     22  F   UNL A   1      31.577  23.650  22.965  1.00  0.00    -0.167 F 
ATOM     23  F   UNL A   1      33.239  24.002  21.615  1.00  0.00    -0.167 F 
ATOM     24  F   UNL A   1      33.204  22.201  22.847  1.00  0.00    -0.167 F 
ENDBRANCH  20  21
ENDBRANCH   7   9
ENDBRANCH   6   7
ENDBRANCH   5   6
ENDBRANCH   4   5
ENDBRANCH   3   4
ENDBRANCH   2   3
ENDBRANCH   1   2
BRANCH   1  25
ATOM     25  O   UNL A   1      39.338  22.239  26.364  1.00  0.00    -0.376 OA
BRANCH  25  26
ATOM     26  C   UNL A   1      40.559  22.469  27.045  1.00  0.00     0.202 C 
BRANCH  26  27
ATOM     27  C   UNL A   1      41.824  23.027  26.366  1.00  0.00     0.261 C 
BRANCH  27  28
ATOM     28  O   UNL A   1      42.318  24.296  26.797  1.00  0.00    -0.460 OA
BRANCH  28  29
ATOM     29  C   UNL A   1      41.763  25.397  26.238  1.00  0.00     0.338 C 
ATOM     30  O   UNL A   1      41.467  25.552  25.068  1.00  0.00    -0.246 OA
BRANCH  29  31
ATOM     31  C   UNL A   1      41.405  26.322  27.333  1.00  0.00     0.060 A 
ATOM     32  C   UNL A   1      42.150  27.496  27.501  1.00  0.00     0.016 A 
ATOM     33  C   UNL A   1      40.337  26.032  28.186  1.00  0.00     0.016 A 
ATOM     34  C   UNL A   1      41.845  28.372  28.545  1.00  0.00     0.010 A 
ATOM     35  C   UNL A   1      40.048  26.897  29.244  1.00  0.00     0.010 A 
ATOM     36  C   UNL A   1      40.817  28.057  29.444  1.00  0.00    -0.014 A 
BRANCH  36  37
ATOM     37  C   UNL A   1      40.654  28.831  30.698  1.00  0.00     0.031 A 
ATOM     38  C   UNL A   1      39.625  29.928  30.733  1.00  0.00     0.074 A 
ATOM     39  C   UNL A   1      41.405  28.572  31.782  1.00  0.00     0.049 A 
ATOM     40  N   UNL A   1      39.374  30.798  31.674  1.00  0.00    -0.248 NA
ATOM     41  C   UNL A   1      38.765  30.057  29.543  1.00  0.00     0.031 C 
ATOM     42  C   UNL A   1      42.387  27.495  31.899  1.00  0.00     0.029 A 
ATOM     43  N   UNL A   1      41.459  29.210  32.997  1.00  0.00    -0.354 N 
ATOM     44  C   UNL A   1      38.327  31.578  31.195  1.00  0.00     0.074 A 
ATOM     45  C   UNL A   1      38.007  31.092  29.870  1.00  0.00     0.031 C 
ATOM     46  C   UNL A   1      42.955  27.553  33.117  1.00  0.00     0.029 A 
ATOM     47  C   UNL A   1      42.406  28.694  33.849  1.00  0.00     0.049 A 
ATOM     48  H   UNL A   1      40.875  29.966  33.235  1.00  0.00     0.167 HD
ATOM     49  C   UNL A   1      37.690  32.606  31.802  1.00  0.00     0.031 A 
ATOM     50  C   UNL A   1      42.803  29.113  35.068  1.00  0.00     0.031 A 
ATOM     51  C   UNL A   1      38.034  33.111  33.104  1.00  0.00     0.049 A 
ATOM     52  C   UNL A   1      42.152  30.326  35.682  1.00  0.00     0.074 A 
ATOM     53  C   UNL A   1      37.471  34.172  33.793  1.00  0.00     0.029 A 
ATOM     54  N   UNL A   1      39.035  32.594  33.914  1.00  0.00    -0.354 N 
ATOM     55  N   UNL A   1      41.187  31.076  35.204  1.00  0.00    -0.248 NA
ATOM     56  C   UNL A   1      42.645  30.748  37.001  1.00  0.00     0.031 C 
ATOM     57  C   UNL A   1      38.162  34.324  35.000  1.00  0.00     0.029 A 
ATOM     58  C   UNL A   1      39.115  33.322  35.089  1.00  0.00     0.049 A 
ATOM     59  H   UNL A   1      39.604  31.824  33.686  1.00  0.00     0.167 HD
ATOM     60  C   UNL A   1      40.935  32.038  36.177  1.00  0.00     0.074 A 
ATOM     61  C   UNL A   1      41.846  31.771  37.272  1.00  0.00     0.031 C 
ATOM     62  C   UNL A   1      40.030  33.047  36.168  1.00  0.00     0.031 A 
BRANCH  49  63
ATOM     63  C   UNL A   1      36.578  33.276  31.044  1.00  0.00    -0.014 A 
ATOM     64  C   UNL A   1      35.266  33.298  31.552  1.00  0.00     0.010 A 
ATOM     65  C   UNL A   1      36.853  33.924  29.826  1.00  0.00     0.010 A 
ATOM     66  C   UNL A   1      34.244  33.934  30.843  1.00  0.00     0.020 A 
ATOM     67  C   UNL A   1      35.838  34.582  29.126  1.00  0.00     0.020 A 
ATOM     68  C   UNL A   1      34.537  34.573  29.633  1.00  0.00     0.054 A 
BRANCH  68  69
ATOM     69  S   UNL A   1      33.197  35.418  28.751  1.00  0.00     0.124 S 
ATOM     70  O   UNL A   1      33.936  36.348  27.900  1.00  0.00    -0.237 OA
ATOM     71  O   UNL A   1      32.531  34.321  28.054  1.00  0.00    -0.237 OA
ATOM     72  O   UNL A   1      32.417  36.040  29.818  1.00  0.00    -0.744 OA
ENDBRANCH  68  69
ENDBRANCH  49  63
BRANCH  50  73
ATOM     73  C   UNL A   1      43.885  28.386  35.787  1.00  0.00    -0.014 A 
ATOM     74  C   UNL A   1      43.576  27.330  36.662  1.00  0.00     0.010 A 
ATOM     75  C   UNL A   1      45.233  28.743  35.594  1.00  0.00     0.010 A 
ATOM     76  C   UNL A   1      44.593  26.647  37.335  1.00  0.00     0.020 A 
ATOM     77  C   UNL A   1      46.254  28.045  36.246  1.00  0.00     0.020 A 
ATOM     78  C   UNL A   1      45.927  27.005  37.118  1.00  0.00     0.054 A 
BRANCH  78  79
ATOM     79  S   UNL A   1      47.232  26.060  37.952  1.00  0.00     0.124 S 
ATOM     80  O   UNL A   1      48.175  25.819  36.865  1.00  0.00    -0.237 OA
ATOM     81  O   UNL A   1      47.680  26.989  38.986  1.00  0.00    -0.237 OA
ATOM     82  O   UNL A   1      46.534  24.876  38.449  1.00  0.00    -0.744 OA
ENDBRANCH  78  79
ENDBRANCH  50  73
BRANCH  62  83
ATOM     83  C   UNL A   1      39.941  33.914  37.396  1.00  0.00    -0.014 A 
ATOM     84  C   UNL A   1      40.674  35.109  37.505  1.00  0.00     0.010 A 
ATOM     85  C   UNL A   1      39.070  33.547  38.439  1.00  0.00     0.010 A 
ATOM     86  C   UNL A   1      40.565  35.902  38.651  1.00  0.00     0.020 A 
ATOM     87  C   UNL A   1      38.939  34.350  39.575  1.00  0.00     0.020 A 
ATOM     88  C   UNL A   1      39.701  35.515  39.680  1.00  0.00     0.054 A 
BRANCH  88  89
ATOM     89  S   UNL A   1      39.560  36.573  41.148  1.00  0.00     0.124 S 
ATOM     90  O   UNL A   1      38.328  36.081  41.759  1.00  0.00    -0.237 OA
ATOM     91  O   UNL A   1      40.789  36.271  41.879  1.00  0.00    -0.237 OA
ATOM     92  O   UNL A   1      39.486  37.924  40.597  1.00  0.00    -0.744 OA
ENDBRANCH  88  89
ENDBRANCH  62  83
ENDBRANCH  36  37
ENDBRANCH  29  31
ENDBRANCH  28  29
ENDBRANCH  27  28
ENDBRANCH  26  27
ENDBRANCH  25  26
ENDBRANCH   1  25
TORSDOF 21
ENDMDL
