MODEL 1
REMARK VINA RESULT:      -9.8      0.000      0.000
REMARK SMILES Cc1cccc(Nc2ccccc2C(=O)OCCOCCOCCOC(=O)c2ccc(-c3c4nc(c(-c5ccc(S(=O)(=O)[O-])cc5)c5ccc([nH]5)c(-c5ccc(S(=O)(=O)[O-])cc5)c5nc(c(-c6ccc(S(=O)(=O)[O-])cc6)c6ccc3[nH]6)C=C5)C=C4)cc2)c1C
REMARK SMILES IDX 21 1 20 2 19 3 18 4 17 5 16 6 14 7 15 8 13 9 8 10 9 11 10 12
REMARK SMILES IDX 12 13 11 14 7 15 6 17 1 18 2 19 3 20 88 21 4 22 89 23 5 24
REMARK SMILES IDX 22 25 23 26 24 27 25 28 26 29 27 30 28 31 29 32 87 33 30 34
REMARK SMILES IDX 86 35 31 36 32 37 33 38 80 39 34 40 85 41 79 42 81 43 35 44
REMARK SMILES IDX 84 45 78 46 77 47 36 49 66 50 47 51 65 52 48 53 51 54 64 55
REMARK SMILES IDX 82 56 49 57 50 58 63 60 83 61 52 62 37 63 38 64 46 65 39 66
REMARK SMILES IDX 45 67 40 68 41 69 42 70 43 71 44 72 67 73 68 74 76 75 69 76
REMARK SMILES IDX 75 77 70 78 71 79 72 80 73 81 74 82 53 83 54 84 62 85 55 86
REMARK SMILES IDX 61 87 56 88 57 89 58 90 59 91 60 92
REMARK H PARENT 7 16 81 48 51 59
REMARK Flexibility Score: inf
ROOT
ATOM      1  C   UNL A   1      42.176  21.766  26.035  1.00  0.00     0.188 C 
ENDROOT
BRANCH   1   2
ATOM      2  C   UNL A   1      41.462  20.758  26.969  1.00  0.00     0.188 C 
BRANCH   2   3
ATOM      3  O   UNL A   1      40.072  20.974  27.070  1.00  0.00    -0.376 OA
BRANCH   3   4
ATOM      4  C   UNL A   1      39.338  21.230  25.887  1.00  0.00     0.202 C 
BRANCH   4   5
ATOM      5  C   UNL A   1      38.106  22.151  25.845  1.00  0.00     0.261 C 
BRANCH   5   6
ATOM      6  O   UNL A   1      36.827  21.542  25.651  1.00  0.00    -0.460 OA
BRANCH   6   7
ATOM      7  C   UNL A   1      35.749  22.363  25.668  1.00  0.00     0.340 C 
ATOM      8  O   UNL A   1      35.785  23.572  25.843  1.00  0.00    -0.246 OA
BRANCH   7   9
ATOM      9  C   UNL A   1      34.512  21.637  25.252  1.00  0.00     0.083 A 
ATOM     10  C   UNL A   1      33.212  22.189  25.220  1.00  0.00     0.053 A 
ATOM     11  C   UNL A   1      32.148  21.335  24.854  1.00  0.00     0.027 A 
ATOM     12  C   UNL A   1      32.358  19.995  24.519  1.00  0.00     0.002 A 
ATOM     13  C   UNL A   1      34.713  20.282  24.915  1.00  0.00     0.018 A 
ATOM     14  C   UNL A   1      33.643  19.467  24.549  1.00  0.00     0.001 A 
BRANCH  10  15
ATOM     15  N   UNL A   1      32.870  23.547  25.411  1.00  0.00    -0.355 N 
ATOM     16  H   UNL A   1      32.745  23.807  26.352  1.00  0.00     0.167 HD
BRANCH  15  17
ATOM     17  C   UNL A   1      32.678  24.593  24.486  1.00  0.00     0.042 A 
ATOM     18  C   UNL A   1      30.369  27.574  23.966  1.00  0.00     0.044 C 
ATOM     19  C   UNL A   1      31.449  26.552  23.726  1.00  0.00    -0.046 A 
ATOM     20  C   UNL A   1      31.861  26.290  22.411  1.00  0.00     0.004 A 
ATOM     21  C   UNL A   1      31.953  25.768  24.788  1.00  0.00    -0.025 A 
ATOM     22  C   UNL A   1      32.717  25.229  22.136  1.00  0.00     0.002 A 
ATOM     23  C   UNL A   1      31.695  26.183  26.217  1.00  0.00     0.047 C 
ATOM     24  C   UNL A   1      33.089  24.365  23.161  1.00  0.00     0.026 A 
ENDBRANCH  15  17
ENDBRANCH  10  15
ENDBRANCH   7   9
ENDBRANCH   6   7
ENDBRANCH   5   6
ENDBRANCH   4   5
ENDBRANCH   3   4
ENDBRANCH   2   3
ENDBRANCH   1   2
BRANCH   1  25
ATOM     25  O   UNL A   1      43.447  21.461  25.478  1.00  0.00    -0.376 OA
BRANCH  25  26
ATOM     26  C   UNL A   1      44.257  22.525  25.002  1.00  0.00     0.202 C 
BRANCH  26  27
ATOM     27  C   UNL A   1      43.657  23.926  24.762  1.00  0.00     0.261 C 
BRANCH  27  28
ATOM     28  O   UNL A   1      43.463  24.755  25.923  1.00  0.00    -0.460 OA
BRANCH  28  29
ATOM     29  C   UNL A   1      42.381  25.574  25.896  1.00  0.00     0.338 C 
ATOM     30  O   UNL A   1      41.493  25.589  25.054  1.00  0.00    -0.246 OA
BRANCH  29  31
ATOM     31  C   UNL A   1      42.294  26.328  27.168  1.00  0.00     0.060 A 
ATOM     32  C   UNL A   1      41.237  26.047  28.050  1.00  0.00     0.016 A 
ATOM     33  C   UNL A   1      43.225  27.316  27.487  1.00  0.00     0.016 A 
ATOM     34  C   UNL A   1      41.100  26.757  29.244  1.00  0.00     0.010 A 
ATOM     35  C   UNL A   1      43.065  28.055  28.666  1.00  0.00     0.010 A 
ATOM     36  C   UNL A   1      41.986  27.800  29.535  1.00  0.00    -0.014 A 
BRANCH  36  37
ATOM     37  C   UNL A   1      41.668  28.750  30.630  1.00  0.00     0.031 A 
ATOM     38  C   UNL A   1      42.480  28.676  31.896  1.00  0.00     0.074 A 
ATOM     39  C   UNL A   1      40.689  29.665  30.512  1.00  0.00     0.049 A 
ATOM     40  N   UNL A   1      42.349  29.352  33.008  1.00  0.00    -0.248 NA
ATOM     41  C   UNL A   1      43.586  27.705  31.907  1.00  0.00     0.031 C 
ATOM     42  C   UNL A   1      39.860  29.872  29.327  1.00  0.00     0.029 A 
ATOM     43  N   UNL A   1      40.216  30.583  31.419  1.00  0.00    -0.354 N 
ATOM     44  C   UNL A   1      43.337  28.870  33.859  1.00  0.00     0.074 A 
ATOM     45  C   UNL A   1      44.045  27.833  33.142  1.00  0.00     0.031 C 
ATOM     46  C   UNL A   1      38.963  30.840  29.587  1.00  0.00     0.029 A 
ATOM     47  C   UNL A   1      39.129  31.293  30.968  1.00  0.00     0.049 A 
ATOM     48  H   UNL A   1      40.618  30.719  32.308  1.00  0.00     0.167 HD
ATOM     49  C   UNL A   1      43.625  29.252  35.126  1.00  0.00     0.031 A 
ATOM     50  C   UNL A   1      38.338  32.181  31.604  1.00  0.00     0.031 A 
ATOM     51  C   UNL A   1      42.907  30.272  35.843  1.00  0.00     0.049 A 
ATOM     52  C   UNL A   1      38.636  32.549  33.036  1.00  0.00     0.074 A 
ATOM     53  C   UNL A   1      43.144  30.754  37.119  1.00  0.00     0.029 A 
ATOM     54  N   UNL A   1      41.801  30.954  35.358  1.00  0.00    -0.354 N 
ATOM     55  N   UNL A   1      39.598  32.116  33.817  1.00  0.00    -0.248 NA
ATOM     56  C   UNL A   1      37.747  33.533  33.670  1.00  0.00     0.031 C 
ATOM     57  C   UNL A   1      42.137  31.672  37.433  1.00  0.00     0.029 A 
ATOM     58  C   UNL A   1      41.320  31.824  36.323  1.00  0.00     0.049 A 
ATOM     59  H   UNL A   1      41.414  30.838  34.460  1.00  0.00     0.167 HD
ATOM     60  C   UNL A   1      39.444  32.793  35.024  1.00  0.00     0.074 A 
ATOM     61  C   UNL A   1      38.308  33.676  34.864  1.00  0.00     0.031 C 
ATOM     62  C   UNL A   1      40.181  32.694  36.159  1.00  0.00     0.031 A 
BRANCH  49  63
ATOM     63  C   UNL A   1      44.732  28.518  35.839  1.00  0.00    -0.014 A 
ATOM     64  C   UNL A   1      46.044  29.024  35.888  1.00  0.00     0.010 A 
ATOM     65  C   UNL A   1      44.445  27.303  36.490  1.00  0.00     0.010 A 
ATOM     66  C   UNL A   1      47.055  28.306  36.533  1.00  0.00     0.020 A 
ATOM     67  C   UNL A   1      45.446  26.599  37.164  1.00  0.00     0.020 A 
ATOM     68  C   UNL A   1      46.750  27.097  37.164  1.00  0.00     0.054 A 
BRANCH  68  69
ATOM     69  S   UNL A   1      48.080  26.192  38.001  1.00  0.00     0.124 S 
ATOM     70  O   UNL A   1      49.266  26.687  37.306  1.00  0.00    -0.237 OA
ATOM     71  O   UNL A   1      47.938  26.628  39.389  1.00  0.00    -0.237 OA
ATOM     72  O   UNL A   1      47.755  24.789  37.756  1.00  0.00    -0.744 OA
ENDBRANCH  68  69
ENDBRANCH  49  63
BRANCH  50  73
ATOM     73  C   UNL A   1      37.162  32.761  30.895  1.00  0.00    -0.014 A 
ATOM     74  C   UNL A   1      35.873  32.230  31.075  1.00  0.00     0.010 A 
ATOM     75  C   UNL A   1      37.330  33.868  30.043  1.00  0.00     0.010 A 
ATOM     76  C   UNL A   1      34.775  32.793  30.414  1.00  0.00     0.020 A 
ATOM     77  C   UNL A   1      36.233  34.454  29.405  1.00  0.00     0.020 A 
ATOM     78  C   UNL A   1      34.962  33.907  29.591  1.00  0.00     0.054 A 
BRANCH  78  79
ATOM     79  S   UNL A   1      33.512  34.669  28.807  1.00  0.00     0.124 S 
ATOM     80  O   UNL A   1      34.089  35.857  28.189  1.00  0.00    -0.237 OA
ATOM     81  O   UNL A   1      33.071  33.625  27.885  1.00  0.00    -0.237 OA
ATOM     82  O   UNL A   1      32.609  34.922  29.928  1.00  0.00    -0.744 OA
ENDBRANCH  78  79
ENDBRANCH  50  73
BRANCH  62  83
ATOM     83  C   UNL A   1      39.810  33.588  37.318  1.00  0.00    -0.014 A 
ATOM     84  C   UNL A   1      38.868  33.190  38.283  1.00  0.00     0.010 A 
ATOM     85  C   UNL A   1      40.466  34.824  37.475  1.00  0.00     0.010 A 
ATOM     86  C   UNL A   1      38.564  34.026  39.362  1.00  0.00     0.020 A 
ATOM     87  C   UNL A   1      40.189  35.647  38.570  1.00  0.00     0.020 A 
ATOM     88  C   UNL A   1      39.229  35.249  39.500  1.00  0.00     0.054 A 
BRANCH  88  89
ATOM     89  S   UNL A   1      38.845  36.297  40.930  1.00  0.00     0.124 S 
ATOM     90  O   UNL A   1      37.766  35.551  41.573  1.00  0.00    -0.237 OA
ATOM     91  O   UNL A   1      40.112  36.322  41.656  1.00  0.00    -0.237 OA
ATOM     92  O   UNL A   1      38.450  37.571  40.333  1.00  0.00    -0.744 OA
ENDBRANCH  88  89
ENDBRANCH  62  83
ENDBRANCH  36  37
ENDBRANCH  29  31
ENDBRANCH  28  29
ENDBRANCH  27  28
ENDBRANCH  26  27
ENDBRANCH  25  26
ENDBRANCH   1  25
TORSDOF 22
ENDMDL
MODEL 2
REMARK VINA RESULT:      -9.7      2.241      3.265
REMARK SMILES Cc1cccc(Nc2ccccc2C(=O)OCCOCCOCCOC(=O)c2ccc(-c3c4nc(c(-c5ccc(S(=O)(=O)[O-])cc5)c5ccc([nH]5)c(-c5ccc(S(=O)(=O)[O-])cc5)c5nc(c(-c6ccc(S(=O)(=O)[O-])cc6)c6ccc3[nH]6)C=C5)C=C4)cc2)c1C
REMARK SMILES IDX 21 1 20 2 19 3 18 4 17 5 16 6 14 7 15 8 13 9 8 10 9 11 10 12
REMARK SMILES IDX 12 13 11 14 7 15 6 17 1 18 2 19 3 20 88 21 4 22 89 23 5 24
REMARK SMILES IDX 22 25 23 26 24 27 25 28 26 29 27 30 28 31 29 32 87 33 30 34
REMARK SMILES IDX 86 35 31 36 32 37 33 38 80 39 34 40 85 41 79 42 81 43 35 44
REMARK SMILES IDX 84 45 78 46 77 47 36 49 66 50 47 51 65 52 48 53 51 54 64 55
REMARK SMILES IDX 82 56 49 57 50 58 63 60 83 61 52 62 37 63 38 64 46 65 39 66
REMARK SMILES IDX 45 67 40 68 41 69 42 70 43 71 44 72 67 73 68 74 76 75 69 76
REMARK SMILES IDX 75 77 70 78 71 79 72 80 73 81 74 82 53 83 54 84 62 85 55 86
REMARK SMILES IDX 61 87 56 88 57 89 58 90 59 91 60 92
REMARK H PARENT 7 16 81 48 51 59
REMARK Flexibility Score: inf
ROOT
ATOM      1  C   UNL A   1      41.548  19.112  26.016  1.00  0.00     0.188 C 
ENDROOT
BRANCH   1   2
ATOM      2  C   UNL A   1      41.398  20.255  27.050  1.00  0.00     0.188 C 
BRANCH   2   3
ATOM      3  O   UNL A   1      40.097  20.798  27.102  1.00  0.00    -0.376 OA
BRANCH   3   4
ATOM      4  C   UNL A   1      39.540  21.340  25.919  1.00  0.00     0.202 C 
BRANCH   4   5
ATOM      5  C   UNL A   1      38.242  20.814  25.282  1.00  0.00     0.261 C 
BRANCH   5   6
ATOM      6  O   UNL A   1      37.415  21.750  24.588  1.00  0.00    -0.460 OA
BRANCH   6   7
ATOM      7  C   UNL A   1      36.413  22.324  25.296  1.00  0.00     0.340 C 
ATOM      8  O   UNL A   1      36.560  23.142  26.192  1.00  0.00    -0.246 OA
BRANCH   7   9
ATOM      9  C   UNL A   1      35.079  21.981  24.718  1.00  0.00     0.083 A 
ATOM     10  C   UNL A   1      34.212  22.888  24.067  1.00  0.00     0.053 A 
ATOM     11  C   UNL A   1      32.960  22.399  23.633  1.00  0.00     0.027 A 
ATOM     12  C   UNL A   1      32.584  21.066  23.818  1.00  0.00     0.002 A 
ATOM     13  C   UNL A   1      34.688  20.639  24.902  1.00  0.00     0.018 A 
ATOM     14  C   UNL A   1      33.449  20.184  24.453  1.00  0.00     0.001 A 
BRANCH  10  15
ATOM     15  N   UNL A   1      34.508  24.221  23.703  1.00  0.00    -0.355 N 
ATOM     16  H   UNL A   1      35.212  24.310  23.020  1.00  0.00     0.167 HD
BRANCH  15  17
ATOM     17  C   UNL A   1      33.971  25.445  24.149  1.00  0.00     0.042 A 
ATOM     18  C   UNL A   1      33.365  28.963  22.828  1.00  0.00     0.044 C 
ATOM     19  C   UNL A   1      33.430  27.788  23.767  1.00  0.00    -0.046 A 
ATOM     20  C   UNL A   1      33.503  28.021  25.149  1.00  0.00     0.004 A 
ATOM     21  C   UNL A   1      33.550  26.470  23.272  1.00  0.00    -0.025 A 
ATOM     22  C   UNL A   1      33.750  26.975  26.032  1.00  0.00     0.002 A 
ATOM     23  C   UNL A   1      33.248  26.183  21.820  1.00  0.00     0.047 C 
ATOM     24  C   UNL A   1      34.021  25.706  25.530  1.00  0.00     0.026 A 
ENDBRANCH  15  17
ENDBRANCH  10  15
ENDBRANCH   7   9
ENDBRANCH   6   7
ENDBRANCH   5   6
ENDBRANCH   4   5
ENDBRANCH   3   4
ENDBRANCH   2   3
ENDBRANCH   1   2
BRANCH   1  25
ATOM     25  O   UNL A   1      42.530  19.187  24.992  1.00  0.00    -0.376 OA
BRANCH  25  26
ATOM     26  C   UNL A   1      43.894  19.313  25.363  1.00  0.00     0.202 C 
BRANCH  26  27
ATOM     27  C   UNL A   1      44.725  20.530  24.908  1.00  0.00     0.261 C 
BRANCH  27  28
ATOM     28  O   UNL A   1      44.528  21.757  25.635  1.00  0.00    -0.460 OA
BRANCH  28  29
ATOM     29  C   UNL A   1      43.905  22.757  24.960  1.00  0.00     0.338 C 
ATOM     30  O   UNL A   1      43.538  22.736  23.793  1.00  0.00    -0.246 OA
BRANCH  29  31
ATOM     31  C   UNL A   1      43.521  23.832  25.903  1.00  0.00     0.060 A 
ATOM     32  C   UNL A   1      44.089  25.106  25.744  1.00  0.00     0.016 A 
ATOM     33  C   UNL A   1      42.628  23.591  26.948  1.00  0.00     0.016 A 
ATOM     34  C   UNL A   1      43.779  26.139  26.631  1.00  0.00     0.010 A 
ATOM     35  C   UNL A   1      42.348  24.616  27.861  1.00  0.00     0.010 A 
ATOM     36  C   UNL A   1      42.944  25.885  27.724  1.00  0.00    -0.014 A 
BRANCH  36  37
ATOM     37  C   UNL A   1      42.860  26.873  28.829  1.00  0.00     0.031 A 
ATOM     38  C   UNL A   1      43.914  26.834  29.903  1.00  0.00     0.074 A 
ATOM     39  C   UNL A   1      41.880  27.793  28.882  1.00  0.00     0.049 A 
ATOM     40  N   UNL A   1      44.016  27.547  30.994  1.00  0.00    -0.248 NA
ATOM     41  C   UNL A   1      44.996  25.852  29.720  1.00  0.00     0.031 C 
ATOM     42  C   UNL A   1      40.827  27.969  27.885  1.00  0.00     0.029 A 
ATOM     43  N   UNL A   1      41.606  28.746  29.835  1.00  0.00    -0.354 N 
ATOM     44  C   UNL A   1      45.156  27.084  31.641  1.00  0.00     0.074 A 
ATOM     45  C   UNL A   1      45.699  26.017  30.830  1.00  0.00     0.031 C 
ATOM     46  C   UNL A   1      40.005  28.954  28.291  1.00  0.00     0.029 A 
ATOM     47  C   UNL A   1      40.452  29.451  29.592  1.00  0.00     0.049 A 
ATOM     48  H   UNL A   1      42.182  28.907  30.617  1.00  0.00     0.167 HD
ATOM     49  C   UNL A   1      45.699  27.504  32.808  1.00  0.00     0.031 A 
ATOM     50  C   UNL A   1      39.810  30.367  30.346  1.00  0.00     0.031 A 
ATOM     51  C   UNL A   1      45.146  28.555  33.622  1.00  0.00     0.049 A 
ATOM     52  C   UNL A   1      40.397  30.779  31.673  1.00  0.00     0.074 A 
ATOM     53  C   UNL A   1      45.641  29.076  34.805  1.00  0.00     0.029 A 
ATOM     54  N   UNL A   1      43.966  29.231  33.351  1.00  0.00    -0.354 N 
ATOM     55  N   UNL A   1      41.497  30.363  32.254  1.00  0.00    -0.248 NA
ATOM     56  C   UNL A   1      39.659  31.792  32.441  1.00  0.00     0.031 C 
ATOM     57  C   UNL A   1      44.723  30.014  35.287  1.00  0.00     0.029 A 
ATOM     58  C   UNL A   1      43.696  30.137  34.363  1.00  0.00     0.049 A 
ATOM     59  H   UNL A   1      43.403  29.089  32.555  1.00  0.00     0.167 HD
ATOM     60  C   UNL A   1      41.596  31.081  33.443  1.00  0.00     0.074 A 
ATOM     61  C   UNL A   1      40.453  31.969  33.490  1.00  0.00     0.031 C 
ATOM     62  C   UNL A   1      42.550  31.012  34.406  1.00  0.00     0.031 A 
BRANCH  49  63
ATOM     63  C   UNL A   1      46.926  26.783  33.304  1.00  0.00    -0.014 A 
ATOM     64  C   UNL A   1      46.837  25.689  34.184  1.00  0.00     0.010 A 
ATOM     65  C   UNL A   1      48.195  27.202  32.861  1.00  0.00     0.010 A 
ATOM     66  C   UNL A   1      47.996  25.059  34.648  1.00  0.00     0.020 A 
ATOM     67  C   UNL A   1      49.354  26.553  33.296  1.00  0.00     0.020 A 
ATOM     68  C   UNL A   1      49.246  25.497  34.203  1.00  0.00     0.054 A 
BRANCH  68  69
ATOM     69  S   UNL A   1      50.732  24.655  34.814  1.00  0.00     0.124 S 
ATOM     70  O   UNL A   1      50.866  25.216  36.157  1.00  0.00    -0.237 OA
ATOM     71  O   UNL A   1      50.345  23.247  34.758  1.00  0.00    -0.237 OA
ATOM     72  O   UNL A   1      51.771  25.050  33.868  1.00  0.00    -0.744 OA
ENDBRANCH  68  69
ENDBRANCH  49  63
BRANCH  50  73
ATOM     73  C   UNL A   1      38.516  30.935  29.873  1.00  0.00    -0.014 A 
ATOM     74  C   UNL A   1      37.298  30.284  30.139  1.00  0.00     0.010 A 
ATOM     75  C   UNL A   1      38.497  32.150  29.163  1.00  0.00     0.010 A 
ATOM     76  C   UNL A   1      36.089  30.836  29.702  1.00  0.00     0.020 A 
ATOM     77  C   UNL A   1      37.289  32.721  28.752  1.00  0.00     0.020 A 
ATOM     78  C   UNL A   1      36.092  32.055  29.019  1.00  0.00     0.054 A 
BRANCH  78  79
ATOM     79  S   UNL A   1      34.505  32.789  28.532  1.00  0.00     0.124 S 
ATOM     80  O   UNL A   1      33.941  33.179  29.820  1.00  0.00    -0.237 OA
ATOM     81  O   UNL A   1      34.923  33.889  27.665  1.00  0.00    -0.237 OA
ATOM     82  O   UNL A   1      33.815  31.696  27.851  1.00  0.00    -0.744 OA
ENDBRANCH  78  79
ENDBRANCH  50  73
BRANCH  62  83
ATOM     83  C   UNL A   1      42.427  31.948  35.585  1.00  0.00    -0.014 A 
ATOM     84  C   UNL A   1      41.766  31.563  36.764  1.00  0.00     0.010 A 
ATOM     85  C   UNL A   1      43.040  33.213  35.529  1.00  0.00     0.010 A 
ATOM     86  C   UNL A   1      41.692  32.439  37.853  1.00  0.00     0.020 A 
ATOM     87  C   UNL A   1      42.997  34.079  36.626  1.00  0.00     0.020 A 
ATOM     88  C   UNL A   1      42.310  33.691  37.777  1.00  0.00     0.054 A 
BRANCH  88  89
ATOM     89  S   UNL A   1      42.232  34.792  39.216  1.00  0.00     0.124 S 
ATOM     90  O   UNL A   1      43.220  35.812  38.873  1.00  0.00    -0.237 OA
ATOM     91  O   UNL A   1      40.840  35.237  39.203  1.00  0.00    -0.237 OA
ATOM     92  O   UNL A   1      42.594  33.928  40.336  1.00  0.00    -0.744 OA
ENDBRANCH  88  89
ENDBRANCH  62  83
ENDBRANCH  36  37
ENDBRANCH  29  31
ENDBRANCH  28  29
ENDBRANCH  27  28
ENDBRANCH  26  27
ENDBRANCH  25  26
ENDBRANCH   1  25
TORSDOF 22
ENDMDL
MODEL 3
REMARK VINA RESULT:      -9.6      5.152     12.890
REMARK SMILES Cc1cccc(Nc2ccccc2C(=O)OCCOCCOCCOC(=O)c2ccc(-c3c4nc(c(-c5ccc(S(=O)(=O)[O-])cc5)c5ccc([nH]5)c(-c5ccc(S(=O)(=O)[O-])cc5)c5nc(c(-c6ccc(S(=O)(=O)[O-])cc6)c6ccc3[nH]6)C=C5)C=C4)cc2)c1C
REMARK SMILES IDX 21 1 20 2 19 3 18 4 17 5 16 6 14 7 15 8 13 9 8 10 9 11 10 12
REMARK SMILES IDX 12 13 11 14 7 15 6 17 1 18 2 19 3 20 88 21 4 22 89 23 5 24
REMARK SMILES IDX 22 25 23 26 24 27 25 28 26 29 27 30 28 31 29 32 87 33 30 34
REMARK SMILES IDX 86 35 31 36 32 37 33 38 80 39 34 40 85 41 79 42 81 43 35 44
REMARK SMILES IDX 84 45 78 46 77 47 36 49 66 50 47 51 65 52 48 53 51 54 64 55
REMARK SMILES IDX 82 56 49 57 50 58 63 60 83 61 52 62 37 63 38 64 46 65 39 66
REMARK SMILES IDX 45 67 40 68 41 69 42 70 43 71 44 72 67 73 68 74 76 75 69 76
REMARK SMILES IDX 75 77 70 78 71 79 72 80 73 81 74 82 53 83 54 84 62 85 55 86
REMARK SMILES IDX 61 87 56 88 57 89 58 90 59 91 60 92
REMARK H PARENT 7 16 81 48 51 59
REMARK Flexibility Score: inf
ROOT
ATOM      1  C   UNL A   1      33.332  35.462  31.832  1.00  0.00     0.188 C 
ENDROOT
BRANCH   1   2
ATOM      2  C   UNL A   1      33.153  36.552  30.747  1.00  0.00     0.188 C 
BRANCH   2   3
ATOM      3  O   UNL A   1      32.603  36.062  29.544  1.00  0.00    -0.376 OA
BRANCH   3   4
ATOM      4  C   UNL A   1      33.096  34.842  29.021  1.00  0.00     0.202 C 
BRANCH   4   5
ATOM      5  C   UNL A   1      34.370  34.748  28.164  1.00  0.00     0.261 C 
BRANCH   5   6
ATOM      6  O   UNL A   1      35.608  34.508  28.837  1.00  0.00    -0.460 OA
BRANCH   6   7
ATOM      7  C   UNL A   1      36.186  33.298  28.643  1.00  0.00     0.340 C 
ATOM      8  O   UNL A   1      35.714  32.389  27.976  1.00  0.00    -0.246 OA
BRANCH   7   9
ATOM      9  C   UNL A   1      37.575  33.270  29.191  1.00  0.00     0.083 A 
ATOM     10  C   UNL A   1      38.187  32.158  29.812  1.00  0.00     0.053 A 
ATOM     11  C   UNL A   1      39.491  32.331  30.324  1.00  0.00     0.027 A 
ATOM     12  C   UNL A   1      40.172  33.546  30.215  1.00  0.00     0.002 A 
ATOM     13  C   UNL A   1      38.270  34.493  29.089  1.00  0.00     0.018 A 
ATOM     14  C   UNL A   1      39.561  34.629  29.596  1.00  0.00     0.001 A 
BRANCH  10  15
ATOM     15  N   UNL A   1      37.670  30.844  29.881  1.00  0.00    -0.355 N 
ATOM     16  H   UNL A   1      36.739  30.756  29.574  1.00  0.00     0.167 HD
BRANCH  15  17
ATOM     17  C   UNL A   1      38.258  29.638  30.313  1.00  0.00     0.042 A 
ATOM     18  C   UNL A   1      39.230  26.246  28.887  1.00  0.00     0.044 C 
ATOM     19  C   UNL A   1      39.001  27.363  29.871  1.00  0.00    -0.046 A 
ATOM     20  C   UNL A   1      38.831  27.052  31.228  1.00  0.00     0.004 A 
ATOM     21  C   UNL A   1      38.825  28.694  29.429  1.00  0.00    -0.025 A 
ATOM     22  C   UNL A   1      38.436  28.031  32.134  1.00  0.00     0.002 A 
ATOM     23  C   UNL A   1      39.224  29.078  28.024  1.00  0.00     0.047 C 
ATOM     24  C   UNL A   1      38.114  29.302  31.671  1.00  0.00     0.026 A 
ENDBRANCH  15  17
ENDBRANCH  10  15
ENDBRANCH   7   9
ENDBRANCH   6   7
ENDBRANCH   5   6
ENDBRANCH   4   5
ENDBRANCH   3   4
ENDBRANCH   2   3
ENDBRANCH   1   2
BRANCH   1  25
ATOM     25  O   UNL A   1      34.599  34.855  32.044  1.00  0.00    -0.376 OA
BRANCH  25  26
ATOM     26  C   UNL A   1      34.645  33.485  32.412  1.00  0.00     0.202 C 
BRANCH  26  27
ATOM     27  C   UNL A   1      35.986  32.809  32.765  1.00  0.00     0.261 C 
BRANCH  27  28
ATOM     28  O   UNL A   1      37.181  33.576  32.526  1.00  0.00    -0.460 OA
BRANCH  28  29
ATOM     29  C   UNL A   1      37.812  34.055  33.629  1.00  0.00     0.338 C 
ATOM     30  O   UNL A   1      37.438  34.970  34.349  1.00  0.00    -0.246 OA
BRANCH  29  31
ATOM     31  C   UNL A   1      38.938  33.161  33.986  1.00  0.00     0.060 A 
ATOM     32  C   UNL A   1      40.252  33.603  33.756  1.00  0.00     0.016 A 
ATOM     33  C   UNL A   1      38.712  31.893  34.522  1.00  0.00     0.016 A 
ATOM     34  C   UNL A   1      41.340  32.779  34.048  1.00  0.00     0.010 A 
ATOM     35  C   UNL A   1      39.802  31.052  34.778  1.00  0.00     0.010 A 
ATOM     36  C   UNL A   1      41.119  31.479  34.515  1.00  0.00    -0.014 A 
BRANCH  36  37
ATOM     37  C   UNL A   1      42.238  30.504  34.531  1.00  0.00     0.031 A 
ATOM     38  C   UNL A   1      42.547  29.753  33.263  1.00  0.00     0.074 A 
ATOM     39  C   UNL A   1      42.974  30.289  35.635  1.00  0.00     0.049 A 
ATOM     40  N   UNL A   1      43.429  28.811  33.048  1.00  0.00    -0.248 NA
ATOM     41  C   UNL A   1      41.749  30.113  32.079  1.00  0.00     0.031 C 
ATOM     42  C   UNL A   1      42.810  30.980  36.912  1.00  0.00     0.029 A 
ATOM     43  N   UNL A   1      44.002  29.405  35.860  1.00  0.00    -0.354 N 
ATOM     44  C   UNL A   1      43.274  28.448  31.715  1.00  0.00     0.074 A 
ATOM     45  C   UNL A   1      42.202  29.256  31.177  1.00  0.00     0.031 C 
ATOM     46  C   UNL A   1      43.691  30.477  37.795  1.00  0.00     0.029 A 
ATOM     47  C   UNL A   1      44.454  29.403  37.158  1.00  0.00     0.049 A 
ATOM     48  H   UNL A   1      44.380  28.827  35.158  1.00  0.00     0.167 HD
ATOM     49  C   UNL A   1      43.957  27.520  31.004  1.00  0.00     0.031 A 
ATOM     50  C   UNL A   1      45.353  28.607  37.772  1.00  0.00     0.031 A 
ATOM     51  C   UNL A   1      45.012  26.705  31.547  1.00  0.00     0.049 A 
ATOM     52  C   UNL A   1      46.061  27.537  36.979  1.00  0.00     0.074 A 
ATOM     53  C   UNL A   1      45.788  25.760  30.898  1.00  0.00     0.029 A 
ATOM     54  N   UNL A   1      45.426  26.721  32.870  1.00  0.00    -0.354 N 
ATOM     55  N   UNL A   1      45.934  27.230  35.709  1.00  0.00    -0.248 NA
ATOM     56  C   UNL A   1      47.040  26.712  37.700  1.00  0.00     0.031 C 
ATOM     57  C   UNL A   1      46.619  25.153  31.845  1.00  0.00     0.029 A 
ATOM     58  C   UNL A   1      46.419  25.776  33.067  1.00  0.00     0.049 A 
ATOM     59  H   UNL A   1      45.068  27.317  33.568  1.00  0.00     0.167 HD
ATOM     60  C   UNL A   1      46.835  26.195  35.475  1.00  0.00     0.074 A 
ATOM     61  C   UNL A   1      47.511  25.939  36.730  1.00  0.00     0.031 C 
ATOM     62  C   UNL A   1      47.082  25.520  34.324  1.00  0.00     0.031 A 
BRANCH  49  63
ATOM     63  C   UNL A   1      43.543  27.297  29.572  1.00  0.00    -0.014 A 
ATOM     64  C   UNL A   1      42.733  26.210  29.196  1.00  0.00     0.010 A 
ATOM     65  C   UNL A   1      43.960  28.211  28.585  1.00  0.00     0.010 A 
ATOM     66  C   UNL A   1      42.390  26.014  27.856  1.00  0.00     0.020 A 
ATOM     67  C   UNL A   1      43.590  28.037  27.249  1.00  0.00     0.020 A 
ATOM     68  C   UNL A   1      42.822  26.928  26.891  1.00  0.00     0.054 A 
BRANCH  68  69
ATOM     69  S   UNL A   1      42.353  26.654  25.160  1.00  0.00     0.124 S 
ATOM     70  O   UNL A   1      42.436  28.005  24.608  1.00  0.00    -0.237 OA
ATOM     71  O   UNL A   1      43.377  25.722  24.696  1.00  0.00    -0.237 OA
ATOM     72  O   UNL A   1      41.004  26.100  25.249  1.00  0.00    -0.744 OA
ENDBRANCH  68  69
ENDBRANCH  49  63
BRANCH  50  73
ATOM     73  C   UNL A   1      45.610  28.773  39.231  1.00  0.00    -0.014 A 
ATOM     74  C   UNL A   1      45.290  27.754  40.144  1.00  0.00     0.010 A 
ATOM     75  C   UNL A   1      46.198  29.959  39.711  1.00  0.00     0.010 A 
ATOM     76  C   UNL A   1      45.551  27.918  41.510  1.00  0.00     0.020 A 
ATOM     77  C   UNL A   1      46.489  30.115  41.069  1.00  0.00     0.020 A 
ATOM     78  C   UNL A   1      46.157  29.094  41.961  1.00  0.00     0.054 A 
BRANCH  78  79
ATOM     79  S   UNL A   1      46.557  29.250  43.725  1.00  0.00     0.124 S 
ATOM     80  O   UNL A   1      46.293  27.903  44.218  1.00  0.00    -0.237 OA
ATOM     81  O   UNL A   1      47.962  29.649  43.693  1.00  0.00    -0.237 OA
ATOM     82  O   UNL A   1      45.635  30.281  44.197  1.00  0.00    -0.744 OA
ENDBRANCH  78  79
ENDBRANCH  50  73
BRANCH  62  83
ATOM     83  C   UNL A   1      48.155  24.459  34.347  1.00  0.00    -0.014 A 
ATOM     84  C   UNL A   1      47.874  23.137  34.735  1.00  0.00     0.010 A 
ATOM     85  C   UNL A   1      49.454  24.779  33.910  1.00  0.00     0.010 A 
ATOM     86  C   UNL A   1      48.881  22.166  34.720  1.00  0.00     0.020 A 
ATOM     87  C   UNL A   1      50.454  23.804  33.862  1.00  0.00     0.020 A 
ATOM     88  C   UNL A   1      50.164  22.506  34.281  1.00  0.00     0.054 A 
BRANCH  88  89
ATOM     89  S   UNL A   1      51.441  21.218  34.234  1.00  0.00     0.124 S 
ATOM     90  O   UNL A   1      52.371  21.674  35.263  1.00  0.00    -0.237 OA
ATOM     91  O   UNL A   1      50.688  20.009  34.558  1.00  0.00    -0.237 OA
ATOM     92  O   UNL A   1      51.948  21.281  32.865  1.00  0.00    -0.744 OA
ENDBRANCH  88  89
ENDBRANCH  62  83
ENDBRANCH  36  37
ENDBRANCH  29  31
ENDBRANCH  28  29
ENDBRANCH  27  28
ENDBRANCH  26  27
ENDBRANCH  25  26
ENDBRANCH   1  25
TORSDOF 22
ENDMDL
