MODEL 1
REMARK VINA RESULT:      -9.8      0.000      0.000
REMARK SMILES C[C@H](NC(=O)c1cccc(NC(=O)c2ccccc2C(=O)OCCOCCOCCOC(=O)c2ccc(-c3c4nc(c(-c5ccc(S(=O)(=O)[O-])cc5)c5ccc([nH]5)c(-c5ccc(S(=O)(=O)[O-])cc5)c5nc(c(-c6ccc(S(=O)(=O)[O-])cc6)c6ccc3[nH]6)C=C5)C=C4)cc2)c1)c1ccccc1
REMARK SMILES IDX 26 1 25 2 24 3 23 4 22 5 20 6 21 7 19 8 14 9 15 10 16 11
REMARK SMILES IDX 18 12 17 13 12 14 11 15 13 17 10 18 6 19 7 20 94 21 8 22
REMARK SMILES IDX 9 23 4 24 3 25 5 27 2 28 1 29 95 30 96 31 100 32 97 33 99 34
REMARK SMILES IDX 98 35 27 36 28 37 29 38 30 39 31 40 32 41 33 42 34 43 35 44
REMARK SMILES IDX 93 45 36 46 92 47 37 48 38 49 39 50 86 51 40 52 91 53 85 54
REMARK SMILES IDX 87 55 41 56 90 57 84 58 83 59 42 61 72 62 53 63 71 64 54 65
REMARK SMILES IDX 57 66 70 67 88 68 55 69 56 70 69 72 89 73 58 74 43 75 44 76
REMARK SMILES IDX 52 77 45 78 51 79 46 80 47 81 48 82 49 83 50 84 73 85 74 86
REMARK SMILES IDX 82 87 75 88 81 89 76 90 77 91 78 92 79 93 80 94 59 95 60 96
REMARK SMILES IDX 68 97 61 98 67 99 62 100 63 101 64 102 65 103 66 104
REMARK H PARENT 11 16 3 26 87 60 57 71
REMARK Flexibility Score: inf
ROOT
ATOM      1  C   UNL A   1      37.987  24.037  26.638  1.00  0.00     0.188 C 
ENDROOT
BRANCH   1   2
ATOM      2  O   UNL A   1      37.775  23.949  25.241  1.00  0.00    -0.376 OA
BRANCH   2   3
ATOM      3  C   UNL A   1      36.462  23.722  24.788  1.00  0.00     0.202 C 
BRANCH   3   4
ATOM      4  C   UNL A   1      35.254  24.323  25.517  1.00  0.00     0.261 C 
BRANCH   4   5
ATOM      5  O   UNL A   1      34.840  25.659  25.303  1.00  0.00    -0.460 OA
BRANCH   5   6
ATOM      6  C   UNL A   1      34.151  25.878  24.169  1.00  0.00     0.339 C 
ATOM      7  O   UNL A   1      34.116  25.177  23.181  1.00  0.00    -0.246 OA
BRANCH   6   8
ATOM      8  C   UNL A   1      33.305  27.062  24.385  1.00  0.00     0.072 A 
ATOM      9  C   UNL A   1      32.016  27.230  23.849  1.00  0.00     0.054 A 
ATOM     10  C   UNL A   1      31.385  28.472  24.064  1.00  0.00     0.015 A 
ATOM     11  C   UNL A   1      31.995  29.484  24.818  1.00  0.00     0.001 A 
ATOM     12  C   UNL A   1      33.908  28.073  25.156  1.00  0.00     0.016 A 
ATOM     13  C   UNL A   1      33.254  29.280  25.372  1.00  0.00     0.001 A 
BRANCH   9  14
ATOM     14  C   UNL A   1      31.271  26.274  22.970  1.00  0.00     0.256 C 
ATOM     15  N   UNL A   1      30.801  25.018  23.321  1.00  0.00    -0.322 N 
ATOM     16  H   UNL A   1      30.441  24.511  22.558  1.00  0.00     0.170 HD
ATOM     17  O   UNL A   1      31.070  26.635  21.804  1.00  0.00    -0.269 OA
BRANCH  15  18
ATOM     18  C   UNL A   1      30.730  24.316  24.538  1.00  0.00     0.042 A 
ATOM     19  C   UNL A   1      31.901  22.890  26.147  1.00  0.00     0.041 A 
ATOM     20  C   UNL A   1      30.970  23.302  27.116  1.00  0.00     0.014 A 
ATOM     21  C   UNL A   1      31.745  23.374  24.837  1.00  0.00     0.040 A 
ATOM     22  C   UNL A   1      29.879  24.103  26.778  1.00  0.00     0.003 A 
ATOM     23  C   UNL A   1      29.737  24.572  25.477  1.00  0.00     0.026 A 
BRANCH  19  24
ATOM     24  C   UNL A   1      32.899  21.875  26.612  1.00  0.00     0.251 C 
ATOM     25  N   UNL A   1      33.163  20.645  26.050  1.00  0.00    -0.346 N 
ATOM     26  H   UNL A   1      33.985  20.239  26.408  1.00  0.00     0.164 HD
ATOM     27  O   UNL A   1      33.612  22.203  27.566  1.00  0.00    -0.269 OA
BRANCH  25  28
ATOM     28  C   UNL A   1      32.517  19.806  25.055  1.00  0.00     0.109 C 
ATOM     29  C   UNL A   1      32.663  20.328  23.656  1.00  0.00     0.036 C 
BRANCH  28  30
ATOM     30  C   UNL A   1      33.056  18.381  24.965  1.00  0.00    -0.026 A 
ATOM     31  C   UNL A   1      33.770  17.947  23.833  1.00  0.00     0.006 A 
ATOM     32  C   UNL A   1      32.554  17.415  25.854  1.00  0.00     0.006 A 
ATOM     33  C   UNL A   1      33.911  16.582  23.565  1.00  0.00     0.000 A 
ATOM     34  C   UNL A   1      32.704  16.054  25.587  1.00  0.00     0.000 A 
ATOM     35  C   UNL A   1      33.366  15.638  24.434  1.00  0.00     0.000 A 
ENDBRANCH  28  30
ENDBRANCH  25  28
ENDBRANCH  19  24
ENDBRANCH  15  18
ENDBRANCH   9  14
ENDBRANCH   6   8
ENDBRANCH   5   6
ENDBRANCH   4   5
ENDBRANCH   3   4
ENDBRANCH   2   3
ENDBRANCH   1   2
BRANCH   1  36
ATOM     36  C   UNL A   1      39.122  24.950  27.167  1.00  0.00     0.188 C 
BRANCH  36  37
ATOM     37  O   UNL A   1      40.370  24.701  26.543  1.00  0.00    -0.376 OA
BRANCH  37  38
ATOM     38  C   UNL A   1      40.926  25.758  25.780  1.00  0.00     0.202 C 
BRANCH  38  39
ATOM     39  C   UNL A   1      42.396  25.699  25.312  1.00  0.00     0.261 C 
BRANCH  39  40
ATOM     40  O   UNL A   1      43.363  25.103  26.191  1.00  0.00    -0.460 OA
BRANCH  40  41
ATOM     41  C   UNL A   1      44.346  25.882  26.706  1.00  0.00     0.338 C 
ATOM     42  O   UNL A   1      45.436  26.096  26.208  1.00  0.00    -0.246 OA
BRANCH  41  43
ATOM     43  C   UNL A   1      43.760  26.638  27.847  1.00  0.00     0.060 A 
ATOM     44  C   UNL A   1      43.956  28.029  27.919  1.00  0.00     0.016 A 
ATOM     45  C   UNL A   1      42.912  26.007  28.762  1.00  0.00     0.016 A 
ATOM     46  C   UNL A   1      43.308  28.785  28.903  1.00  0.00     0.010 A 
ATOM     47  C   UNL A   1      42.303  26.758  29.775  1.00  0.00     0.010 A 
ATOM     48  C   UNL A   1      42.517  28.146  29.866  1.00  0.00    -0.014 A 
BRANCH  48  49
ATOM     49  C   UNL A   1      42.149  28.864  31.116  1.00  0.00     0.031 A 
ATOM     50  C   UNL A   1      40.917  29.729  31.070  1.00  0.00     0.074 A 
ATOM     51  C   UNL A   1      42.867  28.771  32.252  1.00  0.00     0.049 A 
ATOM     52  N   UNL A   1      40.417  30.516  31.986  1.00  0.00    -0.248 NA
ATOM     53  C   UNL A   1      40.145  29.701  29.814  1.00  0.00     0.031 C 
ATOM     54  C   UNL A   1      44.052  27.938  32.449  1.00  0.00     0.029 A 
ATOM     55  N   UNL A   1      42.701  29.409  33.460  1.00  0.00    -0.354 N 
ATOM     56  C   UNL A   1      39.290  31.092  31.410  1.00  0.00     0.074 A 
ATOM     57  C   UNL A   1      39.185  30.577  30.064  1.00  0.00     0.031 C 
ATOM     58  C   UNL A   1      44.520  28.133  33.697  1.00  0.00     0.029 A 
ATOM     59  C   UNL A   1      43.691  29.131  34.376  1.00  0.00     0.049 A 
ATOM     60  H   UNL A   1      41.945  30.008  33.653  1.00  0.00     0.167 HD
ATOM     61  C   UNL A   1      38.418  31.973  31.951  1.00  0.00     0.031 A 
ATOM     62  C   UNL A   1      43.918  29.646  35.604  1.00  0.00     0.031 A 
ATOM     63  C   UNL A   1      38.529  32.497  33.284  1.00  0.00     0.049 A 
ATOM     64  C   UNL A   1      42.969  30.684  36.159  1.00  0.00     0.074 A 
ATOM     65  C   UNL A   1      37.678  33.376  33.931  1.00  0.00     0.029 A 
ATOM     66  N   UNL A   1      39.554  32.204  34.169  1.00  0.00    -0.354 N 
ATOM     67  N   UNL A   1      41.883  31.187  35.620  1.00  0.00    -0.248 NA
ATOM     68  C   UNL A   1      43.273  31.220  37.496  1.00  0.00     0.031 C 
ATOM     69  C   UNL A   1      38.228  33.670  35.181  1.00  0.00     0.029 A 
ATOM     70  C   UNL A   1      39.376  32.913  35.345  1.00  0.00     0.049 A 
ATOM     71  H   UNL A   1      40.298  31.585  33.988  1.00  0.00     0.167 HD
ATOM     72  C   UNL A   1      41.359  32.067  36.564  1.00  0.00     0.074 A 
ATOM     73  C   UNL A   1      42.236  32.018  37.713  1.00  0.00     0.031 C 
ATOM     74  C   UNL A   1      40.250  32.845  36.488  1.00  0.00     0.031 A 
BRANCH  61  75
ATOM     75  C   UNL A   1      37.288  32.463  31.086  1.00  0.00    -0.014 A 
ATOM     76  C   UNL A   1      37.488  33.465  30.120  1.00  0.00     0.010 A 
ATOM     77  C   UNL A   1      36.022  31.861  31.200  1.00  0.00     0.010 A 
ATOM     78  C   UNL A   1      36.435  33.867  29.294  1.00  0.00     0.020 A 
ATOM     79  C   UNL A   1      34.975  32.240  30.357  1.00  0.00     0.020 A 
ATOM     80  C   UNL A   1      35.187  33.247  29.413  1.00  0.00     0.054 A 
BRANCH  80  81
ATOM     81  S   UNL A   1      33.859  33.745  28.284  1.00  0.00     0.124 S 
ATOM     82  O   UNL A   1      34.554  34.667  27.388  1.00  0.00    -0.237 OA
ATOM     83  O   UNL A   1      33.457  32.473  27.688  1.00  0.00    -0.237 OA
ATOM     84  O   UNL A   1      32.867  34.360  29.161  1.00  0.00    -0.744 OA
ENDBRANCH  80  81
ENDBRANCH  61  75
BRANCH  62  85
ATOM     85  C   UNL A   1      45.118  29.230  36.391  1.00  0.00    -0.014 A 
ATOM     86  C   UNL A   1      46.361  29.862  36.207  1.00  0.00     0.010 A 
ATOM     87  C   UNL A   1      45.030  28.158  37.298  1.00  0.00     0.010 A 
ATOM     88  C   UNL A   1      47.497  29.412  36.891  1.00  0.00     0.020 A 
ATOM     89  C   UNL A   1      46.155  27.727  38.009  1.00  0.00     0.020 A 
ATOM     90  C   UNL A   1      47.386  28.346  37.788  1.00  0.00     0.054 A 
BRANCH  90  91
ATOM     91  S   UNL A   1      48.865  27.797  38.684  1.00  0.00     0.124 S 
ATOM     92  O   UNL A   1      49.907  27.950  37.673  1.00  0.00    -0.237 OA
ATOM     93  O   UNL A   1      48.924  28.738  39.800  1.00  0.00    -0.237 OA
ATOM     94  O   UNL A   1      48.551  26.420  39.055  1.00  0.00    -0.744 OA
ENDBRANCH  90  91
ENDBRANCH  62  85
BRANCH  74  95
ATOM     95  C   UNL A   1      39.880  33.669  37.696  1.00  0.00    -0.014 A 
ATOM     96  C   UNL A   1      39.063  33.154  38.718  1.00  0.00     0.010 A 
ATOM     97  C   UNL A   1      40.422  34.960  37.841  1.00  0.00     0.010 A 
ATOM     98  C   UNL A   1      38.768  33.929  39.844  1.00  0.00     0.020 A 
ATOM     99  C   UNL A   1      40.159  35.723  38.980  1.00  0.00     0.020 A 
ATOM    100  C   UNL A   1      39.319  35.208  39.969  1.00  0.00     0.054 A 
BRANCH 100 101
ATOM    101  S   UNL A   1      38.957  36.174  41.461  1.00  0.00     0.124 S 
ATOM    102  O   UNL A   1      40.162  35.967  42.258  1.00  0.00    -0.237 OA
ATOM    103  O   UNL A   1      38.776  37.523  40.932  1.00  0.00    -0.237 OA
ATOM    104  O   UNL A   1      37.745  35.552  41.992  1.00  0.00    -0.744 OA
ENDBRANCH 100 101
ENDBRANCH  74  95
ENDBRANCH  48  49
ENDBRANCH  41  43
ENDBRANCH  40  41
ENDBRANCH  39  40
ENDBRANCH  38  39
ENDBRANCH  37  38
ENDBRANCH  36  37
ENDBRANCH   1  36
TORSDOF 25
ENDMDL
MODEL 2
REMARK VINA RESULT:      -9.3      5.687      9.295
REMARK SMILES C[C@H](NC(=O)c1cccc(NC(=O)c2ccccc2C(=O)OCCOCCOCCOC(=O)c2ccc(-c3c4nc(c(-c5ccc(S(=O)(=O)[O-])cc5)c5ccc([nH]5)c(-c5ccc(S(=O)(=O)[O-])cc5)c5nc(c(-c6ccc(S(=O)(=O)[O-])cc6)c6ccc3[nH]6)C=C5)C=C4)cc2)c1)c1ccccc1
REMARK SMILES IDX 26 1 25 2 24 3 23 4 22 5 20 6 21 7 19 8 14 9 15 10 16 11
REMARK SMILES IDX 18 12 17 13 12 14 11 15 13 17 10 18 6 19 7 20 94 21 8 22
REMARK SMILES IDX 9 23 4 24 3 25 5 27 2 28 1 29 95 30 96 31 100 32 97 33 99 34
REMARK SMILES IDX 98 35 27 36 28 37 29 38 30 39 31 40 32 41 33 42 34 43 35 44
REMARK SMILES IDX 93 45 36 46 92 47 37 48 38 49 39 50 86 51 40 52 91 53 85 54
REMARK SMILES IDX 87 55 41 56 90 57 84 58 83 59 42 61 72 62 53 63 71 64 54 65
REMARK SMILES IDX 57 66 70 67 88 68 55 69 56 70 69 72 89 73 58 74 43 75 44 76
REMARK SMILES IDX 52 77 45 78 51 79 46 80 47 81 48 82 49 83 50 84 73 85 74 86
REMARK SMILES IDX 82 87 75 88 81 89 76 90 77 91 78 92 79 93 80 94 59 95 60 96
REMARK SMILES IDX 68 97 61 98 67 99 62 100 63 101 64 102 65 103 66 104
REMARK H PARENT 11 16 3 26 87 60 57 71
REMARK Flexibility Score: inf
ROOT
ATOM      1  C   UNL A   1      41.007  23.887  27.713  1.00  0.00     0.188 C 
ENDROOT
BRANCH   1   2
ATOM      2  O   UNL A   1      40.314  22.738  27.261  1.00  0.00    -0.376 OA
BRANCH   2   3
ATOM      3  C   UNL A   1      39.160  22.931  26.476  1.00  0.00     0.202 C 
BRANCH   3   4
ATOM      4  C   UNL A   1      38.496  21.762  25.739  1.00  0.00     0.261 C 
BRANCH   4   5
ATOM      5  O   UNL A   1      37.132  21.435  25.929  1.00  0.00    -0.460 OA
BRANCH   5   6
ATOM      6  C   UNL A   1      36.323  21.692  24.886  1.00  0.00     0.339 C 
ATOM      7  O   UNL A   1      36.597  22.302  23.874  1.00  0.00    -0.246 OA
BRANCH   6   8
ATOM      8  C   UNL A   1      35.065  20.965  25.110  1.00  0.00     0.072 A 
ATOM      9  C   UNL A   1      34.020  21.414  25.937  1.00  0.00     0.054 A 
ATOM     10  C   UNL A   1      32.928  20.543  26.127  1.00  0.00     0.015 A 
ATOM     11  C   UNL A   1      32.861  19.299  25.485  1.00  0.00     0.001 A 
ATOM     12  C   UNL A   1      34.987  19.723  24.452  1.00  0.00     0.016 A 
ATOM     13  C   UNL A   1      33.888  18.893  24.640  1.00  0.00     0.001 A 
BRANCH   9  14
ATOM     14  C   UNL A   1      33.983  22.677  26.739  1.00  0.00     0.256 C 
ATOM     15  N   UNL A   1      33.395  23.877  26.370  1.00  0.00    -0.322 N 
ATOM     16  H   UNL A   1      33.586  24.613  26.997  1.00  0.00     0.170 HD
ATOM     17  O   UNL A   1      34.551  22.653  27.838  1.00  0.00    -0.269 OA
BRANCH  15  18
ATOM     18  C   UNL A   1      32.580  24.265  25.291  1.00  0.00     0.042 A 
ATOM     19  C   UNL A   1      32.474  25.346  23.097  1.00  0.00     0.041 A 
ATOM     20  C   UNL A   1      31.272  24.656  22.869  1.00  0.00     0.014 A 
ATOM     21  C   UNL A   1      33.105  25.177  24.340  1.00  0.00     0.040 A 
ATOM     22  C   UNL A   1      30.678  23.886  23.869  1.00  0.00     0.003 A 
ATOM     23  C   UNL A   1      31.313  23.729  25.096  1.00  0.00     0.026 A 
BRANCH  19  24
ATOM     24  C   UNL A   1      32.886  26.288  22.007  1.00  0.00     0.251 C 
ATOM     25  N   UNL A   1      32.712  27.654  21.974  1.00  0.00    -0.346 N 
ATOM     26  H   UNL A   1      33.229  28.080  21.253  1.00  0.00     0.164 HD
ATOM     27  O   UNL A   1      33.509  25.794  21.062  1.00  0.00    -0.269 OA
BRANCH  25  28
ATOM     28  C   UNL A   1      31.946  28.615  22.749  1.00  0.00     0.109 C 
ATOM     29  C   UNL A   1      30.467  28.366  22.704  1.00  0.00     0.036 C 
BRANCH  28  30
ATOM     30  C   UNL A   1      32.261  28.638  24.242  1.00  0.00    -0.026 A 
ATOM     31  C   UNL A   1      33.583  28.773  24.702  1.00  0.00     0.006 A 
ATOM     32  C   UNL A   1      31.278  28.189  25.142  1.00  0.00     0.006 A 
ATOM     33  C   UNL A   1      33.922  28.399  26.006  1.00  0.00     0.000 A 
ATOM     34  C   UNL A   1      31.619  27.824  26.446  1.00  0.00     0.000 A 
ATOM     35  C   UNL A   1      32.943  27.912  26.870  1.00  0.00     0.000 A 
ENDBRANCH  28  30
ENDBRANCH  25  28
ENDBRANCH  19  24
ENDBRANCH  15  18
ENDBRANCH   9  14
ENDBRANCH   6   8
ENDBRANCH   5   6
ENDBRANCH   4   5
ENDBRANCH   3   4
ENDBRANCH   2   3
ENDBRANCH   1   2
BRANCH   1  36
ATOM     36  C   UNL A   1      40.594  25.275  27.162  1.00  0.00     0.188 C 
BRANCH  36  37
ATOM     37  O   UNL A   1      39.761  25.999  28.051  1.00  0.00    -0.376 OA
BRANCH  37  38
ATOM     38  C   UNL A   1      39.406  27.316  27.666  1.00  0.00     0.202 C 
BRANCH  38  39
ATOM     39  C   UNL A   1      39.628  28.502  28.629  1.00  0.00     0.261 C 
BRANCH  39  40
ATOM     40  O   UNL A   1      38.530  29.398  28.864  1.00  0.00    -0.460 OA
BRANCH  40  41
ATOM     41  C   UNL A   1      38.179  29.680  30.142  1.00  0.00     0.338 C 
ATOM     42  O   UNL A   1      37.442  29.022  30.853  1.00  0.00    -0.246 OA
BRANCH  41  43
ATOM     43  C   UNL A   1      39.058  30.787  30.610  1.00  0.00     0.060 A 
ATOM     44  C   UNL A   1      40.321  30.478  31.148  1.00  0.00     0.016 A 
ATOM     45  C   UNL A   1      38.702  32.122  30.395  1.00  0.00     0.016 A 
ATOM     46  C   UNL A   1      41.222  31.500  31.471  1.00  0.00     0.010 A 
ATOM     47  C   UNL A   1      39.586  33.144  30.764  1.00  0.00     0.010 A 
ATOM     48  C   UNL A   1      40.840  32.839  31.326  1.00  0.00    -0.014 A 
BRANCH  48  49
ATOM     49  C   UNL A   1      41.614  33.907  32.014  1.00  0.00     0.031 A 
ATOM     50  C   UNL A   1      41.480  33.990  33.513  1.00  0.00     0.074 A 
ATOM     51  C   UNL A   1      42.402  34.780  31.357  1.00  0.00     0.049 A 
ATOM     52  N   UNL A   1      41.979  34.865  34.346  1.00  0.00    -0.248 NA
ATOM     53  C   UNL A   1      40.667  32.942  34.156  1.00  0.00     0.031 C 
ATOM     54  C   UNL A   1      42.657  34.785  29.918  1.00  0.00     0.029 A 
ATOM     55  N   UNL A   1      43.127  35.850  31.830  1.00  0.00    -0.354 N 
ATOM     56  C   UNL A   1      41.523  34.485  35.604  1.00  0.00     0.074 A 
ATOM     57  C   UNL A   1      40.698  33.313  35.425  1.00  0.00     0.031 C 
ATOM     58  C   UNL A   1      43.463  35.824  29.622  1.00  0.00     0.029 A 
ATOM     59  C   UNL A   1      43.752  36.578  30.842  1.00  0.00     0.049 A 
ATOM     60  H   UNL A   1      43.193  36.075  32.786  1.00  0.00     0.167 HD
ATOM     61  C   UNL A   1      41.767  35.061  36.803  1.00  0.00     0.031 A 
ATOM     62  C   UNL A   1      44.446  37.734  30.913  1.00  0.00     0.031 A 
ATOM     63  C   UNL A   1      42.576  36.235  36.980  1.00  0.00     0.049 A 
ATOM     64  C   UNL A   1      44.645  38.399  32.257  1.00  0.00     0.074 A 
ATOM     65  C   UNL A   1      42.903  36.878  38.162  1.00  0.00     0.029 A 
ATOM     66  N   UNL A   1      43.174  36.949  35.955  1.00  0.00    -0.354 N 
ATOM     67  N   UNL A   1      44.245  38.004  33.444  1.00  0.00    -0.248 NA
ATOM     68  C   UNL A   1      45.399  39.662  32.273  1.00  0.00     0.031 C 
ATOM     69  C   UNL A   1      43.639  38.022  37.843  1.00  0.00     0.029 A 
ATOM     70  C   UNL A   1      43.839  38.047  36.473  1.00  0.00     0.049 A 
ATOM     71  H   UNL A   1      43.131  36.712  35.000  1.00  0.00     0.167 HD
ATOM     72  C   UNL A   1      44.728  38.950  34.345  1.00  0.00     0.074 A 
ATOM     73  C   UNL A   1      45.463  39.927  33.571  1.00  0.00     0.031 C 
ATOM     74  C   UNL A   1      44.578  39.006  35.692  1.00  0.00     0.031 A 
BRANCH  61  75
ATOM     75  C   UNL A   1      41.116  34.456  38.017  1.00  0.00    -0.014 A 
ATOM     76  C   UNL A   1      39.803  34.794  38.389  1.00  0.00     0.010 A 
ATOM     77  C   UNL A   1      41.811  33.482  38.758  1.00  0.00     0.010 A 
ATOM     78  C   UNL A   1      39.203  34.181  39.491  1.00  0.00     0.020 A 
ATOM     79  C   UNL A   1      41.204  32.846  39.843  1.00  0.00     0.020 A 
ATOM     80  C   UNL A   1      39.904  33.205  40.207  1.00  0.00     0.054 A 
BRANCH  80  81
ATOM     81  S   UNL A   1      39.075  32.380  41.592  1.00  0.00     0.124 S 
ATOM     82  O   UNL A   1      40.197  32.076  42.478  1.00  0.00    -0.237 OA
ATOM     83  O   UNL A   1      38.157  33.410  42.071  1.00  0.00    -0.237 OA
ATOM     84  O   UNL A   1      38.439  31.219  40.976  1.00  0.00    -0.744 OA
ENDBRANCH  80  81
ENDBRANCH  61  75
BRANCH  62  85
ATOM     85  C   UNL A   1      44.977  38.377  29.674  1.00  0.00    -0.014 A 
ATOM     86  C   UNL A   1      44.212  39.317  28.959  1.00  0.00     0.010 A 
ATOM     87  C   UNL A   1      46.240  38.010  29.173  1.00  0.00     0.010 A 
ATOM     88  C   UNL A   1      44.686  39.854  27.756  1.00  0.00     0.020 A 
ATOM     89  C   UNL A   1      46.732  38.569  27.990  1.00  0.00     0.020 A 
ATOM     90  C   UNL A   1      45.944  39.475  27.279  1.00  0.00     0.054 A 
BRANCH  90  91
ATOM     91  S   UNL A   1      46.550  40.205  25.731  1.00  0.00     0.124 S 
ATOM     92  O   UNL A   1      45.305  40.544  25.048  1.00  0.00    -0.237 OA
ATOM     93  O   UNL A   1      47.340  41.338  26.206  1.00  0.00    -0.237 OA
ATOM     94  O   UNL A   1      47.323  39.125  25.122  1.00  0.00    -0.744 OA
ENDBRANCH  90  91
ENDBRANCH  62  85
BRANCH  74  95
ATOM     95  C   UNL A   1      45.265  40.125  36.435  1.00  0.00    -0.014 A 
ATOM     96  C   UNL A   1      44.608  41.336  36.717  1.00  0.00     0.010 A 
ATOM     97  C   UNL A   1      46.571  39.928  36.921  1.00  0.00     0.010 A 
ATOM     98  C   UNL A   1      45.258  42.341  37.441  1.00  0.00     0.020 A 
ATOM     99  C   UNL A   1      47.211  40.915  37.674  1.00  0.00     0.020 A 
ATOM    100  C   UNL A   1      46.555  42.123  37.917  1.00  0.00     0.054 A 
BRANCH 100 101
ATOM    101  S   UNL A   1      47.359  43.425  38.891  1.00  0.00     0.124 S 
ATOM    102  O   UNL A   1      47.173  44.598  38.043  1.00  0.00    -0.237 OA
ATOM    103  O   UNL A   1      46.590  43.417  40.132  1.00  0.00    -0.237 OA
ATOM    104  O   UNL A   1      48.740  42.961  39.018  1.00  0.00    -0.744 OA
ENDBRANCH 100 101
ENDBRANCH  74  95
ENDBRANCH  48  49
ENDBRANCH  41  43
ENDBRANCH  40  41
ENDBRANCH  39  40
ENDBRANCH  38  39
ENDBRANCH  37  38
ENDBRANCH  36  37
ENDBRANCH   1  36
TORSDOF 25
ENDMDL
MODEL 3
REMARK VINA RESULT:      -9.2      4.786      8.779
REMARK SMILES C[C@H](NC(=O)c1cccc(NC(=O)c2ccccc2C(=O)OCCOCCOCCOC(=O)c2ccc(-c3c4nc(c(-c5ccc(S(=O)(=O)[O-])cc5)c5ccc([nH]5)c(-c5ccc(S(=O)(=O)[O-])cc5)c5nc(c(-c6ccc(S(=O)(=O)[O-])cc6)c6ccc3[nH]6)C=C5)C=C4)cc2)c1)c1ccccc1
REMARK SMILES IDX 26 1 25 2 24 3 23 4 22 5 20 6 21 7 19 8 14 9 15 10 16 11
REMARK SMILES IDX 18 12 17 13 12 14 11 15 13 17 10 18 6 19 7 20 94 21 8 22
REMARK SMILES IDX 9 23 4 24 3 25 5 27 2 28 1 29 95 30 96 31 100 32 97 33 99 34
REMARK SMILES IDX 98 35 27 36 28 37 29 38 30 39 31 40 32 41 33 42 34 43 35 44
REMARK SMILES IDX 93 45 36 46 92 47 37 48 38 49 39 50 86 51 40 52 91 53 85 54
REMARK SMILES IDX 87 55 41 56 90 57 84 58 83 59 42 61 72 62 53 63 71 64 54 65
REMARK SMILES IDX 57 66 70 67 88 68 55 69 56 70 69 72 89 73 58 74 43 75 44 76
REMARK SMILES IDX 52 77 45 78 51 79 46 80 47 81 48 82 49 83 50 84 73 85 74 86
REMARK SMILES IDX 82 87 75 88 81 89 76 90 77 91 78 92 79 93 80 94 59 95 60 96
REMARK SMILES IDX 68 97 61 98 67 99 62 100 63 101 64 102 65 103 66 104
REMARK H PARENT 11 16 3 26 87 60 57 71
REMARK Flexibility Score: inf
ROOT
ATOM      1  C   UNL A   1      40.108  24.380  27.657  1.00  0.00     0.188 C 
ENDROOT
BRANCH   1   2
ATOM      2  O   UNL A   1      39.385  23.419  26.910  1.00  0.00    -0.376 OA
BRANCH   2   3
ATOM      3  C   UNL A   1      38.113  23.782  26.427  1.00  0.00     0.202 C 
BRANCH   3   4
ATOM      4  C   UNL A   1      37.560  23.192  25.124  1.00  0.00     0.261 C 
BRANCH   4   5
ATOM      5  O   UNL A   1      36.683  22.081  25.118  1.00  0.00    -0.460 OA
BRANCH   5   6
ATOM      6  C   UNL A   1      35.562  22.231  24.390  1.00  0.00     0.339 C 
ATOM      7  O   UNL A   1      35.411  22.918  23.403  1.00  0.00    -0.246 OA
BRANCH   6   8
ATOM      8  C   UNL A   1      34.565  21.284  24.911  1.00  0.00     0.072 A 
ATOM      9  C   UNL A   1      33.738  21.526  26.022  1.00  0.00     0.054 A 
ATOM     10  C   UNL A   1      32.913  20.469  26.455  1.00  0.00     0.015 A 
ATOM     11  C   UNL A   1      32.881  19.240  25.782  1.00  0.00     0.001 A 
ATOM     12  C   UNL A   1      34.518  20.055  24.226  1.00  0.00     0.016 A 
ATOM     13  C   UNL A   1      33.679  19.036  24.662  1.00  0.00     0.001 A 
BRANCH   9  14
ATOM     14  C   UNL A   1      33.713  22.754  26.879  1.00  0.00     0.256 C 
ATOM     15  N   UNL A   1      33.174  23.987  26.547  1.00  0.00    -0.322 N 
ATOM     16  H   UNL A   1      33.368  24.687  27.211  1.00  0.00     0.170 HD
ATOM     17  O   UNL A   1      34.245  22.663  27.992  1.00  0.00    -0.269 OA
BRANCH  15  18
ATOM     18  C   UNL A   1      32.408  24.448  25.461  1.00  0.00     0.042 A 
ATOM     19  C   UNL A   1      32.420  25.513  23.257  1.00  0.00     0.041 A 
ATOM     20  C   UNL A   1      31.152  24.951  23.032  1.00  0.00     0.014 A 
ATOM     21  C   UNL A   1      33.027  25.290  24.504  1.00  0.00     0.040 A 
ATOM     22  C   UNL A   1      30.479  24.256  24.038  1.00  0.00     0.003 A 
ATOM     23  C   UNL A   1      31.091  24.046  25.267  1.00  0.00     0.026 A 
BRANCH  19  24
ATOM     24  C   UNL A   1      32.930  26.396  22.160  1.00  0.00     0.251 C 
ATOM     25  N   UNL A   1      32.851  27.769  22.088  1.00  0.00    -0.346 N 
ATOM     26  H   UNL A   1      33.420  28.140  21.375  1.00  0.00     0.164 HD
ATOM     27  O   UNL A   1      33.549  25.836  21.249  1.00  0.00    -0.269 OA
BRANCH  25  28
ATOM     28  C   UNL A   1      32.128  28.800  22.813  1.00  0.00     0.109 C 
ATOM     29  C   UNL A   1      30.638  28.647  22.727  1.00  0.00     0.036 C 
BRANCH  28  30
ATOM     30  C   UNL A   1      32.398  28.843  24.314  1.00  0.00    -0.026 A 
ATOM     31  C   UNL A   1      33.711  28.934  24.812  1.00  0.00     0.006 A 
ATOM     32  C   UNL A   1      31.371  28.456  25.193  1.00  0.00     0.006 A 
ATOM     33  C   UNL A   1      33.994  28.576  26.133  1.00  0.00     0.000 A 
ATOM     34  C   UNL A   1      31.657  28.107  26.513  1.00  0.00     0.000 A 
ATOM     35  C   UNL A   1      32.969  28.149  26.977  1.00  0.00     0.000 A 
ENDBRANCH  28  30
ENDBRANCH  25  28
ENDBRANCH  19  24
ENDBRANCH  15  18
ENDBRANCH   9  14
ENDBRANCH   6   8
ENDBRANCH   5   6
ENDBRANCH   4   5
ENDBRANCH   3   4
ENDBRANCH   2   3
ENDBRANCH   1   2
BRANCH   1  36
ATOM     36  C   UNL A   1      39.811  25.883  27.430  1.00  0.00     0.188 C 
BRANCH  36  37
ATOM     37  O   UNL A   1      39.363  26.543  28.601  1.00  0.00    -0.376 OA
BRANCH  37  38
ATOM     38  C   UNL A   1      38.970  27.897  28.462  1.00  0.00     0.202 C 
BRANCH  38  39
ATOM     39  C   UNL A   1      38.971  28.844  29.681  1.00  0.00     0.261 C 
BRANCH  39  40
ATOM     40  O   UNL A   1      38.005  29.908  29.714  1.00  0.00    -0.460 OA
BRANCH  40  41
ATOM     41  C   UNL A   1      37.150  29.982  30.763  1.00  0.00     0.338 C 
ATOM     42  O   UNL A   1      36.138  29.325  30.921  1.00  0.00    -0.246 OA
BRANCH  41  43
ATOM     43  C   UNL A   1      37.805  30.813  31.810  1.00  0.00     0.060 A 
ATOM     44  C   UNL A   1      37.428  32.161  31.950  1.00  0.00     0.016 A 
ATOM     45  C   UNL A   1      38.682  30.237  32.734  1.00  0.00     0.016 A 
ATOM     46  C   UNL A   1      37.927  32.929  33.010  1.00  0.00     0.010 A 
ATOM     47  C   UNL A   1      39.217  31.020  33.764  1.00  0.00     0.010 A 
ATOM     48  C   UNL A   1      38.862  32.376  33.893  1.00  0.00    -0.014 A 
BRANCH  48  49
ATOM     49  C   UNL A   1      39.676  33.268  34.761  1.00  0.00     0.031 A 
ATOM     50  C   UNL A   1      39.339  33.286  36.230  1.00  0.00     0.074 A 
ATOM     51  C   UNL A   1      40.673  34.041  34.288  1.00  0.00     0.049 A 
ATOM     52  N   UNL A   1      39.834  34.022  37.189  1.00  0.00    -0.248 NA
ATOM     53  C   UNL A   1      38.294  32.345  36.672  1.00  0.00     0.031 C 
ATOM     54  C   UNL A   1      41.134  34.087  32.902  1.00  0.00     0.029 A 
ATOM     55  N   UNL A   1      41.471  34.955  34.937  1.00  0.00    -0.354 N 
ATOM     56  C   UNL A   1      39.148  33.649  38.340  1.00  0.00     0.074 A 
ATOM     57  C   UNL A   1      38.193  32.633  37.959  1.00  0.00     0.031 C 
ATOM     58  C   UNL A   1      42.119  35.001  32.801  1.00  0.00     0.029 A 
ATOM     59  C   UNL A   1      42.335  35.629  34.104  1.00  0.00     0.049 A 
ATOM     60  H   UNL A   1      41.429  35.112  35.909  1.00  0.00     0.167 HD
ATOM     61  C   UNL A   1      39.297  34.110  39.602  1.00  0.00     0.031 A 
ATOM     62  C   UNL A   1      43.175  36.656  34.360  1.00  0.00     0.031 A 
ATOM     63  C   UNL A   1      40.236  35.129  39.980  1.00  0.00     0.049 A 
ATOM     64  C   UNL A   1      43.272  37.203  35.766  1.00  0.00     0.074 A 
ATOM     65  C   UNL A   1      40.479  35.645  41.241  1.00  0.00     0.029 A 
ATOM     66  N   UNL A   1      41.077  35.797  39.104  1.00  0.00    -0.354 N 
ATOM     67  N   UNL A   1      42.648  36.810  36.853  1.00  0.00    -0.248 NA
ATOM     68  C   UNL A   1      44.194  38.329  35.983  1.00  0.00     0.031 C 
ATOM     69  C   UNL A   1      41.415  36.674  41.116  1.00  0.00     0.029 A 
ATOM     70  C   UNL A   1      41.815  36.745  39.792  1.00  0.00     0.049 A 
ATOM     71  H   UNL A   1      41.139  35.624  38.137  1.00  0.00     0.167 HD
ATOM     72  C   UNL A   1      43.129  37.615  37.882  1.00  0.00     0.074 A 
ATOM     73  C   UNL A   1      44.106  38.506  37.294  1.00  0.00     0.031 C 
ATOM     74  C   UNL A   1      42.794  37.618  39.197  1.00  0.00     0.031 A 
BRANCH  61  75
ATOM     75  C   UNL A   1      38.393  33.547  40.666  1.00  0.00    -0.014 A 
ATOM     76  C   UNL A   1      37.031  33.892  40.726  1.00  0.00     0.010 A 
ATOM     77  C   UNL A   1      38.905  32.606  41.578  1.00  0.00     0.010 A 
ATOM     78  C   UNL A   1      36.201  33.317  41.691  1.00  0.00     0.020 A 
ATOM     79  C   UNL A   1      38.072  32.008  42.526  1.00  0.00     0.020 A 
ATOM     80  C   UNL A   1      36.725  32.373  42.581  1.00  0.00     0.054 A 
BRANCH  80  81
ATOM     81  S   UNL A   1      35.609  31.596  43.780  1.00  0.00     0.124 S 
ATOM     82  O   UNL A   1      35.420  32.668  44.755  1.00  0.00    -0.237 OA
ATOM     83  O   UNL A   1      34.441  31.276  42.964  1.00  0.00    -0.237 OA
ATOM     84  O   UNL A   1      36.364  30.443  44.263  1.00  0.00    -0.744 OA
ENDBRANCH  80  81
ENDBRANCH  61  75
BRANCH  62  85
ATOM     85  C   UNL A   1      43.971  37.276  33.258  1.00  0.00    -0.014 A 
ATOM     86  C   UNL A   1      45.239  36.776  32.909  1.00  0.00     0.010 A 
ATOM     87  C   UNL A   1      43.481  38.409  32.583  1.00  0.00     0.010 A 
ATOM     88  C   UNL A   1      46.011  37.412  31.931  1.00  0.00     0.020 A 
ATOM     89  C   UNL A   1      44.234  39.028  31.581  1.00  0.00     0.020 A 
ATOM     90  C   UNL A   1      45.503  38.536  31.272  1.00  0.00     0.054 A 
BRANCH  90  91
ATOM     91  S   UNL A   1      46.510  39.329  29.987  1.00  0.00     0.124 S 
ATOM     92  O   UNL A   1      45.960  38.746  28.767  1.00  0.00    -0.237 OA
ATOM     93  O   UNL A   1      46.224  40.747  30.195  1.00  0.00    -0.237 OA
ATOM     94  O   UNL A   1      47.872  38.920  30.317  1.00  0.00    -0.744 OA
ENDBRANCH  90  91
ENDBRANCH  62  85
BRANCH  74  95
ATOM     95  C   UNL A   1      43.523  38.570  40.112  1.00  0.00    -0.014 A 
ATOM     96  C   UNL A   1      44.712  38.200  40.766  1.00  0.00     0.010 A 
ATOM     97  C   UNL A   1      43.044  39.885  40.258  1.00  0.00     0.010 A 
ATOM     98  C   UNL A   1      45.386  39.118  41.578  1.00  0.00     0.020 A 
ATOM     99  C   UNL A   1      43.733  40.815  41.040  1.00  0.00     0.020 A 
ATOM    100  C   UNL A   1      44.894  40.420  41.708  1.00  0.00     0.054 A 
BRANCH 100 101
ATOM    101  S   UNL A   1      45.812  41.604  42.731  1.00  0.00     0.124 S 
ATOM    102  O   UNL A   1      45.240  41.370  44.054  1.00  0.00    -0.237 OA
ATOM    103  O   UNL A   1      47.196  41.170  42.559  1.00  0.00    -0.237 OA
ATOM    104  O   UNL A   1      45.493  42.900  42.135  1.00  0.00    -0.744 OA
ENDBRANCH 100 101
ENDBRANCH  74  95
ENDBRANCH  48  49
ENDBRANCH  41  43
ENDBRANCH  40  41
ENDBRANCH  39  40
ENDBRANCH  38  39
ENDBRANCH  37  38
ENDBRANCH  36  37
ENDBRANCH   1  36
TORSDOF 25
ENDMDL
