MODEL 1
REMARK VINA RESULT:      -8.7      0.000      0.000
REMARK SMILES NC(=O)CC[C@H](NC(=O)CC1CC1)C(=O)OCCOCCOCCOC(=O)c1ccc(-c2c3nc(c(-c4ccc(S(=O)(=O)[O-])cc4)c4ccc([nH]4)c(-c4ccc(S(=O)(=O)[O-])cc4)c4nc(c(-c5ccc(S(=O)(=O)[O-])cc5)c5ccc2[nH]5)C=C4)C=C3)cc1
REMARK SMILES IDX 20 1 19 2 18 3 17 4 16 5 14 6 15 7 6 8 5 9 4 10 2 11 1 12
REMARK SMILES IDX 3 15 7 16 8 17 9 19 10 20 11 21 12 22 13 23 21 24 22 25
REMARK SMILES IDX 23 26 24 27 25 28 26 29 27 30 28 31 29 32 87 33 30 34 86 35
REMARK SMILES IDX 31 36 32 37 33 38 80 39 34 40 85 41 79 42 81 43 35 44 84 45
REMARK SMILES IDX 78 46 77 47 36 49 66 50 47 51 65 52 48 53 51 54 64 55 82 56
REMARK SMILES IDX 49 57 50 58 63 60 83 61 52 62 37 63 38 64 46 65 39 66 45 67
REMARK SMILES IDX 40 68 41 69 42 70 43 71 44 72 67 73 68 74 76 75 69 76 75 77
REMARK SMILES IDX 70 78 71 79 72 80 73 81 74 82 53 83 54 84 62 85 55 86 61 87
REMARK SMILES IDX 56 88 57 89 58 90 59 91 60 92
REMARK H PARENT 1 13 1 14 7 18 81 48 51 59
REMARK Flexibility Score: inf
ROOT
ATOM      1  C   UNL A   1      40.481  19.923  26.130  1.00  0.00     0.188 C 
ENDROOT
BRANCH   1   2
ATOM      2  O   UNL A   1      39.432  20.804  25.745  1.00  0.00    -0.376 OA
BRANCH   2   3
ATOM      3  C   UNL A   1      38.279  20.266  25.107  1.00  0.00     0.202 C 
BRANCH   3   4
ATOM      4  C   UNL A   1      37.012  21.134  25.011  1.00  0.00     0.261 C 
BRANCH   4   5
ATOM      5  O   UNL A   1      35.764  20.405  25.002  1.00  0.00    -0.462 OA
BRANCH   5   6
ATOM      6  C   UNL A   1      34.626  21.146  24.895  1.00  0.00     0.328 C 
ATOM      7  O   UNL A   1      34.458  22.005  24.037  1.00  0.00    -0.250 OA
BRANCH   6   8
ATOM      8  C   UNL A   1      33.487  20.703  25.868  1.00  0.00     0.192 C 
BRANCH   8   9
ATOM      9  C   UNL A   1      32.587  19.652  25.197  1.00  0.00     0.047 C 
BRANCH   9  10
ATOM     10  C   UNL A   1      33.319  18.669  24.282  1.00  0.00     0.102 C 
BRANCH  10  11
ATOM     11  C   UNL A   1      33.200  17.231  24.726  1.00  0.00     0.217 C 
ATOM     12  N   UNL A   1      33.707  16.308  23.861  1.00  0.00    -0.370 N 
ATOM     13  H   UNL A   1      33.664  15.350  24.083  1.00  0.00     0.159 HD
ATOM     14  H   UNL A   1      34.115  16.600  23.014  1.00  0.00     0.159 HD
ATOM     15  O   UNL A   1      32.720  16.900  25.804  1.00  0.00    -0.275 OA
ENDBRANCH  10  11
ENDBRANCH   9  10
ENDBRANCH   8   9
BRANCH   8  16
ATOM     16  N   UNL A   1      32.768  21.699  26.683  1.00  0.00    -0.343 N 
ATOM     17  C   UNL A   1      31.856  22.675  26.444  1.00  0.00     0.220 C 
ATOM     18  H   UNL A   1      33.009  21.642  27.635  1.00  0.00     0.164 HD
ATOM     19  O   UNL A   1      31.474  23.329  27.418  1.00  0.00    -0.275 OA
BRANCH  17  20
ATOM     20  C   UNL A   1      31.269  22.910  25.074  1.00  0.00     0.103 C 
BRANCH  20  21
ATOM     21  C   UNL A   1      31.317  24.331  24.605  1.00  0.00    -0.002 C 
ATOM     22  C   UNL A   1      31.850  24.615  23.225  1.00  0.00     0.004 C 
ATOM     23  C   UNL A   1      30.394  24.824  23.523  1.00  0.00     0.004 C 
ENDBRANCH  20  21
ENDBRANCH  17  20
ENDBRANCH   8  16
ENDBRANCH   6   8
ENDBRANCH   5   6
ENDBRANCH   4   5
ENDBRANCH   3   4
ENDBRANCH   2   3
ENDBRANCH   1   2
BRANCH   1  24
ATOM     24  C   UNL A   1      41.847  20.515  26.520  1.00  0.00     0.188 C 
BRANCH  24  25
ATOM     25  O   UNL A   1      42.656  20.889  25.428  1.00  0.00    -0.376 OA
BRANCH  25  26
ATOM     26  C   UNL A   1      43.395  22.089  25.555  1.00  0.00     0.202 C 
BRANCH  26  27
ATOM     27  C   UNL A   1      42.637  23.422  25.411  1.00  0.00     0.261 C 
BRANCH  27  28
ATOM     28  O   UNL A   1      43.110  24.526  26.206  1.00  0.00    -0.460 OA
BRANCH  28  29
ATOM     29  C   UNL A   1      42.529  25.729  26.001  1.00  0.00     0.338 C 
ATOM     30  O   UNL A   1      41.944  26.091  24.988  1.00  0.00    -0.246 OA
BRANCH  29  31
ATOM     31  C   UNL A   1      42.502  26.462  27.289  1.00  0.00     0.060 A 
ATOM     32  C   UNL A   1      41.790  25.913  28.366  1.00  0.00     0.016 A 
ATOM     33  C   UNL A   1      43.164  27.683  27.438  1.00  0.00     0.016 A 
ATOM     34  C   UNL A   1      41.713  26.599  29.581  1.00  0.00     0.010 A 
ATOM     35  C   UNL A   1      43.065  28.378  28.650  1.00  0.00     0.010 A 
ATOM     36  C   UNL A   1      42.312  27.857  29.718  1.00  0.00    -0.014 A 
BRANCH  36  37
ATOM     37  C   UNL A   1      41.994  28.699  30.902  1.00  0.00     0.031 A 
ATOM     38  C   UNL A   1      40.787  29.602  30.842  1.00  0.00     0.074 A 
ATOM     39  C   UNL A   1      42.730  28.644  32.027  1.00  0.00     0.049 A 
ATOM     40  N   UNL A   1      40.319  30.424  31.745  1.00  0.00    -0.248 NA
ATOM     41  C   UNL A   1      40.003  29.567  29.596  1.00  0.00     0.031 C 
ATOM     42  C   UNL A   1      43.895  27.785  32.236  1.00  0.00     0.029 A 
ATOM     43  N   UNL A   1      42.603  29.330  33.211  1.00  0.00    -0.354 N 
ATOM     44  C   UNL A   1      39.195  31.012  31.175  1.00  0.00     0.074 A 
ATOM     45  C   UNL A   1      39.069  30.474  29.838  1.00  0.00     0.031 C 
ATOM     46  C   UNL A   1      44.378  27.999  33.473  1.00  0.00     0.029 A 
ATOM     47  C   UNL A   1      43.581  29.033  34.131  1.00  0.00     0.049 A 
ATOM     48  H   UNL A   1      41.880  29.975  33.384  1.00  0.00     0.167 HD
ATOM     49  C   UNL A   1      38.340  31.914  31.714  1.00  0.00     0.031 A 
ATOM     50  C   UNL A   1      43.818  29.549  35.355  1.00  0.00     0.031 A 
ATOM     51  C   UNL A   1      38.473  32.466  33.037  1.00  0.00     0.049 A 
ATOM     52  C   UNL A   1      42.897  30.611  35.905  1.00  0.00     0.074 A 
ATOM     53  C   UNL A   1      37.648  33.375  33.677  1.00  0.00     0.029 A 
ATOM     54  N   UNL A   1      39.501  32.171  33.920  1.00  0.00    -0.354 N 
ATOM     55  N   UNL A   1      41.822  31.133  35.365  1.00  0.00    -0.248 NA
ATOM     56  C   UNL A   1      43.217  31.141  37.239  1.00  0.00     0.031 C 
ATOM     57  C   UNL A   1      38.214  33.680  34.920  1.00  0.00     0.029 A 
ATOM     58  C   UNL A   1      39.349  32.903  35.086  1.00  0.00     0.049 A 
ATOM     59  H   UNL A   1      40.231  31.534  33.744  1.00  0.00     0.167 HD
ATOM     60  C   UNL A   1      41.322  32.031  36.304  1.00  0.00     0.074 A 
ATOM     61  C   UNL A   1      42.200  31.964  37.453  1.00  0.00     0.031 C 
ATOM     62  C   UNL A   1      40.232  32.836  36.224  1.00  0.00     0.031 A 
BRANCH  49  63
ATOM     63  C   UNL A   1      37.200  32.395  30.853  1.00  0.00    -0.014 A 
ATOM     64  C   UNL A   1      35.935  31.780  30.901  1.00  0.00     0.010 A 
ATOM     65  C   UNL A   1      37.386  33.506  30.009  1.00  0.00     0.010 A 
ATOM     66  C   UNL A   1      34.891  32.244  30.096  1.00  0.00     0.020 A 
ATOM     67  C   UNL A   1      36.337  33.992  29.226  1.00  0.00     0.020 A 
ATOM     68  C   UNL A   1      35.100  33.348  29.262  1.00  0.00     0.054 A 
BRANCH  68  69
ATOM     69  S   UNL A   1      33.719  33.943  28.247  1.00  0.00     0.124 S 
ATOM     70  O   UNL A   1      33.195  32.698  27.692  1.00  0.00    -0.237 OA
ATOM     71  O   UNL A   1      32.862  34.602  29.230  1.00  0.00    -0.237 OA
ATOM     72  O   UNL A   1      34.356  34.835  27.282  1.00  0.00    -0.744 OA
ENDBRANCH  68  69
ENDBRANCH  49  63
BRANCH  50  73
ATOM     73  C   UNL A   1      44.992  29.084  36.148  1.00  0.00    -0.014 A 
ATOM     74  C   UNL A   1      46.259  29.668  35.972  1.00  0.00     0.010 A 
ATOM     75  C   UNL A   1      44.849  28.038  37.078  1.00  0.00     0.010 A 
ATOM     76  C   UNL A   1      47.361  29.206  36.698  1.00  0.00     0.020 A 
ATOM     77  C   UNL A   1      45.940  27.594  37.830  1.00  0.00     0.020 A 
ATOM     78  C   UNL A   1      47.194  28.175  37.627  1.00  0.00     0.054 A 
BRANCH  78  79
ATOM     79  S   UNL A   1      48.626  27.631  38.599  1.00  0.00     0.124 S 
ATOM     80  O   UNL A   1      49.732  27.893  37.683  1.00  0.00    -0.237 OA
ATOM     81  O   UNL A   1      48.555  28.499  39.771  1.00  0.00    -0.237 OA
ATOM     82  O   UNL A   1      48.347  26.221  38.858  1.00  0.00    -0.744 OA
ENDBRANCH  78  79
ENDBRANCH  50  73
BRANCH  62  83
ATOM     83  C   UNL A   1      39.900  33.683  37.427  1.00  0.00    -0.014 A 
ATOM     84  C   UNL A   1      40.329  35.018  37.530  1.00  0.00     0.010 A 
ATOM     85  C   UNL A   1      39.110  33.140  38.460  1.00  0.00     0.010 A 
ATOM     86  C   UNL A   1      40.015  35.779  38.661  1.00  0.00     0.020 A 
ATOM     87  C   UNL A   1      38.766  33.907  39.576  1.00  0.00     0.020 A 
ATOM     88  C   UNL A   1      39.238  35.216  39.679  1.00  0.00     0.054 A 
BRANCH  88  89
ATOM     89  S   UNL A   1      38.830  36.229  41.128  1.00  0.00     0.124 S 
ATOM     90  O   UNL A   1      40.089  36.218  41.870  1.00  0.00    -0.237 OA
ATOM     91  O   UNL A   1      38.464  37.510  40.529  1.00  0.00    -0.237 OA
ATOM     92  O   UNL A   1      37.730  35.504  41.760  1.00  0.00    -0.744 OA
ENDBRANCH  88  89
ENDBRANCH  62  83
ENDBRANCH  36  37
ENDBRANCH  29  31
ENDBRANCH  28  29
ENDBRANCH  27  28
ENDBRANCH  26  27
ENDBRANCH  25  26
ENDBRANCH  24  25
ENDBRANCH   1  24
TORSDOF 26
ENDMDL
MODEL 2
REMARK VINA RESULT:      -8.3      5.788     11.939
REMARK SMILES NC(=O)CC[C@H](NC(=O)CC1CC1)C(=O)OCCOCCOCCOC(=O)c1ccc(-c2c3nc(c(-c4ccc(S(=O)(=O)[O-])cc4)c4ccc([nH]4)c(-c4ccc(S(=O)(=O)[O-])cc4)c4nc(c(-c5ccc(S(=O)(=O)[O-])cc5)c5ccc2[nH]5)C=C4)C=C3)cc1
REMARK SMILES IDX 20 1 19 2 18 3 17 4 16 5 14 6 15 7 6 8 5 9 4 10 2 11 1 12
REMARK SMILES IDX 3 15 7 16 8 17 9 19 10 20 11 21 12 22 13 23 21 24 22 25
REMARK SMILES IDX 23 26 24 27 25 28 26 29 27 30 28 31 29 32 87 33 30 34 86 35
REMARK SMILES IDX 31 36 32 37 33 38 80 39 34 40 85 41 79 42 81 43 35 44 84 45
REMARK SMILES IDX 78 46 77 47 36 49 66 50 47 51 65 52 48 53 51 54 64 55 82 56
REMARK SMILES IDX 49 57 50 58 63 60 83 61 52 62 37 63 38 64 46 65 39 66 45 67
REMARK SMILES IDX 40 68 41 69 42 70 43 71 44 72 67 73 68 74 76 75 69 76 75 77
REMARK SMILES IDX 70 78 71 79 72 80 73 81 74 82 53 83 54 84 62 85 55 86 61 87
REMARK SMILES IDX 56 88 57 89 58 90 59 91 60 92
REMARK H PARENT 1 13 1 14 7 18 81 48 51 59
REMARK Flexibility Score: inf
ROOT
ATOM      1  C   UNL A   1      35.448  31.595  27.850  1.00  0.00     0.188 C 
ENDROOT
BRANCH   1   2
ATOM      2  O   UNL A   1      34.336  31.337  27.000  1.00  0.00    -0.376 OA
BRANCH   2   3
ATOM      3  C   UNL A   1      33.534  30.187  27.245  1.00  0.00     0.202 C 
BRANCH   3   4
ATOM      4  C   UNL A   1      34.026  28.819  26.741  1.00  0.00     0.261 C 
BRANCH   4   5
ATOM      5  O   UNL A   1      33.039  28.025  26.046  1.00  0.00    -0.462 OA
BRANCH   5   6
ATOM      6  C   UNL A   1      33.510  27.089  25.176  1.00  0.00     0.328 C 
ATOM      7  O   UNL A   1      33.780  27.330  24.005  1.00  0.00    -0.250 OA
BRANCH   6   8
ATOM      8  C   UNL A   1      33.825  25.710  25.838  1.00  0.00     0.192 C 
BRANCH   8   9
ATOM      9  C   UNL A   1      34.861  24.938  25.005  1.00  0.00     0.047 C 
BRANCH   9  10
ATOM     10  C   UNL A   1      35.540  23.779  25.737  1.00  0.00     0.102 C 
BRANCH  10  11
ATOM     11  C   UNL A   1      36.987  23.589  25.350  1.00  0.00     0.217 C 
ATOM     12  N   UNL A   1      37.206  23.279  24.041  1.00  0.00    -0.370 N 
ATOM     13  H   UNL A   1      38.124  23.139  23.716  1.00  0.00     0.159 HD
ATOM     14  H   UNL A   1      36.446  23.193  23.421  1.00  0.00     0.159 HD
ATOM     15  O   UNL A   1      37.916  23.739  26.135  1.00  0.00    -0.275 OA
ENDBRANCH  10  11
ENDBRANCH   9  10
ENDBRANCH   8   9
BRANCH   8  16
ATOM     16  N   UNL A   1      32.739  24.880  26.392  1.00  0.00    -0.343 N 
ATOM     17  C   UNL A   1      31.769  24.080  25.880  1.00  0.00     0.220 C 
ATOM     18  H   UNL A   1      32.711  24.915  27.375  1.00  0.00     0.164 HD
ATOM     19  O   UNL A   1      31.017  23.532  26.690  1.00  0.00    -0.275 OA
BRANCH  17  20
ATOM     20  C   UNL A   1      31.653  23.801  24.402  1.00  0.00     0.103 C 
BRANCH  20  21
ATOM     21  C   UNL A   1      32.551  22.716  23.895  1.00  0.00    -0.002 C 
ATOM     22  C   UNL A   1      32.082  21.876  22.736  1.00  0.00     0.004 C 
ATOM     23  C   UNL A   1      33.227  22.829  22.555  1.00  0.00     0.004 C 
ENDBRANCH  20  21
ENDBRANCH  17  20
ENDBRANCH   8  16
ENDBRANCH   6   8
ENDBRANCH   5   6
ENDBRANCH   4   5
ENDBRANCH   3   4
ENDBRANCH   2   3
ENDBRANCH   1   2
BRANCH   1  24
ATOM     24  C   UNL A   1      35.628  33.007  28.435  1.00  0.00     0.188 C 
BRANCH  24  25
ATOM     25  O   UNL A   1      34.612  33.404  29.328  1.00  0.00    -0.376 OA
BRANCH  25  26
ATOM     26  C   UNL A   1      35.021  33.912  30.583  1.00  0.00     0.202 C 
BRANCH  26  27
ATOM     27  C   UNL A   1      35.240  32.909  31.731  1.00  0.00     0.261 C 
BRANCH  27  28
ATOM     28  O   UNL A   1      36.099  31.786  31.456  1.00  0.00    -0.460 OA
BRANCH  28  29
ATOM     29  C   UNL A   1      37.106  31.550  32.326  1.00  0.00     0.338 C 
ATOM     30  O   UNL A   1      37.058  31.668  33.544  1.00  0.00    -0.246 OA
BRANCH  29  31
ATOM     31  C   UNL A   1      38.214  30.891  31.594  1.00  0.00     0.060 A 
ATOM     32  C   UNL A   1      39.196  30.206  32.325  1.00  0.00     0.016 A 
ATOM     33  C   UNL A   1      38.292  30.948  30.200  1.00  0.00     0.016 A 
ATOM     34  C   UNL A   1      40.274  29.608  31.667  1.00  0.00     0.010 A 
ATOM     35  C   UNL A   1      39.385  30.367  29.546  1.00  0.00     0.010 A 
ATOM     36  C   UNL A   1      40.401  29.722  30.277  1.00  0.00    -0.014 A 
BRANCH  36  37
ATOM     37  C   UNL A   1      41.677  29.333  29.620  1.00  0.00     0.031 A 
ATOM     38  C   UNL A   1      42.769  30.365  29.499  1.00  0.00     0.074 A 
ATOM     39  C   UNL A   1      41.887  28.082  29.170  1.00  0.00     0.049 A 
ATOM     40  N   UNL A   1      43.958  30.257  28.964  1.00  0.00    -0.248 NA
ATOM     41  C   UNL A   1      42.481  31.695  30.061  1.00  0.00     0.031 C 
ATOM     42  C   UNL A   1      40.934  26.977  29.261  1.00  0.00     0.029 A 
ATOM     43  N   UNL A   1      42.980  27.532  28.544  1.00  0.00    -0.354 N 
ATOM     44  C   UNL A   1      44.555  31.505  29.115  1.00  0.00     0.074 A 
ATOM     45  C   UNL A   1      43.586  32.361  29.764  1.00  0.00     0.031 C 
ATOM     46  C   UNL A   1      41.484  25.881  28.707  1.00  0.00     0.029 A 
ATOM     47  C   UNL A   1      42.810  26.214  28.190  1.00  0.00     0.049 A 
ATOM     48  H   UNL A   1      43.807  28.035  28.363  1.00  0.00     0.167 HD
ATOM     49  C   UNL A   1      45.798  31.903  28.752  1.00  0.00     0.031 A 
ATOM     50  C   UNL A   1      43.623  25.377  27.512  1.00  0.00     0.031 A 
ATOM     51  C   UNL A   1      46.757  31.059  28.089  1.00  0.00     0.049 A 
ATOM     52  C   UNL A   1      44.973  25.866  27.048  1.00  0.00     0.074 A 
ATOM     53  C   UNL A   1      48.048  31.369  27.694  1.00  0.00     0.029 A 
ATOM     54  N   UNL A   1      46.530  29.744  27.711  1.00  0.00    -0.354 N 
ATOM     55  N   UNL A   1      45.533  27.039  27.226  1.00  0.00    -0.248 NA
ATOM     56  C   UNL A   1      45.806  24.910  26.303  1.00  0.00     0.031 C 
ATOM     57  C   UNL A   1      48.576  30.264  27.019  1.00  0.00     0.029 A 
ATOM     58  C   UNL A   1      47.644  29.239  27.061  1.00  0.00     0.049 A 
ATOM     59  H   UNL A   1      45.700  29.243  27.881  1.00  0.00     0.167 HD
ATOM     60  C   UNL A   1      46.793  26.951  26.640  1.00  0.00     0.074 A 
ATOM     61  C   UNL A   1      46.919  25.605  26.123  1.00  0.00     0.031 C 
ATOM     62  C   UNL A   1      47.760  27.899  26.542  1.00  0.00     0.031 A 
BRANCH  49  63
ATOM     63  C   UNL A   1      46.180  33.335  29.029  1.00  0.00    -0.014 A 
ATOM     64  C   UNL A   1      46.798  33.707  30.238  1.00  0.00     0.010 A 
ATOM     65  C   UNL A   1      45.953  34.318  28.048  1.00  0.00     0.010 A 
ATOM     66  C   UNL A   1      47.146  35.040  30.473  1.00  0.00     0.020 A 
ATOM     67  C   UNL A   1      46.327  35.646  28.267  1.00  0.00     0.020 A 
ATOM     68  C   UNL A   1      46.907  36.002  29.486  1.00  0.00     0.054 A 
BRANCH  68  69
ATOM     69  S   UNL A   1      47.392  37.719  29.809  1.00  0.00     0.124 S 
ATOM     70  O   UNL A   1      46.345  38.160  30.727  1.00  0.00    -0.237 OA
ATOM     71  O   UNL A   1      48.721  37.569  30.399  1.00  0.00    -0.237 OA
ATOM     72  O   UNL A   1      47.365  38.343  28.489  1.00  0.00    -0.744 OA
ENDBRANCH  68  69
ENDBRANCH  49  63
BRANCH  50  73
ATOM     73  C   UNL A   1      43.179  23.986  27.210  1.00  0.00    -0.014 A 
ATOM     74  C   UNL A   1      42.652  23.654  25.949  1.00  0.00     0.010 A 
ATOM     75  C   UNL A   1      43.269  22.984  28.194  1.00  0.00     0.010 A 
ATOM     76  C   UNL A   1      42.211  22.354  25.684  1.00  0.00     0.020 A 
ATOM     77  C   UNL A   1      42.859  21.676  27.923  1.00  0.00     0.020 A 
ATOM     78  C   UNL A   1      42.322  21.371  26.671  1.00  0.00     0.054 A 
BRANCH  78  79
ATOM     79  S   UNL A   1      41.796  19.678  26.285  1.00  0.00     0.124 S 
ATOM     80  O   UNL A   1      42.141  18.965  27.510  1.00  0.00    -0.237 OA
ATOM     81  O   UNL A   1      40.368  19.846  26.030  1.00  0.00    -0.237 OA
ATOM     82  O   UNL A   1      42.594  19.332  25.111  1.00  0.00    -0.744 OA
ENDBRANCH  78  79
ENDBRANCH  50  73
BRANCH  62  83
ATOM     83  C   UNL A   1      49.060  27.504  25.886  1.00  0.00    -0.014 A 
ATOM     84  C   UNL A   1      49.230  27.564  24.491  1.00  0.00     0.010 A 
ATOM     85  C   UNL A   1      50.146  27.101  26.688  1.00  0.00     0.010 A 
ATOM     86  C   UNL A   1      50.442  27.183  23.908  1.00  0.00     0.020 A 
ATOM     87  C   UNL A   1      51.370  26.752  26.111  1.00  0.00     0.020 A 
ATOM     88  C   UNL A   1      51.505  26.776  24.722  1.00  0.00     0.054 A 
BRANCH  88  89
ATOM     89  S   UNL A   1      53.073  26.304  23.942  1.00  0.00     0.124 S 
ATOM     90  O   UNL A   1      53.966  27.370  24.389  1.00  0.00    -0.237 OA
ATOM     91  O   UNL A   1      53.331  24.985  24.514  1.00  0.00    -0.237 OA
ATOM     92  O   UNL A   1      52.765  26.309  22.513  1.00  0.00    -0.744 OA
ENDBRANCH  88  89
ENDBRANCH  62  83
ENDBRANCH  36  37
ENDBRANCH  29  31
ENDBRANCH  28  29
ENDBRANCH  27  28
ENDBRANCH  26  27
ENDBRANCH  25  26
ENDBRANCH  24  25
ENDBRANCH   1  24
TORSDOF 26
ENDMDL
MODEL 3
REMARK VINA RESULT:      -8.2      6.603     11.896
REMARK SMILES NC(=O)CC[C@H](NC(=O)CC1CC1)C(=O)OCCOCCOCCOC(=O)c1ccc(-c2c3nc(c(-c4ccc(S(=O)(=O)[O-])cc4)c4ccc([nH]4)c(-c4ccc(S(=O)(=O)[O-])cc4)c4nc(c(-c5ccc(S(=O)(=O)[O-])cc5)c5ccc2[nH]5)C=C4)C=C3)cc1
REMARK SMILES IDX 20 1 19 2 18 3 17 4 16 5 14 6 15 7 6 8 5 9 4 10 2 11 1 12
REMARK SMILES IDX 3 15 7 16 8 17 9 19 10 20 11 21 12 22 13 23 21 24 22 25
REMARK SMILES IDX 23 26 24 27 25 28 26 29 27 30 28 31 29 32 87 33 30 34 86 35
REMARK SMILES IDX 31 36 32 37 33 38 80 39 34 40 85 41 79 42 81 43 35 44 84 45
REMARK SMILES IDX 78 46 77 47 36 49 66 50 47 51 65 52 48 53 51 54 64 55 82 56
REMARK SMILES IDX 49 57 50 58 63 60 83 61 52 62 37 63 38 64 46 65 39 66 45 67
REMARK SMILES IDX 40 68 41 69 42 70 43 71 44 72 67 73 68 74 76 75 69 76 75 77
REMARK SMILES IDX 70 78 71 79 72 80 73 81 74 82 53 83 54 84 62 85 55 86 61 87
REMARK SMILES IDX 56 88 57 89 58 90 59 91 60 92
REMARK H PARENT 1 13 1 14 7 18 81 48 51 59
REMARK Flexibility Score: inf
ROOT
ATOM      1  C   UNL A   1      33.160  28.951  23.640  1.00  0.00     0.188 C 
ENDROOT
BRANCH   1   2
ATOM      2  O   UNL A   1      33.214  27.912  22.671  1.00  0.00    -0.376 OA
BRANCH   2   3
ATOM      3  C   UNL A   1      32.064  27.097  22.470  1.00  0.00     0.202 C 
BRANCH   3   4
ATOM      4  C   UNL A   1      32.259  25.637  22.022  1.00  0.00     0.261 C 
BRANCH   4   5
ATOM      5  O   UNL A   1      32.798  24.751  23.028  1.00  0.00    -0.462 OA
BRANCH   5   6
ATOM      6  C   UNL A   1      32.882  23.432  22.697  1.00  0.00     0.328 C 
ATOM      7  O   UNL A   1      32.815  23.019  21.545  1.00  0.00    -0.250 OA
BRANCH   6   8
ATOM      8  C   UNL A   1      33.224  22.497  23.901  1.00  0.00     0.192 C 
BRANCH   8   9
ATOM      9  C   UNL A   1      32.976  21.027  23.525  1.00  0.00     0.047 C 
BRANCH   9  10
ATOM     10  C   UNL A   1      33.761  20.010  24.355  1.00  0.00     0.102 C 
BRANCH  10  11
ATOM     11  C   UNL A   1      32.924  19.314  25.401  1.00  0.00     0.217 C 
ATOM     12  N   UNL A   1      33.129  19.726  26.684  1.00  0.00    -0.370 N 
ATOM     13  H   UNL A   1      32.620  19.317  27.420  1.00  0.00     0.159 HD
ATOM     14  H   UNL A   1      33.788  20.433  26.874  1.00  0.00     0.159 HD
ATOM     15  O   UNL A   1      32.085  18.463  25.131  1.00  0.00    -0.275 OA
ENDBRANCH  10  11
ENDBRANCH   9  10
ENDBRANCH   8   9
BRANCH   8  16
ATOM     16  N   UNL A   1      32.815  22.859  25.270  1.00  0.00    -0.343 N 
ATOM     17  C   UNL A   1      33.318  23.637  26.262  1.00  0.00     0.220 C 
ATOM     18  H   UNL A   1      31.968  22.429  25.529  1.00  0.00     0.164 HD
ATOM     19  O   UNL A   1      32.667  23.692  27.308  1.00  0.00    -0.275 OA
BRANCH  17  20
ATOM     20  C   UNL A   1      34.568  24.462  26.081  1.00  0.00     0.103 C 
BRANCH  20  21
ATOM     21  C   UNL A   1      35.663  23.784  25.318  1.00  0.00    -0.002 C 
ATOM     22  C   UNL A   1      37.059  23.812  25.884  1.00  0.00     0.004 C 
ATOM     23  C   UNL A   1      36.299  22.519  25.830  1.00  0.00     0.004 C 
ENDBRANCH  20  21
ENDBRANCH  17  20
ENDBRANCH   8  16
ENDBRANCH   6   8
ENDBRANCH   5   6
ENDBRANCH   4   5
ENDBRANCH   3   4
ENDBRANCH   2   3
ENDBRANCH   1   2
BRANCH   1  24
ATOM     24  C   UNL A   1      33.618  28.653  25.080  1.00  0.00     0.188 C 
BRANCH  24  25
ATOM     25  O   UNL A   1      33.353  29.686  26.003  1.00  0.00    -0.376 OA
BRANCH  25  26
ATOM     26  C   UNL A   1      34.466  30.256  26.666  1.00  0.00     0.202 C 
BRANCH  26  27
ATOM     27  C   UNL A   1      34.473  30.243  28.205  1.00  0.00     0.261 C 
BRANCH  27  28
ATOM     28  O   UNL A   1      35.651  29.716  28.844  1.00  0.00    -0.460 OA
BRANCH  28  29
ATOM     29  C   UNL A   1      36.596  30.603  29.227  1.00  0.00     0.338 C 
ATOM     30  O   UNL A   1      36.417  31.618  29.888  1.00  0.00    -0.246 OA
BRANCH  29  31
ATOM     31  C   UNL A   1      37.929  30.028  28.924  1.00  0.00     0.060 A 
ATOM     32  C   UNL A   1      38.850  29.866  29.971  1.00  0.00     0.016 A 
ATOM     33  C   UNL A   1      38.275  29.655  27.624  1.00  0.00     0.016 A 
ATOM     34  C   UNL A   1      40.127  29.364  29.712  1.00  0.00     0.010 A 
ATOM     35  C   UNL A   1      39.565  29.173  27.364  1.00  0.00     0.010 A 
ATOM     36  C   UNL A   1      40.510  29.056  28.400  1.00  0.00    -0.014 A 
BRANCH  36  37
ATOM     37  C   UNL A   1      41.941  28.793  28.093  1.00  0.00     0.031 A 
ATOM     38  C   UNL A   1      42.359  27.384  27.754  1.00  0.00     0.074 A 
ATOM     39  C   UNL A   1      42.853  29.782  28.073  1.00  0.00     0.049 A 
ATOM     40  N   UNL A   1      43.544  26.918  27.458  1.00  0.00    -0.248 NA
ATOM     41  C   UNL A   1      41.294  26.367  27.747  1.00  0.00     0.031 C 
ATOM     42  C   UNL A   1      42.578  31.194  28.339  1.00  0.00     0.029 A 
ATOM     43  N   UNL A   1      44.203  29.746  27.817  1.00  0.00    -0.354 N 
ATOM     44  C   UNL A   1      43.371  25.555  27.240  1.00  0.00     0.074 A 
ATOM     45  C   UNL A   1      41.972  25.265  27.467  1.00  0.00     0.031 C 
ATOM     46  C   UNL A   1      43.726  31.888  28.234  1.00  0.00     0.029 A 
ATOM     47  C   UNL A   1      44.821  30.969  27.931  1.00  0.00     0.049 A 
ATOM     48  H   UNL A   1      44.683  28.921  27.576  1.00  0.00     0.167 HD
ATOM     49  C   UNL A   1      44.290  24.627  26.878  1.00  0.00     0.031 A 
ATOM     50  C   UNL A   1      46.124  31.306  27.822  1.00  0.00     0.031 A 
ATOM     51  C   UNL A   1      45.686  24.909  26.670  1.00  0.00     0.049 A 
ATOM     52  C   UNL A   1      47.141  30.241  27.495  1.00  0.00     0.074 A 
ATOM     53  C   UNL A   1      46.691  24.037  26.287  1.00  0.00     0.029 A 
ATOM     54  N   UNL A   1      46.279  26.151  26.837  1.00  0.00    -0.354 N 
ATOM     55  N   UNL A   1      46.956  28.964  27.262  1.00  0.00    -0.248 NA
ATOM     56  C   UNL A   1      48.545  30.671  27.403  1.00  0.00     0.031 C 
ATOM     57  C   UNL A   1      47.902  24.738  26.288  1.00  0.00     0.029 A 
ATOM     58  C   UNL A   1      47.640  26.063  26.596  1.00  0.00     0.049 A 
ATOM     59  H   UNL A   1      45.802  26.975  27.089  1.00  0.00     0.167 HD
ATOM     60  C   UNL A   1      48.213  28.444  26.967  1.00  0.00     0.074 A 
ATOM     61  C   UNL A   1      49.146  29.549  27.031  1.00  0.00     0.031 C 
ATOM     62  C   UNL A   1      48.564  27.167  26.668  1.00  0.00     0.031 A 
BRANCH  49  63
ATOM     63  C   UNL A   1      43.818  23.203  26.722  1.00  0.00    -0.014 A 
ATOM     64  C   UNL A   1      43.231  22.504  27.793  1.00  0.00     0.010 A 
ATOM     65  C   UNL A   1      43.929  22.568  25.471  1.00  0.00     0.010 A 
ATOM     66  C   UNL A   1      42.799  21.186  27.625  1.00  0.00     0.020 A 
ATOM     67  C   UNL A   1      43.469  21.261  25.291  1.00  0.00     0.020 A 
ATOM     68  C   UNL A   1      42.922  20.572  26.374  1.00  0.00     0.054 A 
BRANCH  68  69
ATOM     69  S   UNL A   1      42.329  18.870  26.179  1.00  0.00     0.124 S 
ATOM     70  O   UNL A   1      42.488  18.339  27.531  1.00  0.00    -0.237 OA
ATOM     71  O   UNL A   1      40.949  19.061  25.739  1.00  0.00    -0.237 OA
ATOM     72  O   UNL A   1      43.227  18.300  25.178  1.00  0.00    -0.744 OA
ENDBRANCH  68  69
ENDBRANCH  49  63
BRANCH  50  73
ATOM     73  C   UNL A   1      46.551  32.717  28.042  1.00  0.00    -0.014 A 
ATOM     74  C   UNL A   1      46.892  33.177  29.326  1.00  0.00     0.010 A 
ATOM     75  C   UNL A   1      46.605  33.617  26.961  1.00  0.00     0.010 A 
ATOM     76  C   UNL A   1      47.264  34.510  29.528  1.00  0.00     0.020 A 
ATOM     77  C   UNL A   1      47.007  34.942  27.152  1.00  0.00     0.020 A 
ATOM     78  C   UNL A   1      47.324  35.383  28.438  1.00  0.00     0.054 A 
BRANCH  78  79
ATOM     79  S   UNL A   1      47.864  37.093  28.716  1.00  0.00     0.124 S 
ATOM     80  O   UNL A   1      49.206  36.905  29.259  1.00  0.00    -0.237 OA
ATOM     81  O   UNL A   1      47.799  37.662  27.372  1.00  0.00    -0.237 OA
ATOM     82  O   UNL A   1      46.875  37.616  29.654  1.00  0.00    -0.744 OA
ENDBRANCH  78  79
ENDBRANCH  50  73
BRANCH  62  83
ATOM     83  C   UNL A   1      50.013  26.899  26.345  1.00  0.00    -0.014 A 
ATOM     84  C   UNL A   1      50.520  27.056  25.043  1.00  0.00     0.010 A 
ATOM     85  C   UNL A   1      50.893  26.517  27.377  1.00  0.00     0.010 A 
ATOM     86  C   UNL A   1      51.865  26.792  24.769  1.00  0.00     0.020 A 
ATOM     87  C   UNL A   1      52.245  26.284  27.114  1.00  0.00     0.020 A 
ATOM     88  C   UNL A   1      52.720  26.403  25.807  1.00  0.00     0.054 A 
BRANCH  88  89
ATOM     89  S   UNL A   1      54.465  26.083  25.428  1.00  0.00     0.124 S 
ATOM     90  O   UNL A   1      55.099  26.289  26.728  1.00  0.00    -0.237 OA
ATOM     91  O   UNL A   1      54.441  24.703  24.951  1.00  0.00    -0.237 OA
ATOM     92  O   UNL A   1      54.789  27.083  24.413  1.00  0.00    -0.744 OA
ENDBRANCH  88  89
ENDBRANCH  62  83
ENDBRANCH  36  37
ENDBRANCH  29  31
ENDBRANCH  28  29
ENDBRANCH  27  28
ENDBRANCH  26  27
ENDBRANCH  25  26
ENDBRANCH  24  25
ENDBRANCH   1  24
TORSDOF 26
ENDMDL
