MODEL 1
REMARK VINA RESULT:     -10.1      0.000      0.000
REMARK SMILES Cc1cc(C)c2c(=O)n(CCCC(=O)OCCOCCOCCOC(=O)c3ccc(-c4c5nc(c(-c6ccc(S(=O)(=O)[O-])cc6)c6ccc([nH]6)c(-c6ccc(S(=O)(=O)[O-])cc6)c6nc(c(-c7ccc(S(=O)(=O)[O-])cc7)c7ccc4[nH]7)C=C6)C=C5)cc3)sc2n1
REMARK SMILES IDX 19 1 18 2 17 3 16 4 15 5 13 6 14 7 12 8 11 9 10 10 9 11 1 12
REMARK SMILES IDX 2 13 3 14 89 15 4 16 88 17 5 18 6 19 87 20 7 21 8 22 20 23
REMARK SMILES IDX 21 24 22 25 23 26 24 27 25 28 26 29 27 30 28 31 86 32 29 33
REMARK SMILES IDX 85 34 30 35 31 36 32 37 79 38 33 39 84 40 78 41 80 42 34 43
REMARK SMILES IDX 83 44 77 45 76 46 35 48 65 49 46 50 64 51 47 52 50 53 63 54
REMARK SMILES IDX 81 55 48 56 49 57 62 59 82 60 51 61 36 62 37 63 45 64 38 65
REMARK SMILES IDX 44 66 39 67 40 68 41 69 42 70 43 71 66 72 67 73 75 74 68 75
REMARK SMILES IDX 74 76 69 77 70 78 71 79 72 80 73 81 52 82 53 83 61 84 54 85
REMARK SMILES IDX 60 86 55 87 56 88 57 89 58 90 59 91
REMARK H PARENT 80 47 50 58
REMARK Flexibility Score: inf
ROOT
ATOM      1  C   UNL A   1      42.178  19.357  26.138  1.00  0.00     0.188 C 
ENDROOT
BRANCH   1   2
ATOM      2  O   UNL A   1      41.868  19.988  27.360  1.00  0.00    -0.376 OA
BRANCH   2   3
ATOM      3  C   UNL A   1      40.734  20.838  27.406  1.00  0.00     0.202 C 
BRANCH   3   4
ATOM      4  C   UNL A   1      40.359  21.705  26.190  1.00  0.00     0.261 C 
BRANCH   4   5
ATOM      5  O   UNL A   1      39.843  23.007  26.524  1.00  0.00    -0.463 OA
BRANCH   5   6
ATOM      6  C   UNL A   1      38.560  23.276  26.189  1.00  0.00     0.305 C 
ATOM      7  O   UNL A   1      37.984  24.325  26.459  1.00  0.00    -0.252 OA
BRANCH   6   8
ATOM      8  C   UNL A   1      37.887  22.204  25.345  1.00  0.00     0.124 C 
BRANCH   8   9
ATOM      9  C   UNL A   1      36.488  21.634  25.628  1.00  0.00     0.035 C 
BRANCH   9  10
ATOM     10  C   UNL A   1      35.395  21.684  24.556  1.00  0.00     0.139 C 
BRANCH  10  11
ATOM     11  N   UNL A   1      34.635  22.913  24.563  1.00  0.00    -0.262 N 
ATOM     12  C   UNL A   1      33.654  28.805  25.480  1.00  0.00     0.067 C 
ATOM     13  C   UNL A   1      33.640  27.449  24.851  1.00  0.00     0.039 A 
ATOM     14  C   UNL A   1      33.297  27.257  23.504  1.00  0.00     0.027 A 
ATOM     15  N   UNL A   1      33.955  26.431  25.677  1.00  0.00    -0.241 NA
ATOM     16  C   UNL A   1      33.370  25.975  22.935  1.00  0.00    -0.033 A 
ATOM     17  C   UNL A   1      34.023  25.224  25.102  1.00  0.00     0.146 A 
ATOM     18  C   UNL A   1      32.963  25.716  21.519  1.00  0.00     0.045 C 
ATOM     19  C   UNL A   1      33.819  24.958  23.762  1.00  0.00     0.081 A 
ATOM     20  S   UNL A   1      34.375  23.767  26.017  1.00  0.00    -0.035 S 
ATOM     21  C   UNL A   1      34.218  23.576  23.420  1.00  0.00     0.270 A 
ATOM     22  O   UNL A   1      34.244  23.157  22.274  1.00  0.00    -0.268 OA
ENDBRANCH  10  11
ENDBRANCH   9  10
ENDBRANCH   8   9
ENDBRANCH   6   8
ENDBRANCH   5   6
ENDBRANCH   4   5
ENDBRANCH   3   4
ENDBRANCH   2   3
ENDBRANCH   1   2
BRANCH   1  23
ATOM     23  C   UNL A   1      43.311  18.323  26.067  1.00  0.00     0.188 C 
BRANCH  23  24
ATOM     24  O   UNL A   1      44.208  18.212  24.980  1.00  0.00    -0.376 OA
BRANCH  24  25
ATOM     25  C   UNL A   1      44.893  19.256  24.303  1.00  0.00     0.202 C 
BRANCH  25  26
ATOM     26  C   UNL A   1      44.257  20.299  23.386  1.00  0.00     0.261 C 
BRANCH  26  27
ATOM     27  O   UNL A   1      44.624  21.622  23.658  1.00  0.00    -0.460 OA
BRANCH  27  28
ATOM     28  C   UNL A   1      45.144  21.810  24.886  1.00  0.00     0.338 C 
ATOM     29  O   UNL A   1      46.243  21.455  25.296  1.00  0.00    -0.246 OA
BRANCH  28  30
ATOM     30  C   UNL A   1      44.166  22.601  25.632  1.00  0.00     0.060 A 
ATOM     31  C   UNL A   1      43.386  23.509  24.919  1.00  0.00     0.016 A 
ATOM     32  C   UNL A   1      44.198  22.567  27.036  1.00  0.00     0.016 A 
ATOM     33  C   UNL A   1      42.919  24.602  25.602  1.00  0.00     0.010 A 
ATOM     34  C   UNL A   1      43.747  23.660  27.712  1.00  0.00     0.010 A 
ATOM     35  C   UNL A   1      43.251  24.712  26.955  1.00  0.00    -0.014 A 
BRANCH  35  36
ATOM     36  C   UNL A   1      43.104  25.987  27.601  1.00  0.00     0.031 A 
ATOM     37  C   UNL A   1      44.175  26.919  27.225  1.00  0.00     0.074 A 
ATOM     38  C   UNL A   1      42.034  26.256  28.374  1.00  0.00     0.049 A 
ATOM     39  N   UNL A   1      45.204  27.225  27.940  1.00  0.00    -0.248 NA
ATOM     40  C   UNL A   1      44.255  27.359  25.822  1.00  0.00     0.031 C 
ATOM     41  C   UNL A   1      40.820  25.461  28.583  1.00  0.00     0.029 A 
ATOM     42  N   UNL A   1      41.769  27.382  29.076  1.00  0.00    -0.354 N 
ATOM     43  C   UNL A   1      45.922  28.119  27.164  1.00  0.00     0.074 A 
ATOM     44  C   UNL A   1      45.446  27.956  25.814  1.00  0.00     0.031 C 
ATOM     45  C   UNL A   1      39.862  26.246  29.134  1.00  0.00     0.029 A 
ATOM     46  C   UNL A   1      40.440  27.546  29.439  1.00  0.00     0.049 A 
ATOM     47  H   UNL A   1      42.467  28.036  29.311  1.00  0.00     0.167 HD
ATOM     48  C   UNL A   1      46.601  29.145  27.742  1.00  0.00     0.031 A 
ATOM     49  C   UNL A   1      39.867  28.699  29.880  1.00  0.00     0.031 A 
ATOM     50  C   UNL A   1      46.733  28.956  29.165  1.00  0.00     0.049 A 
ATOM     51  C   UNL A   1      40.981  29.563  30.366  1.00  0.00     0.074 A 
ATOM     52  C   UNL A   1      47.304  27.984  29.961  1.00  0.00     0.029 A 
ATOM     53  N   UNL A   1      45.847  29.642  29.968  1.00  0.00    -0.354 N 
ATOM     54  N   UNL A   1      41.710  29.258  31.406  1.00  0.00    -0.248 NA
ATOM     55  C   UNL A   1      41.612  30.461  29.408  1.00  0.00     0.031 C 
ATOM     56  C   UNL A   1      46.409  27.833  31.059  1.00  0.00     0.029 A 
ATOM     57  C   UNL A   1      45.385  28.776  30.926  1.00  0.00     0.049 A 
ATOM     58  H   UNL A   1      45.590  30.588  29.870  1.00  0.00     0.167 HD
ATOM     59  C   UNL A   1      43.015  29.551  31.027  1.00  0.00     0.074 A 
ATOM     60  C   UNL A   1      42.883  30.363  29.815  1.00  0.00     0.031 C 
ATOM     61  C   UNL A   1      44.077  28.862  31.544  1.00  0.00     0.031 A 
BRANCH  48  62
ATOM     62  C   UNL A   1      46.729  30.498  27.099  1.00  0.00    -0.014 A 
ATOM     63  C   UNL A   1      47.992  31.114  27.092  1.00  0.00     0.010 A 
ATOM     64  C   UNL A   1      45.616  31.296  26.757  1.00  0.00     0.010 A 
ATOM     65  C   UNL A   1      48.125  32.480  26.819  1.00  0.00     0.020 A 
ATOM     66  C   UNL A   1      45.742  32.646  26.439  1.00  0.00     0.020 A 
ATOM     67  C   UNL A   1      46.995  33.238  26.505  1.00  0.00     0.054 A 
BRANCH  67  68
ATOM     68  S   UNL A   1      47.167  35.018  26.254  1.00  0.00     0.124 S 
ATOM     69  O   UNL A   1      47.502  35.478  27.598  1.00  0.00    -0.237 OA
ATOM     70  O   UNL A   1      48.245  35.083  25.271  1.00  0.00    -0.237 OA
ATOM     71  O   UNL A   1      45.853  35.422  25.761  1.00  0.00    -0.744 OA
ENDBRANCH  67  68
ENDBRANCH  48  62
BRANCH  49  72
ATOM     72  C   UNL A   1      38.514  29.229  29.549  1.00  0.00    -0.014 A 
ATOM     73  C   UNL A   1      37.663  29.753  30.543  1.00  0.00     0.010 A 
ATOM     74  C   UNL A   1      38.160  29.474  28.205  1.00  0.00     0.010 A 
ATOM     75  C   UNL A   1      36.541  30.537  30.207  1.00  0.00     0.020 A 
ATOM     76  C   UNL A   1      37.043  30.249  27.862  1.00  0.00     0.020 A 
ATOM     77  C   UNL A   1      36.250  30.798  28.866  1.00  0.00     0.054 A 
BRANCH  77  78
ATOM     78  S   UNL A   1      34.904  31.946  28.438  1.00  0.00     0.124 S 
ATOM     79  O   UNL A   1      34.471  32.424  29.748  1.00  0.00    -0.237 OA
ATOM     80  O   UNL A   1      35.579  32.929  27.597  1.00  0.00    -0.237 OA
ATOM     81  O   UNL A   1      33.937  31.099  27.739  1.00  0.00    -0.744 OA
ENDBRANCH  77  78
ENDBRANCH  49  72
BRANCH  61  82
ATOM     82  C   UNL A   1      43.846  27.946  32.726  1.00  0.00    -0.014 A 
ATOM     83  C   UNL A   1      43.525  28.396  34.024  1.00  0.00     0.010 A 
ATOM     84  C   UNL A   1      43.765  26.569  32.458  1.00  0.00     0.010 A 
ATOM     85  C   UNL A   1      43.146  27.483  35.024  1.00  0.00     0.020 A 
ATOM     86  C   UNL A   1      43.373  25.660  33.443  1.00  0.00     0.020 A 
ATOM     87  C   UNL A   1      43.071  26.119  34.724  1.00  0.00     0.054 A 
BRANCH  87  88
ATOM     88  S   UNL A   1      42.538  24.945  36.002  1.00  0.00     0.124 S 
ATOM     89  O   UNL A   1      42.320  23.720  35.238  1.00  0.00    -0.237 OA
ATOM     90  O   UNL A   1      43.676  24.921  36.918  1.00  0.00    -0.237 OA
ATOM     91  O   UNL A   1      41.326  25.552  36.550  1.00  0.00    -0.744 OA
ENDBRANCH  87  88
ENDBRANCH  61  82
ENDBRANCH  35  36
ENDBRANCH  28  30
ENDBRANCH  27  28
ENDBRANCH  26  27
ENDBRANCH  25  26
ENDBRANCH  24  25
ENDBRANCH  23  24
ENDBRANCH   1  23
TORSDOF 23
ENDMDL
MODEL 2
REMARK VINA RESULT:      -9.6      3.639      9.577
REMARK SMILES Cc1cc(C)c2c(=O)n(CCCC(=O)OCCOCCOCCOC(=O)c3ccc(-c4c5nc(c(-c6ccc(S(=O)(=O)[O-])cc6)c6ccc([nH]6)c(-c6ccc(S(=O)(=O)[O-])cc6)c6nc(c(-c7ccc(S(=O)(=O)[O-])cc7)c7ccc4[nH]7)C=C6)C=C5)cc3)sc2n1
REMARK SMILES IDX 19 1 18 2 17 3 16 4 15 5 13 6 14 7 12 8 11 9 10 10 9 11 1 12
REMARK SMILES IDX 2 13 3 14 89 15 4 16 88 17 5 18 6 19 87 20 7 21 8 22 20 23
REMARK SMILES IDX 21 24 22 25 23 26 24 27 25 28 26 29 27 30 28 31 86 32 29 33
REMARK SMILES IDX 85 34 30 35 31 36 32 37 79 38 33 39 84 40 78 41 80 42 34 43
REMARK SMILES IDX 83 44 77 45 76 46 35 48 65 49 46 50 64 51 47 52 50 53 63 54
REMARK SMILES IDX 81 55 48 56 49 57 62 59 82 60 51 61 36 62 37 63 45 64 38 65
REMARK SMILES IDX 44 66 39 67 40 68 41 69 42 70 43 71 66 72 67 73 75 74 68 75
REMARK SMILES IDX 74 76 69 77 70 78 71 79 72 80 73 81 52 82 53 83 61 84 54 85
REMARK SMILES IDX 60 86 55 87 56 88 57 89 58 90 59 91
REMARK H PARENT 80 47 50 58
REMARK Flexibility Score: inf
ROOT
ATOM      1  C   UNL A   1      34.200  28.645  25.619  1.00  0.00     0.188 C 
ENDROOT
BRANCH   1   2
ATOM      2  O   UNL A   1      33.756  28.642  24.281  1.00  0.00    -0.376 OA
BRANCH   2   3
ATOM      3  C   UNL A   1      32.609  27.874  23.958  1.00  0.00     0.202 C 
BRANCH   3   4
ATOM      4  C   UNL A   1      31.211  28.518  23.965  1.00  0.00     0.261 C 
BRANCH   4   5
ATOM      5  O   UNL A   1      30.199  27.752  23.284  1.00  0.00    -0.463 OA
BRANCH   5   6
ATOM      6  C   UNL A   1      29.557  26.796  23.995  1.00  0.00     0.305 C 
ATOM      7  O   UNL A   1      28.539  26.224  23.615  1.00  0.00    -0.252 OA
BRANCH   6   8
ATOM      8  C   UNL A   1      30.250  26.392  25.287  1.00  0.00     0.124 C 
BRANCH   8   9
ATOM      9  C   UNL A   1      30.775  24.978  25.580  1.00  0.00     0.035 C 
BRANCH   9  10
ATOM     10  C   UNL A   1      31.482  24.168  24.488  1.00  0.00     0.139 C 
BRANCH  10  11
ATOM     11  N   UNL A   1      32.592  23.383  24.979  1.00  0.00    -0.262 N 
ATOM     12  C   UNL A   1      36.846  19.096  24.792  1.00  0.00     0.067 C 
ATOM     13  C   UNL A   1      36.163  20.402  25.042  1.00  0.00     0.039 A 
ATOM     14  C   UNL A   1      36.880  21.574  25.328  1.00  0.00     0.027 A 
ATOM     15  N   UNL A   1      34.816  20.361  24.997  1.00  0.00    -0.241 NA
ATOM     16  C   UNL A   1      36.201  22.794  25.482  1.00  0.00    -0.033 A 
ATOM     17  C   UNL A   1      34.200  21.542  25.139  1.00  0.00     0.146 A 
ATOM     18  C   UNL A   1      36.918  24.057  25.839  1.00  0.00     0.045 C 
ATOM     19  C   UNL A   1      34.827  22.762  25.305  1.00  0.00     0.081 A 
ATOM     20  S   UNL A   1      32.451  21.692  25.153  1.00  0.00    -0.035 S 
ATOM     21  C   UNL A   1      33.870  23.881  25.176  1.00  0.00     0.270 A 
ATOM     22  O   UNL A   1      34.215  25.052  25.161  1.00  0.00    -0.268 OA
ENDBRANCH  10  11
ENDBRANCH   9  10
ENDBRANCH   8   9
ENDBRANCH   6   8
ENDBRANCH   5   6
ENDBRANCH   4   5
ENDBRANCH   3   4
ENDBRANCH   2   3
ENDBRANCH   1   2
BRANCH   1  23
ATOM     23  C   UNL A   1      33.245  28.241  26.750  1.00  0.00     0.188 C 
BRANCH  23  24
ATOM     24  O   UNL A   1      32.417  29.152  27.445  1.00  0.00    -0.376 OA
BRANCH  24  25
ATOM     25  C   UNL A   1      31.686  30.248  26.913  1.00  0.00     0.202 C 
BRANCH  25  26
ATOM     26  C   UNL A   1      32.120  31.713  26.937  1.00  0.00     0.261 C 
BRANCH  26  27
ATOM     27  O   UNL A   1      33.235  31.981  27.739  1.00  0.00    -0.460 OA
BRANCH  27  28
ATOM     28  C   UNL A   1      33.315  33.257  28.166  1.00  0.00     0.338 C 
ATOM     29  O   UNL A   1      32.488  34.148  28.019  1.00  0.00    -0.246 OA
BRANCH  28  30
ATOM     30  C   UNL A   1      34.565  33.362  28.919  1.00  0.00     0.060 A 
ATOM     31  C   UNL A   1      35.596  34.118  28.364  1.00  0.00     0.016 A 
ATOM     32  C   UNL A   1      34.748  32.541  30.044  1.00  0.00     0.016 A 
ATOM     33  C   UNL A   1      36.876  33.781  28.717  1.00  0.00     0.010 A 
ATOM     34  C   UNL A   1      36.020  32.196  30.384  1.00  0.00     0.010 A 
ATOM     35  C   UNL A   1      37.046  32.719  29.608  1.00  0.00    -0.014 A 
BRANCH  35  36
ATOM     36  C   UNL A   1      38.341  32.106  29.714  1.00  0.00     0.031 A 
ATOM     37  C   UNL A   1      38.322  30.703  29.280  1.00  0.00     0.074 A 
ATOM     38  C   UNL A   1      39.420  32.821  30.087  1.00  0.00     0.049 A 
ATOM     39  N   UNL A   1      38.310  29.668  30.049  1.00  0.00    -0.248 NA
ATOM     40  C   UNL A   1      38.026  30.416  27.866  1.00  0.00     0.031 C 
ATOM     41  C   UNL A   1      39.547  34.268  30.289  1.00  0.00     0.029 A 
ATOM     42  N   UNL A   1      40.689  32.389  30.270  1.00  0.00    -0.354 N 
ATOM     43  C   UNL A   1      38.281  28.585  29.186  1.00  0.00     0.074 A 
ATOM     44  C   UNL A   1      37.847  29.096  27.911  1.00  0.00     0.031 C 
ATOM     45  C   UNL A   1      40.861  34.602  30.303  1.00  0.00     0.029 A 
ATOM     46  C   UNL A   1      41.655  33.385  30.250  1.00  0.00     0.049 A 
ATOM     47  H   UNL A   1      40.911  31.439  30.407  1.00  0.00     0.167 HD
ATOM     48  C   UNL A   1      38.931  27.434  29.500  1.00  0.00     0.031 A 
ATOM     49  C   UNL A   1      42.996  33.196  30.119  1.00  0.00     0.031 A 
ATOM     50  C   UNL A   1      39.312  27.404  30.891  1.00  0.00     0.049 A 
ATOM     51  C   UNL A   1      43.262  31.781  30.502  1.00  0.00     0.074 A 
ATOM     52  C   UNL A   1      38.620  27.468  32.083  1.00  0.00     0.029 A 
ATOM     53  N   UNL A   1      40.619  27.732  31.184  1.00  0.00    -0.354 N 
ATOM     54  N   UNL A   1      43.086  31.331  31.716  1.00  0.00    -0.248 NA
ATOM     55  C   UNL A   1      43.204  30.770  29.453  1.00  0.00     0.031 C 
ATOM     56  C   UNL A   1      39.430  28.270  32.938  1.00  0.00     0.029 A 
ATOM     57  C   UNL A   1      40.611  28.583  32.259  1.00  0.00     0.049 A 
ATOM     58  H   UNL A   1      41.417  27.410  30.705  1.00  0.00     0.167 HD
ATOM     59  C   UNL A   1      42.467  30.098  31.555  1.00  0.00     0.074 A 
ATOM     60  C   UNL A   1      42.638  29.770  30.138  1.00  0.00     0.031 C 
ATOM     61  C   UNL A   1      41.614  29.601  32.502  1.00  0.00     0.031 A 
BRANCH  48  62
ATOM     62  C   UNL A   1      39.606  26.576  28.467  1.00  0.00    -0.014 A 
ATOM     63  C   UNL A   1      39.329  25.198  28.462  1.00  0.00     0.010 A 
ATOM     64  C   UNL A   1      40.701  27.019  27.693  1.00  0.00     0.010 A 
ATOM     65  C   UNL A   1      40.149  24.301  27.769  1.00  0.00     0.020 A 
ATOM     66  C   UNL A   1      41.495  26.141  26.962  1.00  0.00     0.020 A 
ATOM     67  C   UNL A   1      41.233  24.781  27.032  1.00  0.00     0.054 A 
BRANCH  67  68
ATOM     68  S   UNL A   1      42.340  23.605  26.223  1.00  0.00     0.124 S 
ATOM     69  O   UNL A   1      42.932  24.427  25.173  1.00  0.00    -0.237 OA
ATOM     70  O   UNL A   1      43.232  23.227  27.315  1.00  0.00    -0.237 OA
ATOM     71  O   UNL A   1      41.440  22.550  25.763  1.00  0.00    -0.744 OA
ENDBRANCH  67  68
ENDBRANCH  48  62
BRANCH  49  72
ATOM     72  C   UNL A   1      43.960  34.019  29.333  1.00  0.00    -0.014 A 
ATOM     73  C   UNL A   1      45.293  34.196  29.754  1.00  0.00     0.010 A 
ATOM     74  C   UNL A   1      43.644  34.411  28.015  1.00  0.00     0.010 A 
ATOM     75  C   UNL A   1      46.278  34.688  28.873  1.00  0.00     0.020 A 
ATOM     76  C   UNL A   1      44.617  34.906  27.135  1.00  0.00     0.020 A 
ATOM     77  C   UNL A   1      45.937  35.021  27.561  1.00  0.00     0.054 A 
BRANCH  77  78
ATOM     78  S   UNL A   1      47.237  35.496  26.379  1.00  0.00     0.124 S 
ATOM     79  O   UNL A   1      46.972  34.612  25.248  1.00  0.00    -0.237 OA
ATOM     80  O   UNL A   1      46.961  36.912  26.155  1.00  0.00    -0.237 OA
ATOM     81  O   UNL A   1      48.479  35.218  27.102  1.00  0.00    -0.744 OA
ENDBRANCH  77  78
ENDBRANCH  49  72
BRANCH  61  82
ATOM     82  C   UNL A   1      41.542  30.287  33.849  1.00  0.00    -0.014 A 
ATOM     83  C   UNL A   1      42.227  29.843  35.000  1.00  0.00     0.010 A 
ATOM     84  C   UNL A   1      40.906  31.539  33.893  1.00  0.00     0.010 A 
ATOM     85  C   UNL A   1      42.258  30.632  36.163  1.00  0.00     0.020 A 
ATOM     86  C   UNL A   1      40.948  32.334  35.040  1.00  0.00     0.020 A 
ATOM     87  C   UNL A   1      41.618  31.875  36.174  1.00  0.00     0.054 A 
BRANCH  87  88
ATOM     88  S   UNL A   1      41.696  32.916  37.659  1.00  0.00     0.124 S 
ATOM     89  O   UNL A   1      41.872  31.935  38.726  1.00  0.00    -0.237 OA
ATOM     90  O   UNL A   1      42.850  33.772  37.396  1.00  0.00    -0.237 OA
ATOM     91  O   UNL A   1      40.409  33.611  37.667  1.00  0.00    -0.744 OA
ENDBRANCH  87  88
ENDBRANCH  61  82
ENDBRANCH  35  36
ENDBRANCH  28  30
ENDBRANCH  27  28
ENDBRANCH  26  27
ENDBRANCH  25  26
ENDBRANCH  24  25
ENDBRANCH  23  24
ENDBRANCH   1  23
TORSDOF 23
ENDMDL
MODEL 3
REMARK VINA RESULT:      -9.0      3.059     10.699
REMARK SMILES Cc1cc(C)c2c(=O)n(CCCC(=O)OCCOCCOCCOC(=O)c3ccc(-c4c5nc(c(-c6ccc(S(=O)(=O)[O-])cc6)c6ccc([nH]6)c(-c6ccc(S(=O)(=O)[O-])cc6)c6nc(c(-c7ccc(S(=O)(=O)[O-])cc7)c7ccc4[nH]7)C=C6)C=C5)cc3)sc2n1
REMARK SMILES IDX 19 1 18 2 17 3 16 4 15 5 13 6 14 7 12 8 11 9 10 10 9 11 1 12
REMARK SMILES IDX 2 13 3 14 89 15 4 16 88 17 5 18 6 19 87 20 7 21 8 22 20 23
REMARK SMILES IDX 21 24 22 25 23 26 24 27 25 28 26 29 27 30 28 31 86 32 29 33
REMARK SMILES IDX 85 34 30 35 31 36 32 37 79 38 33 39 84 40 78 41 80 42 34 43
REMARK SMILES IDX 83 44 77 45 76 46 35 48 65 49 46 50 64 51 47 52 50 53 63 54
REMARK SMILES IDX 81 55 48 56 49 57 62 59 82 60 51 61 36 62 37 63 45 64 38 65
REMARK SMILES IDX 44 66 39 67 40 68 41 69 42 70 43 71 66 72 67 73 75 74 68 75
REMARK SMILES IDX 74 76 69 77 70 78 71 79 72 80 73 81 52 82 53 83 61 84 54 85
REMARK SMILES IDX 60 86 55 87 56 88 57 89 58 90 59 91
REMARK H PARENT 80 47 50 58
REMARK Flexibility Score: inf
ROOT
ATOM      1  C   UNL A   1      33.816  35.186  31.186  1.00  0.00     0.188 C 
ENDROOT
BRANCH   1   2
ATOM      2  O   UNL A   1      34.043  33.804  31.033  1.00  0.00    -0.376 OA
BRANCH   2   3
ATOM      3  C   UNL A   1      35.067  33.387  30.145  1.00  0.00     0.202 C 
BRANCH   3   4
ATOM      4  C   UNL A   1      35.017  31.993  29.495  1.00  0.00     0.261 C 
BRANCH   4   5
ATOM      5  O   UNL A   1      34.754  32.006  28.079  1.00  0.00    -0.463 OA
BRANCH   5   6
ATOM      6  C   UNL A   1      33.463  31.928  27.682  1.00  0.00     0.305 C 
ATOM      7  O   UNL A   1      32.728  32.900  27.538  1.00  0.00    -0.252 OA
BRANCH   6   8
ATOM      8  C   UNL A   1      32.994  30.527  27.320  1.00  0.00     0.124 C 
BRANCH   8   9
ATOM      9  C   UNL A   1      33.340  29.813  26.004  1.00  0.00     0.035 C 
BRANCH   9  10
ATOM     10  C   UNL A   1      32.299  28.944  25.291  1.00  0.00     0.139 C 
BRANCH  10  11
ATOM     11  N   UNL A   1      32.850  27.737  24.718  1.00  0.00    -0.262 N 
ATOM     12  C   UNL A   1      33.549  21.780  23.986  1.00  0.00     0.067 C 
ATOM     13  C   UNL A   1      33.407  23.236  23.681  1.00  0.00     0.039 A 
ATOM     14  C   UNL A   1      33.107  23.700  22.390  1.00  0.00     0.027 A 
ATOM     15  N   UNL A   1      33.612  24.064  24.725  1.00  0.00    -0.241 NA
ATOM     16  C   UNL A   1      32.909  25.072  22.165  1.00  0.00    -0.033 A 
ATOM     17  C   UNL A   1      33.407  25.363  24.479  1.00  0.00     0.146 A 
ATOM     18  C   UNL A   1      32.641  25.616  20.797  1.00  0.00     0.045 C 
ATOM     19  C   UNL A   1      32.996  25.898  23.273  1.00  0.00     0.081 A 
ATOM     20  S   UNL A   1      33.663  26.602  25.696  1.00  0.00    -0.035 S 
ATOM     21  C   UNL A   1      32.624  27.323  23.415  1.00  0.00     0.270 A 
ATOM     22  O   UNL A   1      32.114  27.969  22.513  1.00  0.00    -0.268 OA
ENDBRANCH  10  11
ENDBRANCH   9  10
ENDBRANCH   8   9
ENDBRANCH   6   8
ENDBRANCH   5   6
ENDBRANCH   4   5
ENDBRANCH   3   4
ENDBRANCH   2   3
ENDBRANCH   1   2
BRANCH   1  23
ATOM     23  C   UNL A   1      34.108  35.874  32.527  1.00  0.00     0.188 C 
BRANCH  23  24
ATOM     24  O   UNL A   1      35.315  35.716  33.247  1.00  0.00    -0.376 OA
BRANCH  24  25
ATOM     25  C   UNL A   1      35.756  34.575  33.971  1.00  0.00     0.202 C 
BRANCH  25  26
ATOM     26  C   UNL A   1      37.082  33.843  33.771  1.00  0.00     0.261 C 
BRANCH  26  27
ATOM     27  O   UNL A   1      36.966  32.464  33.569  1.00  0.00    -0.460 OA
BRANCH  27  28
ATOM     28  C   UNL A   1      37.882  31.729  34.230  1.00  0.00     0.338 C 
ATOM     29  O   UNL A   1      37.996  31.589  35.441  1.00  0.00    -0.246 OA
BRANCH  28  30
ATOM     30  C   UNL A   1      38.684  31.055  33.209  1.00  0.00     0.060 A 
ATOM     31  C   UNL A   1      38.244  29.814  32.753  1.00  0.00     0.016 A 
ATOM     32  C   UNL A   1      39.950  31.573  32.892  1.00  0.00     0.016 A 
ATOM     33  C   UNL A   1      39.195  28.950  32.278  1.00  0.00     0.010 A 
ATOM     34  C   UNL A   1      40.898  30.710  32.434  1.00  0.00     0.010 A 
ATOM     35  C   UNL A   1      40.524  29.383  32.280  1.00  0.00    -0.014 A 
BRANCH  35  36
ATOM     36  C   UNL A   1      41.569  28.406  32.146  1.00  0.00     0.031 A 
ATOM     37  C   UNL A   1      42.074  27.960  33.450  1.00  0.00     0.074 A 
ATOM     38  C   UNL A   1      41.928  27.933  30.936  1.00  0.00     0.049 A 
ATOM     39  N   UNL A   1      43.170  28.339  34.013  1.00  0.00    -0.248 NA
ATOM     40  C   UNL A   1      41.157  27.223  34.336  1.00  0.00     0.031 C 
ATOM     41  C   UNL A   1      41.296  28.154  29.631  1.00  0.00     0.029 A 
ATOM     42  N   UNL A   1      42.908  27.050  30.639  1.00  0.00    -0.354 N 
ATOM     43  C   UNL A   1      43.203  27.661  35.219  1.00  0.00     0.074 A 
ATOM     44  C   UNL A   1      41.855  27.218  35.472  1.00  0.00     0.031 C 
ATOM     45  C   UNL A   1      41.747  27.223  28.755  1.00  0.00     0.029 A 
ATOM     46  C   UNL A   1      42.790  26.441  29.398  1.00  0.00     0.049 A 
ATOM     47  H   UNL A   1      43.649  26.853  31.258  1.00  0.00     0.167 HD
ATOM     48  C   UNL A   1      44.383  27.234  35.740  1.00  0.00     0.031 A 
ATOM     49  C   UNL A   1      43.458  25.329  28.986  1.00  0.00     0.031 A 
ATOM     50  C   UNL A   1      45.507  27.852  35.081  1.00  0.00     0.049 A 
ATOM     51  C   UNL A   1      44.650  25.201  29.871  1.00  0.00     0.074 A 
ATOM     52  C   UNL A   1      45.928  29.155  34.909  1.00  0.00     0.029 A 
ATOM     53  N   UNL A   1      46.144  27.108  34.111  1.00  0.00    -0.354 N 
ATOM     54  N   UNL A   1      45.628  26.067  29.871  1.00  0.00    -0.248 NA
ATOM     55  C   UNL A   1      44.504  24.432  31.101  1.00  0.00     0.031 C 
ATOM     56  C   UNL A   1      46.427  29.208  33.576  1.00  0.00     0.029 A 
ATOM     57  C   UNL A   1      46.366  27.923  33.031  1.00  0.00     0.049 A 
ATOM     58  H   UNL A   1      46.395  26.158  34.182  1.00  0.00     0.167 HD
ATOM     59  C   UNL A   1      45.929  26.269  31.213  1.00  0.00     0.074 A 
ATOM     60  C   UNL A   1      45.257  25.175  31.920  1.00  0.00     0.031 C 
ATOM     61  C   UNL A   1      46.429  27.460  31.658  1.00  0.00     0.031 A 
BRANCH  48  62
ATOM     62  C   UNL A   1      44.514  25.947  36.506  1.00  0.00    -0.014 A 
ATOM     63  C   UNL A   1      44.574  26.010  37.909  1.00  0.00     0.010 A 
ATOM     64  C   UNL A   1      44.857  24.720  35.897  1.00  0.00     0.010 A 
ATOM     65  C   UNL A   1      45.021  24.917  38.660  1.00  0.00     0.020 A 
ATOM     66  C   UNL A   1      45.259  23.612  36.638  1.00  0.00     0.020 A 
ATOM     67  C   UNL A   1      45.370  23.729  38.015  1.00  0.00     0.054 A 
BRANCH  67  68
ATOM     68  S   UNL A   1      46.038  22.361  38.987  1.00  0.00     0.124 S 
ATOM     69  O   UNL A   1      45.903  21.242  38.060  1.00  0.00    -0.237 OA
ATOM     70  O   UNL A   1      47.403  22.811  39.247  1.00  0.00    -0.237 OA
ATOM     71  O   UNL A   1      45.166  22.316  40.158  1.00  0.00    -0.744 OA
ENDBRANCH  67  68
ENDBRANCH  48  62
BRANCH  49  72
ATOM     72  C   UNL A   1      42.931  24.200  28.166  1.00  0.00    -0.014 A 
ATOM     73  C   UNL A   1      43.560  23.799  26.971  1.00  0.00     0.010 A 
ATOM     74  C   UNL A   1      41.957  23.332  28.704  1.00  0.00     0.010 A 
ATOM     75  C   UNL A   1      43.270  22.555  26.374  1.00  0.00     0.020 A 
ATOM     76  C   UNL A   1      41.659  22.096  28.112  1.00  0.00     0.020 A 
ATOM     77  C   UNL A   1      42.334  21.702  26.961  1.00  0.00     0.054 A 
BRANCH  77  78
ATOM     78  S   UNL A   1      42.083  20.030  26.285  1.00  0.00     0.124 S 
ATOM     79  O   UNL A   1      40.701  20.085  25.818  1.00  0.00    -0.237 OA
ATOM     80  O   UNL A   1      43.101  19.953  25.242  1.00  0.00    -0.237 OA
ATOM     81  O   UNL A   1      42.312  19.154  27.434  1.00  0.00    -0.744 OA
ENDBRANCH  77  78
ENDBRANCH  49  72
BRANCH  61  82
ATOM     82  C   UNL A   1      46.897  28.480  30.642  1.00  0.00    -0.014 A 
ATOM     83  C   UNL A   1      48.233  28.610  30.210  1.00  0.00     0.010 A 
ATOM     84  C   UNL A   1      45.902  29.202  29.961  1.00  0.00     0.010 A 
ATOM     85  C   UNL A   1      48.559  29.453  29.133  1.00  0.00     0.020 A 
ATOM     86  C   UNL A   1      46.217  30.027  28.879  1.00  0.00     0.020 A 
ATOM     87  C   UNL A   1      47.545  30.156  28.473  1.00  0.00     0.054 A 
BRANCH  87  88
ATOM     88  S   UNL A   1      47.957  31.208  27.052  1.00  0.00     0.124 S 
ATOM     89  O   UNL A   1      46.851  30.952  26.134  1.00  0.00    -0.237 OA
ATOM     90  O   UNL A   1      47.990  32.547  27.639  1.00  0.00    -0.237 OA
ATOM     91  O   UNL A   1      49.255  30.703  26.609  1.00  0.00    -0.744 OA
ENDBRANCH  87  88
ENDBRANCH  61  82
ENDBRANCH  35  36
ENDBRANCH  28  30
ENDBRANCH  27  28
ENDBRANCH  26  27
ENDBRANCH  25  26
ENDBRANCH  24  25
ENDBRANCH  23  24
ENDBRANCH   1  23
TORSDOF 23
ENDMDL
