MODEL 1
REMARK VINA RESULT:     -10.6      0.000      0.000
REMARK SMILES CC(=O)N1C[C@@H]2C[N@H+](CC(=O)NCc3ccccc3)C[C@]2(C(=O)OCCOCCOCCOC(=O)c2ccc(-c3c4nc(c(-c5ccc(S(=O)(=O)[O-])cc5)c5ccc([nH]5)c(-c5ccc(S(=O)(=O)[O-])cc5)c5nc(c(-c6ccc(S(=O)(=O)[O-])cc6)c6ccc3[nH]6)C=C5)C=C4)cc2)C1
REMARK SMILES IDX 28 1 27 2 26 3 25 4 24 5 22 6 23 7 21 8 4 9 5 10 96 11 6 12
REMARK SMILES IDX 7 13 20 14 8 15 2 17 1 18 3 19 9 20 10 21 11 22 12 23 13 25
REMARK SMILES IDX 14 26 15 27 19 28 16 29 18 30 17 31 29 32 30 33 31 34 32 35
REMARK SMILES IDX 33 36 34 37 35 38 36 39 37 40 95 41 38 42 94 43 39 44 40 45
REMARK SMILES IDX 41 46 88 47 42 48 93 49 87 50 89 51 43 52 92 53 86 54 85 55
REMARK SMILES IDX 44 57 74 58 55 59 73 60 56 61 59 62 72 63 90 64 57 65 58 66
REMARK SMILES IDX 71 68 91 69 60 70 45 71 46 72 54 73 47 74 53 75 48 76 49 77
REMARK SMILES IDX 50 78 51 79 52 80 75 81 76 82 84 83 77 84 83 85 78 86 79 87
REMARK SMILES IDX 80 88 81 89 82 90 61 91 62 92 70 93 63 94 69 95 64 96 65 97
REMARK SMILES IDX 66 98 67 99 68 100
REMARK H PARENT 8 16 12 24 89 56 59 67
REMARK Flexibility Score: inf
ROOT
ATOM      1  C   UNL A   1      33.396  29.110  23.469  1.00  0.00     0.188 C 
ENDROOT
BRANCH   1   2
ATOM      2  O   UNL A   1      33.775  27.982  22.700  1.00  0.00    -0.376 OA
BRANCH   2   3
ATOM      3  C   UNL A   1      33.519  26.739  23.335  1.00  0.00     0.202 C 
BRANCH   3   4
ATOM      4  C   UNL A   1      33.446  25.542  22.394  1.00  0.00     0.261 C 
BRANCH   4   5
ATOM      5  O   UNL A   1      33.429  24.160  22.903  1.00  0.00    -0.463 OA
BRANCH   5   6
ATOM      6  C   UNL A   1      34.389  23.354  23.461  1.00  0.00     0.320 C 
ATOM      7  O   UNL A   1      35.573  23.380  23.164  1.00  0.00    -0.251 OA
BRANCH   6   8
ATOM      8  C   UNL A   1      33.739  22.503  24.627  1.00  0.00     0.144 C 
ATOM      9  N   UNL A   1      34.156  20.087  24.917  1.00  0.00    -0.341 N 
ATOM     10  C   UNL A   1      33.318  20.468  26.002  1.00  0.00     0.130 C 
ATOM     11  C   UNL A   1      34.777  21.289  24.335  1.00  0.00     0.144 C 
ATOM     12  C   UNL A   1      33.657  21.925  26.126  1.00  0.00     0.089 C 
ATOM     13  C   UNL A   1      32.634  22.650  26.982  1.00  0.00     0.269 C 
ATOM     14  C   UNL A   1      33.644  23.907  25.398  1.00  0.00     0.284 C 
ATOM     15  N   UNL A   1      32.412  23.846  26.204  1.00  0.00    -0.326 N 
ATOM     16  H   UNL A   1      32.247  24.662  26.795  1.00  0.00     0.348 HD
BRANCH   9  17
ATOM     17  C   UNL A   1      34.018  18.831  24.375  1.00  0.00     0.219 C 
ATOM     18  C   UNL A   1      32.789  18.567  23.556  1.00  0.00     0.114 C 
ATOM     19  O   UNL A   1      34.901  17.979  24.484  1.00  0.00    -0.275 OA
ENDBRANCH   9  17
BRANCH  15  20
ATOM     20  C   UNL A   1      31.161  23.864  25.377  1.00  0.00     0.363 C 
BRANCH  20  21
ATOM     21  C   UNL A   1      30.058  24.874  25.757  1.00  0.00     0.275 C 
ATOM     22  O   UNL A   1      29.591  24.879  26.905  1.00  0.00    -0.268 OA
ATOM     23  N   UNL A   1      29.547  25.819  24.926  1.00  0.00    -0.347 N 
ATOM     24  H   UNL A   1      28.769  26.282  25.315  1.00  0.00     0.164 HD
BRANCH  23  25
ATOM     25  C   UNL A   1      29.878  26.308  23.594  1.00  0.00     0.151 C 
BRANCH  25  26
ATOM     26  C   UNL A   1      29.232  27.645  23.244  1.00  0.00    -0.029 A 
ATOM     27  C   UNL A   1      29.982  28.657  22.610  1.00  0.00     0.005 A 
ATOM     28  C   UNL A   1      27.878  27.911  23.473  1.00  0.00     0.005 A 
ATOM     29  C   UNL A   1      29.361  29.773  22.031  1.00  0.00     0.000 A 
ATOM     30  C   UNL A   1      27.279  29.073  22.972  1.00  0.00     0.000 A 
ATOM     31  C   UNL A   1      27.998  29.964  22.186  1.00  0.00     0.000 A 
ENDBRANCH  25  26
ENDBRANCH  23  25
ENDBRANCH  20  21
ENDBRANCH  15  20
ENDBRANCH   6   8
ENDBRANCH   5   6
ENDBRANCH   4   5
ENDBRANCH   3   4
ENDBRANCH   2   3
ENDBRANCH   1   2
BRANCH   1  32
ATOM     32  C   UNL A   1      33.503  28.863  24.984  1.00  0.00     0.188 C 
BRANCH  32  33
ATOM     33  O   UNL A   1      33.138  29.868  25.917  1.00  0.00    -0.376 OA
BRANCH  33  34
ATOM     34  C   UNL A   1      33.898  29.965  27.101  1.00  0.00     0.202 C 
BRANCH  34  35
ATOM     35  C   UNL A   1      34.292  31.372  27.582  1.00  0.00     0.261 C 
BRANCH  35  36
ATOM     36  O   UNL A   1      33.220  32.335  27.669  1.00  0.00    -0.460 OA
BRANCH  36  37
ATOM     37  C   UNL A   1      33.527  33.540  28.235  1.00  0.00     0.338 C 
ATOM     38  O   UNL A   1      32.873  34.557  28.158  1.00  0.00    -0.246 OA
BRANCH  37  39
ATOM     39  C   UNL A   1      34.667  33.371  29.193  1.00  0.00     0.060 A 
ATOM     40  C   UNL A   1      35.930  33.887  28.840  1.00  0.00     0.016 A 
ATOM     41  C   UNL A   1      34.506  32.733  30.421  1.00  0.00     0.016 A 
ATOM     42  C   UNL A   1      37.024  33.769  29.702  1.00  0.00     0.010 A 
ATOM     43  C   UNL A   1      35.619  32.562  31.260  1.00  0.00     0.010 A 
ATOM     44  C   UNL A   1      36.888  33.056  30.895  1.00  0.00    -0.014 A 
BRANCH  44  45
ATOM     45  C   UNL A   1      38.093  32.618  31.650  1.00  0.00     0.031 A 
ATOM     46  C   UNL A   1      38.881  31.455  31.104  1.00  0.00     0.074 A 
ATOM     47  C   UNL A   1      38.486  33.210  32.793  1.00  0.00     0.049 A 
ATOM     48  N   UNL A   1      39.865  30.787  31.648  1.00  0.00    -0.248 NA
ATOM     49  C   UNL A   1      38.499  30.982  29.763  1.00  0.00     0.031 C 
ATOM     50  C   UNL A   1      37.875  34.392  33.395  1.00  0.00     0.029 A 
ATOM     51  N   UNL A   1      39.495  32.870  33.666  1.00  0.00    -0.354 N 
ATOM     52  C   UNL A   1      40.202  29.800  30.728  1.00  0.00     0.074 A 
ATOM     53  C   UNL A   1      39.309  29.948  29.599  1.00  0.00     0.031 C 
ATOM     54  C   UNL A   1      38.498  34.658  34.559  1.00  0.00     0.029 A 
ATOM     55  C   UNL A   1      39.520  33.640  34.806  1.00  0.00     0.049 A 
ATOM     56  H   UNL A   1      40.136  32.144  33.492  1.00  0.00     0.167 HD
ATOM     57  C   UNL A   1      41.164  28.851  30.814  1.00  0.00     0.031 A 
ATOM     58  C   UNL A   1      40.250  33.514  35.934  1.00  0.00     0.031 A 
ATOM     59  C   UNL A   1      42.042  28.691  31.943  1.00  0.00     0.049 A 
ATOM     60  C   UNL A   1      41.245  32.383  36.057  1.00  0.00     0.074 A 
ATOM     61  C   UNL A   1      43.052  27.761  32.120  1.00  0.00     0.029 A 
ATOM     62  N   UNL A   1      42.008  29.467  33.091  1.00  0.00    -0.354 N 
ATOM     63  N   UNL A   1      41.558  31.460  35.180  1.00  0.00    -0.248 NA
ATOM     64  C   UNL A   1      41.982  32.279  37.326  1.00  0.00     0.031 C 
ATOM     65  C   UNL A   1      43.584  27.933  33.402  1.00  0.00     0.029 A 
ATOM     66  C   UNL A   1      42.954  29.016  33.995  1.00  0.00     0.049 A 
ATOM     67  H   UNL A   1      41.401  30.228  33.240  1.00  0.00     0.167 HD
ATOM     68  C   UNL A   1      42.545  30.681  35.781  1.00  0.00     0.074 A 
ATOM     69  C   UNL A   1      42.790  31.255  37.088  1.00  0.00     0.031 C 
ATOM     70  C   UNL A   1      43.189  29.589  35.297  1.00  0.00     0.031 A 
BRANCH  57  71
ATOM     71  C   UNL A   1      41.283  27.875  29.673  1.00  0.00    -0.014 A 
ATOM     72  C   UNL A   1      40.249  26.970  29.371  1.00  0.00     0.010 A 
ATOM     73  C   UNL A   1      42.435  27.891  28.865  1.00  0.00     0.010 A 
ATOM     74  C   UNL A   1      40.383  26.074  28.305  1.00  0.00     0.020 A 
ATOM     75  C   UNL A   1      42.560  27.019  27.780  1.00  0.00     0.020 A 
ATOM     76  C   UNL A   1      41.538  26.104  27.517  1.00  0.00     0.054 A 
BRANCH  76  77
ATOM     77  S   UNL A   1      41.672  24.949  26.126  1.00  0.00     0.124 S 
ATOM     78  O   UNL A   1      41.319  25.800  24.992  1.00  0.00    -0.237 OA
ATOM     79  O   UNL A   1      43.071  24.536  26.189  1.00  0.00    -0.237 OA
ATOM     80  O   UNL A   1      40.701  23.905  26.446  1.00  0.00    -0.744 OA
ENDBRANCH  76  77
ENDBRANCH  57  71
BRANCH  58  81
ATOM     81  C   UNL A   1      40.037  34.454  37.072  1.00  0.00    -0.014 A 
ATOM     82  C   UNL A   1      39.212  34.100  38.154  1.00  0.00     0.010 A 
ATOM     83  C   UNL A   1      40.649  35.722  37.069  1.00  0.00     0.010 A 
ATOM     84  C   UNL A   1      38.995  34.998  39.206  1.00  0.00     0.020 A 
ATOM     85  C   UNL A   1      40.460  36.609  38.132  1.00  0.00     0.020 A 
ATOM     86  C   UNL A   1      39.627  36.245  39.190  1.00  0.00     0.054 A 
BRANCH  86  87
ATOM     87  S   UNL A   1      39.384  37.367  40.596  1.00  0.00     0.124 S 
ATOM     88  O   UNL A   1      38.801  38.539  39.954  1.00  0.00    -0.237 OA
ATOM     89  O   UNL A   1      38.484  36.600  41.454  1.00  0.00    -0.237 OA
ATOM     90  O   UNL A   1      40.733  37.546  41.126  1.00  0.00    -0.744 OA
ENDBRANCH  86  87
ENDBRANCH  58  81
BRANCH  70  91
ATOM     91  C   UNL A   1      44.245  28.952  36.165  1.00  0.00    -0.014 A 
ATOM     92  C   UNL A   1      45.550  29.472  36.229  1.00  0.00     0.010 A 
ATOM     93  C   UNL A   1      43.909  27.852  36.977  1.00  0.00     0.010 A 
ATOM     94  C   UNL A   1      46.507  28.886  37.065  1.00  0.00     0.020 A 
ATOM     95  C   UNL A   1      44.854  27.283  37.837  1.00  0.00     0.020 A 
ATOM     96  C   UNL A   1      46.151  27.796  37.865  1.00  0.00     0.054 A 
BRANCH  96  97
ATOM     97  S   UNL A   1      47.399  27.083  38.972  1.00  0.00     0.124 S 
ATOM     98  O   UNL A   1      48.645  27.453  38.306  1.00  0.00    -0.237 OA
ATOM     99  O   UNL A   1      47.133  27.767  40.236  1.00  0.00    -0.237 OA
ATOM    100  O   UNL A   1      47.092  25.654  38.969  1.00  0.00    -0.744 OA
ENDBRANCH  96  97
ENDBRANCH  70  91
ENDBRANCH  44  45
ENDBRANCH  37  39
ENDBRANCH  36  37
ENDBRANCH  35  36
ENDBRANCH  34  35
ENDBRANCH  33  34
ENDBRANCH  32  33
ENDBRANCH   1  32
TORSDOF 25
ENDMDL
MODEL 2
REMARK VINA RESULT:     -10.5      6.411     10.592
REMARK SMILES CC(=O)N1C[C@@H]2C[N@H+](CC(=O)NCc3ccccc3)C[C@]2(C(=O)OCCOCCOCCOC(=O)c2ccc(-c3c4nc(c(-c5ccc(S(=O)(=O)[O-])cc5)c5ccc([nH]5)c(-c5ccc(S(=O)(=O)[O-])cc5)c5nc(c(-c6ccc(S(=O)(=O)[O-])cc6)c6ccc3[nH]6)C=C5)C=C4)cc2)C1
REMARK SMILES IDX 28 1 27 2 26 3 25 4 24 5 22 6 23 7 21 8 4 9 5 10 96 11 6 12
REMARK SMILES IDX 7 13 20 14 8 15 2 17 1 18 3 19 9 20 10 21 11 22 12 23 13 25
REMARK SMILES IDX 14 26 15 27 19 28 16 29 18 30 17 31 29 32 30 33 31 34 32 35
REMARK SMILES IDX 33 36 34 37 35 38 36 39 37 40 95 41 38 42 94 43 39 44 40 45
REMARK SMILES IDX 41 46 88 47 42 48 93 49 87 50 89 51 43 52 92 53 86 54 85 55
REMARK SMILES IDX 44 57 74 58 55 59 73 60 56 61 59 62 72 63 90 64 57 65 58 66
REMARK SMILES IDX 71 68 91 69 60 70 45 71 46 72 54 73 47 74 53 75 48 76 49 77
REMARK SMILES IDX 50 78 51 79 52 80 75 81 76 82 84 83 77 84 83 85 78 86 79 87
REMARK SMILES IDX 80 88 81 89 82 90 61 91 62 92 70 93 63 94 69 95 64 96 65 97
REMARK SMILES IDX 66 98 67 99 68 100
REMARK H PARENT 8 16 12 24 89 56 59 67
REMARK Flexibility Score: inf
ROOT
ATOM      1  C   UNL A   1      39.482  21.584  26.148  1.00  0.00     0.188 C 
ENDROOT
BRANCH   1   2
ATOM      2  O   UNL A   1      38.467  22.573  26.132  1.00  0.00    -0.376 OA
BRANCH   2   3
ATOM      3  C   UNL A   1      37.453  22.340  25.167  1.00  0.00     0.202 C 
BRANCH   3   4
ATOM      4  C   UNL A   1      36.253  21.549  25.677  1.00  0.00     0.261 C 
BRANCH   4   5
ATOM      5  O   UNL A   1      35.097  22.216  26.298  1.00  0.00    -0.463 OA
BRANCH   5   6
ATOM      6  C   UNL A   1      33.759  21.914  26.358  1.00  0.00     0.320 C 
ATOM      7  O   UNL A   1      33.038  22.155  27.313  1.00  0.00    -0.251 OA
BRANCH   6   8
ATOM      8  C   UNL A   1      33.293  21.344  24.957  1.00  0.00     0.144 C 
ATOM      9  N   UNL A   1      33.393  18.944  24.386  1.00  0.00    -0.341 N 
ATOM     10  C   UNL A   1      32.806  19.586  23.259  1.00  0.00     0.130 C 
ATOM     11  C   UNL A   1      33.302  19.834  25.556  1.00  0.00     0.144 C 
ATOM     12  C   UNL A   1      32.204  20.800  23.905  1.00  0.00     0.089 C 
ATOM     13  C   UNL A   1      31.824  21.837  22.863  1.00  0.00     0.269 C 
ATOM     14  C   UNL A   1      32.372  22.657  24.896  1.00  0.00     0.284 C 
ATOM     15  N   UNL A   1      32.315  23.048  23.476  1.00  0.00    -0.326 N 
ATOM     16  H   UNL A   1      31.714  23.848  23.278  1.00  0.00     0.348 HD
BRANCH   9  17
ATOM     17  C   UNL A   1      34.201  17.851  24.186  1.00  0.00     0.219 C 
ATOM     18  C   UNL A   1      33.623  16.702  23.414  1.00  0.00     0.114 C 
ATOM     19  O   UNL A   1      35.378  17.840  24.550  1.00  0.00    -0.275 OA
ENDBRANCH   9  17
BRANCH  15  20
ATOM     20  C   UNL A   1      33.621  23.563  22.950  1.00  0.00     0.363 C 
BRANCH  20  21
ATOM     21  C   UNL A   1      33.755  25.081  22.710  1.00  0.00     0.275 C 
ATOM     22  O   UNL A   1      33.660  25.538  21.562  1.00  0.00    -0.268 OA
ATOM     23  N   UNL A   1      33.946  26.010  23.683  1.00  0.00    -0.347 N 
ATOM     24  H   UNL A   1      34.129  26.906  23.318  1.00  0.00     0.164 HD
BRANCH  23  25
ATOM     25  C   UNL A   1      33.947  25.991  25.140  1.00  0.00     0.151 C 
BRANCH  25  26
ATOM     26  C   UNL A   1      33.257  27.192  25.777  1.00  0.00    -0.029 A 
ATOM     27  C   UNL A   1      32.093  27.018  26.554  1.00  0.00     0.005 A 
ATOM     28  C   UNL A   1      33.762  28.493  25.679  1.00  0.00     0.005 A 
ATOM     29  C   UNL A   1      31.600  28.045  27.373  1.00  0.00     0.000 A 
ATOM     30  C   UNL A   1      33.208  29.538  26.428  1.00  0.00     0.000 A 
ATOM     31  C   UNL A   1      32.180  29.301  27.332  1.00  0.00     0.000 A 
ENDBRANCH  25  26
ENDBRANCH  23  25
ENDBRANCH  20  21
ENDBRANCH  15  20
ENDBRANCH   6   8
ENDBRANCH   5   6
ENDBRANCH   4   5
ENDBRANCH   3   4
ENDBRANCH   2   3
ENDBRANCH   1   2
BRANCH   1  32
ATOM     32  C   UNL A   1      40.525  21.817  27.254  1.00  0.00     0.188 C 
BRANCH  32  33
ATOM     33  O   UNL A   1      41.709  21.037  27.319  1.00  0.00    -0.376 OA
BRANCH  33  34
ATOM     34  C   UNL A   1      41.587  19.647  27.103  1.00  0.00     0.202 C 
BRANCH  34  35
ATOM     35  C   UNL A   1      42.613  18.978  26.174  1.00  0.00     0.261 C 
BRANCH  35  36
ATOM     36  O   UNL A   1      43.001  19.736  25.008  1.00  0.00    -0.460 OA
BRANCH  36  37
ATOM     37  C   UNL A   1      44.342  19.840  24.767  1.00  0.00     0.338 C 
ATOM     38  O   UNL A   1      45.050  18.993  24.268  1.00  0.00    -0.246 OA
BRANCH  37  39
ATOM     39  C   UNL A   1      44.782  21.258  24.970  1.00  0.00     0.060 A 
ATOM     40  C   UNL A   1      45.309  21.631  26.223  1.00  0.00     0.016 A 
ATOM     41  C   UNL A   1      44.696  22.207  23.953  1.00  0.00     0.016 A 
ATOM     42  C   UNL A   1      45.747  22.937  26.461  1.00  0.00     0.010 A 
ATOM     43  C   UNL A   1      45.080  23.532  24.213  1.00  0.00     0.010 A 
ATOM     44  C   UNL A   1      45.583  23.910  25.474  1.00  0.00    -0.014 A 
BRANCH  44  45
ATOM     45  C   UNL A   1      45.709  25.354  25.813  1.00  0.00     0.031 A 
ATOM     46  C   UNL A   1      47.085  25.969  25.770  1.00  0.00     0.074 A 
ATOM     47  C   UNL A   1      44.653  26.109  26.165  1.00  0.00     0.049 A 
ATOM     48  N   UNL A   1      47.483  27.149  26.169  1.00  0.00    -0.248 NA
ATOM     49  C   UNL A   1      48.155  25.132  25.202  1.00  0.00     0.031 C 
ATOM     50  C   UNL A   1      43.258  25.676  26.171  1.00  0.00     0.029 A 
ATOM     51  N   UNL A   1      44.603  27.411  26.611  1.00  0.00    -0.354 N 
ATOM     52  C   UNL A   1      48.851  27.187  25.925  1.00  0.00     0.074 A 
ATOM     53  C   UNL A   1      49.216  25.907  25.357  1.00  0.00     0.031 C 
ATOM     54  C   UNL A   1      42.493  26.682  26.634  1.00  0.00     0.029 A 
ATOM     55  C   UNL A   1      43.347  27.812  26.999  1.00  0.00     0.049 A 
ATOM     56  H   UNL A   1      45.393  27.998  26.648  1.00  0.00     0.167 HD
ATOM     57  C   UNL A   1      49.728  28.192  26.157  1.00  0.00     0.031 A 
ATOM     58  C   UNL A   1      42.939  28.941  27.617  1.00  0.00     0.031 A 
ATOM     59  C   UNL A   1      49.370  29.458  26.738  1.00  0.00     0.049 A 
ATOM     60  C   UNL A   1      43.949  30.009  27.966  1.00  0.00     0.074 A 
ATOM     61  C   UNL A   1      50.188  30.542  27.006  1.00  0.00     0.029 A 
ATOM     62  N   UNL A   1      48.094  29.809  27.152  1.00  0.00    -0.354 N 
ATOM     63  N   UNL A   1      45.239  30.036  27.726  1.00  0.00    -0.248 NA
ATOM     64  C   UNL A   1      43.446  31.198  28.671  1.00  0.00     0.031 C 
ATOM     65  C   UNL A   1      49.420  31.522  27.644  1.00  0.00     0.029 A 
ATOM     66  C   UNL A   1      48.109  31.077  27.707  1.00  0.00     0.049 A 
ATOM     67  H   UNL A   1      47.295  29.240  27.063  1.00  0.00     0.167 HD
ATOM     68  C   UNL A   1      45.695  31.253  28.229  1.00  0.00     0.074 A 
ATOM     69  C   UNL A   1      44.541  31.942  28.767  1.00  0.00     0.031 C 
ATOM     70  C   UNL A   1      46.956  31.754  28.245  1.00  0.00     0.031 A 
BRANCH  57  71
ATOM     71  C   UNL A   1      51.176  27.941  25.828  1.00  0.00    -0.014 A 
ATOM     72  C   UNL A   1      51.707  28.260  24.564  1.00  0.00     0.010 A 
ATOM     73  C   UNL A   1      52.030  27.413  26.814  1.00  0.00     0.010 A 
ATOM     74  C   UNL A   1      53.055  28.019  24.283  1.00  0.00     0.020 A 
ATOM     75  C   UNL A   1      53.385  27.200  26.547  1.00  0.00     0.020 A 
ATOM     76  C   UNL A   1      53.886  27.491  25.276  1.00  0.00     0.054 A 
BRANCH  76  77
ATOM     77  S   UNL A   1      55.636  27.214  24.890  1.00  0.00     0.124 S 
ATOM     78  O   UNL A   1      56.129  26.624  26.133  1.00  0.00    -0.237 OA
ATOM     79  O   UNL A   1      55.570  26.306  23.748  1.00  0.00    -0.237 OA
ATOM     80  O   UNL A   1      56.143  28.551  24.593  1.00  0.00    -0.744 OA
ENDBRANCH  76  77
ENDBRANCH  57  71
BRANCH  58  81
ATOM     81  C   UNL A   1      41.507  29.109  28.000  1.00  0.00    -0.014 A 
ATOM     82  C   UNL A   1      41.125  29.168  29.352  1.00  0.00     0.010 A 
ATOM     83  C   UNL A   1      40.512  29.193  27.007  1.00  0.00     0.010 A 
ATOM     84  C   UNL A   1      39.777  29.298  29.704  1.00  0.00     0.020 A 
ATOM     85  C   UNL A   1      39.167  29.354  27.354  1.00  0.00     0.020 A 
ATOM     86  C   UNL A   1      38.808  29.396  28.701  1.00  0.00     0.054 A 
BRANCH  86  87
ATOM     87  S   UNL A   1      37.073  29.630  29.181  1.00  0.00     0.124 S 
ATOM     88  O   UNL A   1      36.362  29.007  28.070  1.00  0.00    -0.237 OA
ATOM     89  O   UNL A   1      37.004  28.921  30.456  1.00  0.00    -0.237 OA
ATOM     90  O   UNL A   1      36.939  31.082  29.278  1.00  0.00    -0.744 OA
ENDBRANCH  86  87
ENDBRANCH  58  81
BRANCH  70  91
ATOM     91  C   UNL A   1      47.160  33.127  28.837  1.00  0.00    -0.014 A 
ATOM     92  C   UNL A   1      47.019  34.288  28.055  1.00  0.00     0.010 A 
ATOM     93  C   UNL A   1      47.436  33.260  30.211  1.00  0.00     0.010 A 
ATOM     94  C   UNL A   1      47.181  35.553  28.630  1.00  0.00     0.020 A 
ATOM     95  C   UNL A   1      47.567  34.523  30.795  1.00  0.00     0.020 A 
ATOM     96  C   UNL A   1      47.452  35.662  29.998  1.00  0.00     0.054 A 
BRANCH  96  97
ATOM     97  S   UNL A   1      47.613  37.316  30.725  1.00  0.00     0.124 S 
ATOM     98  O   UNL A   1      48.516  37.070  31.845  1.00  0.00    -0.237 OA
ATOM     99  O   UNL A   1      48.175  38.096  29.624  1.00  0.00    -0.237 OA
ATOM    100  O   UNL A   1      46.244  37.669  31.095  1.00  0.00    -0.744 OA
ENDBRANCH  96  97
ENDBRANCH  70  91
ENDBRANCH  44  45
ENDBRANCH  37  39
ENDBRANCH  36  37
ENDBRANCH  35  36
ENDBRANCH  34  35
ENDBRANCH  33  34
ENDBRANCH  32  33
ENDBRANCH   1  32
TORSDOF 25
ENDMDL
MODEL 3
REMARK VINA RESULT:     -10.4      4.890     10.003
REMARK SMILES CC(=O)N1C[C@@H]2C[N@H+](CC(=O)NCc3ccccc3)C[C@]2(C(=O)OCCOCCOCCOC(=O)c2ccc(-c3c4nc(c(-c5ccc(S(=O)(=O)[O-])cc5)c5ccc([nH]5)c(-c5ccc(S(=O)(=O)[O-])cc5)c5nc(c(-c6ccc(S(=O)(=O)[O-])cc6)c6ccc3[nH]6)C=C5)C=C4)cc2)C1
REMARK SMILES IDX 28 1 27 2 26 3 25 4 24 5 22 6 23 7 21 8 4 9 5 10 96 11 6 12
REMARK SMILES IDX 7 13 20 14 8 15 2 17 1 18 3 19 9 20 10 21 11 22 12 23 13 25
REMARK SMILES IDX 14 26 15 27 19 28 16 29 18 30 17 31 29 32 30 33 31 34 32 35
REMARK SMILES IDX 33 36 34 37 35 38 36 39 37 40 95 41 38 42 94 43 39 44 40 45
REMARK SMILES IDX 41 46 88 47 42 48 93 49 87 50 89 51 43 52 92 53 86 54 85 55
REMARK SMILES IDX 44 57 74 58 55 59 73 60 56 61 59 62 72 63 90 64 57 65 58 66
REMARK SMILES IDX 71 68 91 69 60 70 45 71 46 72 54 73 47 74 53 75 48 76 49 77
REMARK SMILES IDX 50 78 51 79 52 80 75 81 76 82 84 83 77 84 83 85 78 86 79 87
REMARK SMILES IDX 80 88 81 89 82 90 61 91 62 92 70 93 63 94 69 95 64 96 65 97
REMARK SMILES IDX 66 98 67 99 68 100
REMARK H PARENT 8 16 12 24 89 56 59 67
REMARK Flexibility Score: inf
ROOT
ATOM      1  C   UNL A   1      31.197  27.531  23.915  1.00  0.00     0.188 C 
ENDROOT
BRANCH   1   2
ATOM      2  O   UNL A   1      30.135  26.848  24.558  1.00  0.00    -0.376 OA
BRANCH   2   3
ATOM      3  C   UNL A   1      30.467  26.348  25.843  1.00  0.00     0.202 C 
BRANCH   3   4
ATOM      4  C   UNL A   1      30.342  24.835  25.994  1.00  0.00     0.261 C 
BRANCH   4   5
ATOM      5  O   UNL A   1      31.429  23.927  25.592  1.00  0.00    -0.463 OA
BRANCH   5   6
ATOM      6  C   UNL A   1      32.508  23.403  26.258  1.00  0.00     0.320 C 
ATOM      7  O   UNL A   1      32.463  22.926  27.382  1.00  0.00    -0.251 OA
BRANCH   6   8
ATOM      8  C   UNL A   1      33.761  23.393  25.292  1.00  0.00     0.144 C 
ATOM      9  N   UNL A   1      33.566  23.621  22.842  1.00  0.00    -0.341 N 
ATOM     10  C   UNL A   1      34.961  23.552  23.114  1.00  0.00     0.130 C 
ATOM     11  C   UNL A   1      32.844  23.963  24.078  1.00  0.00     0.144 C 
ATOM     12  C   UNL A   1      35.002  24.068  24.523  1.00  0.00     0.089 C 
ATOM     13  C   UNL A   1      36.338  23.761  25.176  1.00  0.00     0.269 C 
ATOM     14  C   UNL A   1      34.574  23.891  26.582  1.00  0.00     0.284 C 
ATOM     15  N   UNL A   1      35.917  23.292  26.474  1.00  0.00    -0.326 N 
ATOM     16  H   UNL A   1      36.567  23.567  27.210  1.00  0.00     0.348 HD
BRANCH   9  17
ATOM     17  C   UNL A   1      33.085  23.070  21.678  1.00  0.00     0.219 C 
ATOM     18  C   UNL A   1      32.173  21.886  21.804  1.00  0.00     0.114 C 
ATOM     19  O   UNL A   1      33.321  23.573  20.578  1.00  0.00    -0.275 OA
ENDBRANCH   9  17
BRANCH  15  20
ATOM     20  C   UNL A   1      35.918  21.804  26.665  1.00  0.00     0.363 C 
BRANCH  20  21
ATOM     21  C   UNL A   1      36.267  20.921  25.449  1.00  0.00     0.275 C 
ATOM     22  O   UNL A   1      37.450  20.747  25.127  1.00  0.00    -0.268 OA
ATOM     23  N   UNL A   1      35.361  20.263  24.679  1.00  0.00    -0.347 N 
ATOM     24  H   UNL A   1      35.770  19.855  23.881  1.00  0.00     0.164 HD
BRANCH  23  25
ATOM     25  C   UNL A   1      33.926  20.021  24.755  1.00  0.00     0.151 C 
BRANCH  25  26
ATOM     26  C   UNL A   1      33.541  18.546  24.705  1.00  0.00    -0.029 A 
ATOM     27  C   UNL A   1      34.103  17.693  23.733  1.00  0.00     0.005 A 
ATOM     28  C   UNL A   1      32.677  17.960  25.637  1.00  0.00     0.005 A 
ATOM     29  C   UNL A   1      33.990  16.298  23.830  1.00  0.00     0.000 A 
ATOM     30  C   UNL A   1      32.494  16.572  25.673  1.00  0.00     0.000 A 
ATOM     31  C   UNL A   1      33.207  15.736  24.825  1.00  0.00     0.000 A 
ENDBRANCH  25  26
ENDBRANCH  23  25
ENDBRANCH  20  21
ENDBRANCH  15  20
ENDBRANCH   6   8
ENDBRANCH   5   6
ENDBRANCH   4   5
ENDBRANCH   3   4
ENDBRANCH   2   3
ENDBRANCH   1   2
BRANCH   1  32
ATOM     32  C   UNL A   1      31.944  28.493  24.855  1.00  0.00     0.188 C 
BRANCH  32  33
ATOM     33  O   UNL A   1      31.375  28.899  26.090  1.00  0.00    -0.376 OA
BRANCH  33  34
ATOM     34  C   UNL A   1      31.950  30.015  26.736  1.00  0.00     0.202 C 
BRANCH  34  35
ATOM     35  C   UNL A   1      33.353  29.841  27.342  1.00  0.00     0.261 C 
BRANCH  35  36
ATOM     36  O   UNL A   1      34.209  31.004  27.300  1.00  0.00    -0.460 OA
BRANCH  36  37
ATOM     37  C   UNL A   1      34.833  31.343  28.468  1.00  0.00     0.338 C 
ATOM     38  O   UNL A   1      34.343  31.955  29.392  1.00  0.00    -0.246 OA
BRANCH  37  39
ATOM     39  C   UNL A   1      36.145  30.627  28.564  1.00  0.00     0.060 A 
ATOM     40  C   UNL A   1      36.584  30.186  29.829  1.00  0.00     0.016 A 
ATOM     41  C   UNL A   1      36.930  30.375  27.441  1.00  0.00     0.016 A 
ATOM     42  C   UNL A   1      37.794  29.500  29.974  1.00  0.00     0.010 A 
ATOM     43  C   UNL A   1      38.172  29.740  27.596  1.00  0.00     0.010 A 
ATOM     44  C   UNL A   1      38.623  29.322  28.864  1.00  0.00    -0.014 A 
BRANCH  44  45
ATOM     45  C   UNL A   1      40.044  28.919  29.045  1.00  0.00     0.031 A 
ATOM     46  C   UNL A   1      41.021  29.974  29.499  1.00  0.00     0.074 A 
ATOM     47  C   UNL A   1      40.478  27.669  28.806  1.00  0.00     0.049 A 
ATOM     48  N   UNL A   1      42.325  29.922  29.578  1.00  0.00    -0.248 NA
ATOM     49  C   UNL A   1      40.442  31.262  29.915  1.00  0.00     0.031 C 
ATOM     50  C   UNL A   1      39.639  26.529  28.443  1.00  0.00     0.029 A 
ATOM     51  N   UNL A   1      41.756  27.157  28.814  1.00  0.00    -0.354 N 
ATOM     52  C   UNL A   1      42.725  31.176  30.027  1.00  0.00     0.074 A 
ATOM     53  C   UNL A   1      41.526  31.970  30.189  1.00  0.00     0.031 C 
ATOM     54  C   UNL A   1      40.428  25.460  28.228  1.00  0.00     0.029 A 
ATOM     55  C   UNL A   1      41.829  25.850  28.392  1.00  0.00     0.049 A 
ATOM     56  H   UNL A   1      42.543  27.678  29.093  1.00  0.00     0.167 HD
ATOM     57  C   UNL A   1      43.975  31.630  30.278  1.00  0.00     0.031 A 
ATOM     58  C   UNL A   1      42.900  25.072  28.128  1.00  0.00     0.031 A 
ATOM     59  C   UNL A   1      45.169  30.847  30.101  1.00  0.00     0.049 A 
ATOM     60  C   UNL A   1      44.292  25.631  28.310  1.00  0.00     0.074 A 
ATOM     61  C   UNL A   1      46.482  31.219  30.334  1.00  0.00     0.029 A 
ATOM     62  N   UNL A   1      45.201  29.542  29.636  1.00  0.00    -0.354 N 
ATOM     63  N   UNL A   1      44.657  26.815  28.740  1.00  0.00    -0.248 NA
ATOM     64  C   UNL A   1      45.416  24.744  27.970  1.00  0.00     0.031 C 
ATOM     65  C   UNL A   1      47.311  30.161  29.947  1.00  0.00     0.029 A 
ATOM     66  C   UNL A   1      46.511  29.105  29.541  1.00  0.00     0.049 A 
ATOM     67  H   UNL A   1      44.408  29.005  29.408  1.00  0.00     0.167 HD
ATOM     68  C   UNL A   1      46.051  26.807  28.744  1.00  0.00     0.074 A 
ATOM     69  C   UNL A   1      46.462  25.493  28.294  1.00  0.00     0.031 C 
ATOM     70  C   UNL A   1      46.913  27.797  29.087  1.00  0.00     0.031 A 
BRANCH  57  71
ATOM     71  C   UNL A   1      44.119  33.062  30.723  1.00  0.00    -0.014 A 
ATOM     72  C   UNL A   1      44.218  34.113  29.793  1.00  0.00     0.010 A 
ATOM     73  C   UNL A   1      44.117  33.364  32.097  1.00  0.00     0.010 A 
ATOM     74  C   UNL A   1      44.350  35.434  30.230  1.00  0.00     0.020 A 
ATOM     75  C   UNL A   1      44.217  34.686  32.539  1.00  0.00     0.020 A 
ATOM     76  C   UNL A   1      44.349  35.712  31.601  1.00  0.00     0.054 A 
BRANCH  76  77
ATOM     77  S   UNL A   1      44.495  37.438  32.138  1.00  0.00     0.124 S 
ATOM     78  O   UNL A   1      43.472  37.518  33.178  1.00  0.00    -0.237 OA
ATOM     79  O   UNL A   1      45.876  37.508  32.610  1.00  0.00    -0.237 OA
ATOM     80  O   UNL A   1      44.213  38.205  30.928  1.00  0.00    -0.744 OA
ENDBRANCH  76  77
ENDBRANCH  57  71
BRANCH  58  81
ATOM     81  C   UNL A   1      42.709  23.687  27.608  1.00  0.00    -0.014 A 
ATOM     82  C   UNL A   1      42.737  23.426  26.226  1.00  0.00     0.010 A 
ATOM     83  C   UNL A   1      42.480  22.621  28.498  1.00  0.00     0.010 A 
ATOM     84  C   UNL A   1      42.529  22.129  25.744  1.00  0.00     0.020 A 
ATOM     85  C   UNL A   1      42.303  21.318  28.022  1.00  0.00     0.020 A 
ATOM     86  C   UNL A   1      42.320  21.082  26.647  1.00  0.00     0.054 A 
BRANCH  86  87
ATOM     87  S   UNL A   1      42.119  19.397  26.002  1.00  0.00     0.124 S 
ATOM     88  O   UNL A   1      42.987  19.414  24.830  1.00  0.00    -0.237 OA
ATOM     89  O   UNL A   1      42.580  18.579  27.121  1.00  0.00    -0.237 OA
ATOM     90  O   UNL A   1      40.688  19.307  25.724  1.00  0.00    -0.744 OA
ENDBRANCH  86  87
ENDBRANCH  58  81
BRANCH  70  91
ATOM     91  C   UNL A   1      48.390  27.499  29.021  1.00  0.00    -0.014 A 
ATOM     92  C   UNL A   1      49.186  27.980  27.966  1.00  0.00     0.010 A 
ATOM     93  C   UNL A   1      49.003  26.779  30.064  1.00  0.00     0.010 A 
ATOM     94  C   UNL A   1      50.561  27.719  27.940  1.00  0.00     0.020 A 
ATOM     95  C   UNL A   1      50.381  26.544  30.058  1.00  0.00     0.020 A 
ATOM     96  C   UNL A   1      51.150  27.005  28.988  1.00  0.00     0.054 A 
BRANCH  96  97
ATOM     97  S   UNL A   1      52.941  26.720  28.950  1.00  0.00     0.124 S 
ATOM     98  O   UNL A   1      53.453  28.042  28.602  1.00  0.00    -0.237 OA
ATOM     99  O   UNL A   1      53.222  26.275  30.314  1.00  0.00    -0.237 OA
ATOM    100  O   UNL A   1      53.108  25.696  27.921  1.00  0.00    -0.744 OA
ENDBRANCH  96  97
ENDBRANCH  70  91
ENDBRANCH  44  45
ENDBRANCH  37  39
ENDBRANCH  36  37
ENDBRANCH  35  36
ENDBRANCH  34  35
ENDBRANCH  33  34
ENDBRANCH  32  33
ENDBRANCH   1  32
TORSDOF 25
ENDMDL
