MODEL 1
REMARK VINA RESULT:      -9.3      0.000      0.000
REMARK SMILES C#CC[N@H+](CC(=O)OCCOCCOCCOC(=O)c1ccc(-c2c3nc(c(-c4ccc(S(=O)(=O)[O-])cc4)c4ccc([nH]4)c(-c4ccc(S(=O)(=O)[O-])cc4)c4nc(c(-c5ccc(S(=O)(=O)[O-])cc5)c5ccc2[nH]5)C=C4)C=C3)cc1)[C@H](C)c1nc2ccccc2s1
REMARK SMILES IDX 12 1 11 2 10 3 9 4 8 5 6 6 7 7 5 8 4 9 3 11 2 12 1 13 80 14
REMARK SMILES IDX 81 15 82 16 83 17 90 18 84 19 89 20 85 21 88 22 86 23 87 24
REMARK SMILES IDX 13 25 14 26 15 27 16 28 17 29 18 30 19 31 20 32 21 33 79 34
REMARK SMILES IDX 22 35 78 36 23 37 24 38 25 39 72 40 26 41 77 42 71 43 73 44
REMARK SMILES IDX 27 45 76 46 70 47 69 48 28 50 58 51 39 52 57 53 40 54 43 55
REMARK SMILES IDX 56 56 74 57 41 58 42 59 55 61 75 62 44 63 29 64 30 65 38 66
REMARK SMILES IDX 31 67 37 68 32 69 33 70 34 71 35 72 36 73 59 74 60 75 68 76
REMARK SMILES IDX 61 77 67 78 62 79 63 80 64 81 65 82 66 83 45 84 46 85 54 86
REMARK SMILES IDX 47 87 53 88 48 89 49 90 50 91 51 92 52 93
REMARK H PARENT 4 10 73 49 43 60
REMARK Flexibility Score: inf
ROOT
ATOM      1  C   UNL A   1      34.644  32.787  28.020  1.00  0.00     0.188 C 
ENDROOT
BRANCH   1   2
ATOM      2  O   UNL A   1      33.991  31.559  28.322  1.00  0.00    -0.376 OA
BRANCH   2   3
ATOM      3  C   UNL A   1      33.163  30.962  27.327  1.00  0.00     0.202 C 
BRANCH   3   4
ATOM      4  C   UNL A   1      33.539  29.590  26.735  1.00  0.00     0.261 C 
BRANCH   4   5
ATOM      5  O   UNL A   1      32.926  28.453  27.382  1.00  0.00    -0.459 OA
BRANCH   5   6
ATOM      6  C   UNL A   1      31.972  27.790  26.690  1.00  0.00     0.361 C 
ATOM      7  O   UNL A   1      31.108  27.097  27.226  1.00  0.00    -0.245 OA
BRANCH   6   8
ATOM      8  C   UNL A   1      31.979  27.957  25.165  1.00  0.00     0.387 C 
BRANCH   8   9
ATOM      9  N   UNL A   1      31.815  26.782  24.255  1.00  0.00    -0.308 N 
ATOM     10  H   UNL A   1      31.391  26.017  24.778  1.00  0.00     0.350 HD
BRANCH   9  11
ATOM     11  C   UNL A   1      30.854  27.040  23.169  1.00  0.00     0.355 C 
BRANCH  11  12
ATOM     12  C   UNL A   1      29.451  26.856  23.594  1.00  0.00    -0.047 C 
ATOM     13  C   UNL A   1      28.292  26.685  23.882  1.00  0.00     0.010 C 
ENDBRANCH  11  12
ENDBRANCH   9  11
BRANCH   9  14
ATOM     14  C   UNL A   1      33.172  26.297  23.789  1.00  0.00     0.242 C 
ATOM     15  C   UNL A   1      33.480  26.607  22.310  1.00  0.00     0.083 C 
BRANCH  14  16
ATOM     16  C   UNL A   1      33.455  24.816  24.027  1.00  0.00     0.151 A 
ATOM     17  N   UNL A   1      32.940  23.854  23.286  1.00  0.00    -0.235 NA
ATOM     18  S   UNL A   1      34.487  24.286  25.300  1.00  0.00    -0.113 S 
ATOM     19  C   UNL A   1      33.184  22.628  23.873  1.00  0.00     0.082 A 
ATOM     20  C   UNL A   1      34.012  22.652  24.995  1.00  0.00     0.055 A 
ATOM     21  C   UNL A   1      32.625  21.404  23.458  1.00  0.00     0.030 A 
ATOM     22  C   UNL A   1      34.315  21.480  25.711  1.00  0.00     0.021 A 
ATOM     23  C   UNL A   1      32.878  20.241  24.191  1.00  0.00     0.002 A 
ATOM     24  C   UNL A   1      33.718  20.281  25.301  1.00  0.00     0.002 A 
ENDBRANCH  14  16
ENDBRANCH   9  14
ENDBRANCH   8   9
ENDBRANCH   6   8
ENDBRANCH   5   6
ENDBRANCH   4   5
ENDBRANCH   3   4
ENDBRANCH   2   3
ENDBRANCH   1   2
BRANCH   1  25
ATOM     25  C   UNL A   1      34.694  33.883  29.099  1.00  0.00     0.188 C 
BRANCH  25  26
ATOM     26  O   UNL A   1      33.914  33.606  30.238  1.00  0.00    -0.376 OA
BRANCH  26  27
ATOM     27  C   UNL A   1      34.533  33.011  31.359  1.00  0.00     0.202 C 
BRANCH  27  28
ATOM     28  C   UNL A   1      35.981  32.478  31.313  1.00  0.00     0.261 C 
BRANCH  28  29
ATOM     29  O   UNL A   1      36.203  31.169  30.766  1.00  0.00    -0.460 OA
BRANCH  29  30
ATOM     30  C   UNL A   1      36.938  30.315  31.521  1.00  0.00     0.338 C 
ATOM     31  O   UNL A   1      36.519  29.542  32.364  1.00  0.00    -0.246 OA
BRANCH  30  32
ATOM     32  C   UNL A   1      38.322  30.297  30.995  1.00  0.00     0.060 A 
ATOM     33  C   UNL A   1      38.528  30.427  29.613  1.00  0.00     0.016 A 
ATOM     34  C   UNL A   1      39.406  30.109  31.853  1.00  0.00     0.016 A 
ATOM     35  C   UNL A   1      39.809  30.306  29.079  1.00  0.00     0.010 A 
ATOM     36  C   UNL A   1      40.690  29.964  31.313  1.00  0.00     0.010 A 
ATOM     37  C   UNL A   1      40.888  30.008  29.919  1.00  0.00    -0.014 A 
BRANCH  37  38
ATOM     38  C   UNL A   1      42.154  29.506  29.326  1.00  0.00     0.031 A 
ATOM     39  C   UNL A   1      43.320  30.458  29.226  1.00  0.00     0.074 A 
ATOM     40  C   UNL A   1      42.294  28.226  28.932  1.00  0.00     0.049 A 
ATOM     41  N   UNL A   1      44.521  30.256  28.748  1.00  0.00    -0.248 NA
ATOM     42  C   UNL A   1      43.097  31.824  29.731  1.00  0.00     0.031 C 
ATOM     43  C   UNL A   1      41.262  27.195  29.019  1.00  0.00     0.029 A 
ATOM     44  N   UNL A   1      43.372  27.580  28.380  1.00  0.00    -0.354 N 
ATOM     45  C   UNL A   1      45.189  31.469  28.881  1.00  0.00     0.074 A 
ATOM     46  C   UNL A   1      44.249  32.412  29.446  1.00  0.00     0.031 C 
ATOM     47  C   UNL A   1      41.758  26.042  28.536  1.00  0.00     0.029 A 
ATOM     48  C   UNL A   1      43.128  26.262  28.075  1.00  0.00     0.049 A 
ATOM     49  H   UNL A   1      44.238  28.019  28.218  1.00  0.00     0.167 HD
ATOM     50  C   UNL A   1      46.473  31.772  28.572  1.00  0.00     0.031 A 
ATOM     51  C   UNL A   1      43.915  25.344  27.477  1.00  0.00     0.031 A 
ATOM     52  C   UNL A   1      47.404  30.835  27.999  1.00  0.00     0.049 A 
ATOM     53  C   UNL A   1      45.318  25.724  27.073  1.00  0.00     0.074 A 
ATOM     54  C   UNL A   1      48.732  31.038  27.666  1.00  0.00     0.029 A 
ATOM     55  N   UNL A   1      47.105  29.523  27.665  1.00  0.00    -0.354 N 
ATOM     56  N   UNL A   1      45.945  26.866  27.233  1.00  0.00    -0.248 NA
ATOM     57  C   UNL A   1      46.124  24.683  26.423  1.00  0.00     0.031 C 
ATOM     58  C   UNL A   1      49.213  29.873  27.061  1.00  0.00     0.029 A 
ATOM     59  C   UNL A   1      48.213  28.915  27.098  1.00  0.00     0.049 A 
ATOM     60  H   UNL A   1      46.233  29.088  27.810  1.00  0.00     0.167 HD
ATOM     61  C   UNL A   1      47.229  26.668  26.733  1.00  0.00     0.074 A 
ATOM     62  C   UNL A   1      47.294  25.291  26.290  1.00  0.00     0.031 C 
ATOM     63  C   UNL A   1      48.263  27.544  26.649  1.00  0.00     0.031 A 
BRANCH  50  64
ATOM     64  C   UNL A   1      46.933  33.188  28.811  1.00  0.00    -0.014 A 
ATOM     65  C   UNL A   1      47.008  34.125  27.764  1.00  0.00     0.010 A 
ATOM     66  C   UNL A   1      47.263  33.598  30.117  1.00  0.00     0.010 A 
ATOM     67  C   UNL A   1      47.439  35.432  28.011  1.00  0.00     0.020 A 
ATOM     68  C   UNL A   1      47.661  34.913  30.374  1.00  0.00     0.020 A 
ATOM     69  C   UNL A   1      47.761  35.817  29.315  1.00  0.00     0.054 A 
BRANCH  69  70
ATOM     70  S   UNL A   1      48.288  37.529  29.610  1.00  0.00     0.124 S 
ATOM     71  O   UNL A   1      48.818  37.911  28.303  1.00  0.00    -0.237 OA
ATOM     72  O   UNL A   1      47.041  38.182  29.997  1.00  0.00    -0.237 OA
ATOM     73  O   UNL A   1      49.283  37.409  30.673  1.00  0.00    -0.744 OA
ENDBRANCH  69  70
ENDBRANCH  50  64
BRANCH  51  74
ATOM     74  C   UNL A   1      43.395  23.972  27.209  1.00  0.00    -0.014 A 
ATOM     75  C   UNL A   1      43.006  23.586  25.914  1.00  0.00     0.010 A 
ATOM     76  C   UNL A   1      43.274  23.043  28.260  1.00  0.00     0.010 A 
ATOM     77  C   UNL A   1      42.486  22.310  25.679  1.00  0.00     0.020 A 
ATOM     78  C   UNL A   1      42.789  21.754  28.023  1.00  0.00     0.020 A 
ATOM     79  C   UNL A   1      42.388  21.399  26.734  1.00  0.00     0.054 A 
BRANCH  79  80
ATOM     80  S   UNL A   1      41.760  19.731  26.393  1.00  0.00     0.124 S 
ATOM     81  O   UNL A   1      42.427  19.405  25.137  1.00  0.00    -0.237 OA
ATOM     82  O   UNL A   1      42.211  18.982  27.563  1.00  0.00    -0.237 OA
ATOM     83  O   UNL A   1      40.314  19.920  26.302  1.00  0.00    -0.744 OA
ENDBRANCH  79  80
ENDBRANCH  51  74
BRANCH  63  84
ATOM     84  C   UNL A   1      49.570  27.027  26.095  1.00  0.00    -0.014 A 
ATOM     85  C   UNL A   1      50.554  26.464  26.927  1.00  0.00     0.010 A 
ATOM     86  C   UNL A   1      49.806  27.091  24.709  1.00  0.00     0.010 A 
ATOM     87  C   UNL A   1      51.772  26.033  26.392  1.00  0.00     0.020 A 
ATOM     88  C   UNL A   1      51.005  26.624  24.165  1.00  0.00     0.020 A 
ATOM     89  C   UNL A   1      51.992  26.120  25.014  1.00  0.00     0.054 A 
BRANCH  89  90
ATOM     90  S   UNL A   1      53.579  25.554  24.346  1.00  0.00     0.124 S 
ATOM     91  O   UNL A   1      54.534  26.337  25.124  1.00  0.00    -0.237 OA
ATOM     92  O   UNL A   1      53.555  24.122  24.636  1.00  0.00    -0.237 OA
ATOM     93  O   UNL A   1      53.503  25.898  22.927  1.00  0.00    -0.744 OA
ENDBRANCH  89  90
ENDBRANCH  63  84
ENDBRANCH  37  38
ENDBRANCH  30  32
ENDBRANCH  29  30
ENDBRANCH  28  29
ENDBRANCH  27  28
ENDBRANCH  26  27
ENDBRANCH  25  26
ENDBRANCH   1  25
TORSDOF 25
ENDMDL
MODEL 2
REMARK VINA RESULT:      -8.7      6.721     12.096
REMARK SMILES C#CC[N@H+](CC(=O)OCCOCCOCCOC(=O)c1ccc(-c2c3nc(c(-c4ccc(S(=O)(=O)[O-])cc4)c4ccc([nH]4)c(-c4ccc(S(=O)(=O)[O-])cc4)c4nc(c(-c5ccc(S(=O)(=O)[O-])cc5)c5ccc2[nH]5)C=C4)C=C3)cc1)[C@H](C)c1nc2ccccc2s1
REMARK SMILES IDX 12 1 11 2 10 3 9 4 8 5 6 6 7 7 5 8 4 9 3 11 2 12 1 13 80 14
REMARK SMILES IDX 81 15 82 16 83 17 90 18 84 19 89 20 85 21 88 22 86 23 87 24
REMARK SMILES IDX 13 25 14 26 15 27 16 28 17 29 18 30 19 31 20 32 21 33 79 34
REMARK SMILES IDX 22 35 78 36 23 37 24 38 25 39 72 40 26 41 77 42 71 43 73 44
REMARK SMILES IDX 27 45 76 46 70 47 69 48 28 50 58 51 39 52 57 53 40 54 43 55
REMARK SMILES IDX 56 56 74 57 41 58 42 59 55 61 75 62 44 63 29 64 30 65 38 66
REMARK SMILES IDX 31 67 37 68 32 69 33 70 34 71 35 72 36 73 59 74 60 75 68 76
REMARK SMILES IDX 61 77 67 78 62 79 63 80 64 81 65 82 66 83 45 84 46 85 54 86
REMARK SMILES IDX 47 87 53 88 48 89 49 90 50 91 51 92 52 93
REMARK H PARENT 4 10 73 49 43 60
REMARK Flexibility Score: inf
ROOT
ATOM      1  C   UNL A   1      34.935  23.168  24.069  1.00  0.00     0.188 C 
ENDROOT
BRANCH   1   2
ATOM      2  O   UNL A   1      34.412  24.422  23.645  1.00  0.00    -0.376 OA
BRANCH   2   3
ATOM      3  C   UNL A   1      33.306  24.433  22.745  1.00  0.00     0.202 C 
BRANCH   3   4
ATOM      4  C   UNL A   1      33.084  25.641  21.814  1.00  0.00     0.261 C 
BRANCH   4   5
ATOM      5  O   UNL A   1      32.604  26.837  22.465  1.00  0.00    -0.459 OA
BRANCH   5   6
ATOM      6  C   UNL A   1      33.389  27.936  22.392  1.00  0.00     0.361 C 
ATOM      7  O   UNL A   1      34.243  28.100  21.523  1.00  0.00    -0.245 OA
BRANCH   6   8
ATOM      8  C   UNL A   1      33.153  29.027  23.445  1.00  0.00     0.387 C 
BRANCH   8   9
ATOM      9  N   UNL A   1      31.774  29.485  23.795  1.00  0.00    -0.308 N 
ATOM     10  H   UNL A   1      31.758  30.504  23.807  1.00  0.00     0.350 HD
BRANCH   9  11
ATOM     11  C   UNL A   1      30.783  29.131  22.764  1.00  0.00     0.355 C 
BRANCH  11  12
ATOM     12  C   UNL A   1      29.466  29.756  23.002  1.00  0.00    -0.047 C 
ATOM     13  C   UNL A   1      28.364  30.221  23.159  1.00  0.00     0.010 C 
ENDBRANCH  11  12
ENDBRANCH   9  11
BRANCH   9  14
ATOM     14  C   UNL A   1      31.417  29.024  25.193  1.00  0.00     0.242 C 
ATOM     15  C   UNL A   1      32.170  29.767  26.315  1.00  0.00     0.083 C 
BRANCH  14  16
ATOM     16  C   UNL A   1      31.559  27.525  25.445  1.00  0.00     0.151 A 
ATOM     17  N   UNL A   1      30.593  26.658  25.209  1.00  0.00    -0.235 NA
ATOM     18  S   UNL A   1      33.015  26.847  26.065  1.00  0.00    -0.113 S 
ATOM     19  C   UNL A   1      30.925  25.429  25.744  1.00  0.00     0.082 A 
ATOM     20  C   UNL A   1      32.214  25.329  26.268  1.00  0.00     0.055 A 
ATOM     21  C   UNL A   1      30.056  24.325  25.842  1.00  0.00     0.030 A 
ATOM     22  C   UNL A   1      32.671  24.146  26.875  1.00  0.00     0.021 A 
ATOM     23  C   UNL A   1      30.482  23.161  26.488  1.00  0.00     0.002 A 
ATOM     24  C   UNL A   1      31.777  23.074  26.992  1.00  0.00     0.002 A 
ENDBRANCH  14  16
ENDBRANCH   9  14
ENDBRANCH   8   9
ENDBRANCH   6   8
ENDBRANCH   5   6
ENDBRANCH   4   5
ENDBRANCH   3   4
ENDBRANCH   2   3
ENDBRANCH   1   2
BRANCH   1  25
ATOM     25  C   UNL A   1      36.420  22.859  23.808  1.00  0.00     0.188 C 
BRANCH  25  26
ATOM     26  O   UNL A   1      37.192  22.718  24.976  1.00  0.00    -0.376 OA
BRANCH  26  27
ATOM     27  C   UNL A   1      37.621  23.882  25.653  1.00  0.00     0.202 C 
BRANCH  27  28
ATOM     28  C   UNL A   1      38.899  23.908  26.519  1.00  0.00     0.261 C 
BRANCH  28  29
ATOM     29  O   UNL A   1      38.961  24.844  27.606  1.00  0.00    -0.460 OA
BRANCH  29  30
ATOM     30  C   UNL A   1      39.776  25.914  27.435  1.00  0.00     0.338 C 
ATOM     31  O   UNL A   1      40.108  26.416  26.375  1.00  0.00    -0.246 OA
BRANCH  30  32
ATOM     32  C   UNL A   1      40.020  26.534  28.758  1.00  0.00     0.060 A 
ATOM     33  C   UNL A   1      39.012  26.476  29.733  1.00  0.00     0.016 A 
ATOM     34  C   UNL A   1      41.214  27.205  29.020  1.00  0.00     0.016 A 
ATOM     35  C   UNL A   1      39.171  27.142  30.948  1.00  0.00     0.010 A 
ATOM     36  C   UNL A   1      41.363  27.893  30.230  1.00  0.00     0.010 A 
ATOM     37  C   UNL A   1      40.319  27.909  31.175  1.00  0.00    -0.014 A 
BRANCH  37  38
ATOM     38  C   UNL A   1      40.319  28.908  32.275  1.00  0.00     0.031 A 
ATOM     39  C   UNL A   1      41.413  28.826  33.312  1.00  0.00     0.074 A 
ATOM     40  C   UNL A   1      39.410  29.898  32.332  1.00  0.00     0.049 A 
ATOM     41  N   UNL A   1      41.623  29.579  34.360  1.00  0.00    -0.248 NA
ATOM     42  C   UNL A   1      42.398  27.744  33.142  1.00  0.00     0.031 C 
ATOM     43  C   UNL A   1      38.333  30.118  31.369  1.00  0.00     0.029 A 
ATOM     44  N   UNL A   1      39.254  30.909  33.249  1.00  0.00    -0.354 N 
ATOM     45  C   UNL A   1      42.752  29.054  34.981  1.00  0.00     0.074 A 
ATOM     46  C   UNL A   1      43.158  27.897  34.215  1.00  0.00     0.031 C 
ATOM     47  C   UNL A   1      37.626  31.198  31.745  1.00  0.00     0.029 A 
ATOM     48  C   UNL A   1      38.177  31.725  32.993  1.00  0.00     0.049 A 
ATOM     49  H   UNL A   1      39.857  31.038  34.017  1.00  0.00     0.167 HD
ATOM     50  C   UNL A   1      43.402  29.500  36.083  1.00  0.00     0.031 A 
ATOM     51  C   UNL A   1      37.685  32.766  33.695  1.00  0.00     0.031 A 
ATOM     52  C   UNL A   1      42.990  30.646  36.851  1.00  0.00     0.049 A 
ATOM     53  C   UNL A   1      38.382  33.200  34.960  1.00  0.00     0.074 A 
ATOM     54  C   UNL A   1      43.590  31.190  37.972  1.00  0.00     0.029 A 
ATOM     55  N   UNL A   1      41.870  31.419  36.584  1.00  0.00    -0.354 N 
ATOM     56  N   UNL A   1      39.466  32.713  35.517  1.00  0.00    -0.248 NA
ATOM     57  C   UNL A   1      37.796  34.338  35.682  1.00  0.00     0.031 C 
ATOM     58  C   UNL A   1      42.792  32.244  38.427  1.00  0.00     0.029 A 
ATOM     59  C   UNL A   1      41.742  32.413  37.539  1.00  0.00     0.049 A 
ATOM     60  H   UNL A   1      41.256  31.280  35.826  1.00  0.00     0.167 HD
ATOM     61  C   UNL A   1      39.709  33.507  36.636  1.00  0.00     0.074 A 
ATOM     62  C   UNL A   1      38.673  34.519  36.659  1.00  0.00     0.031 C 
ATOM     63  C   UNL A   1      40.699  33.410  37.559  1.00  0.00     0.031 A 
BRANCH  50  64
ATOM     64  C   UNL A   1      44.606  28.719  36.547  1.00  0.00    -0.014 A 
ATOM     65  C   UNL A   1      44.480  27.612  37.406  1.00  0.00     0.010 A 
ATOM     66  C   UNL A   1      45.886  29.079  36.083  1.00  0.00     0.010 A 
ATOM     67  C   UNL A   1      45.612  26.906  37.824  1.00  0.00     0.020 A 
ATOM     68  C   UNL A   1      47.017  28.354  36.470  1.00  0.00     0.020 A 
ATOM     69  C   UNL A   1      46.873  27.281  37.350  1.00  0.00     0.054 A 
BRANCH  69  70
ATOM     70  S   UNL A   1      48.320  26.325  37.884  1.00  0.00     0.124 S 
ATOM     71  O   UNL A   1      49.369  26.853  37.014  1.00  0.00    -0.237 OA
ATOM     72  O   UNL A   1      48.436  26.686  39.294  1.00  0.00    -0.237 OA
ATOM     73  O   UNL A   1      47.937  24.939  37.627  1.00  0.00    -0.744 OA
ENDBRANCH  69  70
ENDBRANCH  50  64
BRANCH  51  74
ATOM     74  C   UNL A   1      36.457  33.471  33.227  1.00  0.00    -0.014 A 
ATOM     75  C   UNL A   1      36.543  34.587  32.376  1.00  0.00     0.010 A 
ATOM     76  C   UNL A   1      35.186  33.033  33.645  1.00  0.00     0.010 A 
ATOM     77  C   UNL A   1      35.388  35.263  31.971  1.00  0.00     0.020 A 
ATOM     78  C   UNL A   1      34.027  33.684  33.214  1.00  0.00     0.020 A 
ATOM     79  C   UNL A   1      34.136  34.803  32.387  1.00  0.00     0.054 A 
BRANCH  79  80
ATOM     80  S   UNL A   1      32.650  35.665  31.804  1.00  0.00     0.124 S 
ATOM     81  O   UNL A   1      32.975  37.059  32.087  1.00  0.00    -0.237 OA
ATOM     82  O   UNL A   1      32.610  35.298  30.391  1.00  0.00    -0.237 OA
ATOM     83  O   UNL A   1      31.580  35.095  32.621  1.00  0.00    -0.744 OA
ENDBRANCH  79  80
ENDBRANCH  51  74
BRANCH  63  84
ATOM     84  C   UNL A   1      40.736  34.453  38.651  1.00  0.00    -0.014 A 
ATOM     85  C   UNL A   1      40.097  34.250  39.888  1.00  0.00     0.010 A 
ATOM     86  C   UNL A   1      41.443  35.652  38.440  1.00  0.00     0.010 A 
ATOM     87  C   UNL A   1      40.111  35.251  40.865  1.00  0.00     0.020 A 
ATOM     88  C   UNL A   1      41.494  36.637  39.429  1.00  0.00     0.020 A 
ATOM     89  C   UNL A   1      40.805  36.440  40.627  1.00  0.00     0.054 A 
BRANCH  89  90
ATOM     90  S   UNL A   1      40.809  37.720  41.910  1.00  0.00     0.124 S 
ATOM     91  O   UNL A   1      41.635  37.109  42.947  1.00  0.00    -0.237 OA
ATOM     92  O   UNL A   1      41.407  38.862  41.221  1.00  0.00    -0.237 OA
ATOM     93  O   UNL A   1      39.397  37.876  42.252  1.00  0.00    -0.744 OA
ENDBRANCH  89  90
ENDBRANCH  63  84
ENDBRANCH  37  38
ENDBRANCH  30  32
ENDBRANCH  29  30
ENDBRANCH  28  29
ENDBRANCH  27  28
ENDBRANCH  26  27
ENDBRANCH  25  26
ENDBRANCH   1  25
TORSDOF 25
ENDMDL
MODEL 3
REMARK VINA RESULT:      -7.7      6.772     11.826
REMARK SMILES C#CC[N@H+](CC(=O)OCCOCCOCCOC(=O)c1ccc(-c2c3nc(c(-c4ccc(S(=O)(=O)[O-])cc4)c4ccc([nH]4)c(-c4ccc(S(=O)(=O)[O-])cc4)c4nc(c(-c5ccc(S(=O)(=O)[O-])cc5)c5ccc2[nH]5)C=C4)C=C3)cc1)[C@H](C)c1nc2ccccc2s1
REMARK SMILES IDX 12 1 11 2 10 3 9 4 8 5 6 6 7 7 5 8 4 9 3 11 2 12 1 13 80 14
REMARK SMILES IDX 81 15 82 16 83 17 90 18 84 19 89 20 85 21 88 22 86 23 87 24
REMARK SMILES IDX 13 25 14 26 15 27 16 28 17 29 18 30 19 31 20 32 21 33 79 34
REMARK SMILES IDX 22 35 78 36 23 37 24 38 25 39 72 40 26 41 77 42 71 43 73 44
REMARK SMILES IDX 27 45 76 46 70 47 69 48 28 50 58 51 39 52 57 53 40 54 43 55
REMARK SMILES IDX 56 56 74 57 41 58 42 59 55 61 75 62 44 63 29 64 30 65 38 66
REMARK SMILES IDX 31 67 37 68 32 69 33 70 34 71 35 72 36 73 59 74 60 75 68 76
REMARK SMILES IDX 61 77 67 78 62 79 63 80 64 81 65 82 66 83 45 84 46 85 54 86
REMARK SMILES IDX 47 87 53 88 48 89 49 90 50 91 51 92 52 93
REMARK H PARENT 4 10 73 49 43 60
REMARK Flexibility Score: inf
ROOT
ATOM      1  C   UNL A   1      31.779  28.670  26.340  1.00  0.00     0.188 C 
ENDROOT
BRANCH   1   2
ATOM      2  O   UNL A   1      32.686  27.576  26.248  1.00  0.00    -0.376 OA
BRANCH   2   3
ATOM      3  C   UNL A   1      32.178  26.253  26.400  1.00  0.00     0.202 C 
BRANCH   3   4
ATOM      4  C   UNL A   1      33.113  25.044  26.200  1.00  0.00     0.261 C 
BRANCH   4   5
ATOM      5  O   UNL A   1      32.566  23.772  26.612  1.00  0.00    -0.459 OA
BRANCH   5   6
ATOM      6  C   UNL A   1      33.434  22.745  26.756  1.00  0.00     0.361 C 
ATOM      7  O   UNL A   1      34.470  22.823  27.415  1.00  0.00    -0.245 OA
BRANCH   6   8
ATOM      8  C   UNL A   1      33.062  21.422  26.075  1.00  0.00     0.387 C 
BRANCH   8   9
ATOM      9  N   UNL A   1      33.426  21.152  24.650  1.00  0.00    -0.308 N 
ATOM     10  H   UNL A   1      34.174  21.788  24.375  1.00  0.00     0.350 HD
BRANCH   9  11
ATOM     11  C   UNL A   1      34.017  19.816  24.462  1.00  0.00     0.355 C 
BRANCH  11  12
ATOM     12  C   UNL A   1      33.216  18.744  25.088  1.00  0.00    -0.047 C 
ATOM     13  C   UNL A   1      32.592  17.828  25.563  1.00  0.00     0.010 C 
ENDBRANCH  11  12
ENDBRANCH   9  11
BRANCH   9  14
ATOM     14  C   UNL A   1      32.245  21.447  23.750  1.00  0.00     0.242 C 
ATOM     15  C   UNL A   1      32.155  20.539  22.507  1.00  0.00     0.083 C 
BRANCH  14  16
ATOM     16  C   UNL A   1      32.123  22.896  23.283  1.00  0.00     0.151 A 
ATOM     17  N   UNL A   1      33.128  23.573  22.759  1.00  0.00    -0.235 NA
ATOM     18  S   UNL A   1      30.642  23.764  23.406  1.00  0.00    -0.113 S 
ATOM     19  C   UNL A   1      32.787  24.906  22.649  1.00  0.00     0.082 A 
ATOM     20  C   UNL A   1      31.464  25.218  22.962  1.00  0.00     0.055 A 
ATOM     21  C   UNL A   1      33.675  25.945  22.306  1.00  0.00     0.030 A 
ATOM     22  C   UNL A   1      30.992  26.542  22.926  1.00  0.00     0.021 A 
ATOM     23  C   UNL A   1      33.230  27.270  22.316  1.00  0.00     0.002 A 
ATOM     24  C   UNL A   1      31.903  27.561  22.618  1.00  0.00     0.002 A 
ENDBRANCH  14  16
ENDBRANCH   9  14
ENDBRANCH   8   9
ENDBRANCH   6   8
ENDBRANCH   5   6
ENDBRANCH   4   5
ENDBRANCH   3   4
ENDBRANCH   2   3
ENDBRANCH   1   2
BRANCH   1  25
ATOM     25  C   UNL A   1      32.268  30.072  25.937  1.00  0.00     0.188 C 
BRANCH  25  26
ATOM     26  O   UNL A   1      32.069  31.057  26.923  1.00  0.00    -0.376 OA
BRANCH  26  27
ATOM     27  C   UNL A   1      32.954  32.157  26.976  1.00  0.00     0.202 C 
BRANCH  27  28
ATOM     28  C   UNL A   1      33.811  32.464  28.222  1.00  0.00     0.261 C 
BRANCH  28  29
ATOM     29  O   UNL A   1      34.538  31.384  28.827  1.00  0.00    -0.460 OA
BRANCH  29  30
ATOM     30  C   UNL A   1      35.638  30.950  28.164  1.00  0.00     0.338 C 
ATOM     31  O   UNL A   1      35.663  30.189  27.212  1.00  0.00    -0.246 OA
BRANCH  30  32
ATOM     32  C   UNL A   1      36.806  31.733  28.629  1.00  0.00     0.060 A 
ATOM     33  C   UNL A   1      37.933  31.052  29.113  1.00  0.00     0.016 A 
ATOM     34  C   UNL A   1      36.773  33.128  28.629  1.00  0.00     0.016 A 
ATOM     35  C   UNL A   1      39.004  31.761  29.656  1.00  0.00     0.010 A 
ATOM     36  C   UNL A   1      37.838  33.838  29.197  1.00  0.00     0.010 A 
ATOM     37  C   UNL A   1      38.932  33.155  29.761  1.00  0.00    -0.014 A 
BRANCH  37  38
ATOM     38  C   UNL A   1      39.872  33.864  30.667  1.00  0.00     0.031 A 
ATOM     39  C   UNL A   1      39.668  33.725  32.156  1.00  0.00     0.074 A 
ATOM     40  C   UNL A   1      40.915  34.570  30.193  1.00  0.00     0.049 A 
ATOM     41  N   UNL A   1      40.352  34.246  33.141  1.00  0.00    -0.248 NA
ATOM     42  C   UNL A   1      38.535  32.889  32.588  1.00  0.00     0.031 C 
ATOM     43  C   UNL A   1      41.252  34.742  28.782  1.00  0.00     0.029 A 
ATOM     44  N   UNL A   1      41.887  35.274  30.860  1.00  0.00    -0.354 N 
ATOM     45  C   UNL A   1      39.726  33.814  34.306  1.00  0.00     0.074 A 
ATOM     46  C   UNL A   1      38.584  33.022  33.904  1.00  0.00     0.031 C 
ATOM     47  C   UNL A   1      42.355  35.504  28.687  1.00  0.00     0.029 A 
ATOM     48  C   UNL A   1      42.783  35.903  30.028  1.00  0.00     0.049 A 
ATOM     49  H   UNL A   1      41.938  35.325  31.842  1.00  0.00     0.167 HD
ATOM     50  C   UNL A   1      40.073  34.043  35.595  1.00  0.00     0.031 A 
ATOM     51  C   UNL A   1      43.817  36.719  30.315  1.00  0.00     0.031 A 
ATOM     52  C   UNL A   1      41.204  34.840  35.993  1.00  0.00     0.049 A 
ATOM     53  C   UNL A   1      44.142  37.021  31.757  1.00  0.00     0.074 A 
ATOM     54  C   UNL A   1      41.651  35.119  37.272  1.00  0.00     0.029 A 
ATOM     55  N   UNL A   1      42.060  35.495  35.120  1.00  0.00    -0.354 N 
ATOM     56  N   UNL A   1      43.559  36.580  32.847  1.00  0.00    -0.248 NA
ATOM     57  C   UNL A   1      45.277  37.919  32.006  1.00  0.00     0.031 C 
ATOM     58  C   UNL A   1      42.730  36.002  37.175  1.00  0.00     0.029 A 
ATOM     59  C   UNL A   1      43.011  36.204  35.833  1.00  0.00     0.049 A 
ATOM     60  H   UNL A   1      41.999  35.459  34.138  1.00  0.00     0.167 HD
ATOM     61  C   UNL A   1      44.278  37.121  33.910  1.00  0.00     0.074 A 
ATOM     62  C   UNL A   1      45.352  37.900  33.329  1.00  0.00     0.031 C 
ATOM     63  C   UNL A   1      44.072  36.986  35.245  1.00  0.00     0.031 A 
BRANCH  50  64
ATOM     64  C   UNL A   1      39.194  33.455  36.670  1.00  0.00    -0.014 A 
ATOM     65  C   UNL A   1      38.806  32.102  36.646  1.00  0.00     0.010 A 
ATOM     66  C   UNL A   1      38.778  34.264  37.744  1.00  0.00     0.010 A 
ATOM     67  C   UNL A   1      37.988  31.581  37.653  1.00  0.00     0.020 A 
ATOM     68  C   UNL A   1      37.989  33.738  38.772  1.00  0.00     0.020 A 
ATOM     69  C   UNL A   1      37.587  32.402  38.711  1.00  0.00     0.054 A 
BRANCH  69  70
ATOM     70  S   UNL A   1      36.552  31.690  40.020  1.00  0.00     0.124 S 
ATOM     71  O   UNL A   1      37.470  30.742  40.648  1.00  0.00    -0.237 OA
ATOM     72  O   UNL A   1      36.210  32.858  40.825  1.00  0.00    -0.237 OA
ATOM     73  O   UNL A   1      35.438  31.086  39.293  1.00  0.00    -0.744 OA
ENDBRANCH  69  70
ENDBRANCH  50  64
BRANCH  51  74
ATOM     74  C   UNL A   1      44.623  37.323  29.215  1.00  0.00    -0.014 A 
ATOM     75  C   UNL A   1      45.742  36.656  28.687  1.00  0.00     0.010 A 
ATOM     76  C   UNL A   1      44.278  38.586  28.696  1.00  0.00     0.010 A 
ATOM     77  C   UNL A   1      46.513  37.246  27.681  1.00  0.00     0.020 A 
ATOM     78  C   UNL A   1      45.024  39.164  27.665  1.00  0.00     0.020 A 
ATOM     79  C   UNL A   1      46.144  38.494  27.171  1.00  0.00     0.054 A 
BRANCH  79  80
ATOM     80  S   UNL A   1      47.128  39.214  25.828  1.00  0.00     0.124 S 
ATOM     81  O   UNL A   1      46.104  39.847  25.003  1.00  0.00    -0.237 OA
ATOM     82  O   UNL A   1      48.016  40.125  26.545  1.00  0.00    -0.237 OA
ATOM     83  O   UNL A   1      47.787  38.056  25.227  1.00  0.00    -0.744 OA
ENDBRANCH  79  80
ENDBRANCH  51  74
BRANCH  63  84
ATOM     84  C   UNL A   1      45.054  37.661  36.172  1.00  0.00    -0.014 A 
ATOM     85  C   UNL A   1      44.837  38.963  36.657  1.00  0.00     0.010 A 
ATOM     86  C   UNL A   1      46.208  36.967  36.581  1.00  0.00     0.010 A 
ATOM     87  C   UNL A   1      45.784  39.580  37.480  1.00  0.00     0.020 A 
ATOM     88  C   UNL A   1      47.137  37.564  37.437  1.00  0.00     0.020 A 
ATOM     89  C   UNL A   1      46.931  38.878  37.861  1.00  0.00     0.054 A 
BRANCH  89  90
ATOM     90  S   UNL A   1      48.144  39.699  38.930  1.00  0.00     0.124 S 
ATOM     91  O   UNL A   1      49.091  40.237  37.957  1.00  0.00    -0.237 OA
ATOM     92  O   UNL A   1      47.331  40.691  39.631  1.00  0.00    -0.237 OA
ATOM     93  O   UNL A   1      48.659  38.619  39.767  1.00  0.00    -0.744 OA
ENDBRANCH  89  90
ENDBRANCH  63  84
ENDBRANCH  37  38
ENDBRANCH  30  32
ENDBRANCH  29  30
ENDBRANCH  28  29
ENDBRANCH  27  28
ENDBRANCH  26  27
ENDBRANCH  25  26
ENDBRANCH   1  25
TORSDOF 25
ENDMDL
