MODEL 1
REMARK VINA RESULT:      -9.4      0.000      0.000
REMARK SMILES O=C(OCCOCCOCCOC(=O)[C@@H]1C[N@@H+](CCOc2ccc(F)cc2)C[C@H]1C1CC1)c1ccc(-c2c3nc(c(-c4ccc(S(=O)(=O)[O-])cc4)c4ccc([nH]4)c(-c4ccc(S(=O)(=O)[O-])cc4)c4nc(c(-c5ccc(S(=O)(=O)[O-])cc5)c5ccc2[nH]5)C=C4)C=C3)cc1
REMARK SMILES IDX 8 1 7 2 6 3 5 4 4 5 3 6 2 7 1 8 33 9 34 10 92 11 35 12 91 13
REMARK SMILES IDX 36 14 37 15 38 16 85 17 39 18 90 19 84 20 86 21 40 22 89 23
REMARK SMILES IDX 83 24 82 25 41 27 71 28 52 29 70 30 53 31 56 32 69 33 87 34
REMARK SMILES IDX 54 35 55 36 68 38 88 39 57 40 42 41 43 42 51 43 44 44 50 45
REMARK SMILES IDX 45 46 46 47 47 48 48 49 49 50 72 51 73 52 81 53 74 54 80 55
REMARK SMILES IDX 75 56 76 57 77 58 78 59 79 60 58 61 59 62 67 63 60 64 66 65
REMARK SMILES IDX 61 66 62 67 63 68 64 69 65 70 9 71 10 72 11 73 12 74 13 75
REMARK SMILES IDX 14 76 15 77 16 78 29 79 17 80 28 81 30 83 31 84 32 85 18 86
REMARK SMILES IDX 19 87 20 88 21 89 22 90 27 91 23 92 26 93 24 94 25 95
REMARK H PARENT 86 26 56 37 17 82
REMARK Flexibility Score: inf
ROOT
ATOM      1  C   UNL A   1      35.547  21.438  25.501  1.00  0.00     0.188 C 
ENDROOT
BRANCH   1   2
ATOM      2  C   UNL A   1      36.054  22.754  24.894  1.00  0.00     0.188 C 
BRANCH   2   3
ATOM      3  O   UNL A   1      37.473  22.939  24.985  1.00  0.00    -0.376 OA
BRANCH   3   4
ATOM      4  C   UNL A   1      37.884  23.579  26.200  1.00  0.00     0.202 C 
BRANCH   4   5
ATOM      5  C   UNL A   1      39.396  23.570  26.474  1.00  0.00     0.261 C 
BRANCH   5   6
ATOM      6  O   UNL A   1      39.779  24.438  27.550  1.00  0.00    -0.460 OA
BRANCH   6   7
ATOM      7  C   UNL A   1      40.082  25.761  27.511  1.00  0.00     0.338 C 
ATOM      8  O   UNL A   1      40.384  26.246  26.420  1.00  0.00    -0.246 OA
BRANCH   7   9
ATOM      9  C   UNL A   1      40.054  26.675  28.701  1.00  0.00     0.060 A 
ATOM     10  C   UNL A   1      40.949  27.716  28.945  1.00  0.00     0.016 A 
ATOM     11  C   UNL A   1      39.010  26.488  29.629  1.00  0.00     0.016 A 
ATOM     12  C   UNL A   1      40.885  28.473  30.109  1.00  0.00     0.010 A 
ATOM     13  C   UNL A   1      38.897  27.293  30.772  1.00  0.00     0.010 A 
ATOM     14  C   UNL A   1      39.859  28.272  31.029  1.00  0.00    -0.014 A 
BRANCH  14  15
ATOM     15  C   UNL A   1      39.889  29.070  32.273  1.00  0.00     0.031 A 
ATOM     16  C   UNL A   1      40.987  28.831  33.247  1.00  0.00     0.074 A 
ATOM     17  C   UNL A   1      39.067  30.126  32.421  1.00  0.00     0.049 A 
ATOM     18  N   UNL A   1      41.285  29.523  34.309  1.00  0.00    -0.248 NA
ATOM     19  C   UNL A   1      41.906  27.718  32.957  1.00  0.00     0.031 C 
ATOM     20  C   UNL A   1      38.091  30.517  31.421  1.00  0.00     0.029 A 
ATOM     21  N   UNL A   1      38.920  31.075  33.395  1.00  0.00    -0.354 N 
ATOM     22  C   UNL A   1      42.460  28.970  34.785  1.00  0.00     0.074 A 
ATOM     23  C   UNL A   1      42.789  27.847  33.935  1.00  0.00     0.031 C 
ATOM     24  C   UNL A   1      37.423  31.603  31.823  1.00  0.00     0.029 A 
ATOM     25  C   UNL A   1      37.900  31.968  33.139  1.00  0.00     0.049 A 
ATOM     26  H   UNL A   1      39.485  31.117  34.200  1.00  0.00     0.167 HD
ATOM     27  C   UNL A   1      43.206  29.398  35.826  1.00  0.00     0.031 A 
ATOM     28  C   UNL A   1      37.385  32.961  33.885  1.00  0.00     0.031 A 
ATOM     29  C   UNL A   1      42.811  30.480  36.685  1.00  0.00     0.049 A 
ATOM     30  C   UNL A   1      38.100  33.266  35.160  1.00  0.00     0.074 A 
ATOM     31  C   UNL A   1      43.423  30.930  37.838  1.00  0.00     0.029 A 
ATOM     32  N   UNL A   1      41.685  31.273  36.488  1.00  0.00    -0.354 N 
ATOM     33  N   UNL A   1      39.189  32.702  35.628  1.00  0.00    -0.248 NA
ATOM     34  C   UNL A   1      37.564  34.348  35.987  1.00  0.00     0.031 C 
ATOM     35  C   UNL A   1      42.634  31.956  38.372  1.00  0.00     0.029 A 
ATOM     36  C   UNL A   1      41.565  32.190  37.518  1.00  0.00     0.049 A 
ATOM     37  H   UNL A   1      41.065  31.193  35.729  1.00  0.00     0.167 HD
ATOM     38  C   UNL A   1      39.494  33.383  36.790  1.00  0.00     0.074 A 
ATOM     39  C   UNL A   1      38.480  34.413  36.944  1.00  0.00     0.031 C 
ATOM     40  C   UNL A   1      40.525  33.182  37.647  1.00  0.00     0.031 A 
BRANCH  27  41
ATOM     41  C   UNL A   1      44.470  28.639  36.093  1.00  0.00    -0.014 A 
ATOM     42  C   UNL A   1      44.464  27.478  36.887  1.00  0.00     0.010 A 
ATOM     43  C   UNL A   1      45.688  29.118  35.581  1.00  0.00     0.010 A 
ATOM     44  C   UNL A   1      45.660  26.823  37.188  1.00  0.00     0.020 A 
ATOM     45  C   UNL A   1      46.884  28.454  35.862  1.00  0.00     0.020 A 
ATOM     46  C   UNL A   1      46.863  27.318  36.675  1.00  0.00     0.054 A 
BRANCH  46  47
ATOM     47  S   UNL A   1      48.401  26.441  37.067  1.00  0.00     0.124 S 
ATOM     48  O   UNL A   1      49.237  27.517  37.593  1.00  0.00    -0.237 OA
ATOM     49  O   UNL A   1      47.961  25.450  38.046  1.00  0.00    -0.237 OA
ATOM     50  O   UNL A   1      48.826  25.894  35.781  1.00  0.00    -0.744 OA
ENDBRANCH  46  47
ENDBRANCH  27  41
BRANCH  28  51
ATOM     51  C   UNL A   1      36.140  33.671  33.467  1.00  0.00    -0.014 A 
ATOM     52  C   UNL A   1      34.866  33.105  33.630  1.00  0.00     0.010 A 
ATOM     53  C   UNL A   1      36.239  34.949  32.878  1.00  0.00     0.010 A 
ATOM     54  C   UNL A   1      33.723  33.777  33.173  1.00  0.00     0.020 A 
ATOM     55  C   UNL A   1      35.100  35.636  32.445  1.00  0.00     0.020 A 
ATOM     56  C   UNL A   1      33.850  35.035  32.575  1.00  0.00     0.054 A 
BRANCH  56  57
ATOM     57  S   UNL A   1      32.360  35.882  31.974  1.00  0.00     0.124 S 
ATOM     58  O   UNL A   1      32.646  37.274  32.308  1.00  0.00    -0.237 OA
ATOM     59  O   UNL A   1      32.365  35.556  30.550  1.00  0.00    -0.237 OA
ATOM     60  O   UNL A   1      31.281  35.263  32.743  1.00  0.00    -0.744 OA
ENDBRANCH  56  57
ENDBRANCH  28  51
BRANCH  40  61
ATOM     61  C   UNL A   1      40.594  34.118  38.814  1.00  0.00    -0.014 A 
ATOM     62  C   UNL A   1      41.341  35.306  38.744  1.00  0.00     0.010 A 
ATOM     63  C   UNL A   1      39.896  33.800  39.992  1.00  0.00     0.010 A 
ATOM     64  C   UNL A   1      41.429  36.141  39.856  1.00  0.00     0.020 A 
ATOM     65  C   UNL A   1      39.953  34.652  41.094  1.00  0.00     0.020 A 
ATOM     66  C   UNL A   1      40.736  35.806  41.024  1.00  0.00     0.054 A 
BRANCH  66  67
ATOM     67  S   UNL A   1      40.845  36.921  42.447  1.00  0.00     0.124 S 
ATOM     68  O   UNL A   1      41.312  38.158  41.826  1.00  0.00    -0.237 OA
ATOM     69  O   UNL A   1      39.471  36.945  42.941  1.00  0.00    -0.237 OA
ATOM     70  O   UNL A   1      41.807  36.263  43.327  1.00  0.00    -0.744 OA
ENDBRANCH  66  67
ENDBRANCH  40  61
ENDBRANCH  14  15
ENDBRANCH   7   9
ENDBRANCH   6   7
ENDBRANCH   5   6
ENDBRANCH   4   5
ENDBRANCH   3   4
ENDBRANCH   2   3
ENDBRANCH   1   2
BRANCH   1  71
ATOM     71  O   UNL A   1      35.134  21.459  26.862  1.00  0.00    -0.376 OA
BRANCH  71  72
ATOM     72  C   UNL A   1      33.752  21.710  27.104  1.00  0.00     0.202 C 
BRANCH  72  73
ATOM     73  C   UNL A   1      33.252  23.158  27.293  1.00  0.00     0.261 C 
BRANCH  73  74
ATOM     74  O   UNL A   1      31.861  23.302  27.632  1.00  0.00    -0.463 OA
BRANCH  74  75
ATOM     75  C   UNL A   1      31.008  23.148  26.571  1.00  0.00     0.315 C 
ATOM     76  O   UNL A   1      29.935  22.579  26.635  1.00  0.00    -0.252 OA
BRANCH  75  77
ATOM     77  C   UNL A   1      31.485  23.824  25.301  1.00  0.00     0.163 C 
ATOM     78  C   UNL A   1      30.845  25.145  25.013  1.00  0.00     0.278 C 
ATOM     79  C   UNL A   1      31.216  23.029  24.034  1.00  0.00     0.067 C 
ATOM     80  N   UNL A   1      31.077  25.382  23.572  1.00  0.00    -0.331 N 
ATOM     81  C   UNL A   1      30.852  24.077  22.973  1.00  0.00     0.267 C 
ATOM     82  H   UNL A   1      30.440  26.088  23.204  1.00  0.00     0.348 HD
BRANCH  79  83
ATOM     83  C   UNL A   1      32.303  22.068  23.657  1.00  0.00    -0.001 C 
ATOM     84  C   UNL A   1      32.228  20.563  23.859  1.00  0.00     0.004 C 
ATOM     85  C   UNL A   1      32.145  21.137  22.479  1.00  0.00     0.004 C 
ENDBRANCH  79  83
BRANCH  80  86
ATOM     86  C   UNL A   1      32.354  26.046  23.209  1.00  0.00     0.304 C 
BRANCH  86  87
ATOM     87  C   UNL A   1      33.092  27.041  24.157  1.00  0.00     0.290 C 
BRANCH  87  88
ATOM     88  O   UNL A   1      32.266  28.164  24.548  1.00  0.00    -0.488 OA
BRANCH  88  89
ATOM     89  C   UNL A   1      32.721  28.886  25.618  1.00  0.00     0.119 A 
ATOM     90  C   UNL A   1      31.954  29.997  25.985  1.00  0.00     0.049 A 
ATOM     91  C   UNL A   1      33.904  28.601  26.301  1.00  0.00     0.049 A 
ATOM     92  C   UNL A   1      32.458  30.925  26.898  1.00  0.00     0.043 A 
ATOM     93  C   UNL A   1      34.391  29.511  27.249  1.00  0.00     0.043 A 
ATOM     94  C   UNL A   1      33.685  30.684  27.504  1.00  0.00     0.123 A 
ATOM     95  F   UNL A   1      34.217  31.615  28.308  1.00  0.00    -0.207 F 
ENDBRANCH  88  89
ENDBRANCH  87  88
ENDBRANCH  86  87
ENDBRANCH  80  86
ENDBRANCH  75  77
ENDBRANCH  74  75
ENDBRANCH  73  74
ENDBRANCH  72  73
ENDBRANCH  71  72
ENDBRANCH   1  71
TORSDOF 25
ENDMDL
MODEL 2
REMARK VINA RESULT:      -8.4      5.477      6.937
REMARK SMILES O=C(OCCOCCOCCOC(=O)[C@@H]1C[N@@H+](CCOc2ccc(F)cc2)C[C@H]1C1CC1)c1ccc(-c2c3nc(c(-c4ccc(S(=O)(=O)[O-])cc4)c4ccc([nH]4)c(-c4ccc(S(=O)(=O)[O-])cc4)c4nc(c(-c5ccc(S(=O)(=O)[O-])cc5)c5ccc2[nH]5)C=C4)C=C3)cc1
REMARK SMILES IDX 8 1 7 2 6 3 5 4 4 5 3 6 2 7 1 8 33 9 34 10 92 11 35 12 91 13
REMARK SMILES IDX 36 14 37 15 38 16 85 17 39 18 90 19 84 20 86 21 40 22 89 23
REMARK SMILES IDX 83 24 82 25 41 27 71 28 52 29 70 30 53 31 56 32 69 33 87 34
REMARK SMILES IDX 54 35 55 36 68 38 88 39 57 40 42 41 43 42 51 43 44 44 50 45
REMARK SMILES IDX 45 46 46 47 47 48 48 49 49 50 72 51 73 52 81 53 74 54 80 55
REMARK SMILES IDX 75 56 76 57 77 58 78 59 79 60 58 61 59 62 67 63 60 64 66 65
REMARK SMILES IDX 61 66 62 67 63 68 64 69 65 70 9 71 10 72 11 73 12 74 13 75
REMARK SMILES IDX 14 76 15 77 16 78 29 79 17 80 28 81 30 83 31 84 32 85 18 86
REMARK SMILES IDX 19 87 20 88 21 89 22 90 27 91 23 92 26 93 24 94 25 95
REMARK H PARENT 86 26 56 37 17 82
REMARK Flexibility Score: inf
ROOT
ATOM      1  C   UNL A   1      33.529  19.740  25.435  1.00  0.00     0.188 C 
ENDROOT
BRANCH   1   2
ATOM      2  C   UNL A   1      34.252  21.031  25.847  1.00  0.00     0.188 C 
BRANCH   2   3
ATOM      3  O   UNL A   1      35.308  21.425  24.960  1.00  0.00    -0.376 OA
BRANCH   3   4
ATOM      4  C   UNL A   1      36.531  20.712  25.184  1.00  0.00     0.202 C 
BRANCH   4   5
ATOM      5  C   UNL A   1      37.818  21.494  24.876  1.00  0.00     0.261 C 
BRANCH   5   6
ATOM      6  O   UNL A   1      38.391  22.115  26.036  1.00  0.00    -0.460 OA
BRANCH   6   7
ATOM      7  C   UNL A   1      39.698  22.353  26.316  1.00  0.00     0.338 C 
ATOM      8  O   UNL A   1      40.503  21.446  26.102  1.00  0.00    -0.246 OA
BRANCH   7   9
ATOM      9  C   UNL A   1      40.231  23.651  26.847  1.00  0.00     0.060 A 
ATOM     10  C   UNL A   1      40.111  24.893  26.224  1.00  0.00     0.016 A 
ATOM     11  C   UNL A   1      40.873  23.616  28.101  1.00  0.00     0.016 A 
ATOM     12  C   UNL A   1      40.693  26.036  26.759  1.00  0.00     0.010 A 
ATOM     13  C   UNL A   1      41.403  24.777  28.683  1.00  0.00     0.010 A 
ATOM     14  C   UNL A   1      41.339  25.990  27.992  1.00  0.00    -0.014 A 
BRANCH  14  15
ATOM     15  C   UNL A   1      41.989  27.228  28.471  1.00  0.00     0.031 A 
ATOM     16  C   UNL A   1      43.459  27.371  28.308  1.00  0.00     0.074 A 
ATOM     17  C   UNL A   1      41.242  28.282  28.851  1.00  0.00     0.049 A 
ATOM     18  N   UNL A   1      44.193  28.428  28.510  1.00  0.00    -0.248 NA
ATOM     19  C   UNL A   1      44.189  26.204  27.787  1.00  0.00     0.031 C 
ATOM     20  C   UNL A   1      39.791  28.262  28.863  1.00  0.00     0.029 A 
ATOM     21  N   UNL A   1      41.544  29.553  29.255  1.00  0.00    -0.354 N 
ATOM     22  C   UNL A   1      45.462  28.076  28.088  1.00  0.00     0.074 A 
ATOM     23  C   UNL A   1      45.416  26.691  27.676  1.00  0.00     0.031 C 
ATOM     24  C   UNL A   1      39.312  29.442  29.272  1.00  0.00     0.029 A 
ATOM     25  C   UNL A   1      40.433  30.299  29.592  1.00  0.00     0.049 A 
ATOM     26  H   UNL A   1      42.463  29.902  29.303  1.00  0.00     0.167 HD
ATOM     27  C   UNL A   1      46.555  28.867  28.025  1.00  0.00     0.031 A 
ATOM     28  C   UNL A   1      40.321  31.530  30.120  1.00  0.00     0.031 A 
ATOM     29  C   UNL A   1      46.575  30.221  28.504  1.00  0.00     0.049 A 
ATOM     30  C   UNL A   1      41.589  32.308  30.257  1.00  0.00     0.074 A 
ATOM     31  C   UNL A   1      47.649  31.084  28.601  1.00  0.00     0.029 A 
ATOM     32  N   UNL A   1      45.463  30.905  28.985  1.00  0.00    -0.354 N 
ATOM     33  N   UNL A   1      42.798  31.946  29.896  1.00  0.00    -0.248 NA
ATOM     34  C   UNL A   1      41.493  33.654  30.822  1.00  0.00     0.031 C 
ATOM     35  C   UNL A   1      47.198  32.268  29.196  1.00  0.00     0.029 A 
ATOM     36  C   UNL A   1      45.831  32.169  29.411  1.00  0.00     0.049 A 
ATOM     37  H   UNL A   1      44.549  30.542  29.017  1.00  0.00     0.167 HD
ATOM     38  C   UNL A   1      43.608  33.034  30.157  1.00  0.00     0.074 A 
ATOM     39  C   UNL A   1      42.745  34.073  30.692  1.00  0.00     0.031 C 
ATOM     40  C   UNL A   1      44.943  33.165  29.963  1.00  0.00     0.031 A 
BRANCH  27  41
ATOM     41  C   UNL A   1      47.798  28.238  27.473  1.00  0.00    -0.014 A 
ATOM     42  C   UNL A   1      48.776  27.696  28.328  1.00  0.00     0.010 A 
ATOM     43  C   UNL A   1      48.013  28.229  26.085  1.00  0.00     0.010 A 
ATOM     44  C   UNL A   1      49.963  27.180  27.803  1.00  0.00     0.020 A 
ATOM     45  C   UNL A   1      49.190  27.695  25.555  1.00  0.00     0.020 A 
ATOM     46  C   UNL A   1      50.163  27.185  26.419  1.00  0.00     0.054 A 
BRANCH  46  47
ATOM     47  S   UNL A   1      51.705  26.495  25.761  1.00  0.00     0.124 S 
ATOM     48  O   UNL A   1      51.552  26.727  24.327  1.00  0.00    -0.237 OA
ATOM     49  O   UNL A   1      52.723  27.306  26.423  1.00  0.00    -0.237 OA
ATOM     50  O   UNL A   1      51.663  25.095  26.174  1.00  0.00    -0.744 OA
ENDBRANCH  46  47
ENDBRANCH  27  41
BRANCH  28  51
ATOM     51  C   UNL A   1      39.001  32.052  30.582  1.00  0.00    -0.014 A 
ATOM     52  C   UNL A   1      38.106  32.697  29.712  1.00  0.00     0.010 A 
ATOM     53  C   UNL A   1      38.635  31.906  31.936  1.00  0.00     0.010 A 
ATOM     54  C   UNL A   1      36.900  33.225  30.194  1.00  0.00     0.020 A 
ATOM     55  C   UNL A   1      37.421  32.406  32.417  1.00  0.00     0.020 A 
ATOM     56  C   UNL A   1      36.570  33.084  31.546  1.00  0.00     0.054 A 
BRANCH  56  57
ATOM     57  S   UNL A   1      35.011  33.791  32.154  1.00  0.00     0.124 S 
ATOM     58  O   UNL A   1      34.652  32.861  33.221  1.00  0.00    -0.237 OA
ATOM     59  O   UNL A   1      35.417  35.126  32.584  1.00  0.00    -0.237 OA
ATOM     60  O   UNL A   1      34.141  33.760  30.979  1.00  0.00    -0.744 OA
ENDBRANCH  56  57
ENDBRANCH  28  51
BRANCH  40  61
ATOM     61  C   UNL A   1      45.526  34.496  30.325  1.00  0.00    -0.014 A 
ATOM     62  C   UNL A   1      45.615  35.528  29.375  1.00  0.00     0.010 A 
ATOM     63  C   UNL A   1      45.987  34.711  31.635  1.00  0.00     0.010 A 
ATOM     64  C   UNL A   1      46.202  36.744  29.720  1.00  0.00     0.020 A 
ATOM     65  C   UNL A   1      46.541  35.939  31.992  1.00  0.00     0.020 A 
ATOM     66  C   UNL A   1      46.663  36.939  31.026  1.00  0.00     0.054 A 
BRANCH  66  67
ATOM     67  S   UNL A   1      47.398  38.537  31.456  1.00  0.00     0.124 S 
ATOM     68  O   UNL A   1      47.089  39.340  30.276  1.00  0.00    -0.237 OA
ATOM     69  O   UNL A   1      46.678  38.904  32.673  1.00  0.00    -0.237 OA
ATOM     70  O   UNL A   1      48.813  38.226  31.646  1.00  0.00    -0.744 OA
ENDBRANCH  66  67
ENDBRANCH  40  61
ENDBRANCH  14  15
ENDBRANCH   7   9
ENDBRANCH   6   7
ENDBRANCH   5   6
ENDBRANCH   4   5
ENDBRANCH   3   4
ENDBRANCH   2   3
ENDBRANCH   1   2
BRANCH   1  71
ATOM     71  O   UNL A   1      32.203  19.862  24.936  1.00  0.00    -0.376 OA
BRANCH  71  72
ATOM     72  C   UNL A   1      32.061  20.435  23.638  1.00  0.00     0.202 C 
BRANCH  72  73
ATOM     73  C   UNL A   1      32.491  21.896  23.389  1.00  0.00     0.261 C 
BRANCH  73  74
ATOM     74  O   UNL A   1      32.114  22.453  22.117  1.00  0.00    -0.463 OA
BRANCH  74  75
ATOM     75  C   UNL A   1      32.853  23.544  21.742  1.00  0.00     0.315 C 
ATOM     76  O   UNL A   1      33.729  23.517  20.899  1.00  0.00    -0.252 OA
BRANCH  75  77
ATOM     77  C   UNL A   1      32.431  24.831  22.422  1.00  0.00     0.163 C 
ATOM     78  C   UNL A   1      31.902  25.886  21.501  1.00  0.00     0.278 C 
ATOM     79  C   UNL A   1      33.554  25.546  23.154  1.00  0.00     0.067 C 
ATOM     80  N   UNL A   1      32.004  27.149  22.261  1.00  0.00    -0.331 N 
ATOM     81  C   UNL A   1      33.290  27.042  22.928  1.00  0.00     0.267 C 
ATOM     82  H   UNL A   1      31.958  27.959  21.644  1.00  0.00     0.348 HD
BRANCH  79  83
ATOM     83  C   UNL A   1      33.740  25.124  24.580  1.00  0.00    -0.001 C 
ATOM     84  C   UNL A   1      33.451  26.007  25.783  1.00  0.00     0.004 C 
ATOM     85  C   UNL A   1      32.554  24.849  25.473  1.00  0.00     0.004 C 
ENDBRANCH  79  83
BRANCH  80  86
ATOM     86  C   UNL A   1      30.852  27.490  23.134  1.00  0.00     0.304 C 
BRANCH  86  87
ATOM     87  C   UNL A   1      31.020  28.088  24.565  1.00  0.00     0.290 C 
BRANCH  87  88
ATOM     88  O   UNL A   1      31.333  29.501  24.552  1.00  0.00    -0.488 OA
BRANCH  88  89
ATOM     89  C   UNL A   1      32.059  29.955  25.619  1.00  0.00     0.119 A 
ATOM     90  C   UNL A   1      31.582  31.113  26.244  1.00  0.00     0.049 A 
ATOM     91  C   UNL A   1      33.241  29.361  26.063  1.00  0.00     0.049 A 
ATOM     92  C   UNL A   1      32.376  31.782  27.178  1.00  0.00     0.043 A 
ATOM     93  C   UNL A   1      34.019  30.011  27.031  1.00  0.00     0.043 A 
ATOM     94  C   UNL A   1      33.600  31.236  27.544  1.00  0.00     0.123 A 
ATOM     95  F   UNL A   1      34.407  31.920  28.367  1.00  0.00    -0.207 F 
ENDBRANCH  88  89
ENDBRANCH  87  88
ENDBRANCH  86  87
ENDBRANCH  80  86
ENDBRANCH  75  77
ENDBRANCH  74  75
ENDBRANCH  73  74
ENDBRANCH  72  73
ENDBRANCH  71  72
ENDBRANCH   1  71
TORSDOF 25
ENDMDL
MODEL 3
REMARK VINA RESULT:      -8.3      5.721      7.637
REMARK SMILES O=C(OCCOCCOCCOC(=O)[C@@H]1C[N@@H+](CCOc2ccc(F)cc2)C[C@H]1C1CC1)c1ccc(-c2c3nc(c(-c4ccc(S(=O)(=O)[O-])cc4)c4ccc([nH]4)c(-c4ccc(S(=O)(=O)[O-])cc4)c4nc(c(-c5ccc(S(=O)(=O)[O-])cc5)c5ccc2[nH]5)C=C4)C=C3)cc1
REMARK SMILES IDX 8 1 7 2 6 3 5 4 4 5 3 6 2 7 1 8 33 9 34 10 92 11 35 12 91 13
REMARK SMILES IDX 36 14 37 15 38 16 85 17 39 18 90 19 84 20 86 21 40 22 89 23
REMARK SMILES IDX 83 24 82 25 41 27 71 28 52 29 70 30 53 31 56 32 69 33 87 34
REMARK SMILES IDX 54 35 55 36 68 38 88 39 57 40 42 41 43 42 51 43 44 44 50 45
REMARK SMILES IDX 45 46 46 47 47 48 48 49 49 50 72 51 73 52 81 53 74 54 80 55
REMARK SMILES IDX 75 56 76 57 77 58 78 59 79 60 58 61 59 62 67 63 60 64 66 65
REMARK SMILES IDX 61 66 62 67 63 68 64 69 65 70 9 71 10 72 11 73 12 74 13 75
REMARK SMILES IDX 14 76 15 77 16 78 29 79 17 80 28 81 30 83 31 84 32 85 18 86
REMARK SMILES IDX 19 87 20 88 21 89 22 90 27 91 23 92 26 93 24 94 25 95
REMARK H PARENT 86 26 56 37 17 82
REMARK Flexibility Score: inf
ROOT
ATOM      1  C   UNL A   1      33.838  21.733  23.918  1.00  0.00     0.188 C 
ENDROOT
BRANCH   1   2
ATOM      2  C   UNL A   1      35.095  22.285  24.605  1.00  0.00     0.188 C 
BRANCH   2   3
ATOM      3  O   UNL A   1      36.327  21.743  24.108  1.00  0.00    -0.376 OA
BRANCH   3   4
ATOM      4  C   UNL A   1      36.979  20.871  25.042  1.00  0.00     0.202 C 
BRANCH   4   5
ATOM      5  C   UNL A   1      38.494  21.076  25.188  1.00  0.00     0.261 C 
BRANCH   5   6
ATOM      6  O   UNL A   1      38.848  21.873  26.328  1.00  0.00    -0.460 OA
BRANCH   6   7
ATOM      7  C   UNL A   1      40.013  21.891  27.025  1.00  0.00     0.338 C 
ATOM      8  O   UNL A   1      40.512  20.808  27.334  1.00  0.00    -0.246 OA
BRANCH   7   9
ATOM      9  C   UNL A   1      40.743  23.139  27.427  1.00  0.00     0.060 A 
ATOM     10  C   UNL A   1      41.598  23.261  28.521  1.00  0.00     0.016 A 
ATOM     11  C   UNL A   1      40.580  24.271  26.604  1.00  0.00     0.016 A 
ATOM     12  C   UNL A   1      42.184  24.476  28.856  1.00  0.00     0.010 A 
ATOM     13  C   UNL A   1      41.223  25.483  26.894  1.00  0.00     0.010 A 
ATOM     14  C   UNL A   1      42.005  25.595  28.046  1.00  0.00    -0.014 A 
BRANCH  14  15
ATOM     15  C   UNL A   1      42.606  26.869  28.495  1.00  0.00     0.031 A 
ATOM     16  C   UNL A   1      44.066  27.075  28.304  1.00  0.00     0.074 A 
ATOM     17  C   UNL A   1      41.819  27.893  28.874  1.00  0.00     0.049 A 
ATOM     18  N   UNL A   1      44.754  28.167  28.478  1.00  0.00    -0.248 NA
ATOM     19  C   UNL A   1      44.839  25.934  27.787  1.00  0.00     0.031 C 
ATOM     20  C   UNL A   1      40.371  27.807  28.911  1.00  0.00     0.029 A 
ATOM     21  N   UNL A   1      42.070  29.183  29.254  1.00  0.00    -0.354 N 
ATOM     22  C   UNL A   1      46.030  27.867  28.038  1.00  0.00     0.074 A 
ATOM     23  C   UNL A   1      46.040  26.475  27.646  1.00  0.00     0.031 C 
ATOM     24  C   UNL A   1      39.846  28.971  29.311  1.00  0.00     0.029 A 
ATOM     25  C   UNL A   1      40.932  29.882  29.599  1.00  0.00     0.049 A 
ATOM     26  H   UNL A   1      42.973  29.574  29.279  1.00  0.00     0.167 HD
ATOM     27  C   UNL A   1      47.085  28.705  27.944  1.00  0.00     0.031 A 
ATOM     28  C   UNL A   1      40.773  31.115  30.111  1.00  0.00     0.031 A 
ATOM     29  C   UNL A   1      47.051  30.066  28.403  1.00  0.00     0.049 A 
ATOM     30  C   UNL A   1      42.006  31.951  30.214  1.00  0.00     0.074 A 
ATOM     31  C   UNL A   1      48.087  30.978  28.469  1.00  0.00     0.029 A 
ATOM     32  N   UNL A   1      45.918  30.706  28.894  1.00  0.00    -0.354 N 
ATOM     33  N   UNL A   1      43.224  31.639  29.838  1.00  0.00    -0.248 NA
ATOM     34  C   UNL A   1      41.859  33.301  30.761  1.00  0.00     0.031 C 
ATOM     35  C   UNL A   1      47.593  32.149  29.054  1.00  0.00     0.029 A 
ATOM     36  C   UNL A   1      46.235  31.992  29.295  1.00  0.00     0.049 A 
ATOM     37  H   UNL A   1      45.022  30.303  28.947  1.00  0.00     0.167 HD
ATOM     38  C   UNL A   1      43.989  32.766  30.068  1.00  0.00     0.074 A 
ATOM     39  C   UNL A   1      43.088  33.773  30.603  1.00  0.00     0.031 C 
ATOM     40  C   UNL A   1      45.313  32.955  29.848  1.00  0.00     0.031 A 
BRANCH  27  41
ATOM     41  C   UNL A   1      48.346  28.125  27.379  1.00  0.00    -0.014 A 
ATOM     42  C   UNL A   1      48.582  28.120  25.992  1.00  0.00     0.010 A 
ATOM     43  C   UNL A   1      49.286  27.538  28.242  1.00  0.00     0.010 A 
ATOM     44  C   UNL A   1      49.728  27.511  25.475  1.00  0.00     0.020 A 
ATOM     45  C   UNL A   1      50.443  26.946  27.730  1.00  0.00     0.020 A 
ATOM     46  C   UNL A   1      50.650  26.925  26.348  1.00  0.00     0.054 A 
BRANCH  46  47
ATOM     47  S   UNL A   1      52.137  26.155  25.653  1.00  0.00     0.124 S 
ATOM     48  O   UNL A   1      51.980  24.764  26.071  1.00  0.00    -0.237 OA
ATOM     49  O   UNL A   1      51.983  26.402  24.222  1.00  0.00    -0.237 OA
ATOM     50  O   UNL A   1      53.234  26.877  26.293  1.00  0.00    -0.744 OA
ENDBRANCH  46  47
ENDBRANCH  27  41
BRANCH  28  51
ATOM     51  C   UNL A   1      39.438  31.584  30.589  1.00  0.00    -0.014 A 
ATOM     52  C   UNL A   1      38.524  32.227  29.740  1.00  0.00     0.010 A 
ATOM     53  C   UNL A   1      39.080  31.388  31.939  1.00  0.00     0.010 A 
ATOM     54  C   UNL A   1      37.303  32.704  30.237  1.00  0.00     0.020 A 
ATOM     55  C   UNL A   1      37.852  31.837  32.435  1.00  0.00     0.020 A 
ATOM     56  C   UNL A   1      36.980  32.514  31.585  1.00  0.00     0.054 A 
BRANCH  56  57
ATOM     57  S   UNL A   1      35.401  33.156  32.214  1.00  0.00     0.124 S 
ATOM     58  O   UNL A   1      35.383  32.633  33.577  1.00  0.00    -0.237 OA
ATOM     59  O   UNL A   1      35.577  34.600  32.091  1.00  0.00    -0.237 OA
ATOM     60  O   UNL A   1      34.411  32.576  31.307  1.00  0.00    -0.744 OA
ENDBRANCH  56  57
ENDBRANCH  28  51
BRANCH  40  61
ATOM     61  C   UNL A   1      45.841  34.316  30.180  1.00  0.00    -0.014 A 
ATOM     62  C   UNL A   1      46.676  35.006  29.285  1.00  0.00     0.010 A 
ATOM     63  C   UNL A   1      45.490  34.909  31.406  1.00  0.00     0.010 A 
ATOM     64  C   UNL A   1      47.193  36.253  29.633  1.00  0.00     0.020 A 
ATOM     65  C   UNL A   1      45.976  36.172  31.740  1.00  0.00     0.020 A 
ATOM     66  C   UNL A   1      46.841  36.825  30.859  1.00  0.00     0.054 A 
BRANCH  66  67
ATOM     67  S   UNL A   1      47.505  38.457  31.277  1.00  0.00     0.124 S 
ATOM     68  O   UNL A   1      48.380  38.727  30.139  1.00  0.00    -0.237 OA
ATOM     69  O   UNL A   1      46.302  39.281  31.355  1.00  0.00    -0.237 OA
ATOM     70  O   UNL A   1      48.187  38.236  32.550  1.00  0.00    -0.744 OA
ENDBRANCH  66  67
ENDBRANCH  40  61
ENDBRANCH  14  15
ENDBRANCH   7   9
ENDBRANCH   6   7
ENDBRANCH   5   6
ENDBRANCH   4   5
ENDBRANCH   3   4
ENDBRANCH   2   3
ENDBRANCH   1   2
BRANCH   1  71
ATOM     71  O   UNL A   1      33.266  22.511  22.873  1.00  0.00    -0.376 OA
BRANCH  71  72
ATOM     72  C   UNL A   1      33.925  23.734  22.557  1.00  0.00     0.202 C 
BRANCH  72  73
ATOM     73  C   UNL A   1      33.121  25.050  22.498  1.00  0.00     0.261 C 
BRANCH  73  74
ATOM     74  O   UNL A   1      33.651  26.071  21.633  1.00  0.00    -0.463 OA
BRANCH  74  75
ATOM     75  C   UNL A   1      33.433  27.349  22.077  1.00  0.00     0.315 C 
ATOM     76  O   UNL A   1      34.192  28.278  21.880  1.00  0.00    -0.252 OA
BRANCH  75  77
ATOM     77  C   UNL A   1      32.105  27.532  22.782  1.00  0.00     0.163 C 
ATOM     78  C   UNL A   1      30.922  27.668  21.874  1.00  0.00     0.278 C 
ATOM     79  C   UNL A   1      32.022  28.782  23.642  1.00  0.00     0.067 C 
ATOM     80  N   UNL A   1      29.868  28.289  22.702  1.00  0.00    -0.331 N 
ATOM     81  C   UNL A   1      30.585  29.293  23.470  1.00  0.00     0.267 C 
ATOM     82  H   UNL A   1      29.134  28.699  22.125  1.00  0.00     0.348 HD
BRANCH  79  83
ATOM     83  C   UNL A   1      32.487  28.601  25.055  1.00  0.00    -0.001 C 
ATOM     84  C   UNL A   1      33.312  29.619  25.826  1.00  0.00     0.004 C 
ATOM     85  C   UNL A   1      31.876  29.395  26.184  1.00  0.00     0.004 C 
ENDBRANCH  79  83
BRANCH  80  86
ATOM     86  C   UNL A   1      29.016  27.363  23.491  1.00  0.00     0.304 C 
BRANCH  86  87
ATOM     87  C   UNL A   1      29.562  26.058  24.148  1.00  0.00     0.290 C 
BRANCH  87  88
ATOM     88  O   UNL A   1      30.094  26.277  25.476  1.00  0.00    -0.488 OA
BRANCH  88  89
ATOM     89  C   UNL A   1      30.683  25.189  26.062  1.00  0.00     0.119 A 
ATOM     90  C   UNL A   1      32.079  25.214  26.150  1.00  0.00     0.049 A 
ATOM     91  C   UNL A   1      29.976  24.073  26.514  1.00  0.00     0.049 A 
ATOM     92  C   UNL A   1      32.778  24.059  26.508  1.00  0.00     0.043 A 
ATOM     93  C   UNL A   1      30.678  22.928  26.913  1.00  0.00     0.043 A 
ATOM     94  C   UNL A   1      32.069  22.919  26.863  1.00  0.00     0.123 A 
ATOM     95  F   UNL A   1      32.734  21.782  27.115  1.00  0.00    -0.207 F 
ENDBRANCH  88  89
ENDBRANCH  87  88
ENDBRANCH  86  87
ENDBRANCH  80  86
ENDBRANCH  75  77
ENDBRANCH  74  75
ENDBRANCH  73  74
ENDBRANCH  72  73
ENDBRANCH  71  72
ENDBRANCH   1  71
TORSDOF 25
ENDMDL
