MODEL 1
REMARK VINA RESULT:      -7.6      0.000      0.000
REMARK SMILES O=C(CSCc1ccc(C(=O)OCCOCCOCCOC(=O)c2ccc(-c3c4nc(c(-c5ccc(S(=O)(=O)[O-])cc5)c5ccc([nH]5)c(-c5ccc(S(=O)(=O)[O-])cc5)c5nc(c(-c6ccc(S(=O)(=O)[O-])cc6)c6ccc3[nH]6)C=C5)C=C4)cc2)cc1)Nc1ccc(Cl)cc1
REMARK SMILES IDX 16 1 15 2 14 3 13 4 12 5 10 6 11 7 9 8 6 9 7 10 85 11 8 12
REMARK SMILES IDX 84 13 5 14 4 15 3 16 2 17 1 18 86 19 87 21 88 22 93 23 89 24
REMARK SMILES IDX 92 25 90 26 91 27 17 28 18 29 19 30 20 31 21 32 22 33 23 34
REMARK SMILES IDX 24 35 25 36 83 37 26 38 82 39 27 40 28 41 29 42 76 43 30 44
REMARK SMILES IDX 81 45 75 46 77 47 31 48 80 49 74 50 73 51 32 53 62 54 43 55
REMARK SMILES IDX 61 56 44 57 47 58 60 59 78 60 45 61 46 62 59 64 79 65 48 66
REMARK SMILES IDX 33 67 34 68 42 69 35 70 41 71 36 72 37 73 38 74 39 75 40 76
REMARK SMILES IDX 63 77 64 78 72 79 65 80 71 81 66 82 67 83 68 84 69 85 70 86
REMARK SMILES IDX 49 87 50 88 58 89 51 90 57 91 52 92 53 93 54 94 55 95 56 96
REMARK H PARENT 86 20 77 52 47 63
REMARK Flexibility Score: inf
ROOT
ATOM      1  C   UNL A   1      38.697  32.594  34.057  1.00  0.00     0.188 C 
ENDROOT
BRANCH   1   2
ATOM      2  O   UNL A   1      39.078  33.337  35.196  1.00  0.00    -0.376 OA
BRANCH   2   3
ATOM      3  C   UNL A   1      39.991  34.416  35.092  1.00  0.00     0.202 C 
BRANCH   3   4
ATOM      4  C   UNL A   1      41.299  34.369  34.286  1.00  0.00     0.261 C 
BRANCH   4   5
ATOM      5  O   UNL A   1      41.243  34.859  32.944  1.00  0.00    -0.460 OA
BRANCH   5   6
ATOM      6  C   UNL A   1      41.678  33.980  32.001  1.00  0.00     0.338 C 
ATOM      7  O   UNL A   1      41.589  32.773  32.031  1.00  0.00    -0.246 OA
BRANCH   6   8
ATOM      8  C   UNL A   1      42.151  34.723  30.811  1.00  0.00     0.060 A 
ATOM      9  C   UNL A   1      42.979  36.054  28.471  1.00  0.00    -0.038 A 
ATOM     10  C   UNL A   1      41.667  35.562  28.598  1.00  0.00     0.005 A 
ATOM     11  C   UNL A   1      43.859  35.879  29.551  1.00  0.00     0.005 A 
ATOM     12  C   UNL A   1      41.258  34.890  29.751  1.00  0.00     0.016 A 
ATOM     13  C   UNL A   1      43.445  35.236  30.725  1.00  0.00     0.016 A 
BRANCH   9  14
ATOM     14  C   UNL A   1      43.360  36.648  27.131  1.00  0.00     0.105 C 
BRANCH  14  15
ATOM     15  S   UNL A   1      43.425  38.458  26.975  1.00  0.00    -0.147 SA
BRANCH  15  16
ATOM     16  C   UNL A   1      45.216  38.696  26.739  1.00  0.00     0.170 C 
BRANCH  16  17
ATOM     17  C   UNL A   1      45.561  39.905  25.885  1.00  0.00     0.234 C 
ATOM     18  O   UNL A   1      46.371  39.800  24.968  1.00  0.00    -0.274 OA
ATOM     19  N   UNL A   1      44.841  41.042  26.207  1.00  0.00    -0.325 N 
ATOM     20  H   UNL A   1      44.306  41.004  27.033  1.00  0.00     0.169 HD
BRANCH  19  21
ATOM     21  C   UNL A   1      44.790  42.247  25.481  1.00  0.00     0.041 A 
ATOM     22  C   UNL A   1      43.733  42.415  24.576  1.00  0.00     0.027 A 
ATOM     23  C   UNL A   1      45.747  43.258  25.600  1.00  0.00     0.027 A 
ATOM     24  C   UNL A   1      43.625  43.588  23.821  1.00  0.00     0.022 A 
ATOM     25  C   UNL A   1      45.649  44.425  24.834  1.00  0.00     0.022 A 
ATOM     26  C   UNL A   1      44.586  44.587  23.951  1.00  0.00     0.041 A 
ATOM     27  Cl  UNL A   1      44.461  46.021  23.010  1.00  0.00    -0.084 Cl
ENDBRANCH  19  21
ENDBRANCH  16  17
ENDBRANCH  15  16
ENDBRANCH  14  15
ENDBRANCH   9  14
ENDBRANCH   6   8
ENDBRANCH   5   6
ENDBRANCH   4   5
ENDBRANCH   3   4
ENDBRANCH   2   3
ENDBRANCH   1   2
BRANCH   1  28
ATOM     28  C   UNL A   1      37.269  32.727  33.493  1.00  0.00     0.188 C 
BRANCH  28  29
ATOM     29  O   UNL A   1      37.088  32.941  32.111  1.00  0.00    -0.376 OA
BRANCH  29  30
ATOM     30  C   UNL A   1      35.927  32.468  31.450  1.00  0.00     0.202 C 
BRANCH  30  31
ATOM     31  C   UNL A   1      35.822  32.100  29.958  1.00  0.00     0.261 C 
BRANCH  31  32
ATOM     32  O   UNL A   1      35.978  30.729  29.595  1.00  0.00    -0.460 OA
BRANCH  32  33
ATOM     33  C   UNL A   1      36.724  29.988  30.453  1.00  0.00     0.338 C 
ATOM     34  O   UNL A   1      36.326  29.333  31.399  1.00  0.00    -0.246 OA
BRANCH  33  35
ATOM     35  C   UNL A   1      38.114  29.961  29.969  1.00  0.00     0.060 A 
ATOM     36  C   UNL A   1      38.347  29.853  28.593  1.00  0.00     0.016 A 
ATOM     37  C   UNL A   1      39.177  30.001  30.873  1.00  0.00     0.016 A 
ATOM     38  C   UNL A   1      39.654  29.766  28.114  1.00  0.00     0.010 A 
ATOM     39  C   UNL A   1      40.485  29.892  30.392  1.00  0.00     0.010 A 
ATOM     40  C   UNL A   1      40.727  29.749  29.014  1.00  0.00    -0.014 A 
BRANCH  40  41
ATOM     41  C   UNL A   1      42.091  29.414  28.536  1.00  0.00     0.031 A 
ATOM     42  C   UNL A   1      42.390  27.991  28.149  1.00  0.00     0.074 A 
ATOM     43  C   UNL A   1      43.048  30.356  28.446  1.00  0.00     0.049 A 
ATOM     44  N   UNL A   1      43.519  27.458  27.763  1.00  0.00    -0.248 NA
ATOM     45  C   UNL A   1      41.263  27.045  28.209  1.00  0.00     0.031 C 
ATOM     46  C   UNL A   1      42.871  31.775  28.750  1.00  0.00     0.029 A 
ATOM     47  N   UNL A   1      44.366  30.250  28.080  1.00  0.00    -0.354 N 
ATOM     48  C   UNL A   1      43.244  26.113  27.544  1.00  0.00     0.074 A 
ATOM     49  C   UNL A   1      41.849  25.907  27.867  1.00  0.00     0.031 C 
ATOM     50  C   UNL A   1      44.045  32.407  28.568  1.00  0.00     0.029 A 
ATOM     51  C   UNL A   1      45.061  31.432  28.172  1.00  0.00     0.049 A 
ATOM     52  H   UNL A   1      44.776  29.407  27.780  1.00  0.00     0.167 HD
ATOM     53  C   UNL A   1      44.077  25.136  27.112  1.00  0.00     0.031 A 
ATOM     54  C   UNL A   1      46.370  31.693  27.984  1.00  0.00     0.031 A 
ATOM     55  C   UNL A   1      45.469  25.339  26.813  1.00  0.00     0.049 A 
ATOM     56  C   UNL A   1      47.297  30.574  27.579  1.00  0.00     0.074 A 
ATOM     57  C   UNL A   1      46.393  24.416  26.355  1.00  0.00     0.029 A 
ATOM     58  N   UNL A   1      46.142  26.544  26.948  1.00  0.00    -0.354 N 
ATOM     59  N   UNL A   1      47.018  29.313  27.352  1.00  0.00    -0.248 NA
ATOM     60  C   UNL A   1      48.715  30.918  27.400  1.00  0.00     0.031 C 
ATOM     61  C   UNL A   1      47.638  25.048  26.274  1.00  0.00     0.029 A 
ATOM     62  C   UNL A   1      47.475  26.382  26.612  1.00  0.00     0.049 A 
ATOM     63  H   UNL A   1      45.731  27.390  27.241  1.00  0.00     0.167 HD
ATOM     64  C   UNL A   1      48.219  28.720  26.970  1.00  0.00     0.074 A 
ATOM     65  C   UNL A   1      49.223  29.764  26.987  1.00  0.00     0.031 C 
ATOM     66  C   UNL A   1      48.466  27.430  26.630  1.00  0.00     0.031 A 
BRANCH  53  67
ATOM     67  C   UNL A   1      43.509  23.748  26.980  1.00  0.00    -0.014 A 
ATOM     68  C   UNL A   1      43.292  22.935  28.107  1.00  0.00     0.010 A 
ATOM     69  C   UNL A   1      43.155  23.261  25.707  1.00  0.00     0.010 A 
ATOM     70  C   UNL A   1      42.771  21.646  27.961  1.00  0.00     0.020 A 
ATOM     71  C   UNL A   1      42.606  21.984  25.560  1.00  0.00     0.020 A 
ATOM     72  C   UNL A   1      42.433  21.178  26.687  1.00  0.00     0.054 A 
BRANCH  72  73
ATOM     73  S   UNL A   1      41.740  19.510  26.528  1.00  0.00     0.124 S 
ATOM     74  O   UNL A   1      42.369  18.814  27.649  1.00  0.00    -0.237 OA
ATOM     75  O   UNL A   1      40.305  19.745  26.662  1.00  0.00    -0.237 OA
ATOM     76  O   UNL A   1      42.177  19.077  25.204  1.00  0.00    -0.744 OA
ENDBRANCH  72  73
ENDBRANCH  53  67
BRANCH  54  77
ATOM     77  C   UNL A   1      46.892  33.073  28.192  1.00  0.00    -0.014 A 
ATOM     78  C   UNL A   1      46.948  33.989  27.126  1.00  0.00     0.010 A 
ATOM     79  C   UNL A   1      47.341  33.478  29.463  1.00  0.00     0.010 A 
ATOM     80  C   UNL A   1      47.457  35.276  27.323  1.00  0.00     0.020 A 
ATOM     81  C   UNL A   1      47.823  34.773  29.670  1.00  0.00     0.020 A 
ATOM     82  C   UNL A   1      47.887  35.662  28.596  1.00  0.00     0.054 A 
BRANCH  82  83
ATOM     83  S   UNL A   1      48.493  37.355  28.837  1.00  0.00     0.124 S 
ATOM     84  O   UNL A   1      47.444  37.938  29.666  1.00  0.00    -0.237 OA
ATOM     85  O   UNL A   1      49.777  37.137  29.499  1.00  0.00    -0.237 OA
ATOM     86  O   UNL A   1      48.583  37.883  27.477  1.00  0.00    -0.744 OA
ENDBRANCH  82  83
ENDBRANCH  54  77
BRANCH  66  87
ATOM     87  C   UNL A   1      49.867  27.074  26.202  1.00  0.00    -0.014 A 
ATOM     88  C   UNL A   1      50.301  27.259  24.878  1.00  0.00     0.010 A 
ATOM     89  C   UNL A   1      50.785  26.608  27.163  1.00  0.00     0.010 A 
ATOM     90  C   UNL A   1      51.617  26.955  24.515  1.00  0.00     0.020 A 
ATOM     91  C   UNL A   1      52.108  26.333  26.811  1.00  0.00     0.020 A 
ATOM     92  C   UNL A   1      52.513  26.495  25.485  1.00  0.00     0.054 A 
BRANCH  92  93
ATOM     93  S   UNL A   1      54.227  26.151  25.000  1.00  0.00     0.124 S 
ATOM     94  O   UNL A   1      54.144  26.185  23.542  1.00  0.00    -0.237 OA
ATOM     95  O   UNL A   1      54.961  27.255  25.614  1.00  0.00    -0.237 OA
ATOM     96  O   UNL A   1      54.495  24.836  25.578  1.00  0.00    -0.744 OA
ENDBRANCH  92  93
ENDBRANCH  66  87
ENDBRANCH  40  41
ENDBRANCH  33  35
ENDBRANCH  32  33
ENDBRANCH  31  32
ENDBRANCH  30  31
ENDBRANCH  29  30
ENDBRANCH  28  29
ENDBRANCH   1  28
TORSDOF 25
ENDMDL
MODEL 2
REMARK VINA RESULT:      -7.3      7.891     15.241
REMARK SMILES O=C(CSCc1ccc(C(=O)OCCOCCOCCOC(=O)c2ccc(-c3c4nc(c(-c5ccc(S(=O)(=O)[O-])cc5)c5ccc([nH]5)c(-c5ccc(S(=O)(=O)[O-])cc5)c5nc(c(-c6ccc(S(=O)(=O)[O-])cc6)c6ccc3[nH]6)C=C5)C=C4)cc2)cc1)Nc1ccc(Cl)cc1
REMARK SMILES IDX 16 1 15 2 14 3 13 4 12 5 10 6 11 7 9 8 6 9 7 10 85 11 8 12
REMARK SMILES IDX 84 13 5 14 4 15 3 16 2 17 1 18 86 19 87 21 88 22 93 23 89 24
REMARK SMILES IDX 92 25 90 26 91 27 17 28 18 29 19 30 20 31 21 32 22 33 23 34
REMARK SMILES IDX 24 35 25 36 83 37 26 38 82 39 27 40 28 41 29 42 76 43 30 44
REMARK SMILES IDX 81 45 75 46 77 47 31 48 80 49 74 50 73 51 32 53 62 54 43 55
REMARK SMILES IDX 61 56 44 57 47 58 60 59 78 60 45 61 46 62 59 64 79 65 48 66
REMARK SMILES IDX 33 67 34 68 42 69 35 70 41 71 36 72 37 73 38 74 39 75 40 76
REMARK SMILES IDX 63 77 64 78 72 79 65 80 71 81 66 82 67 83 68 84 69 85 70 86
REMARK SMILES IDX 49 87 50 88 58 89 51 90 57 91 52 92 53 93 54 94 55 95 56 96
REMARK H PARENT 86 20 77 52 47 63
REMARK Flexibility Score: inf
ROOT
ATOM      1  C   UNL A   1      42.002  20.819  26.177  1.00  0.00     0.188 C 
ENDROOT
BRANCH   1   2
ATOM      2  O   UNL A   1      40.953  19.887  26.329  1.00  0.00    -0.376 OA
BRANCH   2   3
ATOM      3  C   UNL A   1      39.598  20.288  26.214  1.00  0.00     0.202 C 
BRANCH   3   4
ATOM      4  C   UNL A   1      39.141  21.735  25.965  1.00  0.00     0.261 C 
BRANCH   4   5
ATOM      5  O   UNL A   1      37.745  22.001  26.120  1.00  0.00    -0.460 OA
BRANCH   5   6
ATOM      6  C   UNL A   1      36.997  21.773  25.006  1.00  0.00     0.338 C 
ATOM      7  O   UNL A   1      36.944  20.752  24.359  1.00  0.00    -0.246 OA
BRANCH   6   8
ATOM      8  C   UNL A   1      36.097  22.924  24.769  1.00  0.00     0.060 A 
ATOM      9  C   UNL A   1      34.451  25.140  24.207  1.00  0.00    -0.038 A 
ATOM     10  C   UNL A   1      34.906  24.296  23.177  1.00  0.00     0.005 A 
ATOM     11  C   UNL A   1      34.827  24.837  25.526  1.00  0.00     0.005 A 
ATOM     12  C   UNL A   1      35.733  23.206  23.451  1.00  0.00     0.016 A 
ATOM     13  C   UNL A   1      35.628  23.723  25.812  1.00  0.00     0.016 A 
BRANCH   9  14
ATOM     14  C   UNL A   1      33.672  26.370  23.790  1.00  0.00     0.105 C 
BRANCH  14  15
ATOM     15  S   UNL A   1      32.416  26.197  22.487  1.00  0.00    -0.147 SA
BRANCH  15  16
ATOM     16  C   UNL A   1      30.988  25.666  23.486  1.00  0.00     0.170 C 
BRANCH  16  17
ATOM     17  C   UNL A   1      30.793  24.159  23.515  1.00  0.00     0.234 C 
ATOM     18  O   UNL A   1      29.746  23.666  23.107  1.00  0.00    -0.274 OA
ATOM     19  N   UNL A   1      31.901  23.460  23.962  1.00  0.00    -0.325 N 
ATOM     20  H   UNL A   1      32.629  23.994  24.355  1.00  0.00     0.169 HD
BRANCH  19  21
ATOM     21  C   UNL A   1      32.100  22.067  23.916  1.00  0.00     0.041 A 
ATOM     22  C   UNL A   1      32.307  21.401  25.132  1.00  0.00     0.027 A 
ATOM     23  C   UNL A   1      32.128  21.332  22.727  1.00  0.00     0.027 A 
ATOM     24  C   UNL A   1      32.514  20.017  25.156  1.00  0.00     0.022 A 
ATOM     25  C   UNL A   1      32.350  19.951  22.750  1.00  0.00     0.022 A 
ATOM     26  C   UNL A   1      32.537  19.298  23.964  1.00  0.00     0.041 A 
ATOM     27  Cl  UNL A   1      32.809  17.600  23.994  1.00  0.00    -0.084 Cl
ENDBRANCH  19  21
ENDBRANCH  16  17
ENDBRANCH  15  16
ENDBRANCH  14  15
ENDBRANCH   9  14
ENDBRANCH   6   8
ENDBRANCH   5   6
ENDBRANCH   4   5
ENDBRANCH   3   4
ENDBRANCH   2   3
ENDBRANCH   1   2
BRANCH   1  28
ATOM     28  C   UNL A   1      42.281  21.853  27.285  1.00  0.00     0.188 C 
BRANCH  28  29
ATOM     29  O   UNL A   1      43.610  22.248  27.546  1.00  0.00    -0.376 OA
BRANCH  29  30
ATOM     30  C   UNL A   1      44.163  23.391  26.917  1.00  0.00     0.202 C 
BRANCH  30  31
ATOM     31  C   UNL A   1      43.627  24.073  25.644  1.00  0.00     0.261 C 
BRANCH  31  32
ATOM     32  O   UNL A   1      43.790  25.485  25.523  1.00  0.00    -0.460 OA
BRANCH  32  33
ATOM     33  C   UNL A   1      42.638  26.202  25.551  1.00  0.00     0.338 C 
ATOM     34  O   UNL A   1      41.752  26.206  24.716  1.00  0.00    -0.246 OA
BRANCH  33  35
ATOM     35  C   UNL A   1      42.534  26.879  26.854  1.00  0.00     0.060 A 
ATOM     36  C   UNL A   1      41.662  26.359  27.817  1.00  0.00     0.016 A 
ATOM     37  C   UNL A   1      43.264  28.042  27.105  1.00  0.00     0.016 A 
ATOM     38  C   UNL A   1      41.501  27.016  29.037  1.00  0.00     0.010 A 
ATOM     39  C   UNL A   1      43.086  28.710  28.320  1.00  0.00     0.010 A 
ATOM     40  C   UNL A   1      42.185  28.214  29.280  1.00  0.00    -0.014 A 
BRANCH  40  41
ATOM     41  C   UNL A   1      41.839  29.040  30.462  1.00  0.00     0.031 A 
ATOM     42  C   UNL A   1      42.687  28.917  31.699  1.00  0.00     0.074 A 
ATOM     43  C   UNL A   1      40.794  29.886  30.438  1.00  0.00     0.049 A 
ATOM     44  N   UNL A   1      42.539  29.492  32.864  1.00  0.00    -0.248 NA
ATOM     45  C   UNL A   1      43.853  28.023  31.609  1.00  0.00     0.031 C 
ATOM     46  C   UNL A   1      39.924  30.127  29.288  1.00  0.00     0.029 A 
ATOM     47  N   UNL A   1      40.281  30.693  31.423  1.00  0.00    -0.354 N 
ATOM     48  C   UNL A   1      43.586  29.023  33.649  1.00  0.00     0.074 A 
ATOM     49  C   UNL A   1      44.344  28.096  32.838  1.00  0.00     0.031 C 
ATOM     50  C   UNL A   1      38.976  31.015  29.639  1.00  0.00     0.029 A 
ATOM     51  C   UNL A   1      39.151  31.375  31.045  1.00  0.00     0.049 A 
ATOM     52  H   UNL A   1      40.686  30.775  32.318  1.00  0.00     0.167 HD
ATOM     53  C   UNL A   1      43.891  29.336  34.932  1.00  0.00     0.031 A 
ATOM     54  C   UNL A   1      38.335  32.179  31.758  1.00  0.00     0.031 A 
ATOM     55  C   UNL A   1      43.123  30.242  35.744  1.00  0.00     0.049 A 
ATOM     56  C   UNL A   1      38.649  32.452  33.208  1.00  0.00     0.074 A 
ATOM     57  C   UNL A   1      43.358  30.635  37.049  1.00  0.00     0.029 A 
ATOM     58  N   UNL A   1      41.967  30.889  35.333  1.00  0.00    -0.354 N 
ATOM     59  N   UNL A   1      39.655  32.021  33.930  1.00  0.00    -0.248 NA
ATOM     60  C   UNL A   1      37.717  33.326  33.936  1.00  0.00     0.031 C 
ATOM     61  C   UNL A   1      42.310  31.471  37.449  1.00  0.00     0.029 A 
ATOM     62  C   UNL A   1      41.461  31.655  36.369  1.00  0.00     0.049 A 
ATOM     63  H   UNL A   1      41.566  30.814  34.437  1.00  0.00     0.167 HD
ATOM     64  C   UNL A   1      39.496  32.600  35.187  1.00  0.00     0.074 A 
ATOM     65  C   UNL A   1      38.304  33.418  35.122  1.00  0.00     0.031 C 
ATOM     66  C   UNL A   1      40.273  32.469  36.292  1.00  0.00     0.031 A 
BRANCH  53  67
ATOM     67  C   UNL A   1      45.086  28.657  35.547  1.00  0.00    -0.014 A 
ATOM     68  C   UNL A   1      46.362  29.247  35.508  1.00  0.00     0.010 A 
ATOM     69  C   UNL A   1      44.922  27.424  36.204  1.00  0.00     0.010 A 
ATOM     70  C   UNL A   1      47.460  28.596  36.079  1.00  0.00     0.020 A 
ATOM     71  C   UNL A   1      46.011  26.784  36.802  1.00  0.00     0.020 A 
ATOM     72  C   UNL A   1      47.277  27.367  36.721  1.00  0.00     0.054 A 
BRANCH  72  73
ATOM     73  S   UNL A   1      48.715  26.554  37.470  1.00  0.00     0.124 S 
ATOM     74  O   UNL A   1      48.508  26.824  38.891  1.00  0.00    -0.237 OA
ATOM     75  O   UNL A   1      48.543  25.162  37.065  1.00  0.00    -0.237 OA
ATOM     76  O   UNL A   1      49.854  27.240  36.867  1.00  0.00    -0.744 OA
ENDBRANCH  72  73
ENDBRANCH  53  67
BRANCH  54  77
ATOM     77  C   UNL A   1      37.129  32.774  31.118  1.00  0.00    -0.014 A 
ATOM     78  C   UNL A   1      35.881  32.130  31.197  1.00  0.00     0.010 A 
ATOM     79  C   UNL A   1      37.225  33.992  30.419  1.00  0.00     0.010 A 
ATOM     80  C   UNL A   1      34.757  32.684  30.577  1.00  0.00     0.020 A 
ATOM     81  C   UNL A   1      36.097  34.564  29.823  1.00  0.00     0.020 A 
ATOM     82  C   UNL A   1      34.871  33.900  29.898  1.00  0.00     0.054 A 
BRANCH  82  83
ATOM     83  S   UNL A   1      33.386  34.625  29.148  1.00  0.00     0.124 S 
ATOM     84  O   UNL A   1      32.743  35.256  30.296  1.00  0.00    -0.237 OA
ATOM     85  O   UNL A   1      33.949  35.537  28.155  1.00  0.00    -0.237 OA
ATOM     86  O   UNL A   1      32.683  33.469  28.594  1.00  0.00    -0.744 OA
ENDBRANCH  82  83
ENDBRANCH  54  77
BRANCH  66  87
ATOM     87  C   UNL A   1      39.889  33.262  37.516  1.00  0.00    -0.014 A 
ATOM     88  C   UNL A   1      39.051  32.725  38.508  1.00  0.00     0.010 A 
ATOM     89  C   UNL A   1      40.434  34.547  37.704  1.00  0.00     0.010 A 
ATOM     90  C   UNL A   1      38.740  33.468  39.651  1.00  0.00     0.020 A 
ATOM     91  C   UNL A   1      40.150  35.281  38.858  1.00  0.00     0.020 A 
ATOM     92  C   UNL A   1      39.293  34.742  39.819  1.00  0.00     0.054 A 
BRANCH  92  93
ATOM     93  S   UNL A   1      38.911  35.668  41.332  1.00  0.00     0.124 S 
ATOM     94  O   UNL A   1      39.124  34.662  42.368  1.00  0.00    -0.237 OA
ATOM     95  O   UNL A   1      39.888  36.754  41.298  1.00  0.00    -0.237 OA
ATOM     96  O   UNL A   1      37.523  36.084  41.143  1.00  0.00    -0.744 OA
ENDBRANCH  92  93
ENDBRANCH  66  87
ENDBRANCH  40  41
ENDBRANCH  33  35
ENDBRANCH  32  33
ENDBRANCH  31  32
ENDBRANCH  30  31
ENDBRANCH  29  30
ENDBRANCH  28  29
ENDBRANCH   1  28
TORSDOF 25
ENDMDL
MODEL 3
REMARK VINA RESULT:      -7.1      5.698      8.843
REMARK SMILES O=C(CSCc1ccc(C(=O)OCCOCCOCCOC(=O)c2ccc(-c3c4nc(c(-c5ccc(S(=O)(=O)[O-])cc5)c5ccc([nH]5)c(-c5ccc(S(=O)(=O)[O-])cc5)c5nc(c(-c6ccc(S(=O)(=O)[O-])cc6)c6ccc3[nH]6)C=C5)C=C4)cc2)cc1)Nc1ccc(Cl)cc1
REMARK SMILES IDX 16 1 15 2 14 3 13 4 12 5 10 6 11 7 9 8 6 9 7 10 85 11 8 12
REMARK SMILES IDX 84 13 5 14 4 15 3 16 2 17 1 18 86 19 87 21 88 22 93 23 89 24
REMARK SMILES IDX 92 25 90 26 91 27 17 28 18 29 19 30 20 31 21 32 22 33 23 34
REMARK SMILES IDX 24 35 25 36 83 37 26 38 82 39 27 40 28 41 29 42 76 43 30 44
REMARK SMILES IDX 81 45 75 46 77 47 31 48 80 49 74 50 73 51 32 53 62 54 43 55
REMARK SMILES IDX 61 56 44 57 47 58 60 59 78 60 45 61 46 62 59 64 79 65 48 66
REMARK SMILES IDX 33 67 34 68 42 69 35 70 41 71 36 72 37 73 38 74 39 75 40 76
REMARK SMILES IDX 63 77 64 78 72 79 65 80 71 81 66 82 67 83 68 84 69 85 70 86
REMARK SMILES IDX 49 87 50 88 58 89 51 90 57 91 52 92 53 93 54 94 55 95 56 96
REMARK H PARENT 86 20 77 52 47 63
REMARK Flexibility Score: inf
ROOT
ATOM      1  C   UNL A   1      33.836  36.349  30.621  1.00  0.00     0.188 C 
ENDROOT
BRANCH   1   2
ATOM      2  O   UNL A   1      33.874  35.936  31.970  1.00  0.00    -0.376 OA
BRANCH   2   3
ATOM      3  C   UNL A   1      34.390  34.666  32.331  1.00  0.00     0.202 C 
BRANCH   3   4
ATOM      4  C   UNL A   1      34.864  33.607  31.324  1.00  0.00     0.261 C 
BRANCH   4   5
ATOM      5  O   UNL A   1      35.982  32.806  31.716  1.00  0.00    -0.460 OA
BRANCH   5   6
ATOM      6  C   UNL A   1      37.196  33.373  31.480  1.00  0.00     0.338 C 
ATOM      7  O   UNL A   1      37.572  33.894  30.454  1.00  0.00    -0.246 OA
BRANCH   6   8
ATOM      8  C   UNL A   1      37.975  33.418  32.738  1.00  0.00     0.060 A 
ATOM      9  C   UNL A   1      39.522  33.609  35.085  1.00  0.00    -0.038 A 
ATOM     10  C   UNL A   1      39.064  34.764  34.424  1.00  0.00     0.005 A 
ATOM     11  C   UNL A   1      39.174  32.358  34.551  1.00  0.00     0.005 A 
ATOM     12  C   UNL A   1      38.308  34.672  33.254  1.00  0.00     0.016 A 
ATOM     13  C   UNL A   1      38.386  32.259  33.396  1.00  0.00     0.016 A 
BRANCH   9  14
ATOM     14  C   UNL A   1      40.444  33.818  36.268  1.00  0.00     0.105 C 
BRANCH  14  15
ATOM     15  S   UNL A   1      40.263  32.726  37.709  1.00  0.00    -0.147 SA
BRANCH  15  16
ATOM     16  C   UNL A   1      39.605  33.910  38.928  1.00  0.00     0.170 C 
BRANCH  16  17
ATOM     17  C   UNL A   1      38.829  33.252  40.057  1.00  0.00     0.234 C 
ATOM     18  O   UNL A   1      38.893  32.038  40.222  1.00  0.00    -0.274 OA
ATOM     19  N   UNL A   1      38.146  34.147  40.862  1.00  0.00    -0.325 N 
ATOM     20  H   UNL A   1      38.101  35.078  40.545  1.00  0.00     0.169 HD
BRANCH  19  21
ATOM     21  C   UNL A   1      37.510  33.870  42.087  1.00  0.00     0.041 A 
ATOM     22  C   UNL A   1      38.293  33.907  43.248  1.00  0.00     0.027 A 
ATOM     23  C   UNL A   1      36.156  33.537  42.193  1.00  0.00     0.027 A 
ATOM     24  C   UNL A   1      37.724  33.638  44.498  1.00  0.00     0.022 A 
ATOM     25  C   UNL A   1      35.589  33.253  43.441  1.00  0.00     0.022 A 
ATOM     26  C   UNL A   1      36.374  33.310  44.588  1.00  0.00     0.041 A 
ATOM     27  Cl  UNL A   1      35.679  32.963  46.123  1.00  0.00    -0.084 Cl
ENDBRANCH  19  21
ENDBRANCH  16  17
ENDBRANCH  15  16
ENDBRANCH  14  15
ENDBRANCH   9  14
ENDBRANCH   6   8
ENDBRANCH   5   6
ENDBRANCH   4   5
ENDBRANCH   3   4
ENDBRANCH   2   3
ENDBRANCH   1   2
BRANCH   1  28
ATOM     28  C   UNL A   1      32.646  35.949  29.726  1.00  0.00     0.188 C 
BRANCH  28  29
ATOM     29  O   UNL A   1      32.524  34.612  29.293  1.00  0.00    -0.376 OA
BRANCH  29  30
ATOM     30  C   UNL A   1      33.097  34.191  28.069  1.00  0.00     0.202 C 
BRANCH  30  31
ATOM     31  C   UNL A   1      33.304  32.732  27.620  1.00  0.00     0.261 C 
BRANCH  31  32
ATOM     32  O   UNL A   1      34.548  32.107  27.928  1.00  0.00    -0.460 OA
BRANCH  32  33
ATOM     33  C   UNL A   1      34.502  30.754  28.035  1.00  0.00     0.338 C 
ATOM     34  O   UNL A   1      33.546  30.030  27.827  1.00  0.00    -0.246 OA
BRANCH  33  35
ATOM     35  C   UNL A   1      35.862  30.255  28.297  1.00  0.00     0.060 A 
ATOM     36  C   UNL A   1      36.184  29.819  29.588  1.00  0.00     0.016 A 
ATOM     37  C   UNL A   1      36.822  30.255  27.283  1.00  0.00     0.016 A 
ATOM     38  C   UNL A   1      37.482  29.397  29.876  1.00  0.00     0.010 A 
ATOM     39  C   UNL A   1      38.127  29.851  27.580  1.00  0.00     0.010 A 
ATOM     40  C   UNL A   1      38.468  29.445  28.883  1.00  0.00    -0.014 A 
BRANCH  40  41
ATOM     41  C   UNL A   1      39.892  29.232  29.240  1.00  0.00     0.031 A 
ATOM     42  C   UNL A   1      40.528  27.911  28.904  1.00  0.00     0.074 A 
ATOM     43  C   UNL A   1      40.608  30.194  29.848  1.00  0.00     0.049 A 
ATOM     44  N   UNL A   1      41.733  27.481  29.172  1.00  0.00    -0.248 NA
ATOM     45  C   UNL A   1      39.690  26.946  28.173  1.00  0.00     0.031 C 
ATOM     46  C   UNL A   1      40.119  31.530  30.186  1.00  0.00     0.029 A 
ATOM     47  N   UNL A   1      41.905  30.185  30.300  1.00  0.00    -0.354 N 
ATOM     48  C   UNL A   1      41.797  26.193  28.652  1.00  0.00     0.074 A 
ATOM     49  C   UNL A   1      40.501  25.902  28.079  1.00  0.00     0.031 C 
ATOM     50  C   UNL A   1      41.103  32.209  30.804  1.00  0.00     0.029 A 
ATOM     51  C   UNL A   1      42.275  31.345  30.937  1.00  0.00     0.049 A 
ATOM     52  H   UNL A   1      42.512  29.419  30.178  1.00  0.00     0.167 HD
ATOM     53  C   UNL A   1      42.840  25.329  28.650  1.00  0.00     0.031 A 
ATOM     54  C   UNL A   1      43.419  31.663  31.577  1.00  0.00     0.031 A 
ATOM     55  C   UNL A   1      44.121  25.613  29.240  1.00  0.00     0.049 A 
ATOM     56  C   UNL A   1      44.541  30.657  31.632  1.00  0.00     0.074 A 
ATOM     57  C   UNL A   1      45.247  24.809  29.278  1.00  0.00     0.029 A 
ATOM     58  N   UNL A   1      44.446  26.787  29.903  1.00  0.00    -0.354 N 
ATOM     59  N   UNL A   1      44.595  29.452  31.115  1.00  0.00    -0.248 NA
ATOM     60  C   UNL A   1      45.758  31.057  32.352  1.00  0.00     0.031 C 
ATOM     61  C   UNL A   1      46.232  25.471  30.018  1.00  0.00     0.029 A 
ATOM     62  C   UNL A   1      45.744  26.717  30.379  1.00  0.00     0.049 A 
ATOM     63  H   UNL A   1      43.842  27.556  30.018  1.00  0.00     0.167 HD
ATOM     64  C   UNL A   1      45.864  28.965  31.418  1.00  0.00     0.074 A 
ATOM     65  C   UNL A   1      46.546  30.009  32.154  1.00  0.00     0.031 C 
ATOM     66  C   UNL A   1      46.415  27.764  31.109  1.00  0.00     0.031 A 
BRANCH  53  67
ATOM     67  C   UNL A   1      42.621  23.977  28.025  1.00  0.00    -0.014 A 
ATOM     68  C   UNL A   1      42.889  23.749  26.663  1.00  0.00     0.010 A 
ATOM     69  C   UNL A   1      42.171  22.908  28.823  1.00  0.00     0.010 A 
ATOM     70  C   UNL A   1      42.671  22.487  26.102  1.00  0.00     0.020 A 
ATOM     71  C   UNL A   1      41.981  21.638  28.271  1.00  0.00     0.020 A 
ATOM     72  C   UNL A   1      42.217  21.440  26.910  1.00  0.00     0.054 A 
BRANCH  72  73
ATOM     73  S   UNL A   1      41.962  19.809  26.158  1.00  0.00     0.124 S 
ATOM     74  O   UNL A   1      42.303  18.912  27.261  1.00  0.00    -0.237 OA
ATOM     75  O   UNL A   1      40.549  19.842  25.792  1.00  0.00    -0.237 OA
ATOM     76  O   UNL A   1      42.894  19.795  25.034  1.00  0.00    -0.744 OA
ENDBRANCH  72  73
ENDBRANCH  53  67
BRANCH  54  77
ATOM     77  C   UNL A   1      43.559  32.992  32.234  1.00  0.00    -0.014 A 
ATOM     78  C   UNL A   1      44.081  34.092  31.530  1.00  0.00     0.010 A 
ATOM     79  C   UNL A   1      43.171  33.164  33.577  1.00  0.00     0.010 A 
ATOM     80  C   UNL A   1      44.228  35.332  32.159  1.00  0.00     0.020 A 
ATOM     81  C   UNL A   1      43.289  34.410  34.200  1.00  0.00     0.020 A 
ATOM     82  C   UNL A   1      43.827  35.484  33.489  1.00  0.00     0.054 A 
BRANCH  82  83
ATOM     83  S   UNL A   1      43.978  37.117  34.266  1.00  0.00     0.124 S 
ATOM     84  O   UNL A   1      43.967  36.780  35.686  1.00  0.00    -0.237 OA
ATOM     85  O   UNL A   1      45.252  37.599  33.738  1.00  0.00    -0.237 OA
ATOM     86  O   UNL A   1      42.800  37.836  33.784  1.00  0.00    -0.744 OA
ENDBRANCH  82  83
ENDBRANCH  54  77
BRANCH  66  87
ATOM     87  C   UNL A   1      47.844  27.522  31.524  1.00  0.00    -0.014 A 
ATOM     88  C   UNL A   1      48.162  26.911  32.749  1.00  0.00     0.010 A 
ATOM     89  C   UNL A   1      48.886  27.855  30.635  1.00  0.00     0.010 A 
ATOM     90  C   UNL A   1      49.495  26.664  33.092  1.00  0.00     0.020 A 
ATOM     91  C   UNL A   1      50.217  27.582  30.962  1.00  0.00     0.020 A 
ATOM     92  C   UNL A   1      50.514  27.001  32.196  1.00  0.00     0.054 A 
BRANCH  92  93
ATOM     93  S   UNL A   1      52.232  26.630  32.645  1.00  0.00     0.124 S 
ATOM     94  O   UNL A   1      52.742  26.016  31.422  1.00  0.00    -0.237 OA
ATOM     95  O   UNL A   1      52.774  27.949  32.960  1.00  0.00    -0.237 OA
ATOM     96  O   UNL A   1      52.105  25.728  33.788  1.00  0.00    -0.744 OA
ENDBRANCH  92  93
ENDBRANCH  66  87
ENDBRANCH  40  41
ENDBRANCH  33  35
ENDBRANCH  32  33
ENDBRANCH  31  32
ENDBRANCH  30  31
ENDBRANCH  29  30
ENDBRANCH  28  29
ENDBRANCH   1  28
TORSDOF 25
ENDMDL
