MODEL 1
REMARK VINA RESULT:      -9.0      0.000      0.000
REMARK SMILES O=CN[C@@H](Cc1cc(Cl)ccc1[N+](=O)[O-])C(=O)OCCOCCOCCOC(=O)c1ccc(-c2c3nc(c(-c4ccc(S(=O)(=O)[O-])cc4)c4ccc([nH]4)c(-c4ccc(S(=O)(=O)[O-])cc4)c4nc(c(-c5ccc(S(=O)(=O)[O-])cc5)c5ccc2[nH]5)C=C4)C=C3)cc1
REMARK SMILES IDX 22 1 21 2 20 3 19 4 18 5 16 6 17 7 4 8 3 9 1 10 2 11 5 13
REMARK SMILES IDX 6 14 7 15 12 16 8 17 11 18 9 19 10 20 13 21 14 22 15 23
REMARK SMILES IDX 23 24 24 25 25 26 26 27 27 28 28 29 29 30 30 31 31 32 89 33
REMARK SMILES IDX 32 34 88 35 33 36 34 37 35 38 82 39 36 40 87 41 81 42 83 43
REMARK SMILES IDX 37 44 86 45 80 46 79 47 38 49 68 50 49 51 67 52 50 53 53 54
REMARK SMILES IDX 66 55 84 56 51 57 52 58 65 60 85 61 54 62 39 63 40 64 48 65
REMARK SMILES IDX 41 66 47 67 42 68 43 69 44 70 45 71 46 72 69 73 70 74 78 75
REMARK SMILES IDX 71 76 77 77 72 78 73 79 74 80 75 81 76 82 55 83 56 84 64 85
REMARK SMILES IDX 57 86 63 87 58 88 59 89 60 90 61 91 62 92
REMARK H PARENT 3 12 83 48 53 59
REMARK Flexibility Score: inf
ROOT
ATOM      1  C   UNL A   1      39.259  21.521  25.971  1.00  0.00     0.188 C 
ENDROOT
BRANCH   1   2
ATOM      2  O   UNL A   1      38.084  20.847  25.550  1.00  0.00    -0.376 OA
BRANCH   2   3
ATOM      3  C   UNL A   1      37.142  21.569  24.770  1.00  0.00     0.202 C 
BRANCH   3   4
ATOM      4  C   UNL A   1      35.639  21.414  25.045  1.00  0.00     0.261 C 
BRANCH   4   5
ATOM      5  O   UNL A   1      34.912  22.619  25.400  1.00  0.00    -0.462 OA
BRANCH   5   6
ATOM      6  C   UNL A   1      33.599  22.670  25.027  1.00  0.00     0.329 C 
ATOM      7  O   UNL A   1      32.994  21.743  24.502  1.00  0.00    -0.250 OA
BRANCH   6   8
ATOM      8  C   UNL A   1      32.953  24.063  25.202  1.00  0.00     0.196 C 
BRANCH   8   9
ATOM      9  N   UNL A   1      31.970  24.229  26.277  1.00  0.00    -0.345 N 
ATOM     10  O   UNL A   1      29.984  23.687  27.251  1.00  0.00    -0.279 OA
ATOM     11  C   UNL A   1      30.759  23.593  26.309  1.00  0.00     0.337 C 
ATOM     12  H   UNL A   1      32.193  24.837  27.019  1.00  0.00     0.164 HD
ENDBRANCH   8   9
BRANCH   8  13
ATOM     13  C   UNL A   1      34.048  25.154  25.281  1.00  0.00     0.079 C 
BRANCH  13  14
ATOM     14  C   UNL A   1      33.565  26.570  24.978  1.00  0.00     0.034 A 
ATOM     15  C   UNL A   1      33.424  27.449  26.074  1.00  0.00     0.031 A 
ATOM     16  C   UNL A   1      33.317  27.103  23.693  1.00  0.00     0.272 A 
ATOM     17  C   UNL A   1      33.155  28.807  25.884  1.00  0.00     0.041 A 
ATOM     18  C   UNL A   1      33.175  28.492  23.504  1.00  0.00     0.087 A 
ATOM     19  Cl  UNL A   1      32.874  29.824  27.242  1.00  0.00    -0.084 Cl
ATOM     20  C   UNL A   1      33.098  29.342  24.604  1.00  0.00     0.027 A 
BRANCH  16  21
ATOM     21  N   UNL A   1      33.027  26.260  22.521  1.00  0.00     0.062 N 
ATOM     22  O   UNL A   1      33.990  25.776  21.909  1.00  0.00    -0.258 OA
ATOM     23  O   UNL A   1      31.848  26.134  22.177  1.00  0.00    -0.258 OA
ENDBRANCH  16  21
ENDBRANCH  13  14
ENDBRANCH   8  13
ENDBRANCH   6   8
ENDBRANCH   5   6
ENDBRANCH   4   5
ENDBRANCH   3   4
ENDBRANCH   2   3
ENDBRANCH   1   2
BRANCH   1  24
ATOM     24  C   UNL A   1      40.411  20.667  26.528  1.00  0.00     0.188 C 
BRANCH  24  25
ATOM     25  O   UNL A   1      41.167  21.268  27.553  1.00  0.00    -0.376 OA
BRANCH  25  26
ATOM     26  C   UNL A   1      42.510  21.636  27.277  1.00  0.00     0.202 C 
BRANCH  26  27
ATOM     27  C   UNL A   1      42.933  22.938  26.557  1.00  0.00     0.261 C 
BRANCH  27  28
ATOM     28  O   UNL A   1      41.982  24.004  26.453  1.00  0.00    -0.460 OA
BRANCH  28  29
ATOM     29  C   UNL A   1      42.461  25.248  26.189  1.00  0.00     0.338 C 
ATOM     30  O   UNL A   1      42.938  25.639  25.148  1.00  0.00    -0.246 OA
BRANCH  29  31
ATOM     31  C   UNL A   1      42.050  26.119  27.323  1.00  0.00     0.060 A 
ATOM     32  C   UNL A   1      42.721  27.337  27.524  1.00  0.00     0.016 A 
ATOM     33  C   UNL A   1      40.966  25.773  28.131  1.00  0.00     0.016 A 
ATOM     34  C   UNL A   1      42.314  28.205  28.542  1.00  0.00     0.010 A 
ATOM     35  C   UNL A   1      40.585  26.624  29.171  1.00  0.00     0.010 A 
ATOM     36  C   UNL A   1      41.271  27.831  29.399  1.00  0.00    -0.014 A 
BRANCH  36  37
ATOM     37  C   UNL A   1      41.052  28.562  30.673  1.00  0.00     0.031 A 
ATOM     38  C   UNL A   1      39.944  29.581  30.709  1.00  0.00     0.074 A 
ATOM     39  C   UNL A   1      41.811  28.353  31.764  1.00  0.00     0.049 A 
ATOM     40  N   UNL A   1      39.623  30.428  31.650  1.00  0.00    -0.248 NA
ATOM     41  C   UNL A   1      39.089  29.657  29.511  1.00  0.00     0.031 C 
ATOM     42  C   UNL A   1      42.875  27.358  31.884  1.00  0.00     0.029 A 
ATOM     43  N   UNL A   1      41.807  28.990  32.982  1.00  0.00    -0.354 N 
ATOM     44  C   UNL A   1      38.544  31.149  31.153  1.00  0.00     0.074 A 
ATOM     45  C   UNL A   1      38.279  30.656  29.820  1.00  0.00     0.031 C 
ATOM     46  C   UNL A   1      43.436  27.465  33.103  1.00  0.00     0.029 A 
ATOM     47  C   UNL A   1      42.800  28.563  33.833  1.00  0.00     0.049 A 
ATOM     48  H   UNL A   1      41.154  29.686  33.223  1.00  0.00     0.167 HD
ATOM     49  C   UNL A   1      37.835  32.135  31.750  1.00  0.00     0.031 A 
ATOM     50  C   UNL A   1      43.173  29.026  35.045  1.00  0.00     0.031 A 
ATOM     51  C   UNL A   1      38.112  32.639  33.068  1.00  0.00     0.049 A 
ATOM     52  C   UNL A   1      42.427  30.188  35.656  1.00  0.00     0.074 A 
ATOM     53  C   UNL A   1      37.445  33.630  33.766  1.00  0.00     0.029 A 
ATOM     54  N   UNL A   1      39.144  32.200  33.883  1.00  0.00    -0.354 N 
ATOM     55  N   UNL A   1      41.396  30.849  35.184  1.00  0.00    -0.248 NA
ATOM     56  C   UNL A   1      42.893  30.665  36.967  1.00  0.00     0.031 C 
ATOM     57  C   UNL A   1      38.115  33.836  34.975  1.00  0.00     0.029 A 
ATOM     58  C   UNL A   1      39.151  32.920  35.064  1.00  0.00     0.049 A 
ATOM     59  H   UNL A   1      39.778  31.482  33.655  1.00  0.00     0.167 HD
ATOM     60  C   UNL A   1      41.070  31.794  36.155  1.00  0.00     0.074 A 
ATOM     61  C   UNL A   1      42.006  31.612  37.245  1.00  0.00     0.031 C 
ATOM     62  C   UNL A   1      40.083  32.725  36.147  1.00  0.00     0.031 A 
BRANCH  49  63
ATOM     63  C   UNL A   1      36.721  32.768  30.960  1.00  0.00    -0.014 A 
ATOM     64  C   UNL A   1      35.421  32.227  30.964  1.00  0.00     0.010 A 
ATOM     65  C   UNL A   1      36.970  33.943  30.227  1.00  0.00     0.010 A 
ATOM     66  C   UNL A   1      34.404  32.831  30.221  1.00  0.00     0.020 A 
ATOM     67  C   UNL A   1      35.948  34.566  29.510  1.00  0.00     0.020 A 
ATOM     68  C   UNL A   1      34.673  33.997  29.499  1.00  0.00     0.054 A 
BRANCH  68  69
ATOM     69  S   UNL A   1      33.323  34.775  28.570  1.00  0.00     0.124 S 
ATOM     70  O   UNL A   1      34.053  35.663  27.668  1.00  0.00    -0.237 OA
ATOM     71  O   UNL A   1      32.673  33.632  27.936  1.00  0.00    -0.237 OA
ATOM     72  O   UNL A   1      32.534  35.448  29.600  1.00  0.00    -0.744 OA
ENDBRANCH  68  69
ENDBRANCH  49  63
BRANCH  50  73
ATOM     73  C   UNL A   1      44.332  28.415  35.758  1.00  0.00    -0.014 A 
ATOM     74  C   UNL A   1      45.638  28.894  35.549  1.00  0.00     0.010 A 
ATOM     75  C   UNL A   1      44.137  27.337  36.641  1.00  0.00     0.010 A 
ATOM     76  C   UNL A   1      46.725  28.296  36.194  1.00  0.00     0.020 A 
ATOM     77  C   UNL A   1      45.217  26.756  37.311  1.00  0.00     0.020 A 
ATOM     78  C   UNL A   1      46.508  27.233  37.075  1.00  0.00     0.054 A 
BRANCH  78  79
ATOM     79  S   UNL A   1      47.930  26.507  37.937  1.00  0.00     0.124 S 
ATOM     80  O   UNL A   1      47.301  25.457  38.731  1.00  0.00    -0.237 OA
ATOM     81  O   UNL A   1      48.766  26.050  36.830  1.00  0.00    -0.237 OA
ATOM     82  O   UNL A   1      48.477  27.627  38.701  1.00  0.00    -0.744 OA
ENDBRANCH  78  79
ENDBRANCH  50  73
BRANCH  62  83
ATOM     83  C   UNL A   1      39.920  33.593  37.369  1.00  0.00    -0.014 A 
ATOM     84  C   UNL A   1      38.951  33.311  38.349  1.00  0.00     0.010 A 
ATOM     85  C   UNL A   1      40.808  34.666  37.576  1.00  0.00     0.010 A 
ATOM     86  C   UNL A   1      38.858  34.102  39.498  1.00  0.00     0.020 A 
ATOM     87  C   UNL A   1      40.738  35.438  38.737  1.00  0.00     0.020 A 
ATOM     88  C   UNL A   1      39.754  35.160  39.687  1.00  0.00     0.054 A 
BRANCH  88  89
ATOM     89  S   UNL A   1      39.647  36.136  41.212  1.00  0.00     0.124 S 
ATOM     90  O   UNL A   1      40.483  35.363  42.127  1.00  0.00    -0.237 OA
ATOM     91  O   UNL A   1      40.191  37.428  40.804  1.00  0.00    -0.237 OA
ATOM     92  O   UNL A   1      38.220  36.138  41.525  1.00  0.00    -0.744 OA
ENDBRANCH  88  89
ENDBRANCH  62  83
ENDBRANCH  36  37
ENDBRANCH  29  31
ENDBRANCH  28  29
ENDBRANCH  27  28
ENDBRANCH  26  27
ENDBRANCH  25  26
ENDBRANCH  24  25
ENDBRANCH   1  24
TORSDOF 24
ENDMDL
MODEL 2
REMARK VINA RESULT:      -8.8      2.591      8.735
REMARK SMILES O=CN[C@@H](Cc1cc(Cl)ccc1[N+](=O)[O-])C(=O)OCCOCCOCCOC(=O)c1ccc(-c2c3nc(c(-c4ccc(S(=O)(=O)[O-])cc4)c4ccc([nH]4)c(-c4ccc(S(=O)(=O)[O-])cc4)c4nc(c(-c5ccc(S(=O)(=O)[O-])cc5)c5ccc2[nH]5)C=C4)C=C3)cc1
REMARK SMILES IDX 22 1 21 2 20 3 19 4 18 5 16 6 17 7 4 8 3 9 1 10 2 11 5 13
REMARK SMILES IDX 6 14 7 15 12 16 8 17 11 18 9 19 10 20 13 21 14 22 15 23
REMARK SMILES IDX 23 24 24 25 25 26 26 27 27 28 28 29 29 30 30 31 31 32 89 33
REMARK SMILES IDX 32 34 88 35 33 36 34 37 35 38 82 39 36 40 87 41 81 42 83 43
REMARK SMILES IDX 37 44 86 45 80 46 79 47 38 49 68 50 49 51 67 52 50 53 53 54
REMARK SMILES IDX 66 55 84 56 51 57 52 58 65 60 85 61 54 62 39 63 40 64 48 65
REMARK SMILES IDX 41 66 47 67 42 68 43 69 44 70 45 71 46 72 69 73 70 74 78 75
REMARK SMILES IDX 71 76 77 77 72 78 73 79 74 80 75 81 76 82 55 83 56 84 64 85
REMARK SMILES IDX 57 86 63 87 58 88 59 89 60 90 61 91 62 92
REMARK H PARENT 3 12 83 48 53 59
REMARK Flexibility Score: inf
ROOT
ATOM      1  C   UNL A   1      33.054  30.856  27.365  1.00  0.00     0.188 C 
ENDROOT
BRANCH   1   2
ATOM      2  O   UNL A   1      32.820  29.717  26.552  1.00  0.00    -0.376 OA
BRANCH   2   3
ATOM      3  C   UNL A   1      32.847  28.437  27.170  1.00  0.00     0.202 C 
BRANCH   3   4
ATOM      4  C   UNL A   1      32.441  27.191  26.370  1.00  0.00     0.261 C 
BRANCH   4   5
ATOM      5  O   UNL A   1      31.455  26.316  26.979  1.00  0.00    -0.462 OA
BRANCH   5   6
ATOM      6  C   UNL A   1      31.404  25.035  26.509  1.00  0.00     0.329 C 
ATOM      7  O   UNL A   1      31.145  24.057  27.200  1.00  0.00    -0.250 OA
BRANCH   6   8
ATOM      8  C   UNL A   1      31.836  24.893  25.033  1.00  0.00     0.196 C 
BRANCH   8   9
ATOM      9  N   UNL A   1      32.812  23.850  24.703  1.00  0.00    -0.345 N 
ATOM     10  O   UNL A   1      33.405  21.982  23.545  1.00  0.00    -0.279 OA
ATOM     11  C   UNL A   1      32.554  22.800  23.866  1.00  0.00     0.337 C 
ATOM     12  H   UNL A   1      33.707  23.908  25.110  1.00  0.00     0.164 HD
ENDBRANCH   8   9
BRANCH   8  13
ATOM     13  C   UNL A   1      30.590  24.791  24.119  1.00  0.00     0.079 C 
BRANCH  13  14
ATOM     14  C   UNL A   1      30.155  26.106  23.479  1.00  0.00     0.034 A 
ATOM     15  C   UNL A   1      28.841  26.548  23.748  1.00  0.00     0.031 A 
ATOM     16  C   UNL A   1      30.971  26.958  22.701  1.00  0.00     0.272 A 
ATOM     17  C   UNL A   1      28.407  27.816  23.351  1.00  0.00     0.041 A 
ATOM     18  C   UNL A   1      30.570  28.278  22.418  1.00  0.00     0.087 A 
ATOM     19  Cl  UNL A   1      26.768  28.277  23.591  1.00  0.00    -0.084 Cl
ATOM     20  C   UNL A   1      29.288  28.705  22.749  1.00  0.00     0.027 A 
BRANCH  16  21
ATOM     21  N   UNL A   1      32.181  26.488  22.005  1.00  0.00     0.062 N 
ATOM     22  O   UNL A   1      32.028  25.783  20.998  1.00  0.00    -0.258 OA
ATOM     23  O   UNL A   1      33.277  26.768  22.500  1.00  0.00    -0.258 OA
ENDBRANCH  16  21
ENDBRANCH  13  14
ENDBRANCH   8  13
ENDBRANCH   6   8
ENDBRANCH   5   6
ENDBRANCH   4   5
ENDBRANCH   3   4
ENDBRANCH   2   3
ENDBRANCH   1   2
BRANCH   1  24
ATOM     24  C   UNL A   1      34.484  31.079  27.886  1.00  0.00     0.188 C 
BRANCH  24  25
ATOM     25  O   UNL A   1      34.761  32.379  28.349  1.00  0.00    -0.376 OA
BRANCH  25  26
ATOM     26  C   UNL A   1      34.107  33.475  27.728  1.00  0.00     0.202 C 
BRANCH  26  27
ATOM     27  C   UNL A   1      33.329  34.577  28.483  1.00  0.00     0.261 C 
BRANCH  27  28
ATOM     28  O   UNL A   1      32.717  34.248  29.735  1.00  0.00    -0.460 OA
BRANCH  28  29
ATOM     29  C   UNL A   1      33.138  34.926  30.836  1.00  0.00     0.338 C 
ATOM     30  O   UNL A   1      32.493  35.707  31.501  1.00  0.00    -0.246 OA
BRANCH  29  31
ATOM     31  C   UNL A   1      34.444  34.337  31.234  1.00  0.00     0.060 A 
ATOM     32  C   UNL A   1      34.455  33.142  31.974  1.00  0.00     0.016 A 
ATOM     33  C   UNL A   1      35.643  34.916  30.818  1.00  0.00     0.016 A 
ATOM     34  C   UNL A   1      35.668  32.531  32.306  1.00  0.00     0.010 A 
ATOM     35  C   UNL A   1      36.855  34.324  31.183  1.00  0.00     0.010 A 
ATOM     36  C   UNL A   1      36.876  33.144  31.950  1.00  0.00    -0.014 A 
BRANCH  36  37
ATOM     37  C   UNL A   1      38.150  32.707  32.576  1.00  0.00     0.031 A 
ATOM     38  C   UNL A   1      39.055  31.821  31.764  1.00  0.00     0.074 A 
ATOM     39  C   UNL A   1      38.498  33.061  33.827  1.00  0.00     0.049 A 
ATOM     40  N   UNL A   1      40.158  31.212  32.115  1.00  0.00    -0.248 NA
ATOM     41  C   UNL A   1      38.654  31.583  30.366  1.00  0.00     0.031 C 
ATOM     42  C   UNL A   1      37.743  33.960  34.698  1.00  0.00     0.029 A 
ATOM     43  N   UNL A   1      39.579  32.685  34.586  1.00  0.00    -0.354 N 
ATOM     44  C   UNL A   1      40.569  30.507  30.990  1.00  0.00     0.074 A 
ATOM     45  C   UNL A   1      39.589  30.743  29.955  1.00  0.00     0.031 C 
ATOM     46  C   UNL A   1      38.377  34.050  35.883  1.00  0.00     0.029 A 
ATOM     47  C   UNL A   1      39.555  33.183  35.868  1.00  0.00     0.049 A 
ATOM     48  H   UNL A   1      40.305  32.113  34.244  1.00  0.00     0.167 HD
ATOM     49  C   UNL A   1      41.665  29.728  30.832  1.00  0.00     0.031 A 
ATOM     50  C   UNL A   1      40.371  32.941  36.916  1.00  0.00     0.031 A 
ATOM     51  C   UNL A   1      42.628  29.476  31.869  1.00  0.00     0.049 A 
ATOM     52  C   UNL A   1      41.538  31.997  36.745  1.00  0.00     0.074 A 
ATOM     53  C   UNL A   1      43.778  28.710  31.805  1.00  0.00     0.029 A 
ATOM     54  N   UNL A   1      42.551  29.975  33.160  1.00  0.00    -0.354 N 
ATOM     55  N   UNL A   1      41.928  31.351  35.672  1.00  0.00    -0.248 NA
ATOM     56  C   UNL A   1      42.377  31.753  37.928  1.00  0.00     0.031 C 
ATOM     57  C   UNL A   1      44.360  28.691  33.076  1.00  0.00     0.029 A 
ATOM     58  C   UNL A   1      43.615  29.509  33.911  1.00  0.00     0.049 A 
ATOM     59  H   UNL A   1      41.842  30.572  33.494  1.00  0.00     0.167 HD
ATOM     60  C   UNL A   1      43.076  30.653  36.042  1.00  0.00     0.074 A 
ATOM     61  C   UNL A   1      43.323  30.965  37.434  1.00  0.00     0.031 C 
ATOM     62  C   UNL A   1      43.857  29.832  35.295  1.00  0.00     0.031 A 
BRANCH  49  63
ATOM     63  C   UNL A   1      41.852  29.053  29.500  1.00  0.00    -0.014 A 
ATOM     64  C   UNL A   1      42.561  29.676  28.456  1.00  0.00     0.010 A 
ATOM     65  C   UNL A   1      41.340  27.758  29.300  1.00  0.00     0.010 A 
ATOM     66  C   UNL A   1      42.720  29.031  27.227  1.00  0.00     0.020 A 
ATOM     67  C   UNL A   1      41.525  27.097  28.084  1.00  0.00     0.020 A 
ATOM     68  C   UNL A   1      42.202  27.745  27.049  1.00  0.00     0.054 A 
BRANCH  68  69
ATOM     69  S   UNL A   1      42.452  26.920  25.453  1.00  0.00     0.124 S 
ATOM     70  O   UNL A   1      41.237  26.117  25.337  1.00  0.00    -0.237 OA
ATOM     71  O   UNL A   1      42.554  28.044  24.526  1.00  0.00    -0.237 OA
ATOM     72  O   UNL A   1      43.685  26.159  25.644  1.00  0.00    -0.744 OA
ENDBRANCH  68  69
ENDBRANCH  49  63
BRANCH  50  73
ATOM     73  C   UNL A   1      40.103  33.575  38.239  1.00  0.00    -0.014 A 
ATOM     74  C   UNL A   1      40.816  34.716  38.648  1.00  0.00     0.010 A 
ATOM     75  C   UNL A   1      39.141  33.028  39.109  1.00  0.00     0.010 A 
ATOM     76  C   UNL A   1      40.586  35.287  39.903  1.00  0.00     0.020 A 
ATOM     77  C   UNL A   1      38.885  33.613  40.353  1.00  0.00     0.020 A 
ATOM     78  C   UNL A   1      39.618  34.735  40.747  1.00  0.00     0.054 A 
BRANCH  78  79
ATOM     79  S   UNL A   1      39.304  35.523  42.351  1.00  0.00     0.124 S 
ATOM     80  O   UNL A   1      39.932  36.829  42.177  1.00  0.00    -0.237 OA
ATOM     81  O   UNL A   1      37.845  35.525  42.418  1.00  0.00    -0.237 OA
ATOM     82  O   UNL A   1      39.963  34.633  43.305  1.00  0.00    -0.744 OA
ENDBRANCH  78  79
ENDBRANCH  50  73
BRANCH  62  83
ATOM     83  C   UNL A   1      45.087  29.246  35.942  1.00  0.00    -0.014 A 
ATOM     84  C   UNL A   1      46.361  29.809  35.748  1.00  0.00     0.010 A 
ATOM     85  C   UNL A   1      44.949  28.155  36.822  1.00  0.00     0.010 A 
ATOM     86  C   UNL A   1      47.475  29.276  36.403  1.00  0.00     0.020 A 
ATOM     87  C   UNL A   1      46.055  27.641  37.501  1.00  0.00     0.020 A 
ATOM     88  C   UNL A   1      47.315  28.197  37.278  1.00  0.00     0.054 A 
BRANCH  88  89
ATOM     89  S   UNL A   1      48.769  27.560  38.157  1.00  0.00     0.124 S 
ATOM     90  O   UNL A   1      48.804  26.167  37.719  1.00  0.00    -0.237 OA
ATOM     91  O   UNL A   1      49.846  28.406  37.648  1.00  0.00    -0.237 OA
ATOM     92  O   UNL A   1      48.440  27.761  39.566  1.00  0.00    -0.744 OA
ENDBRANCH  88  89
ENDBRANCH  62  83
ENDBRANCH  36  37
ENDBRANCH  29  31
ENDBRANCH  28  29
ENDBRANCH  27  28
ENDBRANCH  26  27
ENDBRANCH  25  26
ENDBRANCH  24  25
ENDBRANCH   1  24
TORSDOF 24
ENDMDL
MODEL 3
REMARK VINA RESULT:      -8.5      6.287     10.915
REMARK SMILES O=CN[C@@H](Cc1cc(Cl)ccc1[N+](=O)[O-])C(=O)OCCOCCOCCOC(=O)c1ccc(-c2c3nc(c(-c4ccc(S(=O)(=O)[O-])cc4)c4ccc([nH]4)c(-c4ccc(S(=O)(=O)[O-])cc4)c4nc(c(-c5ccc(S(=O)(=O)[O-])cc5)c5ccc2[nH]5)C=C4)C=C3)cc1
REMARK SMILES IDX 22 1 21 2 20 3 19 4 18 5 16 6 17 7 4 8 3 9 1 10 2 11 5 13
REMARK SMILES IDX 6 14 7 15 12 16 8 17 11 18 9 19 10 20 13 21 14 22 15 23
REMARK SMILES IDX 23 24 24 25 25 26 26 27 27 28 28 29 29 30 30 31 31 32 89 33
REMARK SMILES IDX 32 34 88 35 33 36 34 37 35 38 82 39 36 40 87 41 81 42 83 43
REMARK SMILES IDX 37 44 86 45 80 46 79 47 38 49 68 50 49 51 67 52 50 53 53 54
REMARK SMILES IDX 66 55 84 56 51 57 52 58 65 60 85 61 54 62 39 63 40 64 48 65
REMARK SMILES IDX 41 66 47 67 42 68 43 69 44 70 45 71 46 72 69 73 70 74 78 75
REMARK SMILES IDX 71 76 77 77 72 78 73 79 74 80 75 81 76 82 55 83 56 84 64 85
REMARK SMILES IDX 57 86 63 87 58 88 59 89 60 90 61 91 62 92
REMARK H PARENT 3 12 83 48 53 59
REMARK Flexibility Score: inf
ROOT
ATOM      1  C   UNL A   1      38.296  22.419  25.366  1.00  0.00     0.188 C 
ENDROOT
BRANCH   1   2
ATOM      2  O   UNL A   1      36.970  22.245  24.893  1.00  0.00    -0.376 OA
BRANCH   2   3
ATOM      3  C   UNL A   1      36.689  22.591  23.544  1.00  0.00     0.202 C 
BRANCH   3   4
ATOM      4  C   UNL A   1      35.256  22.953  23.127  1.00  0.00     0.261 C 
BRANCH   4   5
ATOM      5  O   UNL A   1      34.857  24.338  23.297  1.00  0.00    -0.462 OA
BRANCH   5   6
ATOM      6  C   UNL A   1      33.586  24.657  22.912  1.00  0.00     0.329 C 
ATOM      7  O   UNL A   1      33.284  25.057  21.794  1.00  0.00    -0.250 OA
BRANCH   6   8
ATOM      8  C   UNL A   1      32.551  24.597  24.057  1.00  0.00     0.196 C 
BRANCH   8   9
ATOM      9  N   UNL A   1      31.772  25.806  24.339  1.00  0.00    -0.345 N 
ATOM     10  O   UNL A   1      31.589  27.875  25.273  1.00  0.00    -0.279 OA
ATOM     11  C   UNL A   1      32.223  26.842  25.111  1.00  0.00     0.337 C 
ATOM     12  H   UNL A   1      30.870  25.877  23.951  1.00  0.00     0.164 HD
ENDBRANCH   8   9
BRANCH   8  13
ATOM     13  C   UNL A   1      31.622  23.371  23.875  1.00  0.00     0.079 C 
BRANCH  13  14
ATOM     14  C   UNL A   1      32.172  22.061  24.431  1.00  0.00     0.034 A 
ATOM     15  C   UNL A   1      32.097  20.927  23.594  1.00  0.00     0.031 A 
ATOM     16  C   UNL A   1      32.815  21.896  25.678  1.00  0.00     0.272 A 
ATOM     17  C   UNL A   1      32.724  19.727  23.941  1.00  0.00     0.041 A 
ATOM     18  C   UNL A   1      33.550  20.728  25.961  1.00  0.00     0.087 A 
ATOM     19  Cl  UNL A   1      32.516  18.333  22.956  1.00  0.00    -0.084 Cl
ATOM     20  C   UNL A   1      33.505  19.646  25.087  1.00  0.00     0.027 A 
BRANCH  16  21
ATOM     21  N   UNL A   1      32.627  22.827  26.803  1.00  0.00     0.062 N 
ATOM     22  O   UNL A   1      31.471  23.007  27.213  1.00  0.00    -0.258 OA
ATOM     23  O   UNL A   1      33.619  23.424  27.232  1.00  0.00    -0.258 OA
ENDBRANCH  16  21
ENDBRANCH  13  14
ENDBRANCH   8  13
ENDBRANCH   6   8
ENDBRANCH   5   6
ENDBRANCH   4   5
ENDBRANCH   3   4
ENDBRANCH   2   3
ENDBRANCH   1   2
BRANCH   1  24
ATOM     24  C   UNL A   1      39.034  21.178  25.895  1.00  0.00     0.188 C 
BRANCH  24  25
ATOM     25  O   UNL A   1      40.224  21.438  26.601  1.00  0.00    -0.376 OA
BRANCH  25  26
ATOM     26  C   UNL A   1      40.867  20.361  27.266  1.00  0.00     0.202 C 
BRANCH  26  27
ATOM     27  C   UNL A   1      42.121  19.627  26.738  1.00  0.00     0.261 C 
BRANCH  27  28
ATOM     28  O   UNL A   1      42.511  19.830  25.375  1.00  0.00    -0.460 OA
BRANCH  28  29
ATOM     29  C   UNL A   1      43.842  19.917  25.110  1.00  0.00     0.338 C 
ATOM     30  O   UNL A   1      44.537  19.072  24.592  1.00  0.00    -0.246 OA
BRANCH  29  31
ATOM     31  C   UNL A   1      44.234  21.335  25.326  1.00  0.00     0.060 A 
ATOM     32  C   UNL A   1      45.016  21.663  26.447  1.00  0.00     0.016 A 
ATOM     33  C   UNL A   1      43.900  22.317  24.392  1.00  0.00     0.016 A 
ATOM     34  C   UNL A   1      45.453  22.976  26.641  1.00  0.00     0.010 A 
ATOM     35  C   UNL A   1      44.308  23.636  24.607  1.00  0.00     0.010 A 
ATOM     36  C   UNL A   1      45.063  23.979  25.744  1.00  0.00    -0.014 A 
BRANCH  36  37
ATOM     37  C   UNL A   1      45.222  25.410  26.106  1.00  0.00     0.031 A 
ATOM     38  C   UNL A   1      46.602  26.004  26.005  1.00  0.00     0.074 A 
ATOM     39  C   UNL A   1      44.193  26.166  26.530  1.00  0.00     0.049 A 
ATOM     40  N   UNL A   1      47.029  27.184  26.368  1.00  0.00    -0.248 NA
ATOM     41  C   UNL A   1      47.642  25.140  25.419  1.00  0.00     0.031 C 
ATOM     42  C   UNL A   1      42.799  25.733  26.618  1.00  0.00     0.029 A 
ATOM     43  N   UNL A   1      44.172  27.463  26.983  1.00  0.00    -0.354 N 
ATOM     44  C   UNL A   1      48.387  27.198  26.074  1.00  0.00     0.074 A 
ATOM     45  C   UNL A   1      48.718  25.903  25.524  1.00  0.00     0.031 C 
ATOM     46  C   UNL A   1      42.061  26.744  27.117  1.00  0.00     0.029 A 
ATOM     47  C   UNL A   1      42.936  27.877  27.421  1.00  0.00     0.049 A 
ATOM     48  H   UNL A   1      44.969  28.043  26.992  1.00  0.00     0.167 HD
ATOM     49  C   UNL A   1      49.282  28.198  26.248  1.00  0.00     0.031 A 
ATOM     50  C   UNL A   1      42.561  29.023  28.028  1.00  0.00     0.031 A 
ATOM     51  C   UNL A   1      48.956  29.479  26.814  1.00  0.00     0.049 A 
ATOM     52  C   UNL A   1      43.594  30.092  28.296  1.00  0.00     0.074 A 
ATOM     53  C   UNL A   1      49.791  30.562  27.023  1.00  0.00     0.029 A 
ATOM     54  N   UNL A   1      47.701  29.845  27.273  1.00  0.00    -0.354 N 
ATOM     55  N   UNL A   1      44.872  30.101  27.996  1.00  0.00    -0.248 NA
ATOM     56  C   UNL A   1      43.133  31.308  28.982  1.00  0.00     0.031 C 
ATOM     57  C   UNL A   1      49.054  31.560  27.668  1.00  0.00     0.029 A 
ATOM     58  C   UNL A   1      47.743  31.128  27.792  1.00  0.00     0.049 A 
ATOM     59  H   UNL A   1      46.897  29.277  27.236  1.00  0.00     0.167 HD
ATOM     60  C   UNL A   1      45.356  31.335  28.425  1.00  0.00     0.074 A 
ATOM     61  C   UNL A   1      44.234  32.049  28.994  1.00  0.00     0.031 C 
ATOM     62  C   UNL A   1      46.616  31.833  28.349  1.00  0.00     0.031 A 
BRANCH  49  63
ATOM     63  C   UNL A   1      50.712  27.926  25.863  1.00  0.00    -0.014 A 
ATOM     64  C   UNL A   1      51.603  27.298  26.753  1.00  0.00     0.010 A 
ATOM     65  C   UNL A   1      51.162  28.275  24.576  1.00  0.00     0.010 A 
ATOM     66  C   UNL A   1      52.926  27.057  26.374  1.00  0.00     0.020 A 
ATOM     67  C   UNL A   1      52.475  28.007  24.184  1.00  0.00     0.020 A 
ATOM     68  C   UNL A   1      53.353  27.413  25.092  1.00  0.00     0.054 A 
BRANCH  68  69
ATOM     69  S   UNL A   1      55.068  27.059  24.618  1.00  0.00     0.124 S 
ATOM     70  O   UNL A   1      55.443  26.036  25.592  1.00  0.00    -0.237 OA
ATOM     71  O   UNL A   1      54.929  26.594  23.240  1.00  0.00    -0.237 OA
ATOM     72  O   UNL A   1      55.745  28.344  24.775  1.00  0.00    -0.744 OA
ENDBRANCH  68  69
ENDBRANCH  49  63
BRANCH  50  73
ATOM     73  C   UNL A   1      41.147  29.217  28.459  1.00  0.00    -0.014 A 
ATOM     74  C   UNL A   1      40.121  29.370  27.510  1.00  0.00     0.010 A 
ATOM     75  C   UNL A   1      40.820  29.268  29.827  1.00  0.00     0.010 A 
ATOM     76  C   UNL A   1      38.801  29.587  27.919  1.00  0.00     0.020 A 
ATOM     77  C   UNL A   1      39.497  29.454  30.240  1.00  0.00     0.020 A 
ATOM     78  C   UNL A   1      38.496  29.623  29.282  1.00  0.00     0.054 A 
BRANCH  78  79
ATOM     79  S   UNL A   1      36.769  29.856  29.786  1.00  0.00     0.124 S 
ATOM     80  O   UNL A   1      36.707  31.297  30.006  1.00  0.00    -0.237 OA
ATOM     81  O   UNL A   1      36.034  29.360  28.625  1.00  0.00    -0.237 OA
ATOM     82  O   UNL A   1      36.649  29.034  30.989  1.00  0.00    -0.744 OA
ENDBRANCH  78  79
ENDBRANCH  50  73
BRANCH  62  83
ATOM     83  C   UNL A   1      46.852  33.238  28.846  1.00  0.00    -0.014 A 
ATOM     84  C   UNL A   1      46.679  34.354  28.008  1.00  0.00     0.010 A 
ATOM     85  C   UNL A   1      47.178  33.444  30.200  1.00  0.00     0.010 A 
ATOM     86  C   UNL A   1      46.853  35.647  28.511  1.00  0.00     0.020 A 
ATOM     87  C   UNL A   1      47.322  34.734  30.713  1.00  0.00     0.020 A 
ATOM     88  C   UNL A   1      47.170  35.830  29.861  1.00  0.00     0.054 A 
BRANCH  88  89
ATOM     89  S   UNL A   1      47.336  37.519  30.500  1.00  0.00     0.124 S 
ATOM     90  O   UNL A   1      46.741  38.311  29.426  1.00  0.00    -0.237 OA
ATOM     91  O   UNL A   1      46.568  37.469  31.742  1.00  0.00    -0.237 OA
ATOM     92  O   UNL A   1      48.777  37.687  30.672  1.00  0.00    -0.744 OA
ENDBRANCH  88  89
ENDBRANCH  62  83
ENDBRANCH  36  37
ENDBRANCH  29  31
ENDBRANCH  28  29
ENDBRANCH  27  28
ENDBRANCH  26  27
ENDBRANCH  25  26
ENDBRANCH  24  25
ENDBRANCH   1  24
TORSDOF 24
ENDMDL
