MODEL 1
REMARK VINA RESULT:     -10.5      0.000      0.000
REMARK SMILES O=C(CN1C(=O)/C(=C\c2c(F)cccc2Cl)Oc2ccccc21)OCCOCCOCCOC(=O)c1ccc(-c2c3nc(c(-c4ccc(S(=O)(=O)[O-])cc4)c4ccc([nH]4)c(-c4ccc(S(=O)(=O)[O-])cc4)c4nc(c(-c5ccc(S(=O)(=O)[O-])cc5)c5ccc2[nH]5)C=C4)C=C3)cc1
REMARK SMILES IDX 29 1 28 2 27 3 26 4 25 5 24 6 2 7 1 8 3 9 4 10 5 11 23 12
REMARK SMILES IDX 6 13 7 14 18 15 22 16 8 17 17 18 19 19 21 20 20 21 9 22
REMARK SMILES IDX 10 23 15 24 11 25 12 26 14 27 16 28 13 29 30 30 31 31 32 32
REMARK SMILES IDX 33 33 34 34 35 35 36 36 37 37 95 38 38 39 94 40 39 41 40 42
REMARK SMILES IDX 41 43 88 44 42 45 93 46 87 47 89 48 43 49 92 50 86 51 85 52
REMARK SMILES IDX 44 54 74 55 55 56 73 57 56 58 59 59 72 60 90 61 57 62 58 63
REMARK SMILES IDX 71 65 91 66 60 67 45 68 46 69 54 70 47 71 53 72 48 73 49 74
REMARK SMILES IDX 50 75 51 76 52 77 75 78 76 79 84 80 77 81 83 82 78 83 79 84
REMARK SMILES IDX 80 85 81 86 82 87 61 88 62 89 70 90 63 91 69 92 64 93 65 94
REMARK SMILES IDX 66 95 67 96 68 97
REMARK H PARENT 89 53 59 64
REMARK Flexibility Score: inf
ROOT
ATOM      1  C   UNL A   1      42.184  21.620  27.293  1.00  0.00     0.188 C 
ENDROOT
BRANCH   1   2
ATOM      2  C   UNL A   1      41.347  20.338  27.250  1.00  0.00     0.188 C 
BRANCH   2   3
ATOM      3  O   UNL A   1      40.104  20.390  26.582  1.00  0.00    -0.376 OA
BRANCH   3   4
ATOM      4  C   UNL A   1      39.649  21.624  26.046  1.00  0.00     0.202 C 
BRANCH   4   5
ATOM      5  C   UNL A   1      38.230  21.726  25.502  1.00  0.00     0.261 C 
BRANCH   5   6
ATOM      6  O   UNL A   1      37.329  22.769  25.945  1.00  0.00    -0.462 OA
BRANCH   6   7
ATOM      7  C   UNL A   1      36.407  23.505  25.291  1.00  0.00     0.326 C 
ATOM      8  O   UNL A   1      35.868  24.439  25.886  1.00  0.00    -0.250 OA
BRANCH   7   9
ATOM      9  C   UNL A   1      36.069  23.213  23.840  1.00  0.00     0.248 C 
BRANCH   9  10
ATOM     10  N   UNL A   1      34.661  22.892  23.797  1.00  0.00    -0.291 N 
ATOM     11  C   UNL A   1      33.823  23.841  23.235  1.00  0.00     0.294 C 
ATOM     12  C   UNL A   1      34.116  21.711  24.345  1.00  0.00     0.088 A 
ATOM     13  O   UNL A   1      34.170  24.622  22.366  1.00  0.00    -0.265 OA
ATOM     14  C   UNL A   1      32.487  23.909  23.889  1.00  0.00     0.193 C 
ATOM     15  C   UNL A   1      32.724  21.639  24.504  1.00  0.00     0.151 A 
ATOM     16  C   UNL A   1      34.898  20.584  24.636  1.00  0.00     0.030 A 
ATOM     17  C   UNL A   1      31.939  25.103  24.202  1.00  0.00     0.065 C 
ATOM     18  O   UNL A   1      31.890  22.724  24.303  1.00  0.00    -0.449 OA
ATOM     19  C   UNL A   1      32.125  20.450  24.922  1.00  0.00     0.049 A 
ATOM     20  C   UNL A   1      34.293  19.394  25.040  1.00  0.00     0.002 A 
ATOM     21  C   UNL A   1      32.910  19.324  25.174  1.00  0.00     0.004 A 
BRANCH  17  22
ATOM     22  C   UNL A   1      32.561  26.442  24.057  1.00  0.00     0.033 A 
ATOM     23  C   UNL A   1      33.314  27.011  25.096  1.00  0.00     0.132 A 
ATOM     24  C   UNL A   1      32.397  27.213  22.889  1.00  0.00     0.051 A 
ATOM     25  F   UNL A   1      33.523  26.329  26.231  1.00  0.00    -0.206 F 
ATOM     26  C   UNL A   1      33.844  28.305  25.003  1.00  0.00     0.040 A 
ATOM     27  C   UNL A   1      32.937  28.506  22.786  1.00  0.00     0.021 A 
ATOM     28  Cl  UNL A   1      31.511  26.620  21.526  1.00  0.00    -0.084 Cl
ATOM     29  C   UNL A   1      33.652  29.059  23.849  1.00  0.00     0.005 A 
ENDBRANCH  17  22
ENDBRANCH   9  10
ENDBRANCH   7   9
ENDBRANCH   6   7
ENDBRANCH   5   6
ENDBRANCH   4   5
ENDBRANCH   3   4
ENDBRANCH   2   3
ENDBRANCH   1   2
BRANCH   1  30
ATOM     30  O   UNL A   1      43.266  21.756  26.388  1.00  0.00    -0.376 OA
BRANCH  30  31
ATOM     31  C   UNL A   1      43.168  22.701  25.325  1.00  0.00     0.202 C 
BRANCH  31  32
ATOM     32  C   UNL A   1      42.299  23.964  25.453  1.00  0.00     0.261 C 
BRANCH  32  33
ATOM     33  O   UNL A   1      43.037  25.201  25.419  1.00  0.00    -0.460 OA
BRANCH  33  34
ATOM     34  C   UNL A   1      43.876  25.430  26.460  1.00  0.00     0.338 C 
ATOM     35  O   UNL A   1      45.060  25.135  26.513  1.00  0.00    -0.246 OA
BRANCH  34  36
ATOM     36  C   UNL A   1      43.222  26.285  27.479  1.00  0.00     0.060 A 
ATOM     37  C   UNL A   1      42.217  25.803  28.319  1.00  0.00     0.016 A 
ATOM     38  C   UNL A   1      43.657  27.614  27.598  1.00  0.00     0.016 A 
ATOM     39  C   UNL A   1      41.667  26.648  29.296  1.00  0.00     0.010 A 
ATOM     40  C   UNL A   1      43.070  28.470  28.531  1.00  0.00     0.010 A 
ATOM     41  C   UNL A   1      42.093  27.983  29.413  1.00  0.00    -0.014 A 
BRANCH  41  42
ATOM     42  C   UNL A   1      41.720  28.800  30.596  1.00  0.00     0.031 A 
ATOM     43  C   UNL A   1      42.447  28.722  31.903  1.00  0.00     0.074 A 
ATOM     44  C   UNL A   1      40.645  29.603  30.473  1.00  0.00     0.049 A 
ATOM     45  N   UNL A   1      42.251  29.433  32.985  1.00  0.00    -0.248 NA
ATOM     46  C   UNL A   1      43.521  27.725  32.023  1.00  0.00     0.031 C 
ATOM     47  C   UNL A   1      39.849  29.739  29.252  1.00  0.00     0.029 A 
ATOM     48  N   UNL A   1      40.034  30.442  31.370  1.00  0.00    -0.354 N 
ATOM     49  C   UNL A   1      43.183  28.988  33.912  1.00  0.00     0.074 A 
ATOM     50  C   UNL A   1      43.925  27.918  33.275  1.00  0.00     0.031 C 
ATOM     51  C   UNL A   1      38.859  30.614  29.472  1.00  0.00     0.029 A 
ATOM     52  C   UNL A   1      38.938  31.089  30.852  1.00  0.00     0.049 A 
ATOM     53  H   UNL A   1      40.350  30.568  32.293  1.00  0.00     0.167 HD
ATOM     54  C   UNL A   1      43.398  29.445  35.170  1.00  0.00     0.031 A 
ATOM     55  C   UNL A   1      38.086  31.973  31.410  1.00  0.00     0.031 A 
ATOM     56  C   UNL A   1      42.635  30.503  35.791  1.00  0.00     0.049 A 
ATOM     57  C   UNL A   1      38.319  32.434  32.817  1.00  0.00     0.074 A 
ATOM     58  C   UNL A   1      42.848  31.093  37.026  1.00  0.00     0.029 A 
ATOM     59  N   UNL A   1      41.509  31.106  35.252  1.00  0.00    -0.354 N 
ATOM     60  N   UNL A   1      39.283  32.092  33.636  1.00  0.00    -0.248 NA
ATOM     61  C   UNL A   1      37.368  33.406  33.373  1.00  0.00     0.031 C 
ATOM     62  C   UNL A   1      41.802  31.984  37.271  1.00  0.00     0.029 A 
ATOM     63  C   UNL A   1      40.981  32.016  36.155  1.00  0.00     0.049 A 
ATOM     64  H   UNL A   1      41.138  30.914  34.360  1.00  0.00     0.167 HD
ATOM     65  C   UNL A   1      39.066  32.818  34.801  1.00  0.00     0.074 A 
ATOM     66  C   UNL A   1      37.885  33.626  34.578  1.00  0.00     0.031 C 
ATOM     67  C   UNL A   1      39.793  32.810  35.946  1.00  0.00     0.031 A 
BRANCH  54  68
ATOM     68  C   UNL A   1      44.505  28.826  35.988  1.00  0.00    -0.014 A 
ATOM     69  C   UNL A   1      44.225  27.729  36.825  1.00  0.00     0.010 A 
ATOM     70  C   UNL A   1      45.778  29.422  36.053  1.00  0.00     0.010 A 
ATOM     71  C   UNL A   1      45.184  27.253  37.724  1.00  0.00     0.020 A 
ATOM     72  C   UNL A   1      46.750  28.932  36.931  1.00  0.00     0.020 A 
ATOM     73  C   UNL A   1      46.440  27.863  37.775  1.00  0.00     0.054 A 
BRANCH  73  74
ATOM     74  S   UNL A   1      47.667  27.236  38.955  1.00  0.00     0.124 S 
ATOM     75  O   UNL A   1      47.953  25.904  38.431  1.00  0.00    -0.237 OA
ATOM     76  O   UNL A   1      48.748  28.213  38.832  1.00  0.00    -0.237 OA
ATOM     77  O   UNL A   1      46.961  27.268  40.234  1.00  0.00    -0.744 OA
ENDBRANCH  73  74
ENDBRANCH  54  68
BRANCH  55  78
ATOM     78  C   UNL A   1      36.981  32.505  30.569  1.00  0.00    -0.014 A 
ATOM     79  C   UNL A   1      37.154  33.701  29.845  1.00  0.00     0.010 A 
ATOM     80  C   UNL A   1      35.706  31.919  30.632  1.00  0.00     0.010 A 
ATOM     81  C   UNL A   1      36.056  34.345  29.272  1.00  0.00     0.020 A 
ATOM     82  C   UNL A   1      34.609  32.548  30.033  1.00  0.00     0.020 A 
ATOM     83  C   UNL A   1      34.786  33.777  29.394  1.00  0.00     0.054 A 
BRANCH  83  84
ATOM     84  S   UNL A   1      33.359  34.693  28.752  1.00  0.00     0.124 S 
ATOM     85  O   UNL A   1      32.670  33.666  27.975  1.00  0.00    -0.237 OA
ATOM     86  O   UNL A   1      32.680  35.121  29.971  1.00  0.00    -0.237 OA
ATOM     87  O   UNL A   1      33.964  35.767  27.968  1.00  0.00    -0.744 OA
ENDBRANCH  83  84
ENDBRANCH  55  78
BRANCH  67  88
ATOM     88  C   UNL A   1      39.341  33.680  37.093  1.00  0.00    -0.014 A 
ATOM     89  C   UNL A   1      39.645  35.054  37.091  1.00  0.00     0.010 A 
ATOM     90  C   UNL A   1      38.785  33.105  38.249  1.00  0.00     0.010 A 
ATOM     91  C   UNL A   1      39.465  35.824  38.243  1.00  0.00     0.020 A 
ATOM     92  C   UNL A   1      38.576  33.878  39.396  1.00  0.00     0.020 A 
ATOM     93  C   UNL A   1      38.952  35.224  39.395  1.00  0.00     0.054 A 
BRANCH  93  94
ATOM     94  S   UNL A   1      38.821  36.215  40.910  1.00  0.00     0.124 S 
ATOM     95  O   UNL A   1      40.156  36.079  41.483  1.00  0.00    -0.237 OA
ATOM     96  O   UNL A   1      38.489  37.542  40.396  1.00  0.00    -0.237 OA
ATOM     97  O   UNL A   1      37.750  35.560  41.658  1.00  0.00    -0.744 OA
ENDBRANCH  93  94
ENDBRANCH  67  88
ENDBRANCH  41  42
ENDBRANCH  34  36
ENDBRANCH  33  34
ENDBRANCH  32  33
ENDBRANCH  31  32
ENDBRANCH  30  31
ENDBRANCH   1  30
TORSDOF 22
ENDMDL
MODEL 2
REMARK VINA RESULT:     -10.4      2.709      9.401
REMARK SMILES O=C(CN1C(=O)/C(=C\c2c(F)cccc2Cl)Oc2ccccc21)OCCOCCOCCOC(=O)c1ccc(-c2c3nc(c(-c4ccc(S(=O)(=O)[O-])cc4)c4ccc([nH]4)c(-c4ccc(S(=O)(=O)[O-])cc4)c4nc(c(-c5ccc(S(=O)(=O)[O-])cc5)c5ccc2[nH]5)C=C4)C=C3)cc1
REMARK SMILES IDX 29 1 28 2 27 3 26 4 25 5 24 6 2 7 1 8 3 9 4 10 5 11 23 12
REMARK SMILES IDX 6 13 7 14 18 15 22 16 8 17 17 18 19 19 21 20 20 21 9 22
REMARK SMILES IDX 10 23 15 24 11 25 12 26 14 27 16 28 13 29 30 30 31 31 32 32
REMARK SMILES IDX 33 33 34 34 35 35 36 36 37 37 95 38 38 39 94 40 39 41 40 42
REMARK SMILES IDX 41 43 88 44 42 45 93 46 87 47 89 48 43 49 92 50 86 51 85 52
REMARK SMILES IDX 44 54 74 55 55 56 73 57 56 58 59 59 72 60 90 61 57 62 58 63
REMARK SMILES IDX 71 65 91 66 60 67 45 68 46 69 54 70 47 71 53 72 48 73 49 74
REMARK SMILES IDX 50 75 51 76 52 77 75 78 76 79 84 80 77 81 83 82 78 83 79 84
REMARK SMILES IDX 80 85 81 86 82 87 61 88 62 89 70 90 63 91 69 92 64 93 65 94
REMARK SMILES IDX 66 95 67 96 68 97
REMARK H PARENT 89 53 59 64
REMARK Flexibility Score: inf
ROOT
ATOM      1  C   UNL A   1      35.080  34.254  28.060  1.00  0.00     0.188 C 
ENDROOT
BRANCH   1   2
ATOM      2  C   UNL A   1      35.395  32.952  28.803  1.00  0.00     0.188 C 
BRANCH   2   3
ATOM      3  O   UNL A   1      35.567  31.782  28.031  1.00  0.00    -0.376 OA
BRANCH   3   4
ATOM      4  C   UNL A   1      34.426  31.070  27.578  1.00  0.00     0.202 C 
BRANCH   4   5
ATOM      5  C   UNL A   1      34.549  29.587  27.251  1.00  0.00     0.261 C 
BRANCH   5   6
ATOM      6  O   UNL A   1      33.942  29.027  26.062  1.00  0.00    -0.462 OA
BRANCH   6   7
ATOM      7  C   UNL A   1      32.694  29.110  25.559  1.00  0.00     0.326 C 
ATOM      8  O   UNL A   1      31.803  29.582  26.268  1.00  0.00    -0.250 OA
BRANCH   7   9
ATOM      9  C   UNL A   1      32.399  28.669  24.137  1.00  0.00     0.248 C 
BRANCH   9  10
ATOM     10  N   UNL A   1      31.086  28.067  24.151  1.00  0.00    -0.291 N 
ATOM     11  C   UNL A   1      31.003  26.764  24.614  1.00  0.00     0.294 C 
ATOM     12  C   UNL A   1      29.929  28.716  23.669  1.00  0.00     0.088 A 
ATOM     13  O   UNL A   1      31.765  26.288  25.437  1.00  0.00    -0.265 OA
ATOM     14  C   UNL A   1      29.973  25.953  23.908  1.00  0.00     0.193 C 
ATOM     15  C   UNL A   1      28.776  27.942  23.465  1.00  0.00     0.151 A 
ATOM     16  C   UNL A   1      29.863  30.104  23.489  1.00  0.00     0.030 A 
ATOM     17  C   UNL A   1      30.255  24.700  23.492  1.00  0.00     0.065 C 
ATOM     18  O   UNL A   1      28.774  26.562  23.559  1.00  0.00    -0.449 OA
ATOM     19  C   UNL A   1      27.573  28.554  23.112  1.00  0.00     0.049 A 
ATOM     20  C   UNL A   1      28.655  30.713  23.148  1.00  0.00     0.002 A 
ATOM     21  C   UNL A   1      27.511  29.941  22.969  1.00  0.00     0.004 A 
BRANCH  17  22
ATOM     22  C   UNL A   1      31.565  24.005  23.564  1.00  0.00     0.033 A 
ATOM     23  C   UNL A   1      32.572  24.250  22.618  1.00  0.00     0.132 A 
ATOM     24  C   UNL A   1      31.842  23.047  24.560  1.00  0.00     0.051 A 
ATOM     25  F   UNL A   1      32.383  25.158  21.650  1.00  0.00    -0.206 F 
ATOM     26  C   UNL A   1      33.784  23.546  22.627  1.00  0.00     0.040 A 
ATOM     27  C   UNL A   1      33.061  22.348  24.581  1.00  0.00     0.021 A 
ATOM     28  Cl  UNL A   1      30.695  22.668  25.799  1.00  0.00    -0.084 Cl
ATOM     29  C   UNL A   1      34.029  22.588  23.607  1.00  0.00     0.005 A 
ENDBRANCH  17  22
ENDBRANCH   9  10
ENDBRANCH   7   9
ENDBRANCH   6   7
ENDBRANCH   5   6
ENDBRANCH   4   5
ENDBRANCH   3   4
ENDBRANCH   2   3
ENDBRANCH   1   2
BRANCH   1  30
ATOM     30  O   UNL A   1      33.776  34.796  28.162  1.00  0.00    -0.376 OA
BRANCH  30  31
ATOM     31  C   UNL A   1      33.593  36.046  28.823  1.00  0.00     0.202 C 
BRANCH  31  32
ATOM     32  C   UNL A   1      32.514  36.230  29.904  1.00  0.00     0.261 C 
BRANCH  32  33
ATOM     33  O   UNL A   1      33.032  36.499  31.222  1.00  0.00    -0.460 OA
BRANCH  33  34
ATOM     34  C   UNL A   1      32.898  35.506  32.136  1.00  0.00     0.338 C 
ATOM     35  O   UNL A   1      31.858  35.148  32.668  1.00  0.00    -0.246 OA
BRANCH  34  36
ATOM     36  C   UNL A   1      34.165  34.750  32.274  1.00  0.00     0.060 A 
ATOM     37  C   UNL A   1      35.386  35.255  31.823  1.00  0.00     0.016 A 
ATOM     38  C   UNL A   1      34.115  33.494  32.898  1.00  0.00     0.016 A 
ATOM     39  C   UNL A   1      36.559  34.512  32.023  1.00  0.00     0.010 A 
ATOM     40  C   UNL A   1      35.274  32.730  33.045  1.00  0.00     0.010 A 
ATOM     41  C   UNL A   1      36.513  33.248  32.640  1.00  0.00    -0.014 A 
BRANCH  41  42
ATOM     42  C   UNL A   1      37.757  32.577  33.093  1.00  0.00     0.031 A 
ATOM     43  C   UNL A   1      38.469  32.947  34.358  1.00  0.00     0.074 A 
ATOM     44  C   UNL A   1      38.272  31.629  32.285  1.00  0.00     0.049 A 
ATOM     45  N   UNL A   1      39.528  32.387  34.887  1.00  0.00    -0.248 NA
ATOM     46  C   UNL A   1      37.941  34.083  35.126  1.00  0.00     0.031 C 
ATOM     47  C   UNL A   1      37.673  31.207  31.018  1.00  0.00     0.029 A 
ATOM     48  N   UNL A   1      39.403  30.861  32.397  1.00  0.00    -0.354 N 
ATOM     49  C   UNL A   1      39.789  33.086  36.057  1.00  0.00     0.074 A 
ATOM     50  C   UNL A   1      38.794  34.137  36.145  1.00  0.00     0.031 C 
ATOM     51  C   UNL A   1      38.437  30.251  30.472  1.00  0.00     0.029 A 
ATOM     52  C   UNL A   1      39.587  30.004  31.338  1.00  0.00     0.049 A 
ATOM     53  H   UNL A   1      40.022  30.918  33.160  1.00  0.00     0.167 HD
ATOM     54  C   UNL A   1      40.763  32.856  36.971  1.00  0.00     0.031 A 
ATOM     55  C   UNL A   1      40.563  29.109  31.083  1.00  0.00     0.031 A 
ATOM     56  C   UNL A   1      41.755  31.812  36.856  1.00  0.00     0.049 A 
ATOM     57  C   UNL A   1      41.654  28.901  32.089  1.00  0.00     0.074 A 
ATOM     58  C   UNL A   1      42.718  31.448  37.782  1.00  0.00     0.029 A 
ATOM     59  N   UNL A   1      41.935  30.991  35.754  1.00  0.00    -0.354 N 
ATOM     60  N   UNL A   1      41.813  29.486  33.251  1.00  0.00    -0.248 NA
ATOM     61  C   UNL A   1      42.685  27.905  31.768  1.00  0.00     0.031 C 
ATOM     62  C   UNL A   1      43.534  30.473  37.205  1.00  0.00     0.029 A 
ATOM     63  C   UNL A   1      43.031  30.165  35.951  1.00  0.00     0.049 A 
ATOM     64  H   UNL A   1      41.368  30.995  34.948  1.00  0.00     0.167 HD
ATOM     65  C   UNL A   1      42.953  28.922  33.809  1.00  0.00     0.074 A 
ATOM     66  C   UNL A   1      43.441  27.940  32.861  1.00  0.00     0.031 C 
ATOM     67  C   UNL A   1      43.532  29.198  35.003  1.00  0.00     0.031 A 
BRANCH  54  68
ATOM     68  C   UNL A   1      40.829  33.732  38.199  1.00  0.00    -0.014 A 
ATOM     69  C   UNL A   1      39.913  33.532  39.249  1.00  0.00     0.010 A 
ATOM     70  C   UNL A   1      41.685  34.847  38.247  1.00  0.00     0.010 A 
ATOM     71  C   UNL A   1      39.835  34.439  40.311  1.00  0.00     0.020 A 
ATOM     72  C   UNL A   1      41.629  35.742  39.321  1.00  0.00     0.020 A 
ATOM     73  C   UNL A   1      40.692  35.542  40.336  1.00  0.00     0.054 A 
BRANCH  73  74
ATOM     74  S   UNL A   1      40.568  36.710  41.719  1.00  0.00     0.124 S 
ATOM     75  O   UNL A   1      41.252  35.998  42.792  1.00  0.00    -0.237 OA
ATOM     76  O   UNL A   1      41.260  37.888  41.196  1.00  0.00    -0.237 OA
ATOM     77  O   UNL A   1      39.128  36.880  41.897  1.00  0.00    -0.744 OA
ENDBRANCH  73  74
ENDBRANCH  54  68
BRANCH  55  78
ATOM     78  C   UNL A   1      40.472  28.315  29.830  1.00  0.00    -0.014 A 
ATOM     79  C   UNL A   1      39.685  27.147  29.786  1.00  0.00     0.010 A 
ATOM     80  C   UNL A   1      41.307  28.621  28.742  1.00  0.00     0.010 A 
ATOM     81  C   UNL A   1      39.798  26.258  28.715  1.00  0.00     0.020 A 
ATOM     82  C   UNL A   1      41.400  27.747  27.654  1.00  0.00     0.020 A 
ATOM     83  C   UNL A   1      40.677  26.552  27.669  1.00  0.00     0.054 A 
BRANCH  83  84
ATOM     84  S   UNL A   1      40.902  25.324  26.354  1.00  0.00     0.124 S 
ATOM     85  O   UNL A   1      41.279  26.167  25.222  1.00  0.00    -0.237 OA
ATOM     86  O   UNL A   1      41.962  24.475  26.887  1.00  0.00    -0.237 OA
ATOM     87  O   UNL A   1      39.591  24.690  26.248  1.00  0.00    -0.744 OA
ENDBRANCH  83  84
ENDBRANCH  55  78
BRANCH  67  88
ATOM     88  C   UNL A   1      44.792  28.459  35.382  1.00  0.00    -0.014 A 
ATOM     89  C   UNL A   1      44.711  27.308  36.189  1.00  0.00     0.010 A 
ATOM     90  C   UNL A   1      46.054  29.007  35.098  1.00  0.00     0.010 A 
ATOM     91  C   UNL A   1      45.862  26.757  36.759  1.00  0.00     0.020 A 
ATOM     92  C   UNL A   1      47.212  28.442  35.643  1.00  0.00     0.020 A 
ATOM     93  C   UNL A   1      47.104  27.343  36.499  1.00  0.00     0.054 A 
BRANCH  93  94
ATOM     94  S   UNL A   1      48.573  26.676  37.329  1.00  0.00     0.124 S 
ATOM     95  O   UNL A   1      49.371  27.877  37.553  1.00  0.00    -0.237 OA
ATOM     96  O   UNL A   1      48.011  26.060  38.529  1.00  0.00    -0.237 OA
ATOM     97  O   UNL A   1      49.121  25.735  36.354  1.00  0.00    -0.744 OA
ENDBRANCH  93  94
ENDBRANCH  67  88
ENDBRANCH  41  42
ENDBRANCH  34  36
ENDBRANCH  33  34
ENDBRANCH  32  33
ENDBRANCH  31  32
ENDBRANCH  30  31
ENDBRANCH   1  30
TORSDOF 22
ENDMDL
MODEL 3
REMARK VINA RESULT:     -10.2      2.337      8.588
REMARK SMILES O=C(CN1C(=O)/C(=C\c2c(F)cccc2Cl)Oc2ccccc21)OCCOCCOCCOC(=O)c1ccc(-c2c3nc(c(-c4ccc(S(=O)(=O)[O-])cc4)c4ccc([nH]4)c(-c4ccc(S(=O)(=O)[O-])cc4)c4nc(c(-c5ccc(S(=O)(=O)[O-])cc5)c5ccc2[nH]5)C=C4)C=C3)cc1
REMARK SMILES IDX 29 1 28 2 27 3 26 4 25 5 24 6 2 7 1 8 3 9 4 10 5 11 23 12
REMARK SMILES IDX 6 13 7 14 18 15 22 16 8 17 17 18 19 19 21 20 20 21 9 22
REMARK SMILES IDX 10 23 15 24 11 25 12 26 14 27 16 28 13 29 30 30 31 31 32 32
REMARK SMILES IDX 33 33 34 34 35 35 36 36 37 37 95 38 38 39 94 40 39 41 40 42
REMARK SMILES IDX 41 43 88 44 42 45 93 46 87 47 89 48 43 49 92 50 86 51 85 52
REMARK SMILES IDX 44 54 74 55 55 56 73 57 56 58 59 59 72 60 90 61 57 62 58 63
REMARK SMILES IDX 71 65 91 66 60 67 45 68 46 69 54 70 47 71 53 72 48 73 49 74
REMARK SMILES IDX 50 75 51 76 52 77 75 78 76 79 84 80 77 81 83 82 78 83 79 84
REMARK SMILES IDX 80 85 81 86 82 87 61 88 62 89 70 90 63 91 69 92 64 93 65 94
REMARK SMILES IDX 66 95 67 96 68 97
REMARK H PARENT 89 53 59 64
REMARK Flexibility Score: inf
ROOT
ATOM      1  C   UNL A   1      35.145  30.682  28.184  1.00  0.00     0.188 C 
ENDROOT
BRANCH   1   2
ATOM      2  C   UNL A   1      34.924  29.347  27.468  1.00  0.00     0.188 C 
BRANCH   2   3
ATOM      3  O   UNL A   1      33.629  28.785  27.515  1.00  0.00    -0.376 OA
BRANCH   3   4
ATOM      4  C   UNL A   1      33.313  27.685  26.675  1.00  0.00     0.202 C 
BRANCH   4   5
ATOM      5  C   UNL A   1      31.875  27.191  26.596  1.00  0.00     0.261 C 
BRANCH   5   6
ATOM      6  O   UNL A   1      31.487  25.915  27.159  1.00  0.00    -0.462 OA
BRANCH   6   7
ATOM      7  C   UNL A   1      31.664  24.648  26.733  1.00  0.00     0.326 C 
ATOM      8  O   UNL A   1      30.670  23.946  26.542  1.00  0.00    -0.250 OA
BRANCH   7   9
ATOM      9  C   UNL A   1      33.056  24.110  26.457  1.00  0.00     0.248 C 
BRANCH   9  10
ATOM     10  N   UNL A   1      33.038  23.579  25.113  1.00  0.00    -0.291 N 
ATOM     11  C   UNL A   1      33.223  24.486  24.083  1.00  0.00     0.294 C 
ATOM     12  C   UNL A   1      32.786  22.223  24.817  1.00  0.00     0.088 A 
ATOM     13  O   UNL A   1      33.874  25.511  24.191  1.00  0.00    -0.265 OA
ATOM     14  C   UNL A   1      32.440  24.157  22.861  1.00  0.00     0.193 C 
ATOM     15  C   UNL A   1      32.507  21.879  23.485  1.00  0.00     0.151 A 
ATOM     16  C   UNL A   1      32.903  21.207  25.777  1.00  0.00     0.030 A 
ATOM     17  C   UNL A   1      31.752  25.120  22.209  1.00  0.00     0.065 C 
ATOM     18  O   UNL A   1      32.310  22.823  22.494  1.00  0.00    -0.449 OA
ATOM     19  C   UNL A   1      32.376  20.539  23.118  1.00  0.00     0.049 A 
ATOM     20  C   UNL A   1      32.784  19.868  25.402  1.00  0.00     0.002 A 
ATOM     21  C   UNL A   1      32.530  19.535  24.075  1.00  0.00     0.004 A 
BRANCH  17  22
ATOM     22  C   UNL A   1      31.584  26.536  22.620  1.00  0.00     0.033 A 
ATOM     23  C   UNL A   1      32.546  27.506  22.297  1.00  0.00     0.132 A 
ATOM     24  C   UNL A   1      30.475  26.963  23.377  1.00  0.00     0.051 A 
ATOM     25  F   UNL A   1      33.621  27.175  21.567  1.00  0.00    -0.206 F 
ATOM     26  C   UNL A   1      32.441  28.831  22.742  1.00  0.00     0.040 A 
ATOM     27  C   UNL A   1      30.358  28.293  23.815  1.00  0.00     0.021 A 
ATOM     28  Cl  UNL A   1      29.206  25.874  23.823  1.00  0.00    -0.084 Cl
ATOM     29  C   UNL A   1      31.347  29.227  23.508  1.00  0.00     0.005 A 
ENDBRANCH  17  22
ENDBRANCH   9  10
ENDBRANCH   7   9
ENDBRANCH   6   7
ENDBRANCH   5   6
ENDBRANCH   4   5
ENDBRANCH   3   4
ENDBRANCH   2   3
ENDBRANCH   1   2
BRANCH   1  30
ATOM     30  O   UNL A   1      34.681  31.870  27.568  1.00  0.00    -0.376 OA
BRANCH  30  31
ATOM     31  C   UNL A   1      33.330  32.278  27.773  1.00  0.00     0.202 C 
BRANCH  31  32
ATOM     32  C   UNL A   1      32.915  33.755  27.667  1.00  0.00     0.261 C 
BRANCH  32  33
ATOM     33  O   UNL A   1      32.464  34.337  28.906  1.00  0.00    -0.460 OA
BRANCH  33  34
ATOM     34  C   UNL A   1      33.343  35.146  29.547  1.00  0.00     0.338 C 
ATOM     35  O   UNL A   1      33.144  36.301  29.892  1.00  0.00    -0.246 OA
BRANCH  34  36
ATOM     36  C   UNL A   1      34.541  34.384  29.972  1.00  0.00     0.060 A 
ATOM     37  C   UNL A   1      35.797  34.592  29.398  1.00  0.00     0.016 A 
ATOM     38  C   UNL A   1      34.388  33.440  30.999  1.00  0.00     0.016 A 
ATOM     39  C   UNL A   1      36.903  33.871  29.874  1.00  0.00     0.010 A 
ATOM     40  C   UNL A   1      35.477  32.683  31.433  1.00  0.00     0.010 A 
ATOM     41  C   UNL A   1      36.753  32.918  30.898  1.00  0.00    -0.014 A 
BRANCH  41  42
ATOM     42  C   UNL A   1      37.939  32.348  31.587  1.00  0.00     0.031 A 
ATOM     43  C   UNL A   1      38.830  31.320  30.961  1.00  0.00     0.074 A 
ATOM     44  C   UNL A   1      38.169  32.757  32.850  1.00  0.00     0.049 A 
ATOM     45  N   UNL A   1      39.929  30.798  31.442  1.00  0.00    -0.248 NA
ATOM     46  C   UNL A   1      38.447  30.807  29.638  1.00  0.00     0.031 C 
ATOM     47  C   UNL A   1      37.350  33.737  33.566  1.00  0.00     0.029 A 
ATOM     48  N   UNL A   1      39.140  32.405  33.753  1.00  0.00    -0.354 N 
ATOM     49  C   UNL A   1      40.385  29.907  30.481  1.00  0.00     0.074 A 
ATOM     50  C   UNL A   1      39.421  29.933  29.399  1.00  0.00     0.031 C 
ATOM     51  C   UNL A   1      37.856  33.914  34.794  1.00  0.00     0.029 A 
ATOM     52  C   UNL A   1      39.023  33.050  34.960  1.00  0.00     0.049 A 
ATOM     53  H   UNL A   1      39.852  31.755  33.555  1.00  0.00     0.167 HD
ATOM     54  C   UNL A   1      41.510  29.151  30.505  1.00  0.00     0.031 A 
ATOM     55  C   UNL A   1      39.766  32.972  36.082  1.00  0.00     0.031 A 
ATOM     56  C   UNL A   1      42.450  29.127  31.602  1.00  0.00     0.049 A 
ATOM     57  C   UNL A   1      40.983  32.097  36.101  1.00  0.00     0.074 A 
ATOM     58  C   UNL A   1      43.664  28.464  31.668  1.00  0.00     0.029 A 
ATOM     59  N   UNL A   1      42.277  29.761  32.823  1.00  0.00    -0.354 N 
ATOM     60  N   UNL A   1      41.468  31.356  35.135  1.00  0.00    -0.248 NA
ATOM     61  C   UNL A   1      41.765  32.056  37.344  1.00  0.00     0.031 C 
ATOM     62  C   UNL A   1      44.179  28.621  32.956  1.00  0.00     0.029 A 
ATOM     63  C   UNL A   1      43.331  29.454  33.670  1.00  0.00     0.049 A 
ATOM     64  H   UNL A   1      41.517  30.343  33.055  1.00  0.00     0.167 HD
ATOM     65  C   UNL A   1      42.619  30.770  35.645  1.00  0.00     0.074 A 
ATOM     66  C   UNL A   1      42.767  31.251  37.004  1.00  0.00     0.031 C 
ATOM     67  C   UNL A   1      43.474  29.916  35.031  1.00  0.00     0.031 A 
BRANCH  54  68
ATOM     68  C   UNL A   1      41.822  28.275  29.316  1.00  0.00    -0.014 A 
ATOM     69  C   UNL A   1      41.402  26.931  29.310  1.00  0.00     0.010 A 
ATOM     70  C   UNL A   1      42.661  28.729  28.282  1.00  0.00     0.010 A 
ATOM     71  C   UNL A   1      41.830  26.054  28.308  1.00  0.00     0.020 A 
ATOM     72  C   UNL A   1      43.070  27.861  27.264  1.00  0.00     0.020 A 
ATOM     73  C   UNL A   1      42.666  26.525  27.294  1.00  0.00     0.054 A 
BRANCH  73  74
ATOM     74  S   UNL A   1      43.218  25.367  26.010  1.00  0.00     0.124 S 
ATOM     75  O   UNL A   1      42.579  24.121  26.418  1.00  0.00    -0.237 OA
ATOM     76  O   UNL A   1      42.694  25.980  24.790  1.00  0.00    -0.237 OA
ATOM     77  O   UNL A   1      44.674  25.394  26.127  1.00  0.00    -0.744 OA
ENDBRANCH  73  74
ENDBRANCH  54  68
BRANCH  55  78
ATOM     78  C   UNL A   1      39.376  33.819  37.240  1.00  0.00    -0.014 A 
ATOM     79  C   UNL A   1      39.938  35.100  37.403  1.00  0.00     0.010 A 
ATOM     80  C   UNL A   1      38.586  33.279  38.270  1.00  0.00     0.010 A 
ATOM     81  C   UNL A   1      39.786  35.790  38.607  1.00  0.00     0.020 A 
ATOM     82  C   UNL A   1      38.409  33.982  39.466  1.00  0.00     0.020 A 
ATOM     83  C   UNL A   1      39.045  35.213  39.641  1.00  0.00     0.054 A 
BRANCH  83  84
ATOM     84  S   UNL A   1      38.968  36.069  41.238  1.00  0.00     0.124 S 
ATOM     85  O   UNL A   1      40.243  35.688  41.841  1.00  0.00    -0.237 OA
ATOM     86  O   UNL A   1      38.851  37.469  40.844  1.00  0.00    -0.237 OA
ATOM     87  O   UNL A   1      37.783  35.501  41.875  1.00  0.00    -0.744 OA
ENDBRANCH  83  84
ENDBRANCH  55  78
BRANCH  67  88
ATOM     88  C   UNL A   1      44.657  29.394  35.808  1.00  0.00    -0.014 A 
ATOM     89  C   UNL A   1      44.514  28.252  36.618  1.00  0.00     0.010 A 
ATOM     90  C   UNL A   1      45.847  30.139  35.882  1.00  0.00     0.010 A 
ATOM     91  C   UNL A   1      45.508  27.900  37.534  1.00  0.00     0.020 A 
ATOM     92  C   UNL A   1      46.858  29.774  36.777  1.00  0.00     0.020 A 
ATOM     93  C   UNL A   1      46.665  28.678  37.623  1.00  0.00     0.054 A 
BRANCH  93  94
ATOM     94  S   UNL A   1      47.899  28.265  38.888  1.00  0.00     0.124 S 
ATOM     95  O   UNL A   1      47.072  27.712  39.955  1.00  0.00    -0.237 OA
ATOM     96  O   UNL A   1      48.758  27.306  38.196  1.00  0.00    -0.237 OA
ATOM     97  O   UNL A   1      48.528  29.549  39.187  1.00  0.00    -0.744 OA
ENDBRANCH  93  94
ENDBRANCH  67  88
ENDBRANCH  41  42
ENDBRANCH  34  36
ENDBRANCH  33  34
ENDBRANCH  32  33
ENDBRANCH  31  32
ENDBRANCH  30  31
ENDBRANCH   1  30
TORSDOF 22
ENDMDL
