MODEL 1
REMARK VINA RESULT:      -9.9      0.000      0.000
REMARK SMILES CC1(C)[C@H](C(=O)OCCOCCOCCOC(=O)c2ccc(-c3c4nc(c(-c5ccc(S(=O)(=O)[O-])cc5)c5ccc([nH]5)c(-c5ccc(S(=O)(=O)[O-])cc5)c5nc(c(-c6ccc(S(=O)(=O)[O-])cc6)c6ccc3[nH]6)C=C5)C=C4)cc2)[C@@H]1C(=O)Nc1ccc(Cl)c(Br)c1
REMARK SMILES IDX 12 1 11 2 10 3 9 4 8 5 7 6 5 7 6 8 4 9 1 10 2 11 3 12 79 13
REMARK SMILES IDX 80 14 81 15 82 16 83 18 84 19 90 20 85 21 88 22 86 23 89 24
REMARK SMILES IDX 87 25 13 26 14 27 15 28 16 29 17 30 18 31 19 32 20 33 78 34
REMARK SMILES IDX 21 35 77 36 22 37 23 38 24 39 71 40 25 41 76 42 70 43 72 44
REMARK SMILES IDX 26 45 75 46 69 47 68 48 27 50 57 51 38 52 56 53 39 54 42 55
REMARK SMILES IDX 55 56 73 57 40 58 41 59 54 61 74 62 43 63 28 64 29 65 37 66
REMARK SMILES IDX 30 67 36 68 31 69 32 70 33 71 34 72 35 73 58 74 59 75 67 76
REMARK SMILES IDX 60 77 66 78 61 79 62 80 63 81 64 82 65 83 44 84 45 85 53 86
REMARK SMILES IDX 46 87 52 88 47 89 48 90 49 91 50 92 51 93
REMARK H PARENT 82 17 72 49 42 60
REMARK Flexibility Score: inf
ROOT
ATOM      1  C   UNL A   1      39.070  22.261  26.289  1.00  0.00     0.188 C 
ENDROOT
BRANCH   1   2
ATOM      2  C   UNL A   1      38.091  21.492  25.385  1.00  0.00     0.188 C 
BRANCH   2   3
ATOM      3  O   UNL A   1      36.817  22.107  25.250  1.00  0.00    -0.376 OA
BRANCH   3   4
ATOM      4  C   UNL A   1      35.706  21.377  25.744  1.00  0.00     0.202 C 
BRANCH   4   5
ATOM      5  C   UNL A   1      34.570  21.201  24.727  1.00  0.00     0.261 C 
BRANCH   5   6
ATOM      6  O   UNL A   1      34.333  22.244  23.759  1.00  0.00    -0.463 OA
BRANCH   6   7
ATOM      7  C   UNL A   1      33.071  22.489  23.352  1.00  0.00     0.310 C 
ATOM      8  O   UNL A   1      32.493  21.897  22.455  1.00  0.00    -0.252 OA
BRANCH   7   9
ATOM      9  C   UNL A   1      32.339  23.520  24.121  1.00  0.00     0.118 C 
ATOM     10  C   UNL A   1      32.083  24.815  26.308  1.00  0.00     0.013 C 
ATOM     11  C   UNL A   1      32.888  24.587  25.045  1.00  0.00    -0.009 C 
ATOM     12  C   UNL A   1      34.369  24.784  25.272  1.00  0.00     0.013 C 
ATOM     13  C   UNL A   1      32.260  24.970  23.690  1.00  0.00     0.100 C 
BRANCH  13  14
ATOM     14  C   UNL A   1      33.105  25.605  22.641  1.00  0.00     0.228 C 
ATOM     15  O   UNL A   1      33.566  24.905  21.742  1.00  0.00    -0.274 OA
ATOM     16  N   UNL A   1      33.344  26.958  22.620  1.00  0.00    -0.326 N 
ATOM     17  H   UNL A   1      33.767  27.284  21.794  1.00  0.00     0.169 HD
BRANCH  16  18
ATOM     18  C   UNL A   1      33.090  27.954  23.573  1.00  0.00     0.042 A 
ATOM     19  C   UNL A   1      31.880  28.646  23.455  1.00  0.00     0.028 A 
ATOM     20  C   UNL A   1      33.937  28.228  24.648  1.00  0.00     0.043 A 
ATOM     21  C   UNL A   1      31.452  29.491  24.481  1.00  0.00     0.024 A 
ATOM     22  C   UNL A   1      33.517  29.092  25.672  1.00  0.00     0.038 A 
ATOM     23  C   UNL A   1      32.256  29.697  25.605  1.00  0.00     0.055 A 
ATOM     24  Br  UNL A   1      34.680  29.313  27.156  1.00  0.00    -0.049 Br
ATOM     25  Cl  UNL A   1      31.611  30.675  26.872  1.00  0.00    -0.083 Cl
ENDBRANCH  16  18
ENDBRANCH  13  14
ENDBRANCH   7   9
ENDBRANCH   6   7
ENDBRANCH   5   6
ENDBRANCH   4   5
ENDBRANCH   3   4
ENDBRANCH   2   3
ENDBRANCH   1   2
BRANCH   1  26
ATOM     26  O   UNL A   1      39.990  21.546  27.104  1.00  0.00    -0.376 OA
BRANCH  26  27
ATOM     27  C   UNL A   1      41.100  20.914  26.485  1.00  0.00     0.202 C 
BRANCH  27  28
ATOM     28  C   UNL A   1      42.165  21.813  25.846  1.00  0.00     0.261 C 
BRANCH  28  29
ATOM     29  O   UNL A   1      42.578  22.908  26.679  1.00  0.00    -0.460 OA
BRANCH  29  30
ATOM     30  C   UNL A   1      42.688  24.106  26.050  1.00  0.00     0.338 C 
ATOM     31  O   UNL A   1      43.032  24.298  24.896  1.00  0.00    -0.246 OA
BRANCH  30  32
ATOM     32  C   UNL A   1      42.118  25.172  26.905  1.00  0.00     0.060 A 
ATOM     33  C   UNL A   1      42.584  26.484  26.722  1.00  0.00     0.016 A 
ATOM     34  C   UNL A   1      41.174  24.892  27.894  1.00  0.00     0.016 A 
ATOM     35  C   UNL A   1      42.147  27.511  27.555  1.00  0.00     0.010 A 
ATOM     36  C   UNL A   1      40.762  25.916  28.753  1.00  0.00     0.010 A 
ATOM     37  C   UNL A   1      41.279  27.217  28.613  1.00  0.00    -0.014 A 
BRANCH  37  38
ATOM     38  C   UNL A   1      41.131  28.180  29.731  1.00  0.00     0.031 A 
ATOM     39  C   UNL A   1      42.044  28.013  30.917  1.00  0.00     0.074 A 
ATOM     40  C   UNL A   1      40.213  29.162  29.713  1.00  0.00     0.049 A 
ATOM     41  N   UNL A   1      42.030  28.627  32.069  1.00  0.00    -0.248 NA
ATOM     42  C   UNL A   1      43.115  27.010  30.781  1.00  0.00     0.031 C 
ATOM     43  C   UNL A   1      39.323  29.476  28.599  1.00  0.00     0.029 A 
ATOM     44  N   UNL A   1      39.872  30.070  30.686  1.00  0.00    -0.354 N 
ATOM     45  C   UNL A   1      43.074  28.075  32.801  1.00  0.00     0.074 A 
ATOM     46  C   UNL A   1      43.697  27.071  31.968  1.00  0.00     0.031 C 
ATOM     47  C   UNL A   1      38.517  30.491  28.960  1.00  0.00     0.029 A 
ATOM     48  C   UNL A   1      38.806  30.868  30.344  1.00  0.00     0.049 A 
ATOM     49  H   UNL A   1      40.346  30.142  31.546  1.00  0.00     0.167 HD
ATOM     50  C   UNL A   1      43.475  28.367  34.059  1.00  0.00     0.031 A 
ATOM     51  C   UNL A   1      38.124  31.770  31.077  1.00  0.00     0.031 A 
ATOM     52  C   UNL A   1      42.838  29.345  34.897  1.00  0.00     0.049 A 
ATOM     53  C   UNL A   1      38.530  32.018  32.510  1.00  0.00     0.074 A 
ATOM     54  C   UNL A   1      43.155  29.704  36.194  1.00  0.00     0.029 A 
ATOM     55  N   UNL A   1      41.748  30.112  34.520  1.00  0.00    -0.354 N 
ATOM     56  N   UNL A   1      39.512  31.483  33.195  1.00  0.00    -0.248 NA
ATOM     57  C   UNL A   1      37.732  32.994  33.269  1.00  0.00     0.031 C 
ATOM     58  C   UNL A   1      42.227  30.660  36.618  1.00  0.00     0.029 A 
ATOM     59  C   UNL A   1      41.368  30.935  35.565  1.00  0.00     0.049 A 
ATOM     60  H   UNL A   1      41.309  30.078  33.639  1.00  0.00     0.167 HD
ATOM     61  C   UNL A   1      39.472  32.081  34.451  1.00  0.00     0.074 A 
ATOM     62  C   UNL A   1      38.369  33.019  34.433  1.00  0.00     0.031 C 
ATOM     63  C   UNL A   1      40.279  31.876  35.522  1.00  0.00     0.031 A 
BRANCH  50  64
ATOM     64  C   UNL A   1      44.625  27.575  34.618  1.00  0.00    -0.014 A 
ATOM     65  C   UNL A   1      44.411  26.371  35.311  1.00  0.00     0.010 A 
ATOM     66  C   UNL A   1      45.939  28.040  34.436  1.00  0.00     0.010 A 
ATOM     67  C   UNL A   1      45.491  25.665  35.847  1.00  0.00     0.020 A 
ATOM     68  C   UNL A   1      47.023  27.325  34.949  1.00  0.00     0.020 A 
ATOM     69  C   UNL A   1      46.790  26.149  35.667  1.00  0.00     0.054 A 
BRANCH  69  70
ATOM     70  S   UNL A   1      48.177  25.208  36.359  1.00  0.00     0.124 S 
ATOM     71  O   UNL A   1      49.268  26.176  36.274  1.00  0.00    -0.237 OA
ATOM     72  O   UNL A   1      47.715  24.903  37.711  1.00  0.00    -0.237 OA
ATOM     73  O   UNL A   1      48.294  24.057  35.469  1.00  0.00    -0.744 OA
ENDBRANCH  69  70
ENDBRANCH  50  64
BRANCH  51  74
ATOM     74  C   UNL A   1      36.957  32.484  30.488  1.00  0.00    -0.014 A 
ATOM     75  C   UNL A   1      35.658  31.964  30.619  1.00  0.00     0.010 A 
ATOM     76  C   UNL A   1      37.143  33.685  29.778  1.00  0.00     0.010 A 
ATOM     77  C   UNL A   1      34.568  32.623  30.039  1.00  0.00     0.020 A 
ATOM     78  C   UNL A   1      36.053  34.359  29.219  1.00  0.00     0.020 A 
ATOM     79  C   UNL A   1      34.773  33.817  29.343  1.00  0.00     0.054 A 
BRANCH  79  80
ATOM     80  S   UNL A   1      33.340  34.678  28.638  1.00  0.00     0.124 S 
ATOM     81  O   UNL A   1      32.799  33.671  27.730  1.00  0.00    -0.237 OA
ATOM     82  O   UNL A   1      32.529  34.965  29.818  1.00  0.00    -0.237 OA
ATOM     83  O   UNL A   1      33.928  35.851  27.994  1.00  0.00    -0.744 OA
ENDBRANCH  79  80
ENDBRANCH  51  74
BRANCH  63  84
ATOM     84  C   UNL A   1      40.051  32.719  36.748  1.00  0.00    -0.014 A 
ATOM     85  C   UNL A   1      39.112  32.350  37.725  1.00  0.00     0.010 A 
ATOM     86  C   UNL A   1      40.866  33.845  36.966  1.00  0.00     0.010 A 
ATOM     87  C   UNL A   1      38.982  33.104  38.896  1.00  0.00     0.020 A 
ATOM     88  C   UNL A   1      40.755  34.587  38.145  1.00  0.00     0.020 A 
ATOM     89  C   UNL A   1      39.806  34.216  39.100  1.00  0.00     0.054 A 
BRANCH  89  90
ATOM     90  S   UNL A   1      39.670  35.134  40.658  1.00  0.00     0.124 S 
ATOM     91  O   UNL A   1      40.491  36.312  40.390  1.00  0.00    -0.237 OA
ATOM     92  O   UNL A   1      38.234  35.379  40.765  1.00  0.00    -0.237 OA
ATOM     93  O   UNL A   1      40.213  34.211  41.653  1.00  0.00    -0.744 OA
ENDBRANCH  89  90
ENDBRANCH  63  84
ENDBRANCH  37  38
ENDBRANCH  30  32
ENDBRANCH  29  30
ENDBRANCH  28  29
ENDBRANCH  27  28
ENDBRANCH  26  27
ENDBRANCH   1  26
TORSDOF 22
ENDMDL
MODEL 2
REMARK VINA RESULT:      -9.4      1.625      2.221
REMARK SMILES CC1(C)[C@H](C(=O)OCCOCCOCCOC(=O)c2ccc(-c3c4nc(c(-c5ccc(S(=O)(=O)[O-])cc5)c5ccc([nH]5)c(-c5ccc(S(=O)(=O)[O-])cc5)c5nc(c(-c6ccc(S(=O)(=O)[O-])cc6)c6ccc3[nH]6)C=C5)C=C4)cc2)[C@@H]1C(=O)Nc1ccc(Cl)c(Br)c1
REMARK SMILES IDX 12 1 11 2 10 3 9 4 8 5 7 6 5 7 6 8 4 9 1 10 2 11 3 12 79 13
REMARK SMILES IDX 80 14 81 15 82 16 83 18 84 19 90 20 85 21 88 22 86 23 89 24
REMARK SMILES IDX 87 25 13 26 14 27 15 28 16 29 17 30 18 31 19 32 20 33 78 34
REMARK SMILES IDX 21 35 77 36 22 37 23 38 24 39 71 40 25 41 76 42 70 43 72 44
REMARK SMILES IDX 26 45 75 46 69 47 68 48 27 50 57 51 38 52 56 53 39 54 42 55
REMARK SMILES IDX 55 56 73 57 40 58 41 59 54 61 74 62 43 63 28 64 29 65 37 66
REMARK SMILES IDX 30 67 36 68 31 69 32 70 33 71 34 72 35 73 58 74 59 75 67 76
REMARK SMILES IDX 60 77 66 78 61 79 62 80 63 81 64 82 65 83 44 84 45 85 53 86
REMARK SMILES IDX 46 87 52 88 47 89 48 90 49 91 50 92 51 93
REMARK H PARENT 82 17 72 49 42 60
REMARK Flexibility Score: inf
ROOT
ATOM      1  C   UNL A   1      39.711  21.136  26.278  1.00  0.00     0.188 C 
ENDROOT
BRANCH   1   2
ATOM      2  C   UNL A   1      38.804  20.285  25.371  1.00  0.00     0.188 C 
BRANCH   2   3
ATOM      3  O   UNL A   1      37.843  21.035  24.641  1.00  0.00    -0.376 OA
BRANCH   3   4
ATOM      4  C   UNL A   1      36.863  21.721  25.402  1.00  0.00     0.202 C 
BRANCH   4   5
ATOM      5  C   UNL A   1      35.588  20.906  25.661  1.00  0.00     0.261 C 
BRANCH   5   6
ATOM      6  O   UNL A   1      34.634  20.747  24.591  1.00  0.00    -0.463 OA
BRANCH   6   7
ATOM      7  C   UNL A   1      33.326  20.958  24.838  1.00  0.00     0.310 C 
ATOM      8  O   UNL A   1      32.437  20.135  24.684  1.00  0.00    -0.252 OA
BRANCH   7   9
ATOM      9  C   UNL A   1      32.987  22.284  25.404  1.00  0.00     0.118 C 
ATOM     10  C   UNL A   1      33.793  24.591  26.146  1.00  0.00     0.013 C 
ATOM     11  C   UNL A   1      33.496  23.650  24.997  1.00  0.00    -0.009 C 
ATOM     12  C   UNL A   1      34.445  23.854  23.837  1.00  0.00     0.013 C 
ATOM     13  C   UNL A   1      32.031  23.248  24.731  1.00  0.00     0.100 C 
BRANCH  13  14
ATOM     14  C   UNL A   1      31.541  23.139  23.329  1.00  0.00     0.228 C 
ATOM     15  O   UNL A   1      31.542  22.039  22.782  1.00  0.00    -0.274 OA
ATOM     16  N   UNL A   1      31.043  24.222  22.647  1.00  0.00    -0.326 N 
ATOM     17  H   UNL A   1      30.594  23.999  21.800  1.00  0.00     0.169 HD
BRANCH  16  18
ATOM     18  C   UNL A   1      31.063  25.590  22.949  1.00  0.00     0.042 A 
ATOM     19  C   UNL A   1      29.944  26.108  23.607  1.00  0.00     0.028 A 
ATOM     20  C   UNL A   1      32.155  26.422  22.690  1.00  0.00     0.043 A 
ATOM     21  C   UNL A   1      29.976  27.400  24.137  1.00  0.00     0.024 A 
ATOM     22  C   UNL A   1      32.182  27.728  23.207  1.00  0.00     0.038 A 
ATOM     23  C   UNL A   1      31.104  28.205  23.961  1.00  0.00     0.055 A 
ATOM     24  Br  UNL A   1      33.756  28.746  22.912  1.00  0.00    -0.049 Br
ATOM     25  Cl  UNL A   1      31.104  29.748  24.733  1.00  0.00    -0.083 Cl
ENDBRANCH  16  18
ENDBRANCH  13  14
ENDBRANCH   7   9
ENDBRANCH   6   7
ENDBRANCH   5   6
ENDBRANCH   4   5
ENDBRANCH   3   4
ENDBRANCH   2   3
ENDBRANCH   1   2
BRANCH   1  26
ATOM     26  O   UNL A   1      40.491  20.508  27.288  1.00  0.00    -0.376 OA
BRANCH  26  27
ATOM     27  C   UNL A   1      41.626  19.750  26.899  1.00  0.00     0.202 C 
BRANCH  27  28
ATOM     28  C   UNL A   1      42.643  20.418  25.968  1.00  0.00     0.261 C 
BRANCH  28  29
ATOM     29  O   UNL A   1      43.193  21.639  26.488  1.00  0.00    -0.460 OA
BRANCH  29  30
ATOM     30  C   UNL A   1      43.067  22.723  25.679  1.00  0.00     0.338 C 
ATOM     31  O   UNL A   1      43.139  22.740  24.463  1.00  0.00    -0.246 OA
BRANCH  30  32
ATOM     32  C   UNL A   1      42.607  23.886  26.472  1.00  0.00     0.060 A 
ATOM     33  C   UNL A   1      43.073  25.158  26.107  1.00  0.00     0.016 A 
ATOM     34  C   UNL A   1      41.768  23.734  27.577  1.00  0.00     0.016 A 
ATOM     35  C   UNL A   1      42.742  26.278  26.869  1.00  0.00     0.010 A 
ATOM     36  C   UNL A   1      41.465  24.851  28.362  1.00  0.00     0.010 A 
ATOM     37  C   UNL A   1      41.986  26.117  28.035  1.00  0.00    -0.014 A 
BRANCH  37  38
ATOM     38  C   UNL A   1      41.972  27.192  29.056  1.00  0.00     0.031 A 
ATOM     39  C   UNL A   1      43.027  27.144  30.129  1.00  0.00     0.074 A 
ATOM     40  C   UNL A   1      41.052  28.172  29.050  1.00  0.00     0.049 A 
ATOM     41  N   UNL A   1      43.152  27.876  31.204  1.00  0.00    -0.248 NA
ATOM     42  C   UNL A   1      44.080  26.126  29.966  1.00  0.00     0.031 C 
ATOM     43  C   UNL A   1      40.028  28.373  28.029  1.00  0.00     0.029 A 
ATOM     44  N   UNL A   1      40.829  29.179  29.957  1.00  0.00    -0.354 N 
ATOM     45  C   UNL A   1      44.284  27.397  31.853  1.00  0.00     0.074 A 
ATOM     46  C   UNL A   1      44.805  26.308  31.058  1.00  0.00     0.031 C 
ATOM     47  C   UNL A   1      39.265  29.426  28.380  1.00  0.00     0.029 A 
ATOM     48  C   UNL A   1      39.723  29.944  29.670  1.00  0.00     0.049 A 
ATOM     49  H   UNL A   1      41.406  29.338  30.739  1.00  0.00     0.167 HD
ATOM     50  C   UNL A   1      44.836  27.817  33.013  1.00  0.00     0.031 A 
ATOM     51  C   UNL A   1      39.131  30.922  30.384  1.00  0.00     0.031 A 
ATOM     52  C   UNL A   1      44.302  28.881  33.817  1.00  0.00     0.049 A 
ATOM     53  C   UNL A   1      39.711  31.316  31.721  1.00  0.00     0.074 A 
ATOM     54  C   UNL A   1      44.777  29.372  35.020  1.00  0.00     0.029 A 
ATOM     55  N   UNL A   1      43.169  29.612  33.501  1.00  0.00    -0.354 N 
ATOM     56  N   UNL A   1      40.775  30.849  32.330  1.00  0.00    -0.248 NA
ATOM     57  C   UNL A   1      39.007  32.371  32.467  1.00  0.00     0.031 C 
ATOM     58  C   UNL A   1      43.902  30.373  35.454  1.00  0.00     0.029 A 
ATOM     59  C   UNL A   1      42.917  30.542  34.493  1.00  0.00     0.049 A 
ATOM     60  H   UNL A   1      42.623  29.488  32.691  1.00  0.00     0.167 HD
ATOM     61  C   UNL A   1      40.888  31.576  33.511  1.00  0.00     0.074 A 
ATOM     62  C   UNL A   1      39.785  32.513  33.533  1.00  0.00     0.031 C 
ATOM     63  C   UNL A   1      41.824  31.480  34.488  1.00  0.00     0.031 A 
BRANCH  50  64
ATOM     64  C   UNL A   1      46.053  27.081  33.504  1.00  0.00    -0.014 A 
ATOM     65  C   UNL A   1      47.349  27.519  33.177  1.00  0.00     0.010 A 
ATOM     66  C   UNL A   1      45.895  25.941  34.312  1.00  0.00     0.010 A 
ATOM     67  C   UNL A   1      48.466  26.805  33.618  1.00  0.00     0.020 A 
ATOM     68  C   UNL A   1      47.009  25.239  34.775  1.00  0.00     0.020 A 
ATOM     69  C   UNL A   1      48.289  25.667  34.411  1.00  0.00     0.054 A 
BRANCH  69  70
ATOM     70  S   UNL A   1      49.754  24.765  34.983  1.00  0.00     0.124 S 
ATOM     71  O   UNL A   1      49.520  23.432  34.431  1.00  0.00    -0.237 OA
ATOM     72  O   UNL A   1      50.851  25.513  34.374  1.00  0.00    -0.237 OA
ATOM     73  O   UNL A   1      49.672  24.858  36.438  1.00  0.00    -0.744 OA
ENDBRANCH  69  70
ENDBRANCH  50  64
BRANCH  51  74
ATOM     74  C   UNL A   1      37.895  31.577  29.873  1.00  0.00    -0.014 A 
ATOM     75  C   UNL A   1      37.964  32.800  29.184  1.00  0.00     0.010 A 
ATOM     76  C   UNL A   1      36.636  30.984  30.086  1.00  0.00     0.010 A 
ATOM     77  C   UNL A   1      36.798  33.426  28.731  1.00  0.00     0.020 A 
ATOM     78  C   UNL A   1      35.471  31.593  29.612  1.00  0.00     0.020 A 
ATOM     79  C   UNL A   1      35.558  32.818  28.948  1.00  0.00     0.054 A 
BRANCH  79  80
ATOM     80  S   UNL A   1      34.062  33.625  28.312  1.00  0.00     0.124 S 
ATOM     81  O   UNL A   1      33.341  32.502  27.720  1.00  0.00    -0.237 OA
ATOM     82  O   UNL A   1      33.468  34.190  29.520  1.00  0.00    -0.237 OA
ATOM     83  O   UNL A   1      34.581  34.607  27.362  1.00  0.00    -0.744 OA
ENDBRANCH  79  80
ENDBRANCH  51  74
BRANCH  63  84
ATOM     84  C   UNL A   1      41.745  32.447  35.638  1.00  0.00    -0.014 A 
ATOM     85  C   UNL A   1      42.359  33.709  35.578  1.00  0.00     0.010 A 
ATOM     86  C   UNL A   1      40.956  32.119  36.757  1.00  0.00     0.010 A 
ATOM     87  C   UNL A   1      42.196  34.622  36.624  1.00  0.00     0.020 A 
ATOM     88  C   UNL A   1      40.772  33.037  37.793  1.00  0.00     0.020 A 
ATOM     89  C   UNL A   1      41.401  34.282  37.724  1.00  0.00     0.054 A 
BRANCH  89  90
ATOM     90  S   UNL A   1      41.145  35.510  39.035  1.00  0.00     0.124 S 
ATOM     91  O   UNL A   1      42.082  36.562  38.653  1.00  0.00    -0.237 OA
ATOM     92  O   UNL A   1      39.730  35.844  38.892  1.00  0.00    -0.237 OA
ATOM     93  O   UNL A   1      41.487  34.787  40.258  1.00  0.00    -0.744 OA
ENDBRANCH  89  90
ENDBRANCH  63  84
ENDBRANCH  37  38
ENDBRANCH  30  32
ENDBRANCH  29  30
ENDBRANCH  28  29
ENDBRANCH  27  28
ENDBRANCH  26  27
ENDBRANCH   1  26
TORSDOF 22
ENDMDL
MODEL 3
REMARK VINA RESULT:      -9.3      5.778      7.889
REMARK SMILES CC1(C)[C@H](C(=O)OCCOCCOCCOC(=O)c2ccc(-c3c4nc(c(-c5ccc(S(=O)(=O)[O-])cc5)c5ccc([nH]5)c(-c5ccc(S(=O)(=O)[O-])cc5)c5nc(c(-c6ccc(S(=O)(=O)[O-])cc6)c6ccc3[nH]6)C=C5)C=C4)cc2)[C@@H]1C(=O)Nc1ccc(Cl)c(Br)c1
REMARK SMILES IDX 12 1 11 2 10 3 9 4 8 5 7 6 5 7 6 8 4 9 1 10 2 11 3 12 79 13
REMARK SMILES IDX 80 14 81 15 82 16 83 18 84 19 90 20 85 21 88 22 86 23 89 24
REMARK SMILES IDX 87 25 13 26 14 27 15 28 16 29 17 30 18 31 19 32 20 33 78 34
REMARK SMILES IDX 21 35 77 36 22 37 23 38 24 39 71 40 25 41 76 42 70 43 72 44
REMARK SMILES IDX 26 45 75 46 69 47 68 48 27 50 57 51 38 52 56 53 39 54 42 55
REMARK SMILES IDX 55 56 73 57 40 58 41 59 54 61 74 62 43 63 28 64 29 65 37 66
REMARK SMILES IDX 30 67 36 68 31 69 32 70 33 71 34 72 35 73 58 74 59 75 67 76
REMARK SMILES IDX 60 77 66 78 61 79 62 80 63 81 64 82 65 83 44 84 45 85 53 86
REMARK SMILES IDX 46 87 52 88 47 89 48 90 49 91 50 92 51 93
REMARK H PARENT 82 17 72 49 42 60
REMARK Flexibility Score: inf
ROOT
ATOM      1  C   UNL A   1      36.734  22.332  24.290  1.00  0.00     0.188 C 
ENDROOT
BRANCH   1   2
ATOM      2  C   UNL A   1      36.565  23.355  25.427  1.00  0.00     0.188 C 
BRANCH   2   3
ATOM      3  O   UNL A   1      35.527  24.301  25.209  1.00  0.00    -0.376 OA
BRANCH   3   4
ATOM      4  C   UNL A   1      34.847  24.219  23.967  1.00  0.00     0.202 C 
BRANCH   4   5
ATOM      5  C   UNL A   1      34.043  25.477  23.609  1.00  0.00     0.261 C 
BRANCH   5   6
ATOM      6  O   UNL A   1      32.890  25.346  22.752  1.00  0.00    -0.463 OA
BRANCH   6   7
ATOM      7  C   UNL A   1      32.107  26.422  22.533  1.00  0.00     0.310 C 
ATOM      8  O   UNL A   1      31.560  26.692  21.476  1.00  0.00    -0.252 OA
BRANCH   7   9
ATOM      9  C   UNL A   1      31.860  27.285  23.710  1.00  0.00     0.118 C 
ATOM     10  C   UNL A   1      31.189  29.579  24.609  1.00  0.00     0.013 C 
ATOM     11  C   UNL A   1      30.755  28.294  23.935  1.00  0.00    -0.009 C 
ATOM     12  C   UNL A   1      29.647  28.526  22.932  1.00  0.00     0.013 C 
ATOM     13  C   UNL A   1      30.797  26.984  24.746  1.00  0.00     0.100 C 
BRANCH  13  14
ATOM     14  C   UNL A   1      29.700  25.988  24.591  1.00  0.00     0.228 C 
ATOM     15  O   UNL A   1      28.582  26.380  24.267  1.00  0.00    -0.274 OA
ATOM     16  N   UNL A   1      29.914  24.640  24.753  1.00  0.00    -0.326 N 
ATOM     17  H   UNL A   1      29.166  24.072  24.459  1.00  0.00     0.169 HD
BRANCH  16  18
ATOM     18  C   UNL A   1      31.013  23.936  25.261  1.00  0.00     0.042 A 
ATOM     19  C   UNL A   1      31.595  24.433  26.432  1.00  0.00     0.028 A 
ATOM     20  C   UNL A   1      31.494  22.749  24.704  1.00  0.00     0.043 A 
ATOM     21  C   UNL A   1      32.543  23.675  27.121  1.00  0.00     0.024 A 
ATOM     22  C   UNL A   1      32.461  21.994  25.387  1.00  0.00     0.038 A 
ATOM     23  C   UNL A   1      32.961  22.441  26.615  1.00  0.00     0.055 A 
ATOM     24  Br  UNL A   1      32.969  20.334  24.618  1.00  0.00    -0.049 Br
ATOM     25  Cl  UNL A   1      34.059  21.521  27.578  1.00  0.00    -0.083 Cl
ENDBRANCH  16  18
ENDBRANCH  13  14
ENDBRANCH   7   9
ENDBRANCH   6   7
ENDBRANCH   5   6
ENDBRANCH   4   5
ENDBRANCH   3   4
ENDBRANCH   2   3
ENDBRANCH   1   2
BRANCH   1  26
ATOM     26  O   UNL A   1      37.465  21.133  24.520  1.00  0.00    -0.376 OA
BRANCH  26  27
ATOM     27  C   UNL A   1      38.501  21.143  25.490  1.00  0.00     0.202 C 
BRANCH  27  28
ATOM     28  C   UNL A   1      39.360  19.881  25.626  1.00  0.00     0.261 C 
BRANCH  28  29
ATOM     29  O   UNL A   1      40.331  19.949  26.683  1.00  0.00    -0.460 OA
BRANCH  29  30
ATOM     30  C   UNL A   1      41.613  19.705  26.310  1.00  0.00     0.338 C 
ATOM     31  O   UNL A   1      42.039  18.699  25.771  1.00  0.00    -0.246 OA
BRANCH  30  32
ATOM     32  C   UNL A   1      42.418  20.940  26.455  1.00  0.00     0.060 A 
ATOM     33  C   UNL A   1      42.648  21.428  27.751  1.00  0.00     0.016 A 
ATOM     34  C   UNL A   1      42.906  21.631  25.345  1.00  0.00     0.016 A 
ATOM     35  C   UNL A   1      43.326  22.631  27.942  1.00  0.00     0.010 A 
ATOM     36  C   UNL A   1      43.554  22.855  25.535  1.00  0.00     0.010 A 
ATOM     37  C   UNL A   1      43.727  23.379  26.830  1.00  0.00    -0.014 A 
BRANCH  37  38
ATOM     38  C   UNL A   1      44.065  24.813  26.992  1.00  0.00     0.031 A 
ATOM     39  C   UNL A   1      45.501  25.216  26.785  1.00  0.00     0.074 A 
ATOM     40  C   UNL A   1      43.143  25.732  27.326  1.00  0.00     0.049 A 
ATOM     41  N   UNL A   1      46.079  26.369  26.997  1.00  0.00    -0.248 NA
ATOM     42  C   UNL A   1      46.407  24.172  26.273  1.00  0.00     0.031 C 
ATOM     43  C   UNL A   1      41.712  25.486  27.481  1.00  0.00     0.029 A 
ATOM     44  N   UNL A   1      43.289  27.068  27.611  1.00  0.00    -0.354 N 
ATOM     45  C   UNL A   1      47.416  26.184  26.663  1.00  0.00     0.074 A 
ATOM     46  C   UNL A   1      47.566  24.809  26.242  1.00  0.00     0.031 C 
ATOM     47  C   UNL A   1      41.112  26.630  27.860  1.00  0.00     0.029 A 
ATOM     48  C   UNL A   1      42.124  27.676  28.014  1.00  0.00     0.049 A 
ATOM     49  H   UNL A   1      44.147  27.545  27.534  1.00  0.00     0.167 HD
ATOM     50  C   UNL A   1      48.432  27.074  26.711  1.00  0.00     0.031 A 
ATOM     51  C   UNL A   1      41.909  28.920  28.486  1.00  0.00     0.031 A 
ATOM     52  C   UNL A   1      48.288  28.433  27.156  1.00  0.00     0.049 A 
ATOM     53  C   UNL A   1      43.073  29.873  28.618  1.00  0.00     0.074 A 
ATOM     54  C   UNL A   1      49.259  29.411  27.260  1.00  0.00     0.029 A 
ATOM     55  N   UNL A   1      47.096  28.999  27.577  1.00  0.00    -0.354 N 
ATOM     56  N   UNL A   1      44.334  29.684  28.309  1.00  0.00    -0.248 NA
ATOM     57  C   UNL A   1      42.783  31.208  29.164  1.00  0.00     0.031 C 
ATOM     58  C   UNL A   1      48.662  30.560  27.788  1.00  0.00     0.029 A 
ATOM     59  C   UNL A   1      47.308  30.312  27.958  1.00  0.00     0.049 A 
ATOM     60  H   UNL A   1      46.227  28.537  27.602  1.00  0.00     0.167 HD
ATOM     61  C   UNL A   1      44.980  30.885  28.590  1.00  0.00     0.074 A 
ATOM     62  C   UNL A   1      43.971  31.794  29.093  1.00  0.00     0.031 C 
ATOM     63  C   UNL A   1      46.288  31.208  28.439  1.00  0.00     0.031 A 
BRANCH  50  64
ATOM     64  C   UNL A   1      49.799  26.582  26.322  1.00  0.00    -0.014 A 
ATOM     65  C   UNL A   1      50.641  25.958  27.259  1.00  0.00     0.010 A 
ATOM     66  C   UNL A   1      50.241  26.739  24.996  1.00  0.00     0.010 A 
ATOM     67  C   UNL A   1      51.919  25.533  26.885  1.00  0.00     0.020 A 
ATOM     68  C   UNL A   1      51.507  26.294  24.612  1.00  0.00     0.020 A 
ATOM     69  C   UNL A   1      52.345  25.708  25.564  1.00  0.00     0.054 A 
BRANCH  69  70
ATOM     70  S   UNL A   1      54.002  25.136  25.099  1.00  0.00     0.124 S 
ATOM     71  O   UNL A   1      54.233  25.868  23.855  1.00  0.00    -0.237 OA
ATOM     72  O   UNL A   1      54.819  25.558  26.235  1.00  0.00    -0.237 OA
ATOM     73  O   UNL A   1      53.842  23.693  24.951  1.00  0.00    -0.744 OA
ENDBRANCH  69  70
ENDBRANCH  50  64
BRANCH  51  74
ATOM     74  C   UNL A   1      40.542  29.334  28.908  1.00  0.00    -0.014 A 
ATOM     75  C   UNL A   1      39.527  29.531  27.957  1.00  0.00     0.010 A 
ATOM     76  C   UNL A   1      40.253  29.546  30.269  1.00  0.00     0.010 A 
ATOM     77  C   UNL A   1      38.252  29.946  28.356  1.00  0.00     0.020 A 
ATOM     78  C   UNL A   1      38.973  29.937  30.674  1.00  0.00     0.020 A 
ATOM     79  C   UNL A   1      37.983  30.147  29.712  1.00  0.00     0.054 A 
BRANCH  79  80
ATOM     80  S   UNL A   1      36.310  30.642  30.212  1.00  0.00     0.124 S 
ATOM     81  O   UNL A   1      36.531  31.999  30.703  1.00  0.00    -0.237 OA
ATOM     82  O   UNL A   1      35.561  30.537  28.962  1.00  0.00    -0.237 OA
ATOM     83  O   UNL A   1      35.951  29.658  31.230  1.00  0.00    -0.744 OA
ENDBRANCH  79  80
ENDBRANCH  51  74
BRANCH  63  84
ATOM     84  C   UNL A   1      46.708  32.617  28.759  1.00  0.00    -0.014 A 
ATOM     85  C   UNL A   1      47.201  32.964  30.028  1.00  0.00     0.010 A 
ATOM     86  C   UNL A   1      46.699  33.584  27.737  1.00  0.00     0.010 A 
ATOM     87  C   UNL A   1      47.666  34.260  30.273  1.00  0.00     0.020 A 
ATOM     88  C   UNL A   1      47.183  34.873  27.971  1.00  0.00     0.020 A 
ATOM     89  C   UNL A   1      47.657  35.206  29.242  1.00  0.00     0.054 A 
BRANCH  89  90
ATOM     90  S   UNL A   1      48.332  36.858  29.562  1.00  0.00     0.124 S 
ATOM     91  O   UNL A   1      47.292  37.456  30.394  1.00  0.00    -0.237 OA
ATOM     92  O   UNL A   1      49.592  36.566  30.242  1.00  0.00    -0.237 OA
ATOM     93  O   UNL A   1      48.473  37.439  28.228  1.00  0.00    -0.744 OA
ENDBRANCH  89  90
ENDBRANCH  63  84
ENDBRANCH  37  38
ENDBRANCH  30  32
ENDBRANCH  29  30
ENDBRANCH  28  29
ENDBRANCH  27  28
ENDBRANCH  26  27
ENDBRANCH   1  26
TORSDOF 22
ENDMDL
