MODEL 1
REMARK VINA RESULT:      -9.5      0.000      0.000
REMARK SMILES O=C(/C=C/c1ccc(O)c(O)c1)OCCOCCOCCOC(=O)c1ccc(-c2c3nc(c(-c4ccc(S(=O)(=O)[O-])cc4)c4ccc([nH]4)c(-c4ccc(S(=O)(=O)[O-])cc4)c4nc(c(-c5ccc(S(=O)(=O)[O-])cc5)c5ccc2[nH]5)C=C4)C=C3)cc1
REMARK SMILES IDX 18 1 17 2 16 3 15 4 14 5 13 6 2 7 1 8 3 9 4 10 5 11 6 12
REMARK SMILES IDX 12 13 7 14 10 15 8 16 11 17 9 19 19 21 20 22 21 23 22 24
REMARK SMILES IDX 23 25 24 26 25 27 26 28 84 29 27 30 83 31 28 32 29 33 30 34
REMARK SMILES IDX 77 35 31 36 82 37 76 38 78 39 32 40 81 41 75 42 74 43 33 45
REMARK SMILES IDX 63 46 44 47 62 48 45 49 48 50 61 51 79 52 46 53 47 54 60 56
REMARK SMILES IDX 80 57 49 58 34 59 35 60 43 61 36 62 42 63 37 64 38 65 39 66
REMARK SMILES IDX 40 67 41 68 64 69 65 70 73 71 66 72 72 73 67 74 68 75 69 76
REMARK SMILES IDX 70 77 71 78 50 79 51 80 59 81 52 82 58 83 53 84 54 85 55 86
REMARK SMILES IDX 56 87 57 88
REMARK H PARENT 11 18 9 20 78 44 48 55
REMARK Flexibility Score: inf
ROOT
ATOM      1  C   UNL A   1      36.351  22.473  25.050  1.00  0.00     0.188 C 
ENDROOT
BRANCH   1   2
ATOM      2  C   UNL A   1      35.560  21.170  25.258  1.00  0.00     0.188 C 
BRANCH   2   3
ATOM      3  O   UNL A   1      34.262  21.450  25.730  1.00  0.00    -0.376 OA
BRANCH   3   4
ATOM      4  C   UNL A   1      33.152  21.193  24.904  1.00  0.00     0.202 C 
BRANCH   4   5
ATOM      5  C   UNL A   1      31.824  21.742  25.408  1.00  0.00     0.261 C 
BRANCH   5   6
ATOM      6  O   UNL A   1      31.785  22.889  26.297  1.00  0.00    -0.460 OA
BRANCH   6   7
ATOM      7  C   UNL A   1      30.969  23.952  26.427  1.00  0.00     0.330 C 
ATOM      8  O   UNL A   1      30.011  23.908  27.191  1.00  0.00    -0.247 OA
BRANCH   7   9
ATOM      9  C   UNL A   1      31.116  25.115  25.553  1.00  0.00     0.094 C 
ATOM     10  C   UNL A   1      30.090  25.832  25.073  1.00  0.00     0.016 C 
BRANCH  10  11
ATOM     11  C   UNL A   1      30.339  26.974  24.185  1.00  0.00    -0.021 A 
ATOM     12  C   UNL A   1      31.620  27.539  24.106  1.00  0.00     0.012 A 
ATOM     13  C   UNL A   1      29.298  27.526  23.426  1.00  0.00     0.058 A 
ATOM     14  C   UNL A   1      31.868  28.632  23.269  1.00  0.00     0.051 A 
ATOM     15  C   UNL A   1      29.550  28.615  22.605  1.00  0.00     0.157 A 
ATOM     16  C   UNL A   1      30.827  29.163  22.519  1.00  0.00     0.157 A 
BRANCH  15  17
ATOM     17  O   UNL A   1      28.527  29.152  21.877  1.00  0.00    -0.504 OA
ATOM     18  H   UNL A   1      28.572  30.044  21.591  1.00  0.00     0.293 HD
ENDBRANCH  15  17
BRANCH  16  19
ATOM     19  O   UNL A   1      31.005  30.223  21.675  1.00  0.00    -0.504 OA
ATOM     20  H   UNL A   1      31.031  31.095  22.019  1.00  0.00     0.293 HD
ENDBRANCH  16  19
ENDBRANCH  10  11
ENDBRANCH   7   9
ENDBRANCH   6   7
ENDBRANCH   5   6
ENDBRANCH   4   5
ENDBRANCH   3   4
ENDBRANCH   2   3
ENDBRANCH   1   2
BRANCH   1  21
ATOM     21  O   UNL A   1      37.772  22.403  24.955  1.00  0.00    -0.376 OA
BRANCH  21  22
ATOM     22  C   UNL A   1      38.454  21.281  25.516  1.00  0.00     0.202 C 
BRANCH  22  23
ATOM     23  C   UNL A   1      39.732  21.524  26.328  1.00  0.00     0.261 C 
BRANCH  23  24
ATOM     24  O   UNL A   1      40.325  20.345  26.903  1.00  0.00    -0.460 OA
BRANCH  24  25
ATOM     25  C   UNL A   1      41.533  20.025  26.376  1.00  0.00     0.338 C 
ATOM     26  O   UNL A   1      41.796  19.053  25.687  1.00  0.00    -0.246 OA
BRANCH  25  27
ATOM     27  C   UNL A   1      42.539  21.071  26.630  1.00  0.00     0.060 A 
ATOM     28  C   UNL A   1      42.724  21.473  27.959  1.00  0.00     0.016 A 
ATOM     29  C   UNL A   1      43.111  21.799  25.583  1.00  0.00     0.016 A 
ATOM     30  C   UNL A   1      43.409  22.653  28.242  1.00  0.00     0.010 A 
ATOM     31  C   UNL A   1      43.791  22.991  25.869  1.00  0.00     0.010 A 
ATOM     32  C   UNL A   1      43.888  23.452  27.194  1.00  0.00    -0.014 A 
BRANCH  32  33
ATOM     33  C   UNL A   1      44.280  24.852  27.496  1.00  0.00     0.031 A 
ATOM     34  C   UNL A   1      45.717  25.265  27.291  1.00  0.00     0.074 A 
ATOM     35  C   UNL A   1      43.367  25.768  27.864  1.00  0.00     0.049 A 
ATOM     36  N   UNL A   1      46.261  26.451  27.397  1.00  0.00    -0.248 NA
ATOM     37  C   UNL A   1      46.661  24.202  26.911  1.00  0.00     0.031 C 
ATOM     38  C   UNL A   1      41.941  25.513  28.062  1.00  0.00     0.029 A 
ATOM     39  N   UNL A   1      43.510  27.109  28.122  1.00  0.00    -0.354 N 
ATOM     40  C   UNL A   1      47.608  26.276  27.095  1.00  0.00     0.074 A 
ATOM     41  C   UNL A   1      47.803  24.867  26.832  1.00  0.00     0.031 C 
ATOM     42  C   UNL A   1      41.337  26.665  28.402  1.00  0.00     0.029 A 
ATOM     43  C   UNL A   1      42.334  27.735  28.458  1.00  0.00     0.049 A 
ATOM     44  H   UNL A   1      44.373  27.579  28.070  1.00  0.00     0.167 HD
ATOM     45  C   UNL A   1      48.595  27.203  27.033  1.00  0.00     0.031 A 
ATOM     46  C   UNL A   1      42.088  29.021  28.772  1.00  0.00     0.031 A 
ATOM     47  C   UNL A   1      48.414  28.603  27.303  1.00  0.00     0.049 A 
ATOM     48  C   UNL A   1      43.209  30.027  28.739  1.00  0.00     0.074 A 
ATOM     49  C   UNL A   1      49.353  29.619  27.253  1.00  0.00     0.029 A 
ATOM     50  N   UNL A   1      47.214  29.186  27.677  1.00  0.00    -0.354 N 
ATOM     51  N   UNL A   1      44.469  29.848  28.423  1.00  0.00    -0.248 NA
ATOM     52  C   UNL A   1      42.867  31.413  29.093  1.00  0.00     0.031 C 
ATOM     53  C   UNL A   1      48.729  30.811  27.637  1.00  0.00     0.029 A 
ATOM     54  C   UNL A   1      47.391  30.544  27.881  1.00  0.00     0.049 A 
ATOM     55  H   UNL A   1      46.361  28.706  27.782  1.00  0.00     0.167 HD
ATOM     56  C   UNL A   1      45.061  31.104  28.507  1.00  0.00     0.074 A 
ATOM     57  C   UNL A   1      44.023  32.034  28.901  1.00  0.00     0.031 C 
ATOM     58  C   UNL A   1      46.350  31.458  28.272  1.00  0.00     0.031 A 
BRANCH  45  59
ATOM     59  C   UNL A   1      49.974  26.714  26.685  1.00  0.00    -0.014 A 
ATOM     60  C   UNL A   1      50.361  26.518  25.347  1.00  0.00     0.010 A 
ATOM     61  C   UNL A   1      50.903  26.462  27.711  1.00  0.00     0.010 A 
ATOM     62  C   UNL A   1      51.638  26.040  25.043  1.00  0.00     0.020 A 
ATOM     63  C   UNL A   1      52.187  26.003  27.410  1.00  0.00     0.020 A 
ATOM     64  C   UNL A   1      52.541  25.776  26.078  1.00  0.00     0.054 A 
BRANCH  64  65
ATOM     65  S   UNL A   1      54.194  25.159  25.662  1.00  0.00     0.124 S 
ATOM     66  O   UNL A   1      54.791  26.319  25.004  1.00  0.00    -0.237 OA
ATOM     67  O   UNL A   1      54.753  24.821  26.967  1.00  0.00    -0.237 OA
ATOM     68  O   UNL A   1      53.928  24.018  24.788  1.00  0.00    -0.744 OA
ENDBRANCH  64  65
ENDBRANCH  45  59
BRANCH  46  69
ATOM     69  C   UNL A   1      40.711  29.441  29.143  1.00  0.00    -0.014 A 
ATOM     70  C   UNL A   1      39.741  29.678  28.154  1.00  0.00     0.010 A 
ATOM     71  C   UNL A   1      40.369  29.612  30.497  1.00  0.00     0.010 A 
ATOM     72  C   UNL A   1      38.454  30.092  28.512  1.00  0.00     0.020 A 
ATOM     73  C   UNL A   1      39.079  30.005  30.859  1.00  0.00     0.020 A 
ATOM     74  C   UNL A   1      38.132  30.253  29.863  1.00  0.00     0.054 A 
BRANCH  74  75
ATOM     75  S   UNL A   1      36.442  30.734  30.317  1.00  0.00     0.124 S 
ATOM     76  O   UNL A   1      36.125  29.774  31.368  1.00  0.00    -0.237 OA
ATOM     77  O   UNL A   1      36.610  32.120  30.750  1.00  0.00    -0.237 OA
ATOM     78  O   UNL A   1      35.700  30.568  29.068  1.00  0.00    -0.744 OA
ENDBRANCH  74  75
ENDBRANCH  46  69
BRANCH  58  79
ATOM     79  C   UNL A   1      46.702  32.916  28.395  1.00  0.00    -0.014 A 
ATOM     80  C   UNL A   1      46.579  33.791  27.300  1.00  0.00     0.010 A 
ATOM     81  C   UNL A   1      47.126  33.426  29.635  1.00  0.00     0.010 A 
ATOM     82  C   UNL A   1      46.911  35.142  27.436  1.00  0.00     0.020 A 
ATOM     83  C   UNL A   1      47.438  34.780  29.780  1.00  0.00     0.020 A 
ATOM     84  C   UNL A   1      47.344  35.627  28.674  1.00  0.00     0.054 A 
BRANCH  84  85
ATOM     85  S   UNL A   1      47.745  37.389  28.838  1.00  0.00     0.124 S 
ATOM     86  O   UNL A   1      49.165  37.409  28.497  1.00  0.00    -0.237 OA
ATOM     87  O   UNL A   1      46.855  38.017  27.865  1.00  0.00    -0.237 OA
ATOM     88  O   UNL A   1      47.434  37.684  30.235  1.00  0.00    -0.744 OA
ENDBRANCH  84  85
ENDBRANCH  58  79
ENDBRANCH  32  33
ENDBRANCH  25  27
ENDBRANCH  24  25
ENDBRANCH  23  24
ENDBRANCH  22  23
ENDBRANCH  21  22
ENDBRANCH   1  21
TORSDOF 23
ENDMDL
MODEL 2
REMARK VINA RESULT:      -9.3      3.705      5.027
REMARK SMILES O=C(/C=C/c1ccc(O)c(O)c1)OCCOCCOCCOC(=O)c1ccc(-c2c3nc(c(-c4ccc(S(=O)(=O)[O-])cc4)c4ccc([nH]4)c(-c4ccc(S(=O)(=O)[O-])cc4)c4nc(c(-c5ccc(S(=O)(=O)[O-])cc5)c5ccc2[nH]5)C=C4)C=C3)cc1
REMARK SMILES IDX 18 1 17 2 16 3 15 4 14 5 13 6 2 7 1 8 3 9 4 10 5 11 6 12
REMARK SMILES IDX 12 13 7 14 10 15 8 16 11 17 9 19 19 21 20 22 21 23 22 24
REMARK SMILES IDX 23 25 24 26 25 27 26 28 84 29 27 30 83 31 28 32 29 33 30 34
REMARK SMILES IDX 77 35 31 36 82 37 76 38 78 39 32 40 81 41 75 42 74 43 33 45
REMARK SMILES IDX 63 46 44 47 62 48 45 49 48 50 61 51 79 52 46 53 47 54 60 56
REMARK SMILES IDX 80 57 49 58 34 59 35 60 43 61 36 62 42 63 37 64 38 65 39 66
REMARK SMILES IDX 40 67 41 68 64 69 65 70 73 71 66 72 72 73 67 74 68 75 69 76
REMARK SMILES IDX 70 77 71 78 50 79 51 80 59 81 52 82 58 83 53 84 54 85 55 86
REMARK SMILES IDX 56 87 57 88
REMARK H PARENT 11 18 9 20 78 44 48 55
REMARK Flexibility Score: inf
ROOT
ATOM      1  C   UNL A   1      34.865  21.873  26.694  1.00  0.00     0.188 C 
ENDROOT
BRANCH   1   2
ATOM      2  C   UNL A   1      33.494  21.517  27.294  1.00  0.00     0.188 C 
BRANCH   2   3
ATOM      3  O   UNL A   1      32.528  22.473  26.921  1.00  0.00    -0.376 OA
BRANCH   3   4
ATOM      4  C   UNL A   1      31.991  22.447  25.620  1.00  0.00     0.202 C 
BRANCH   4   5
ATOM      5  C   UNL A   1      31.363  23.752  25.149  1.00  0.00     0.261 C 
BRANCH   5   6
ATOM      6  O   UNL A   1      31.895  24.458  23.998  1.00  0.00    -0.460 OA
BRANCH   6   7
ATOM      7  C   UNL A   1      32.269  25.730  23.764  1.00  0.00     0.330 C 
ATOM      8  O   UNL A   1      33.450  26.005  23.580  1.00  0.00    -0.247 OA
BRANCH   7   9
ATOM      9  C   UNL A   1      31.305  26.823  23.878  1.00  0.00     0.094 C 
ATOM     10  C   UNL A   1      30.574  27.295  22.858  1.00  0.00     0.016 C 
BRANCH  10  11
ATOM     11  C   UNL A   1      29.645  28.411  23.069  1.00  0.00    -0.021 A 
ATOM     12  C   UNL A   1      28.271  28.236  22.847  1.00  0.00     0.012 A 
ATOM     13  C   UNL A   1      30.121  29.666  23.472  1.00  0.00     0.058 A 
ATOM     14  C   UNL A   1      27.377  29.295  23.039  1.00  0.00     0.051 A 
ATOM     15  C   UNL A   1      29.229  30.713  23.651  1.00  0.00     0.157 A 
ATOM     16  C   UNL A   1      27.864  30.531  23.445  1.00  0.00     0.157 A 
BRANCH  15  17
ATOM     17  O   UNL A   1      29.703  31.936  24.035  1.00  0.00    -0.504 OA
ATOM     18  H   UNL A   1      29.133  32.679  24.039  1.00  0.00     0.293 HD
ENDBRANCH  15  17
BRANCH  16  19
ATOM     19  O   UNL A   1      27.043  31.602  23.659  1.00  0.00    -0.504 OA
ATOM     20  H   UNL A   1      26.112  31.485  23.658  1.00  0.00     0.293 HD
ENDBRANCH  16  19
ENDBRANCH  10  11
ENDBRANCH   7   9
ENDBRANCH   6   7
ENDBRANCH   5   6
ENDBRANCH   4   5
ENDBRANCH   3   4
ENDBRANCH   2   3
ENDBRANCH   1   2
BRANCH   1  21
ATOM     21  O   UNL A   1      35.251  21.266  25.463  1.00  0.00    -0.376 OA
BRANCH  21  22
ATOM     22  C   UNL A   1      36.569  20.733  25.331  1.00  0.00     0.202 C 
BRANCH  22  23
ATOM     23  C   UNL A   1      37.694  21.656  24.845  1.00  0.00     0.261 C 
BRANCH  23  24
ATOM     24  O   UNL A   1      38.356  22.409  25.877  1.00  0.00    -0.460 OA
BRANCH  24  25
ATOM     25  C   UNL A   1      38.013  23.721  25.906  1.00  0.00     0.338 C 
ATOM     26  O   UNL A   1      36.996  24.221  25.452  1.00  0.00    -0.246 OA
BRANCH  25  27
ATOM     27  C   UNL A   1      38.978  24.526  26.675  1.00  0.00     0.060 A 
ATOM     28  C   UNL A   1      38.761  24.641  28.054  1.00  0.00     0.016 A 
ATOM     29  C   UNL A   1      39.925  25.332  26.037  1.00  0.00     0.016 A 
ATOM     30  C   UNL A   1      39.426  25.622  28.785  1.00  0.00     0.010 A 
ATOM     31  C   UNL A   1      40.587  26.324  26.773  1.00  0.00     0.010 A 
ATOM     32  C   UNL A   1      40.294  26.511  28.135  1.00  0.00    -0.014 A 
BRANCH  32  33
ATOM     33  C   UNL A   1      40.700  27.750  28.847  1.00  0.00     0.031 A 
ATOM     34  C   UNL A   1      42.116  27.867  29.353  1.00  0.00     0.074 A 
ATOM     35  C   UNL A   1      39.858  28.791  28.971  1.00  0.00     0.049 A 
ATOM     36  N   UNL A   1      42.714  28.887  29.914  1.00  0.00    -0.248 NA
ATOM     37  C   UNL A   1      42.970  26.677  29.202  1.00  0.00     0.031 C 
ATOM     38  C   UNL A   1      38.476  28.826  28.494  1.00  0.00     0.029 A 
ATOM     39  N   UNL A   1      40.055  30.031  29.527  1.00  0.00    -0.354 N 
ATOM     40  C   UNL A   1      44.013  28.464  30.180  1.00  0.00     0.074 A 
ATOM     41  C   UNL A   1      44.106  27.086  29.747  1.00  0.00     0.031 C 
ATOM     42  C   UNL A   1      37.952  30.033  28.771  1.00  0.00     0.029 A 
ATOM     43  C   UNL A   1      38.955  30.850  29.454  1.00  0.00     0.049 A 
ATOM     44  H   UNL A   1      40.905  30.307  29.939  1.00  0.00     0.167 HD
ATOM     45  C   UNL A   1      45.041  29.158  30.725  1.00  0.00     0.031 A 
ATOM     46  C   UNL A   1      38.777  32.114  29.885  1.00  0.00     0.031 A 
ATOM     47  C   UNL A   1      44.956  30.524  31.168  1.00  0.00     0.049 A 
ATOM     48  C   UNL A   1      39.921  32.852  30.530  1.00  0.00     0.074 A 
ATOM     49  C   UNL A   1      45.949  31.313  31.723  1.00  0.00     0.029 A 
ATOM     50  N   UNL A   1      43.811  31.302  31.110  1.00  0.00    -0.354 N 
ATOM     51  N   UNL A   1      41.149  32.446  30.745  1.00  0.00    -0.248 NA
ATOM     52  C   UNL A   1      39.654  34.228  30.975  1.00  0.00     0.031 C 
ATOM     53  C   UNL A   1      45.392  32.558  32.038  1.00  0.00     0.029 A 
ATOM     54  C   UNL A   1      44.066  32.557  31.636  1.00  0.00     0.049 A 
ATOM     55  H   UNL A   1      42.945  31.007  30.748  1.00  0.00     0.167 HD
ATOM     56  C   UNL A   1      41.809  33.527  31.320  1.00  0.00     0.074 A 
ATOM     57  C   UNL A   1      40.847  34.605  31.417  1.00  0.00     0.031 C 
ATOM     58  C   UNL A   1      43.100  33.621  31.726  1.00  0.00     0.031 A 
BRANCH  45  59
ATOM     59  C   UNL A   1      46.345  28.429  30.901  1.00  0.00    -0.014 A 
ATOM     60  C   UNL A   1      47.429  28.658  30.035  1.00  0.00     0.010 A 
ATOM     61  C   UNL A   1      46.493  27.513  31.958  1.00  0.00     0.010 A 
ATOM     62  C   UNL A   1      48.624  27.953  30.197  1.00  0.00     0.020 A 
ATOM     63  C   UNL A   1      47.694  26.821  32.136  1.00  0.00     0.020 A 
ATOM     64  C   UNL A   1      48.745  27.031  31.243  1.00  0.00     0.054 A 
BRANCH  64  65
ATOM     65  S   UNL A   1      50.307  26.130  31.438  1.00  0.00     0.124 S 
ATOM     66  O   UNL A   1      49.922  25.055  32.349  1.00  0.00    -0.237 OA
ATOM     67  O   UNL A   1      50.617  25.716  30.073  1.00  0.00    -0.237 OA
ATOM     68  O   UNL A   1      51.214  27.128  32.002  1.00  0.00    -0.744 OA
ENDBRANCH  64  65
ENDBRANCH  45  59
BRANCH  46  69
ATOM     69  C   UNL A   1      37.455  32.773  29.717  1.00  0.00    -0.014 A 
ATOM     70  C   UNL A   1      36.512  32.766  30.760  1.00  0.00     0.010 A 
ATOM     71  C   UNL A   1      37.135  33.408  28.504  1.00  0.00     0.010 A 
ATOM     72  C   UNL A   1      35.263  33.371  30.586  1.00  0.00     0.020 A 
ATOM     73  C   UNL A   1      35.897  34.032  28.335  1.00  0.00     0.020 A 
ATOM     74  C   UNL A   1      34.965  34.001  29.374  1.00  0.00     0.054 A 
BRANCH  74  75
ATOM     75  S   UNL A   1      33.364  34.833  29.182  1.00  0.00     0.124 S 
ATOM     76  O   UNL A   1      32.842  34.804  30.544  1.00  0.00    -0.237 OA
ATOM     77  O   UNL A   1      33.746  36.148  28.675  1.00  0.00    -0.237 OA
ATOM     78  O   UNL A   1      32.659  33.985  28.221  1.00  0.00    -0.744 OA
ENDBRANCH  74  75
ENDBRANCH  46  69
BRANCH  58  79
ATOM     79  C   UNL A   1      43.560  34.945  32.274  1.00  0.00    -0.014 A 
ATOM     80  C   UNL A   1      44.063  35.950  31.428  1.00  0.00     0.010 A 
ATOM     81  C   UNL A   1      43.452  35.201  33.653  1.00  0.00     0.010 A 
ATOM     82  C   UNL A   1      44.484  37.174  31.958  1.00  0.00     0.020 A 
ATOM     83  C   UNL A   1      43.851  36.430  34.183  1.00  0.00     0.020 A 
ATOM     84  C   UNL A   1      44.381  37.403  33.334  1.00  0.00     0.054 A 
BRANCH  84  85
ATOM     85  S   UNL A   1      44.908  39.007  34.000  1.00  0.00     0.124 S 
ATOM     86  O   UNL A   1      46.038  38.627  34.842  1.00  0.00    -0.237 OA
ATOM     87  O   UNL A   1      45.246  39.763  32.797  1.00  0.00    -0.237 OA
ATOM     88  O   UNL A   1      43.728  39.486  34.716  1.00  0.00    -0.744 OA
ENDBRANCH  84  85
ENDBRANCH  58  79
ENDBRANCH  32  33
ENDBRANCH  25  27
ENDBRANCH  24  25
ENDBRANCH  23  24
ENDBRANCH  22  23
ENDBRANCH  21  22
ENDBRANCH   1  21
TORSDOF 23
ENDMDL
MODEL 3
REMARK VINA RESULT:      -9.2      1.753      2.565
REMARK SMILES O=C(/C=C/c1ccc(O)c(O)c1)OCCOCCOCCOC(=O)c1ccc(-c2c3nc(c(-c4ccc(S(=O)(=O)[O-])cc4)c4ccc([nH]4)c(-c4ccc(S(=O)(=O)[O-])cc4)c4nc(c(-c5ccc(S(=O)(=O)[O-])cc5)c5ccc2[nH]5)C=C4)C=C3)cc1
REMARK SMILES IDX 18 1 17 2 16 3 15 4 14 5 13 6 2 7 1 8 3 9 4 10 5 11 6 12
REMARK SMILES IDX 12 13 7 14 10 15 8 16 11 17 9 19 19 21 20 22 21 23 22 24
REMARK SMILES IDX 23 25 24 26 25 27 26 28 84 29 27 30 83 31 28 32 29 33 30 34
REMARK SMILES IDX 77 35 31 36 82 37 76 38 78 39 32 40 81 41 75 42 74 43 33 45
REMARK SMILES IDX 63 46 44 47 62 48 45 49 48 50 61 51 79 52 46 53 47 54 60 56
REMARK SMILES IDX 80 57 49 58 34 59 35 60 43 61 36 62 42 63 37 64 38 65 39 66
REMARK SMILES IDX 40 67 41 68 64 69 65 70 73 71 66 72 72 73 67 74 68 75 69 76
REMARK SMILES IDX 70 77 71 78 50 79 51 80 59 81 52 82 58 83 53 84 54 85 55 86
REMARK SMILES IDX 56 87 57 88
REMARK H PARENT 11 18 9 20 78 44 48 55
REMARK Flexibility Score: inf
ROOT
ATOM      1  C   UNL A   1      35.543  21.139  24.916  1.00  0.00     0.188 C 
ENDROOT
BRANCH   1   2
ATOM      2  C   UNL A   1      35.132  22.022  26.107  1.00  0.00     0.188 C 
BRANCH   2   3
ATOM      3  O   UNL A   1      33.777  21.811  26.433  1.00  0.00    -0.376 OA
BRANCH   3   4
ATOM      4  C   UNL A   1      32.774  22.193  25.522  1.00  0.00     0.202 C 
BRANCH   4   5
ATOM      5  C   UNL A   1      32.884  23.616  24.993  1.00  0.00     0.261 C 
BRANCH   5   6
ATOM      6  O   UNL A   1      32.247  24.719  25.690  1.00  0.00    -0.460 OA
BRANCH   6   7
ATOM      7  C   UNL A   1      30.971  25.059  25.945  1.00  0.00     0.330 C 
ATOM      8  O   UNL A   1      30.339  24.482  26.825  1.00  0.00    -0.247 OA
BRANCH   7   9
ATOM      9  C   UNL A   1      30.266  26.008  25.084  1.00  0.00     0.094 C 
ATOM     10  C   UNL A   1      30.868  26.965  24.364  1.00  0.00     0.016 C 
BRANCH  10  11
ATOM     11  C   UNL A   1      30.070  27.883  23.543  1.00  0.00    -0.021 A 
ATOM     12  C   UNL A   1      30.701  28.873  22.775  1.00  0.00     0.012 A 
ATOM     13  C   UNL A   1      28.670  27.795  23.534  1.00  0.00     0.058 A 
ATOM     14  C   UNL A   1      29.949  29.757  21.994  1.00  0.00     0.051 A 
ATOM     15  C   UNL A   1      27.933  28.682  22.764  1.00  0.00     0.157 A 
ATOM     16  C   UNL A   1      28.564  29.654  21.992  1.00  0.00     0.157 A 
BRANCH  15  17
ATOM     17  O   UNL A   1      26.569  28.596  22.769  1.00  0.00    -0.504 OA
ATOM     18  H   UNL A   1      26.151  27.789  22.997  1.00  0.00     0.293 HD
ENDBRANCH  15  17
BRANCH  16  19
ATOM     19  O   UNL A   1      27.774  30.480  21.244  1.00  0.00    -0.504 OA
ATOM     20  H   UNL A   1      28.136  31.259  20.868  1.00  0.00     0.293 HD
ENDBRANCH  16  19
ENDBRANCH  10  11
ENDBRANCH   7   9
ENDBRANCH   6   7
ENDBRANCH   5   6
ENDBRANCH   4   5
ENDBRANCH   3   4
ENDBRANCH   2   3
ENDBRANCH   1   2
BRANCH   1  21
ATOM     21  O   UNL A   1      36.778  20.430  24.985  1.00  0.00    -0.376 OA
BRANCH  21  22
ATOM     22  C   UNL A   1      37.963  21.128  25.369  1.00  0.00     0.202 C 
BRANCH  22  23
ATOM     23  C   UNL A   1      39.256  20.331  25.575  1.00  0.00     0.261 C 
BRANCH  23  24
ATOM     24  O   UNL A   1      39.994  20.659  26.766  1.00  0.00    -0.460 OA
BRANCH  24  25
ATOM     25  C   UNL A   1      41.125  21.371  26.533  1.00  0.00     0.338 C 
ATOM     26  O   UNL A   1      42.022  21.085  25.756  1.00  0.00    -0.246 OA
BRANCH  25  27
ATOM     27  C   UNL A   1      41.129  22.652  27.261  1.00  0.00     0.060 A 
ATOM     28  C   UNL A   1      40.580  23.762  26.606  1.00  0.00     0.016 A 
ATOM     29  C   UNL A   1      41.855  22.815  28.444  1.00  0.00     0.016 A 
ATOM     30  C   UNL A   1      40.828  25.046  27.083  1.00  0.00     0.010 A 
ATOM     31  C   UNL A   1      42.111  24.109  28.918  1.00  0.00     0.010 A 
ATOM     32  C   UNL A   1      41.650  25.230  28.205  1.00  0.00    -0.014 A 
BRANCH  32  33
ATOM     33  C   UNL A   1      42.189  26.588  28.472  1.00  0.00     0.031 A 
ATOM     34  C   UNL A   1      43.620  26.888  28.101  1.00  0.00     0.074 A 
ATOM     35  C   UNL A   1      41.404  27.567  28.954  1.00  0.00     0.049 A 
ATOM     36  N   UNL A   1      44.269  28.023  28.154  1.00  0.00    -0.248 NA
ATOM     37  C   UNL A   1      44.422  25.759  27.601  1.00  0.00     0.031 C 
ATOM     38  C   UNL A   1      39.995  27.424  29.317  1.00  0.00     0.029 A 
ATOM     39  N   UNL A   1      41.686  28.887  29.206  1.00  0.00    -0.354 N 
ATOM     40  C   UNL A   1      45.552  27.746  27.692  1.00  0.00     0.074 A 
ATOM     41  C   UNL A   1      45.598  26.331  27.394  1.00  0.00     0.031 C 
ATOM     42  C   UNL A   1      39.532  28.614  29.738  1.00  0.00     0.029 A 
ATOM     43  C   UNL A   1      40.613  29.598  29.686  1.00  0.00     0.049 A 
ATOM     44  H   UNL A   1      42.573  29.286  29.057  1.00  0.00     0.167 HD
ATOM     45  C   UNL A   1      46.598  28.591  27.522  1.00  0.00     0.031 A 
ATOM     46  C   UNL A   1      40.513  30.894  30.039  1.00  0.00     0.031 A 
ATOM     47  C   UNL A   1      46.566  29.996  27.825  1.00  0.00     0.049 A 
ATOM     48  C   UNL A   1      41.702  31.807  29.884  1.00  0.00     0.074 A 
ATOM     49  C   UNL A   1      47.574  30.934  27.674  1.00  0.00     0.029 A 
ATOM     50  N   UNL A   1      45.471  30.666  28.346  1.00  0.00    -0.354 N 
ATOM     51  N   UNL A   1      42.896  31.533  29.418  1.00  0.00    -0.248 NA
ATOM     52  C   UNL A   1      41.518  33.209  30.289  1.00  0.00     0.031 C 
ATOM     53  C   UNL A   1      47.099  32.164  28.142  1.00  0.00     0.029 A 
ATOM     54  C   UNL A   1      45.782  32.001  28.540  1.00  0.00     0.049 A 
ATOM     55  H   UNL A   1      44.600  30.254  28.546  1.00  0.00     0.167 HD
ATOM     56  C   UNL A   1      43.596  32.736  29.444  1.00  0.00     0.074 A 
ATOM     57  C   UNL A   1      42.691  33.738  29.967  1.00  0.00     0.031 C 
ATOM     58  C   UNL A   1      44.873  32.989  29.061  1.00  0.00     0.031 A 
BRANCH  45  59
ATOM     59  C   UNL A   1      47.882  27.999  27.008  1.00  0.00    -0.014 A 
ATOM     60  C   UNL A   1      48.901  27.594  27.889  1.00  0.00     0.010 A 
ATOM     61  C   UNL A   1      48.066  27.832  25.624  1.00  0.00     0.010 A 
ATOM     62  C   UNL A   1      50.097  27.070  27.392  1.00  0.00     0.020 A 
ATOM     63  C   UNL A   1      49.252  27.289  25.124  1.00  0.00     0.020 A 
ATOM     64  C   UNL A   1      50.269  26.930  26.011  1.00  0.00     0.054 A 
BRANCH  64  65
ATOM     65  S   UNL A   1      51.828  26.244  25.388  1.00  0.00     0.124 S 
ATOM     66  O   UNL A   1      51.653  26.365  23.943  1.00  0.00    -0.237 OA
ATOM     67  O   UNL A   1      52.830  27.128  25.976  1.00  0.00    -0.237 OA
ATOM     68  O   UNL A   1      51.833  24.876  25.901  1.00  0.00    -0.744 OA
ENDBRANCH  64  65
ENDBRANCH  45  59
BRANCH  46  69
ATOM     69  C   UNL A   1      39.228  31.417  30.576  1.00  0.00    -0.014 A 
ATOM     70  C   UNL A   1      38.929  31.318  31.946  1.00  0.00     0.010 A 
ATOM     71  C   UNL A   1      38.295  32.013  29.709  1.00  0.00     0.010 A 
ATOM     72  C   UNL A   1      37.710  31.794  32.438  1.00  0.00     0.020 A 
ATOM     73  C   UNL A   1      37.086  32.510  30.201  1.00  0.00     0.020 A 
ATOM     74  C   UNL A   1      36.796  32.387  31.562  1.00  0.00     0.054 A 
BRANCH  74  75
ATOM     75  S   UNL A   1      35.244  33.053  32.223  1.00  0.00     0.124 S 
ATOM     76  O   UNL A   1      35.334  32.690  33.633  1.00  0.00    -0.237 OA
ATOM     77  O   UNL A   1      35.354  34.479  31.924  1.00  0.00    -0.237 OA
ATOM     78  O   UNL A   1      34.221  32.344  31.455  1.00  0.00    -0.744 OA
ENDBRANCH  74  75
ENDBRANCH  46  69
BRANCH  58  79
ATOM     79  C   UNL A   1      45.356  34.411  29.155  1.00  0.00    -0.014 A 
ATOM     80  C   UNL A   1      44.905  35.396  28.257  1.00  0.00     0.010 A 
ATOM     81  C   UNL A   1      46.246  34.775  30.182  1.00  0.00     0.010 A 
ATOM     82  C   UNL A   1      45.366  36.711  28.364  1.00  0.00     0.020 A 
ATOM     83  C   UNL A   1      46.692  36.093  30.304  1.00  0.00     0.020 A 
ATOM     84  C   UNL A   1      46.262  37.050  29.382  1.00  0.00     0.054 A 
BRANCH  84  85
ATOM     85  S   UNL A   1      46.829  38.768  29.520  1.00  0.00     0.124 S 
ATOM     86  O   UNL A   1      48.013  38.765  28.667  1.00  0.00    -0.237 OA
ATOM     87  O   UNL A   1      45.689  39.528  29.012  1.00  0.00    -0.237 OA
ATOM     88  O   UNL A   1      47.088  38.931  30.949  1.00  0.00    -0.744 OA
ENDBRANCH  84  85
ENDBRANCH  58  79
ENDBRANCH  32  33
ENDBRANCH  25  27
ENDBRANCH  24  25
ENDBRANCH  23  24
ENDBRANCH  22  23
ENDBRANCH  21  22
ENDBRANCH   1  21
TORSDOF 23
ENDMDL
