MODEL 1
REMARK VINA RESULT:      -5.2      0.000      0.000
REMARK SMILES CCCCCCNC(=O)Oc1cccc(-c2ccc([C@H](C)C(=O)OCCOCCOCCOC(=O)c3ccc(-c4c5nc(c(-c6ccc(S(=O)(=O)[O-])cc6)c6ccc([nH]6)c(-c6ccc(S(=O)(=O)[O-])cc6)c6nc(c(-c7ccc(S(=O)(=O)[O-])cc7)c7ccc4[nH]7)C=C6)C=C5)cc3)cc2F)c1
REMARK SMILES IDX 25 1 24 2 22 3 23 4 20 5 21 6 19 7 16 8 17 9 97 10 18 11
REMARK SMILES IDX 96 12 98 13 15 14 11 15 12 16 99 17 13 18 14 19 10 20 8 21
REMARK SMILES IDX 7 22 9 24 6 25 5 26 4 27 3 28 2 29 1 30 26 31 27 32 28 33
REMARK SMILES IDX 29 34 30 35 31 36 32 37 33 38 34 39 35 40 36 41 37 42 95 43
REMARK SMILES IDX 38 44 94 45 39 46 40 47 41 48 88 49 42 50 93 51 87 52 89 53
REMARK SMILES IDX 43 54 92 55 86 56 85 57 44 59 74 60 55 61 73 62 56 63 59 64
REMARK SMILES IDX 72 65 90 66 57 67 58 68 71 70 91 71 60 72 45 73 46 74 54 75
REMARK SMILES IDX 47 76 53 77 48 78 49 79 50 80 51 81 52 82 75 83 76 84 84 85
REMARK SMILES IDX 77 86 83 87 78 88 79 89 80 90 81 91 82 92 61 93 62 94 70 95
REMARK SMILES IDX 63 96 69 97 64 98 65 99 66 100 67 101 68 102
REMARK H PARENT 7 23 89 58 59 69
REMARK Flexibility Score: inf
ROOT
ATOM      1  C   UNL A   1      37.555  29.031  30.141  1.00  0.00     0.261 C 
ENDROOT
BRANCH   1   2
ATOM      2  O   UNL A   1      38.830  29.267  29.505  1.00  0.00    -0.463 OA
BRANCH   2   3
ATOM      3  C   UNL A   1      39.899  28.652  30.077  1.00  0.00     0.313 C 
ATOM      4  O   UNL A   1      40.231  27.496  29.834  1.00  0.00    -0.252 OA
BRANCH   3   5
ATOM      5  C   UNL A   1      40.645  29.501  31.123  1.00  0.00     0.126 C 
ATOM      6  C   UNL A   1      41.510  28.871  32.225  1.00  0.00     0.025 C 
BRANCH   5   7
ATOM      7  C   UNL A   1      41.513  30.472  30.372  1.00  0.00    -0.031 A 
ATOM      8  C   UNL A   1      43.124  32.247  28.969  1.00  0.00     0.018 A 
ATOM      9  C   UNL A   1      43.371  30.871  28.893  1.00  0.00     0.012 A 
ATOM     10  C   UNL A   1      42.065  32.715  29.759  1.00  0.00     0.131 A 
ATOM     11  C   UNL A   1      42.570  29.987  29.588  1.00  0.00     0.005 A 
ATOM     12  C   UNL A   1      41.257  31.840  30.456  1.00  0.00     0.044 A 
ATOM     13  F   UNL A   1      41.823  34.031  29.865  1.00  0.00    -0.206 F 
BRANCH   8  14
ATOM     14  C   UNL A   1      44.003  33.166  28.268  1.00  0.00    -0.012 A 
ATOM     15  C   UNL A   1      44.735  35.420  27.854  1.00  0.00     0.133 A 
ATOM     16  C   UNL A   1      45.736  34.958  27.004  1.00  0.00     0.047 A 
ATOM     17  C   UNL A   1      43.851  34.540  28.462  1.00  0.00     0.056 A 
ATOM     18  C   UNL A   1      45.884  33.589  26.795  1.00  0.00     0.004 A 
ATOM     19  C   UNL A   1      45.025  32.695  27.433  1.00  0.00     0.009 A 
BRANCH  15  20
ATOM     20  O   UNL A   1      44.578  36.802  27.989  1.00  0.00    -0.410 OA
BRANCH  20  21
ATOM     21  C   UNL A   1      43.798  37.461  27.055  1.00  0.00     0.412 C 
ATOM     22  N   UNL A   1      44.332  38.651  26.665  1.00  0.00    -0.321 N 
ATOM     23  H   UNL A   1      43.810  39.189  26.027  1.00  0.00     0.167 HD
ATOM     24  O   UNL A   1      42.722  37.072  26.594  1.00  0.00    -0.224 OA
BRANCH  22  25
ATOM     25  C   UNL A   1      45.599  39.194  27.107  1.00  0.00     0.119 C 
BRANCH  25  26
ATOM     26  C   UNL A   1      46.737  38.824  26.160  1.00  0.00     0.021 C 
BRANCH  26  27
ATOM     27  C   UNL A   1      46.766  39.631  24.858  1.00  0.00     0.002 C 
BRANCH  27  28
ATOM     28  C   UNL A   1      46.870  41.150  25.036  1.00  0.00    -0.000 C 
BRANCH  28  29
ATOM     29  C   UNL A   1      45.849  41.969  24.244  1.00  0.00    -0.003 C 
ATOM     30  C   UNL A   1      44.520  42.126  24.967  1.00  0.00     0.004 C 
ENDBRANCH  28  29
ENDBRANCH  27  28
ENDBRANCH  26  27
ENDBRANCH  25  26
ENDBRANCH  22  25
ENDBRANCH  20  21
ENDBRANCH  15  20
ENDBRANCH   8  14
ENDBRANCH   5   7
ENDBRANCH   3   5
ENDBRANCH   2   3
ENDBRANCH   1   2
BRANCH   1  31
ATOM     31  C   UNL A   1      36.668  30.268  30.371  1.00  0.00     0.202 C 
BRANCH  31  32
ATOM     32  O   UNL A   1      37.157  31.358  31.140  1.00  0.00    -0.376 OA
BRANCH  32  33
ATOM     33  C   UNL A   1      36.255  32.179  31.869  1.00  0.00     0.188 C 
BRANCH  33  34
ATOM     34  C   UNL A   1      36.433  32.324  33.385  1.00  0.00     0.188 C 
BRANCH  34  35
ATOM     35  O   UNL A   1      36.608  33.638  33.851  1.00  0.00    -0.376 OA
BRANCH  35  36
ATOM     36  C   UNL A   1      36.167  33.944  35.157  1.00  0.00     0.202 C 
BRANCH  36  37
ATOM     37  C   UNL A   1      36.707  33.148  36.358  1.00  0.00     0.261 C 
BRANCH  37  38
ATOM     38  O   UNL A   1      38.122  33.202  36.613  1.00  0.00    -0.460 OA
BRANCH  38  39
ATOM     39  C   UNL A   1      38.879  32.162  36.184  1.00  0.00     0.338 C 
ATOM     40  O   UNL A   1      38.569  30.985  36.199  1.00  0.00    -0.246 OA
BRANCH  39  41
ATOM     41  C   UNL A   1      40.045  32.726  35.453  1.00  0.00     0.060 A 
ATOM     42  C   UNL A   1      39.904  33.087  34.103  1.00  0.00     0.016 A 
ATOM     43  C   UNL A   1      41.263  32.927  36.104  1.00  0.00     0.016 A 
ATOM     44  C   UNL A   1      40.984  33.629  33.398  1.00  0.00     0.010 A 
ATOM     45  C   UNL A   1      42.350  33.443  35.390  1.00  0.00     0.010 A 
ATOM     46  C   UNL A   1      42.227  33.774  34.027  1.00  0.00    -0.014 A 
BRANCH  46  47
ATOM     47  C   UNL A   1      43.445  34.089  33.236  1.00  0.00     0.031 A 
ATOM     48  C   UNL A   1      43.784  35.537  32.992  1.00  0.00     0.074 A 
ATOM     49  C   UNL A   1      44.229  33.124  32.723  1.00  0.00     0.049 A 
ATOM     50  N   UNL A   1      44.728  36.057  32.251  1.00  0.00    -0.248 NA
ATOM     51  C   UNL A   1      42.937  36.527  33.676  1.00  0.00     0.031 C 
ATOM     52  C   UNL A   1      44.053  31.689  32.928  1.00  0.00     0.029 A 
ATOM     53  N   UNL A   1      45.330  33.215  31.905  1.00  0.00    -0.354 N 
ATOM     54  C   UNL A   1      44.575  37.435  32.360  1.00  0.00     0.074 A 
ATOM     55  C   UNL A   1      43.434  37.667  33.220  1.00  0.00     0.031 C 
ATOM     56  C   UNL A   1      45.006  31.031  32.242  1.00  0.00     0.029 A 
ATOM     57  C   UNL A   1      45.830  31.995  31.514  1.00  0.00     0.049 A 
ATOM     58  H   UNL A   1      45.723  34.073  31.624  1.00  0.00     0.167 HD
ATOM     59  C   UNL A   1      45.313  38.419  31.794  1.00  0.00     0.031 A 
ATOM     60  C   UNL A   1      46.817  31.690  30.646  1.00  0.00     0.031 A 
ATOM     61  C   UNL A   1      46.432  38.189  30.918  1.00  0.00     0.049 A 
ATOM     62  C   UNL A   1      47.566  32.801  29.950  1.00  0.00     0.074 A 
ATOM     63  C   UNL A   1      47.255  39.120  30.309  1.00  0.00     0.029 A 
ATOM     64  N   UNL A   1      46.876  36.939  30.512  1.00  0.00    -0.354 N 
ATOM     65  N   UNL A   1      47.427  34.098  30.079  1.00  0.00    -0.248 NA
ATOM     66  C   UNL A   1      48.607  32.400  28.992  1.00  0.00     0.031 C 
ATOM     67  C   UNL A   1      48.148  38.438  29.478  1.00  0.00     0.029 A 
ATOM     68  C   UNL A   1      47.935  37.076  29.629  1.00  0.00     0.049 A 
ATOM     69  H   UNL A   1      46.495  36.080  30.808  1.00  0.00     0.167 HD
ATOM     70  C   UNL A   1      48.381  34.669  29.239  1.00  0.00     0.074 A 
ATOM     71  C   UNL A   1      49.099  33.574  28.620  1.00  0.00     0.031 C 
ATOM     72  C   UNL A   1      48.639  35.981  29.006  1.00  0.00     0.031 A 
BRANCH  59  73
ATOM     73  C   UNL A   1      44.890  39.842  32.063  1.00  0.00    -0.014 A 
ATOM     74  C   UNL A   1      45.439  40.585  33.124  1.00  0.00     0.010 A 
ATOM     75  C   UNL A   1      43.931  40.448  31.230  1.00  0.00     0.010 A 
ATOM     76  C   UNL A   1      44.994  41.886  33.382  1.00  0.00     0.020 A 
ATOM     77  C   UNL A   1      43.510  41.760  31.463  1.00  0.00     0.020 A 
ATOM     78  C   UNL A   1      44.028  42.462  32.552  1.00  0.00     0.054 A 
BRANCH  78  79
ATOM     79  S   UNL A   1      43.467  44.149  32.912  1.00  0.00     0.124 S 
ATOM     80  O   UNL A   1      43.680  44.234  34.355  1.00  0.00    -0.237 OA
ATOM     81  O   UNL A   1      44.363  44.964  32.097  1.00  0.00    -0.237 OA
ATOM     82  O   UNL A   1      42.069  44.149  32.489  1.00  0.00    -0.744 OA
ENDBRANCH  78  79
ENDBRANCH  59  73
BRANCH  60  83
ATOM     83  C   UNL A   1      47.149  30.264  30.371  1.00  0.00    -0.014 A 
ATOM     84  C   UNL A   1      46.504  29.566  29.335  1.00  0.00     0.010 A 
ATOM     85  C   UNL A   1      48.123  29.597  31.137  1.00  0.00     0.010 A 
ATOM     86  C   UNL A   1      46.824  28.231  29.070  1.00  0.00     0.020 A 
ATOM     87  C   UNL A   1      48.468  28.271  30.857  1.00  0.00     0.020 A 
ATOM     88  C   UNL A   1      47.813  27.595  29.827  1.00  0.00     0.054 A 
BRANCH  88  89
ATOM     89  S   UNL A   1      48.264  25.887  29.411  1.00  0.00     0.124 S 
ATOM     90  O   UNL A   1      49.171  26.076  28.284  1.00  0.00    -0.237 OA
ATOM     91  O   UNL A   1      48.883  25.417  30.649  1.00  0.00    -0.237 OA
ATOM     92  O   UNL A   1      46.984  25.263  29.086  1.00  0.00    -0.744 OA
ENDBRANCH  88  89
ENDBRANCH  60  83
BRANCH  72  93
ATOM     93  C   UNL A   1      49.767  36.317  28.061  1.00  0.00    -0.014 A 
ATOM     94  C   UNL A   1      49.522  36.667  26.721  1.00  0.00     0.010 A 
ATOM     95  C   UNL A   1      51.091  36.340  28.540  1.00  0.00     0.010 A 
ATOM     96  C   UNL A   1      50.581  37.001  25.871  1.00  0.00     0.020 A 
ATOM     97  C   UNL A   1      52.148  36.706  27.702  1.00  0.00     0.020 A 
ATOM     98  C   UNL A   1      51.888  37.021  26.368  1.00  0.00     0.054 A 
BRANCH  98  99
ATOM     99  S   UNL A   1      53.238  37.501  25.255  1.00  0.00     0.124 S 
ATOM    100  O   UNL A   1      52.769  36.993  23.969  1.00  0.00    -0.237 OA
ATOM    101  O   UNL A   1      53.259  38.956  25.387  1.00  0.00    -0.237 OA
ATOM    102  O   UNL A   1      54.405  36.815  25.807  1.00  0.00    -0.744 OA
ENDBRANCH  98  99
ENDBRANCH  72  93
ENDBRANCH  46  47
ENDBRANCH  39  41
ENDBRANCH  38  39
ENDBRANCH  37  38
ENDBRANCH  36  37
ENDBRANCH  35  36
ENDBRANCH  34  35
ENDBRANCH  33  34
ENDBRANCH  32  33
ENDBRANCH  31  32
ENDBRANCH   1  31
TORSDOF 29
ENDMDL
MODEL 2
REMARK VINA RESULT:      -4.6      5.045     12.254
REMARK SMILES CCCCCCNC(=O)Oc1cccc(-c2ccc([C@H](C)C(=O)OCCOCCOCCOC(=O)c3ccc(-c4c5nc(c(-c6ccc(S(=O)(=O)[O-])cc6)c6ccc([nH]6)c(-c6ccc(S(=O)(=O)[O-])cc6)c6nc(c(-c7ccc(S(=O)(=O)[O-])cc7)c7ccc4[nH]7)C=C6)C=C5)cc3)cc2F)c1
REMARK SMILES IDX 25 1 24 2 22 3 23 4 20 5 21 6 19 7 16 8 17 9 97 10 18 11
REMARK SMILES IDX 96 12 98 13 15 14 11 15 12 16 99 17 13 18 14 19 10 20 8 21
REMARK SMILES IDX 7 22 9 24 6 25 5 26 4 27 3 28 2 29 1 30 26 31 27 32 28 33
REMARK SMILES IDX 29 34 30 35 31 36 32 37 33 38 34 39 35 40 36 41 37 42 95 43
REMARK SMILES IDX 38 44 94 45 39 46 40 47 41 48 88 49 42 50 93 51 87 52 89 53
REMARK SMILES IDX 43 54 92 55 86 56 85 57 44 59 74 60 55 61 73 62 56 63 59 64
REMARK SMILES IDX 72 65 90 66 57 67 58 68 71 70 91 71 60 72 45 73 46 74 54 75
REMARK SMILES IDX 47 76 53 77 48 78 49 79 50 80 51 81 52 82 75 83 76 84 84 85
REMARK SMILES IDX 77 86 83 87 78 88 79 89 80 90 81 91 82 92 61 93 62 94 70 95
REMARK SMILES IDX 63 96 69 97 64 98 65 99 66 100 67 101 68 102
REMARK H PARENT 7 23 89 58 59 69
REMARK Flexibility Score: inf
ROOT
ATOM      1  C   UNL A   1      47.670  34.694  39.130  1.00  0.00     0.261 C 
ENDROOT
BRANCH   1   2
ATOM      2  O   UNL A   1      46.388  34.595  38.472  1.00  0.00    -0.463 OA
BRANCH   2   3
ATOM      3  C   UNL A   1      45.941  35.732  37.875  1.00  0.00     0.313 C 
ATOM      4  O   UNL A   1      46.678  36.628  37.477  1.00  0.00    -0.252 OA
BRANCH   3   5
ATOM      5  C   UNL A   1      44.408  35.852  37.787  1.00  0.00     0.126 C 
ATOM      6  C   UNL A   1      43.658  37.117  38.232  1.00  0.00     0.025 C 
BRANCH   5   7
ATOM      7  C   UNL A   1      44.021  35.579  36.361  1.00  0.00    -0.031 A 
ATOM      8  C   UNL A   1      43.302  35.048  33.730  1.00  0.00     0.018 A 
ATOM      9  C   UNL A   1      43.827  34.026  34.530  1.00  0.00     0.012 A 
ATOM     10  C   UNL A   1      43.150  36.334  34.267  1.00  0.00     0.131 A 
ATOM     11  C   UNL A   1      44.182  34.287  35.839  1.00  0.00     0.005 A 
ATOM     12  C   UNL A   1      43.500  36.606  35.574  1.00  0.00     0.044 A 
ATOM     13  F   UNL A   1      42.671  37.336  33.512  1.00  0.00    -0.206 F 
BRANCH   8  14
ATOM     14  C   UNL A   1      42.975  34.768  32.344  1.00  0.00    -0.012 A 
ATOM     15  C   UNL A   1      43.701  34.234  30.114  1.00  0.00     0.133 A 
ATOM     16  C   UNL A   1      42.379  34.139  29.686  1.00  0.00     0.047 A 
ATOM     17  C   UNL A   1      44.006  34.575  31.423  1.00  0.00     0.056 A 
ATOM     18  C   UNL A   1      41.346  34.344  30.597  1.00  0.00     0.004 A 
ATOM     19  C   UNL A   1      41.643  34.649  31.924  1.00  0.00     0.009 A 
BRANCH  15  20
ATOM     20  O   UNL A   1      44.709  34.085  29.157  1.00  0.00    -0.410 OA
BRANCH  20  21
ATOM     21  C   UNL A   1      44.492  34.610  27.896  1.00  0.00     0.412 C 
ATOM     22  N   UNL A   1      44.384  33.651  26.935  1.00  0.00    -0.321 N 
ATOM     23  H   UNL A   1      44.263  33.958  26.007  1.00  0.00     0.167 HD
ATOM     24  O   UNL A   1      44.405  35.805  27.605  1.00  0.00    -0.224 OA
BRANCH  22  25
ATOM     25  C   UNL A   1      44.433  32.221  27.159  1.00  0.00     0.119 C 
BRANCH  25  26
ATOM     26  C   UNL A   1      45.867  31.712  27.268  1.00  0.00     0.021 C 
BRANCH  26  27
ATOM     27  C   UNL A   1      46.037  30.482  28.165  1.00  0.00     0.002 C 
BRANCH  27  28
ATOM     28  C   UNL A   1      45.810  30.730  29.661  1.00  0.00    -0.000 C 
BRANCH  28  29
ATOM     29  C   UNL A   1      46.854  30.106  30.590  1.00  0.00    -0.003 C 
ATOM     30  C   UNL A   1      47.159  28.655  30.254  1.00  0.00     0.004 C 
ENDBRANCH  28  29
ENDBRANCH  27  28
ENDBRANCH  26  27
ENDBRANCH  25  26
ENDBRANCH  22  25
ENDBRANCH  20  21
ENDBRANCH  15  20
ENDBRANCH   8  14
ENDBRANCH   5   7
ENDBRANCH   3   5
ENDBRANCH   2   3
ENDBRANCH   1   2
BRANCH   1  31
ATOM     31  C   UNL A   1      48.544  33.428  39.113  1.00  0.00     0.202 C 
BRANCH  31  32
ATOM     32  O   UNL A   1      48.553  32.588  37.966  1.00  0.00    -0.376 OA
BRANCH  32  33
ATOM     33  C   UNL A   1      49.772  32.314  37.291  1.00  0.00     0.188 C 
BRANCH  33  34
ATOM     34  C   UNL A   1      50.488  30.983  37.549  1.00  0.00     0.188 C 
BRANCH  34  35
ATOM     35  O   UNL A   1      51.457  30.622  36.596  1.00  0.00    -0.376 OA
BRANCH  35  36
ATOM     36  C   UNL A   1      51.042  29.852  35.486  1.00  0.00     0.202 C 
BRANCH  36  37
ATOM     37  C   UNL A   1      50.954  28.320  35.602  1.00  0.00     0.261 C 
BRANCH  37  38
ATOM     38  O   UNL A   1      49.679  27.704  35.350  1.00  0.00    -0.460 OA
BRANCH  38  39
ATOM     39  C   UNL A   1      48.857  27.499  36.409  1.00  0.00     0.338 C 
ATOM     40  O   UNL A   1      49.179  27.079  37.506  1.00  0.00    -0.246 OA
BRANCH  39  41
ATOM     41  C   UNL A   1      47.545  28.120  36.086  1.00  0.00     0.060 A 
ATOM     42  C   UNL A   1      46.366  27.381  36.281  1.00  0.00     0.016 A 
ATOM     43  C   UNL A   1      47.474  29.434  35.622  1.00  0.00     0.016 A 
ATOM     44  C   UNL A   1      45.119  27.947  35.994  1.00  0.00     0.010 A 
ATOM     45  C   UNL A   1      46.229  29.989  35.309  1.00  0.00     0.010 A 
ATOM     46  C   UNL A   1      45.046  29.243  35.468  1.00  0.00    -0.014 A 
BRANCH  46  47
ATOM     47  C   UNL A   1      43.771  29.762  34.906  1.00  0.00     0.031 A 
ATOM     48  C   UNL A   1      43.396  29.369  33.501  1.00  0.00     0.074 A 
ATOM     49  C   UNL A   1      42.967  30.581  35.607  1.00  0.00     0.049 A 
ATOM     50  N   UNL A   1      42.397  29.774  32.761  1.00  0.00    -0.248 NA
ATOM     51  C   UNL A   1      44.275  28.388  32.844  1.00  0.00     0.031 C 
ATOM     52  C   UNL A   1      43.176  30.996  36.992  1.00  0.00     0.029 A 
ATOM     53  N   UNL A   1      41.811  31.224  35.234  1.00  0.00    -0.354 N 
ATOM     54  C   UNL A   1      42.539  29.117  31.544  1.00  0.00     0.074 A 
ATOM     55  C   UNL A   1      43.732  28.305  31.639  1.00  0.00     0.031 C 
ATOM     56  C   UNL A   1      42.187  31.835  37.349  1.00  0.00     0.029 A 
ATOM     57  C   UNL A   1      41.301  32.053  36.205  1.00  0.00     0.049 A 
ATOM     58  H   UNL A   1      41.388  31.104  34.353  1.00  0.00     0.167 HD
ATOM     59  C   UNL A   1      41.750  29.184  30.445  1.00  0.00     0.031 A 
ATOM     60  C   UNL A   1      40.260  32.911  36.168  1.00  0.00     0.031 A 
ATOM     61  C   UNL A   1      40.576  30.011  30.342  1.00  0.00     0.049 A 
ATOM     62  C   UNL A   1      39.451  33.044  34.902  1.00  0.00     0.074 A 
ATOM     63  C   UNL A   1      39.701  30.134  29.277  1.00  0.00     0.029 A 
ATOM     64  N   UNL A   1      40.121  30.870  31.333  1.00  0.00    -0.354 N 
ATOM     65  N   UNL A   1      39.580  32.401  33.766  1.00  0.00    -0.248 NA
ATOM     66  C   UNL A   1      38.351  34.021  34.916  1.00  0.00     0.031 C 
ATOM     67  C   UNL A   1      38.761  31.121  29.595  1.00  0.00     0.029 A 
ATOM     68  C   UNL A   1      39.003  31.555  30.889  1.00  0.00     0.049 A 
ATOM     69  H   UNL A   1      40.534  30.976  32.221  1.00  0.00     0.167 HD
ATOM     70  C   UNL A   1      38.563  32.875  32.941  1.00  0.00     0.074 A 
ATOM     71  C   UNL A   1      37.819  33.848  33.714  1.00  0.00     0.031 C 
ATOM     72  C   UNL A   1      38.272  32.532  31.661  1.00  0.00     0.031 A 
BRANCH  59  73
ATOM     73  C   UNL A   1      42.171  28.378  29.242  1.00  0.00    -0.014 A 
ATOM     74  C   UNL A   1      42.890  28.957  28.181  1.00  0.00     0.010 A 
ATOM     75  C   UNL A   1      41.846  27.009  29.180  1.00  0.00     0.010 A 
ATOM     76  C   UNL A   1      43.226  28.199  27.055  1.00  0.00     0.020 A 
ATOM     77  C   UNL A   1      42.212  26.239  28.072  1.00  0.00     0.020 A 
ATOM     78  C   UNL A   1      42.879  26.845  27.007  1.00  0.00     0.054 A 
BRANCH  78  79
ATOM     79  S   UNL A   1      43.323  25.886  25.533  1.00  0.00     0.124 S 
ATOM     80  O   UNL A   1      42.060  25.861  24.799  1.00  0.00    -0.237 OA
ATOM     81  O   UNL A   1      44.382  26.695  24.933  1.00  0.00    -0.237 OA
ATOM     82  O   UNL A   1      43.755  24.599  26.071  1.00  0.00    -0.744 OA
ENDBRANCH  78  79
ENDBRANCH  59  73
BRANCH  60  83
ATOM     83  C   UNL A   1      39.930  33.729  37.369  1.00  0.00    -0.014 A 
ATOM     84  C   UNL A   1      40.623  34.923  37.634  1.00  0.00     0.010 A 
ATOM     85  C   UNL A   1      38.909  33.325  38.250  1.00  0.00     0.010 A 
ATOM     86  C   UNL A   1      40.304  35.697  38.754  1.00  0.00     0.020 A 
ATOM     87  C   UNL A   1      38.566  34.110  39.355  1.00  0.00     0.020 A 
ATOM     88  C   UNL A   1      39.270  35.290  39.603  1.00  0.00     0.054 A 
BRANCH  88  89
ATOM     89  S   UNL A   1      38.824  36.351  41.005  1.00  0.00     0.124 S 
ATOM     90  O   UNL A   1      37.693  35.633  41.585  1.00  0.00    -0.237 OA
ATOM     91  O   UNL A   1      40.050  36.349  41.801  1.00  0.00    -0.237 OA
ATOM     92  O   UNL A   1      38.498  37.630  40.379  1.00  0.00    -0.744 OA
ENDBRANCH  88  89
ENDBRANCH  60  83
BRANCH  72  93
ATOM     93  C   UNL A   1      37.077  33.189  31.013  1.00  0.00    -0.014 A 
ATOM     94  C   UNL A   1      37.157  33.753  29.727  1.00  0.00     0.010 A 
ATOM     95  C   UNL A   1      35.837  33.188  31.680  1.00  0.00     0.010 A 
ATOM     96  C   UNL A   1      36.029  34.332  29.136  1.00  0.00     0.020 A 
ATOM     97  C   UNL A   1      34.700  33.736  31.079  1.00  0.00     0.020 A 
ATOM     98  C   UNL A   1      34.807  34.317  29.815  1.00  0.00     0.054 A 
BRANCH  98  99
ATOM     99  S   UNL A   1      33.350  35.036  29.007  1.00  0.00     0.124 S 
ATOM    100  O   UNL A   1      32.327  34.892  30.037  1.00  0.00    -0.237 OA
ATOM    101  O   UNL A   1      33.780  36.405  28.733  1.00  0.00    -0.237 OA
ATOM    102  O   UNL A   1      33.162  34.201  27.822  1.00  0.00    -0.744 OA
ENDBRANCH  98  99
ENDBRANCH  72  93
ENDBRANCH  46  47
ENDBRANCH  39  41
ENDBRANCH  38  39
ENDBRANCH  37  38
ENDBRANCH  36  37
ENDBRANCH  35  36
ENDBRANCH  34  35
ENDBRANCH  33  34
ENDBRANCH  32  33
ENDBRANCH  31  32
ENDBRANCH   1  31
TORSDOF 29
ENDMDL
MODEL 3
REMARK VINA RESULT:      -4.1      4.161      7.046
REMARK SMILES CCCCCCNC(=O)Oc1cccc(-c2ccc([C@H](C)C(=O)OCCOCCOCCOC(=O)c3ccc(-c4c5nc(c(-c6ccc(S(=O)(=O)[O-])cc6)c6ccc([nH]6)c(-c6ccc(S(=O)(=O)[O-])cc6)c6nc(c(-c7ccc(S(=O)(=O)[O-])cc7)c7ccc4[nH]7)C=C6)C=C5)cc3)cc2F)c1
REMARK SMILES IDX 25 1 24 2 22 3 23 4 20 5 21 6 19 7 16 8 17 9 97 10 18 11
REMARK SMILES IDX 96 12 98 13 15 14 11 15 12 16 99 17 13 18 14 19 10 20 8 21
REMARK SMILES IDX 7 22 9 24 6 25 5 26 4 27 3 28 2 29 1 30 26 31 27 32 28 33
REMARK SMILES IDX 29 34 30 35 31 36 32 37 33 38 34 39 35 40 36 41 37 42 95 43
REMARK SMILES IDX 38 44 94 45 39 46 40 47 41 48 88 49 42 50 93 51 87 52 89 53
REMARK SMILES IDX 43 54 92 55 86 56 85 57 44 59 74 60 55 61 73 62 56 63 59 64
REMARK SMILES IDX 72 65 90 66 57 67 58 68 71 70 91 71 60 72 45 73 46 74 54 75
REMARK SMILES IDX 47 76 53 77 48 78 49 79 50 80 51 81 52 82 75 83 76 84 84 85
REMARK SMILES IDX 77 86 83 87 78 88 79 89 80 90 81 91 82 92 61 93 62 94 70 95
REMARK SMILES IDX 63 96 69 97 64 98 65 99 66 100 67 101 68 102
REMARK H PARENT 7 23 89 58 59 69
REMARK Flexibility Score: inf
ROOT
ATOM      1  C   UNL A   1      37.579  31.748  30.942  1.00  0.00     0.261 C 
ENDROOT
BRANCH   1   2
ATOM      2  O   UNL A   1      38.525  31.824  29.854  1.00  0.00    -0.463 OA
BRANCH   2   3
ATOM      3  C   UNL A   1      39.169  30.666  29.548  1.00  0.00     0.313 C 
ATOM      4  O   UNL A   1      40.336  30.435  29.849  1.00  0.00    -0.252 OA
BRANCH   3   5
ATOM      5  C   UNL A   1      38.337  29.666  28.724  1.00  0.00     0.126 C 
ATOM      6  C   UNL A   1      37.389  30.116  27.603  1.00  0.00     0.025 C 
BRANCH   5   7
ATOM      7  C   UNL A   1      39.295  28.673  28.129  1.00  0.00    -0.031 A 
ATOM      8  C   UNL A   1      41.080  26.856  27.020  1.00  0.00     0.018 A 
ATOM      9  C   UNL A   1      41.002  28.157  26.510  1.00  0.00     0.012 A 
ATOM     10  C   UNL A   1      40.250  26.482  28.085  1.00  0.00     0.131 A 
ATOM     11  C   UNL A   1      40.117  29.063  27.061  1.00  0.00     0.005 A 
ATOM     12  C   UNL A   1      39.363  27.379  28.645  1.00  0.00     0.044 A 
ATOM     13  F   UNL A   1      40.290  25.233  28.576  1.00  0.00    -0.206 F 
BRANCH   8  14
ATOM     14  C   UNL A   1      41.984  25.903  26.400  1.00  0.00    -0.012 A 
ATOM     15  C   UNL A   1      44.087  25.440  25.330  1.00  0.00     0.133 A 
ATOM     16  C   UNL A   1      43.784  24.082  25.280  1.00  0.00     0.047 A 
ATOM     17  C   UNL A   1      43.187  26.355  25.857  1.00  0.00     0.056 A 
ATOM     18  C   UNL A   1      42.579  23.627  25.809  1.00  0.00     0.004 A 
ATOM     19  C   UNL A   1      41.685  24.534  26.375  1.00  0.00     0.009 A 
BRANCH  15  20
ATOM     20  O   UNL A   1      45.277  25.867  24.733  1.00  0.00    -0.410 OA
BRANCH  20  21
ATOM     21  C   UNL A   1      46.431  25.845  25.496  1.00  0.00     0.412 C 
ATOM     22  N   UNL A   1      47.094  27.034  25.487  1.00  0.00    -0.321 N 
ATOM     23  H   UNL A   1      47.944  27.078  25.983  1.00  0.00     0.167 HD
ATOM     24  O   UNL A   1      46.872  24.883  26.129  1.00  0.00    -0.224 OA
BRANCH  22  25
ATOM     25  C   UNL A   1      46.658  28.239  24.813  1.00  0.00     0.119 C 
BRANCH  25  26
ATOM     26  C   UNL A   1      46.175  29.299  25.800  1.00  0.00     0.021 C 
BRANCH  26  27
ATOM     27  C   UNL A   1      46.649  29.086  27.241  1.00  0.00     0.002 C 
BRANCH  27  28
ATOM     28  C   UNL A   1      45.560  28.646  28.226  1.00  0.00    -0.000 C 
BRANCH  28  29
ATOM     29  C   UNL A   1      44.143  29.107  27.878  1.00  0.00    -0.003 C 
ATOM     30  C   UNL A   1      43.698  30.322  28.678  1.00  0.00     0.004 C 
ENDBRANCH  28  29
ENDBRANCH  27  28
ENDBRANCH  26  27
ENDBRANCH  25  26
ENDBRANCH  22  25
ENDBRANCH  20  21
ENDBRANCH  15  20
ENDBRANCH   8  14
ENDBRANCH   5   7
ENDBRANCH   3   5
ENDBRANCH   2   3
ENDBRANCH   1   2
BRANCH   1  31
ATOM     31  C   UNL A   1      36.314  32.613  30.808  1.00  0.00     0.202 C 
BRANCH  31  32
ATOM     32  O   UNL A   1      35.832  33.344  31.928  1.00  0.00    -0.376 OA
BRANCH  32  33
ATOM     33  C   UNL A   1      35.710  32.711  33.194  1.00  0.00     0.188 C 
BRANCH  33  34
ATOM     34  C   UNL A   1      36.578  33.197  34.360  1.00  0.00     0.188 C 
BRANCH  34  35
ATOM     35  O   UNL A   1      37.895  32.705  34.382  1.00  0.00    -0.376 OA
BRANCH  35  36
ATOM     36  C   UNL A   1      38.269  31.854  35.445  1.00  0.00     0.202 C 
BRANCH  36  37
ATOM     37  C   UNL A   1      37.802  32.163  36.878  1.00  0.00     0.261 C 
BRANCH  37  38
ATOM     38  O   UNL A   1      38.813  32.401  37.874  1.00  0.00    -0.460 OA
BRANCH  38  39
ATOM     39  C   UNL A   1      39.004  33.679  38.286  1.00  0.00     0.338 C 
ATOM     40  O   UNL A   1      38.608  34.172  39.326  1.00  0.00    -0.246 OA
BRANCH  39  41
ATOM     41  C   UNL A   1      39.999  34.302  37.373  1.00  0.00     0.060 A 
ATOM     42  C   UNL A   1      41.300  33.775  37.309  1.00  0.00     0.016 A 
ATOM     43  C   UNL A   1      39.643  35.379  36.561  1.00  0.00     0.016 A 
ATOM     44  C   UNL A   1      42.251  34.337  36.450  1.00  0.00     0.010 A 
ATOM     45  C   UNL A   1      40.604  35.958  35.723  1.00  0.00     0.010 A 
ATOM     46  C   UNL A   1      41.919  35.459  35.680  1.00  0.00    -0.014 A 
BRANCH  46  47
ATOM     47  C   UNL A   1      42.973  36.232  34.973  1.00  0.00     0.031 A 
ATOM     48  C   UNL A   1      43.668  37.342  35.719  1.00  0.00     0.074 A 
ATOM     49  C   UNL A   1      43.301  35.982  33.693  1.00  0.00     0.049 A 
ATOM     50  N   UNL A   1      44.539  38.217  35.288  1.00  0.00    -0.248 NA
ATOM     51  C   UNL A   1      43.326  37.481  37.144  1.00  0.00     0.031 C 
ATOM     52  C   UNL A   1      42.753  34.905  32.872  1.00  0.00     0.029 A 
ATOM     53  N   UNL A   1      44.173  36.634  32.855  1.00  0.00    -0.354 N 
ATOM     54  C   UNL A   1      44.832  39.026  36.381  1.00  0.00     0.074 A 
ATOM     55  C   UNL A   1      44.029  38.549  37.487  1.00  0.00     0.031 C 
ATOM     56  C   UNL A   1      43.293  34.979  31.642  1.00  0.00     0.029 A 
ATOM     57  C   UNL A   1      44.188  36.134  31.574  1.00  0.00     0.049 A 
ATOM     58  H   UNL A   1      44.734  37.390  33.144  1.00  0.00     0.167 HD
ATOM     59  C   UNL A   1      45.688  40.072  36.458  1.00  0.00     0.031 A 
ATOM     60  C   UNL A   1      44.825  36.573  30.469  1.00  0.00     0.031 A 
ATOM     61  C   UNL A   1      46.468  40.561  35.352  1.00  0.00     0.049 A 
ATOM     62  C   UNL A   1      45.701  37.799  30.553  1.00  0.00     0.074 A 
ATOM     63  C   UNL A   1      47.379  41.604  35.335  1.00  0.00     0.029 A 
ATOM     64  N   UNL A   1      46.419  40.054  34.062  1.00  0.00    -0.354 N 
ATOM     65  N   UNL A   1      45.988  38.540  31.596  1.00  0.00    -0.248 NA
ATOM     66  C   UNL A   1      46.340  38.245  29.305  1.00  0.00     0.031 C 
ATOM     67  C   UNL A   1      47.824  41.775  34.020  1.00  0.00     0.029 A 
ATOM     68  C   UNL A   1      47.252  40.788  33.232  1.00  0.00     0.049 A 
ATOM     69  H   UNL A   1      45.873  39.286  33.777  1.00  0.00     0.167 HD
ATOM     70  C   UNL A   1      46.862  39.523  31.136  1.00  0.00     0.074 A 
ATOM     71  C   UNL A   1      47.067  39.272  29.725  1.00  0.00     0.031 C 
ATOM     72  C   UNL A   1      47.443  40.539  31.823  1.00  0.00     0.031 A 
BRANCH  59  73
ATOM     73  C   UNL A   1      45.780  40.794  37.779  1.00  0.00    -0.014 A 
ATOM     74  C   UNL A   1      44.887  41.827  38.118  1.00  0.00     0.010 A 
ATOM     75  C   UNL A   1      46.775  40.421  38.703  1.00  0.00     0.010 A 
ATOM     76  C   UNL A   1      45.025  42.513  39.329  1.00  0.00     0.020 A 
ATOM     77  C   UNL A   1      46.892  41.080  39.930  1.00  0.00     0.020 A 
ATOM     78  C   UNL A   1      46.030  42.138  40.225  1.00  0.00     0.054 A 
BRANCH  78  79
ATOM     79  S   UNL A   1      46.188  43.047  41.787  1.00  0.00     0.124 S 
ATOM     80  O   UNL A   1      47.485  42.584  42.273  1.00  0.00    -0.237 OA
ATOM     81  O   UNL A   1      46.142  44.440  41.351  1.00  0.00    -0.237 OA
ATOM     82  O   UNL A   1      45.036  42.602  42.567  1.00  0.00    -0.744 OA
ENDBRANCH  78  79
ENDBRANCH  59  73
BRANCH  60  83
ATOM     83  C   UNL A   1      44.647  35.855  29.176  1.00  0.00    -0.014 A 
ATOM     84  C   UNL A   1      43.740  36.330  28.213  1.00  0.00     0.010 A 
ATOM     85  C   UNL A   1      45.395  34.696  28.893  1.00  0.00     0.010 A 
ATOM     86  C   UNL A   1      43.583  35.663  26.994  1.00  0.00     0.020 A 
ATOM     87  C   UNL A   1      45.263  34.042  27.664  1.00  0.00     0.020 A 
ATOM     88  C   UNL A   1      44.353  34.528  26.723  1.00  0.00     0.054 A 
BRANCH  88  89
ATOM     89  S   UNL A   1      44.185  33.727  25.104  1.00  0.00     0.124 S 
ATOM     90  O   UNL A   1      42.942  34.305  24.604  1.00  0.00    -0.237 OA
ATOM     91  O   UNL A   1      45.403  34.152  24.417  1.00  0.00    -0.237 OA
ATOM     92  O   UNL A   1      44.126  32.304  25.430  1.00  0.00    -0.744 OA
ENDBRANCH  88  89
ENDBRANCH  60  83
BRANCH  72  93
ATOM     93  C   UNL A   1      48.385  41.447  31.070  1.00  0.00    -0.014 A 
ATOM     94  C   UNL A   1      47.944  42.656  30.505  1.00  0.00     0.010 A 
ATOM     95  C   UNL A   1      49.749  41.110  30.980  1.00  0.00     0.010 A 
ATOM     96  C   UNL A   1      48.842  43.494  29.835  1.00  0.00     0.020 A 
ATOM     97  C   UNL A   1      50.656  41.961  30.340  1.00  0.00     0.020 A 
ATOM     98  C   UNL A   1      50.193  43.142  29.760  1.00  0.00     0.054 A 
BRANCH  98  99
ATOM     99  S   UNL A   1      51.343  44.269  28.924  1.00  0.00     0.124 S 
ATOM    100  O   UNL A   1      52.019  44.906  30.050  1.00  0.00    -0.237 OA
ATOM    101  O   UNL A   1      52.164  43.357  28.131  1.00  0.00    -0.237 OA
ATOM    102  O   UNL A   1      50.469  45.145  28.146  1.00  0.00    -0.744 OA
ENDBRANCH  98  99
ENDBRANCH  72  93
ENDBRANCH  46  47
ENDBRANCH  39  41
ENDBRANCH  38  39
ENDBRANCH  37  38
ENDBRANCH  36  37
ENDBRANCH  35  36
ENDBRANCH  34  35
ENDBRANCH  33  34
ENDBRANCH  32  33
ENDBRANCH  31  32
ENDBRANCH   1  31
TORSDOF 29
ENDMDL
