MODEL 1
REMARK VINA RESULT:     -11.3      0.000      0.000
REMARK SMILES O=C(OCCOCCOCCOC(=O)C1(n2ccnc2)CCN(C(=O)[C@@H]2CC(=O)N(C3CC3)C2)CC1)c1ccc(-c2c3nc(c(-c4ccc(S(=O)(=O)[O-])cc4)c4ccc([nH]4)c(-c4ccc(S(=O)(=O)[O-])cc4)c4nc(c(-c5ccc(S(=O)(=O)[O-])cc5)c5ccc2[nH]5)C=C4)C=C3)cc1
REMARK SMILES IDX 7 1 6 2 5 3 4 4 3 5 2 6 1 7 37 8 38 9 96 10 39 11 95 12
REMARK SMILES IDX 40 13 41 14 42 15 89 16 43 17 94 18 88 19 90 20 44 21 93 22
REMARK SMILES IDX 87 23 86 24 45 26 75 27 56 28 74 29 57 30 60 31 73 32 91 33
REMARK SMILES IDX 58 34 59 35 72 37 92 38 61 39 46 40 47 41 55 42 48 43 54 44
REMARK SMILES IDX 49 45 50 46 51 47 52 48 53 49 76 50 77 51 85 52 78 53 84 54
REMARK SMILES IDX 79 55 80 56 81 57 82 58 83 59 62 60 63 61 71 62 64 63 70 64
REMARK SMILES IDX 65 65 66 66 67 67 68 68 69 69 8 70 9 71 10 72 11 73 12 74
REMARK SMILES IDX 13 75 14 76 15 77 21 78 36 79 22 80 35 81 23 82 24 83 25 84
REMARK SMILES IDX 16 85 17 86 20 87 18 88 19 89 26 90 27 91 34 92 28 93 30 94
REMARK SMILES IDX 29 95 31 96 32 97 33 98
REMARK H PARENT 90 25 60 36
REMARK Flexibility Score: inf
ROOT
ATOM      1  C   UNL A   1      33.714  33.066  27.773  1.00  0.00     0.188 C 
ENDROOT
BRANCH   1   2
ATOM      2  O   UNL A   1      34.072  34.030  28.742  1.00  0.00    -0.376 OA
BRANCH   2   3
ATOM      3  C   UNL A   1      33.284  35.183  28.979  1.00  0.00     0.202 C 
BRANCH   3   4
ATOM      4  C   UNL A   1      32.995  35.635  30.401  1.00  0.00     0.261 C 
BRANCH   4   5
ATOM      5  O   UNL A   1      33.428  34.695  31.382  1.00  0.00    -0.460 OA
BRANCH   5   6
ATOM      6  C   UNL A   1      34.646  34.614  31.959  1.00  0.00     0.338 C 
ATOM      7  O   UNL A   1      34.997  35.502  32.733  1.00  0.00    -0.246 OA
BRANCH   6   8
ATOM      8  C   UNL A   1      35.673  33.636  31.509  1.00  0.00     0.060 A 
ATOM      9  C   UNL A   1      35.526  32.246  31.450  1.00  0.00     0.016 A 
ATOM     10  C   UNL A   1      36.938  34.193  31.277  1.00  0.00     0.016 A 
ATOM     11  C   UNL A   1      36.627  31.426  31.185  1.00  0.00     0.010 A 
ATOM     12  C   UNL A   1      38.037  33.378  31.060  1.00  0.00     0.010 A 
ATOM     13  C   UNL A   1      37.894  31.991  31.058  1.00  0.00    -0.014 A 
BRANCH  13  14
ATOM     14  C   UNL A   1      39.082  31.139  31.037  1.00  0.00     0.031 A 
ATOM     15  C   UNL A   1      39.798  30.907  32.316  1.00  0.00     0.074 A 
ATOM     16  C   UNL A   1      39.381  30.356  29.979  1.00  0.00     0.049 A 
ATOM     17  N   UNL A   1      40.905  31.411  32.756  1.00  0.00    -0.248 NA
ATOM     18  C   UNL A   1      39.134  30.023  33.276  1.00  0.00     0.031 C 
ATOM     19  C   UNL A   1      38.572  30.136  28.776  1.00  0.00     0.029 A 
ATOM     20  N   UNL A   1      40.422  29.490  29.818  1.00  0.00    -0.354 N 
ATOM     21  C   UNL A   1      41.184  30.710  33.933  1.00  0.00     0.074 A 
ATOM     22  C   UNL A   1      39.949  30.086  34.327  1.00  0.00     0.031 C 
ATOM     23  C   UNL A   1      39.042  29.055  28.115  1.00  0.00     0.029 A 
ATOM     24  C   UNL A   1      40.265  28.606  28.757  1.00  0.00     0.049 A 
ATOM     25  H   UNL A   1      41.216  29.493  30.400  1.00  0.00     0.167 HD
ATOM     26  C   UNL A   1      42.454  30.403  34.329  1.00  0.00     0.031 A 
ATOM     27  C   UNL A   1      41.069  27.563  28.439  1.00  0.00     0.031 A 
ATOM     28  C   UNL A   1      43.447  31.099  33.551  1.00  0.00     0.049 A 
ATOM     29  C   UNL A   1      42.376  27.790  29.098  1.00  0.00     0.074 A 
ATOM     30  C   UNL A   1      43.699  32.414  33.219  1.00  0.00     0.029 A 
ATOM     31  N   UNL A   1      44.170  30.339  32.661  1.00  0.00    -0.354 N 
ATOM     32  N   UNL A   1      43.193  28.751  28.771  1.00  0.00    -0.248 NA
ATOM     33  C   UNL A   1      42.653  27.149  30.374  1.00  0.00     0.031 C 
ATOM     34  C   UNL A   1      44.173  32.371  31.874  1.00  0.00     0.029 A 
ATOM     35  C   UNL A   1      44.241  31.033  31.482  1.00  0.00     0.049 A 
ATOM     36  H   UNL A   1      44.566  29.455  32.839  1.00  0.00     0.167 HD
ATOM     37  C   UNL A   1      43.805  29.118  29.958  1.00  0.00     0.074 A 
ATOM     38  C   UNL A   1      43.555  28.003  30.865  1.00  0.00     0.031 C 
ATOM     39  C   UNL A   1      44.202  30.408  30.173  1.00  0.00     0.031 A 
BRANCH  26  40
ATOM     40  C   UNL A   1      42.822  29.151  35.111  1.00  0.00    -0.014 A 
ATOM     41  C   UNL A   1      43.682  29.272  36.224  1.00  0.00     0.010 A 
ATOM     42  C   UNL A   1      42.592  27.844  34.633  1.00  0.00     0.010 A 
ATOM     43  C   UNL A   1      44.337  28.158  36.769  1.00  0.00     0.020 A 
ATOM     44  C   UNL A   1      43.192  26.719  35.205  1.00  0.00     0.020 A 
ATOM     45  C   UNL A   1      44.097  26.889  36.241  1.00  0.00     0.054 A 
BRANCH  45  46
ATOM     46  S   UNL A   1      45.035  25.470  36.859  1.00  0.00     0.124 S 
ATOM     47  O   UNL A   1      46.332  25.676  36.220  1.00  0.00    -0.237 OA
ATOM     48  O   UNL A   1      44.999  25.675  38.304  1.00  0.00    -0.237 OA
ATOM     49  O   UNL A   1      44.271  24.322  36.378  1.00  0.00    -0.744 OA
ENDBRANCH  45  46
ENDBRANCH  26  40
BRANCH  27  50
ATOM     50  C   UNL A   1      40.750  26.308  27.722  1.00  0.00    -0.014 A 
ATOM     51  C   UNL A   1      41.685  25.733  26.841  1.00  0.00     0.010 A 
ATOM     52  C   UNL A   1      39.635  25.530  28.097  1.00  0.00     0.010 A 
ATOM     53  C   UNL A   1      41.551  24.404  26.410  1.00  0.00     0.020 A 
ATOM     54  C   UNL A   1      39.488  24.208  27.659  1.00  0.00     0.020 A 
ATOM     55  C   UNL A   1      40.464  23.643  26.841  1.00  0.00     0.054 A 
BRANCH  55  56
ATOM     56  S   UNL A   1      40.406  21.872  26.439  1.00  0.00     0.124 S 
ATOM     57  O   UNL A   1      41.584  21.705  25.593  1.00  0.00    -0.237 OA
ATOM     58  O   UNL A   1      40.481  21.244  27.756  1.00  0.00    -0.237 OA
ATOM     59  O   UNL A   1      39.124  21.715  25.754  1.00  0.00    -0.744 OA
ENDBRANCH  55  56
ENDBRANCH  27  50
BRANCH  39  60
ATOM     60  C   UNL A   1      44.345  31.331  28.982  1.00  0.00    -0.014 A 
ATOM     61  C   UNL A   1      45.159  31.055  27.867  1.00  0.00     0.010 A 
ATOM     62  C   UNL A   1      43.514  32.465  28.935  1.00  0.00     0.010 A 
ATOM     63  C   UNL A   1      45.166  31.906  26.753  1.00  0.00     0.020 A 
ATOM     64  C   UNL A   1      43.495  33.304  27.818  1.00  0.00     0.020 A 
ATOM     65  C   UNL A   1      44.331  33.026  26.736  1.00  0.00     0.054 A 
BRANCH  65  66
ATOM     66  S   UNL A   1      44.295  34.088  25.265  1.00  0.00     0.124 S 
ATOM     67  O   UNL A   1      44.284  33.117  24.174  1.00  0.00    -0.237 OA
ATOM     68  O   UNL A   1      43.060  34.849  25.442  1.00  0.00    -0.237 OA
ATOM     69  O   UNL A   1      45.519  34.880  25.378  1.00  0.00    -0.744 OA
ENDBRANCH  65  66
ENDBRANCH  39  60
ENDBRANCH  13  14
ENDBRANCH   6   8
ENDBRANCH   5   6
ENDBRANCH   4   5
ENDBRANCH   3   4
ENDBRANCH   2   3
ENDBRANCH   1   2
BRANCH   1  70
ATOM     70  C   UNL A   1      34.020  31.559  27.910  1.00  0.00     0.188 C 
BRANCH  70  71
ATOM     71  O   UNL A   1      33.597  30.569  26.990  1.00  0.00    -0.376 OA
BRANCH  71  72
ATOM     72  C   UNL A   1      34.371  29.421  26.729  1.00  0.00     0.202 C 
BRANCH  72  73
ATOM     73  C   UNL A   1      33.664  28.080  26.846  1.00  0.00     0.261 C 
BRANCH  73  74
ATOM     74  O   UNL A   1      32.770  27.811  25.758  1.00  0.00    -0.461 OA
BRANCH  74  75
ATOM     75  C   UNL A   1      31.625  27.134  26.099  1.00  0.00     0.332 C 
ATOM     76  O   UNL A   1      31.043  27.237  27.174  1.00  0.00    -0.249 OA
BRANCH  75  77
ATOM     77  C   UNL A   1      31.239  26.142  24.886  1.00  0.00     0.146 C 
ATOM     78  C   UNL A   1      31.706  25.359  23.571  1.00  0.00     0.062 C 
ATOM     79  C   UNL A   1      32.065  25.052  25.820  1.00  0.00     0.062 C 
ATOM     80  C   UNL A   1      30.957  24.032  23.446  1.00  0.00     0.122 C 
ATOM     81  C   UNL A   1      31.393  23.667  25.780  1.00  0.00     0.122 C 
ATOM     82  N   UNL A   1      31.481  23.124  24.442  1.00  0.00    -0.342 N 
ATOM     83  C   UNL A   1      32.070  21.950  24.007  1.00  0.00     0.227 C 
ATOM     84  O   UNL A   1      31.967  21.602  22.825  1.00  0.00    -0.274 OA
BRANCH  77  85
ATOM     85  N   UNL A   1      31.150  27.369  24.081  1.00  0.00    -0.320 N 
ATOM     86  C   UNL A   1      32.069  27.687  23.099  1.00  0.00     0.108 A 
ATOM     87  C   UNL A   1      30.282  28.437  24.170  1.00  0.00     0.200 A 
ATOM     88  C   UNL A   1      31.721  28.947  22.674  1.00  0.00     0.130 A 
ATOM     89  N   UNL A   1      30.606  29.394  23.329  1.00  0.00    -0.245 NA
ENDBRANCH  77  85
BRANCH  83  90
ATOM     90  C   UNL A   1      32.903  21.066  24.918  1.00  0.00     0.107 C 
ATOM     91  C   UNL A   1      34.396  21.315  24.871  1.00  0.00     0.115 C 
ATOM     92  C   UNL A   1      32.690  19.581  24.691  1.00  0.00     0.133 C 
ATOM     93  C   UNL A   1      35.008  19.935  24.803  1.00  0.00     0.223 C 
ATOM     94  N   UNL A   1      34.001  19.032  24.484  1.00  0.00    -0.339 N 
ATOM     95  O   UNL A   1      36.179  19.704  24.937  1.00  0.00    -0.275 OA
BRANCH  94  96
ATOM     96  C   UNL A   1      34.181  17.685  24.043  1.00  0.00     0.085 C 
ATOM     97  C   UNL A   1      35.017  16.754  24.891  1.00  0.00     0.027 C 
ATOM     98  C   UNL A   1      33.563  16.466  24.672  1.00  0.00     0.027 C 
ENDBRANCH  94  96
ENDBRANCH  83  90
ENDBRANCH  75  77
ENDBRANCH  74  75
ENDBRANCH  73  74
ENDBRANCH  72  73
ENDBRANCH  71  72
ENDBRANCH  70  71
ENDBRANCH   1  70
TORSDOF 23
ENDMDL
MODEL 2
REMARK VINA RESULT:     -10.9      2.329      3.513
REMARK SMILES O=C(OCCOCCOCCOC(=O)C1(n2ccnc2)CCN(C(=O)[C@@H]2CC(=O)N(C3CC3)C2)CC1)c1ccc(-c2c3nc(c(-c4ccc(S(=O)(=O)[O-])cc4)c4ccc([nH]4)c(-c4ccc(S(=O)(=O)[O-])cc4)c4nc(c(-c5ccc(S(=O)(=O)[O-])cc5)c5ccc2[nH]5)C=C4)C=C3)cc1
REMARK SMILES IDX 7 1 6 2 5 3 4 4 3 5 2 6 1 7 37 8 38 9 96 10 39 11 95 12
REMARK SMILES IDX 40 13 41 14 42 15 89 16 43 17 94 18 88 19 90 20 44 21 93 22
REMARK SMILES IDX 87 23 86 24 45 26 75 27 56 28 74 29 57 30 60 31 73 32 91 33
REMARK SMILES IDX 58 34 59 35 72 37 92 38 61 39 46 40 47 41 55 42 48 43 54 44
REMARK SMILES IDX 49 45 50 46 51 47 52 48 53 49 76 50 77 51 85 52 78 53 84 54
REMARK SMILES IDX 79 55 80 56 81 57 82 58 83 59 62 60 63 61 71 62 64 63 70 64
REMARK SMILES IDX 65 65 66 66 67 67 68 68 69 69 8 70 9 71 10 72 11 73 12 74
REMARK SMILES IDX 13 75 14 76 15 77 21 78 36 79 22 80 35 81 23 82 24 83 25 84
REMARK SMILES IDX 16 85 17 86 20 87 18 88 19 89 26 90 27 91 34 92 28 93 30 94
REMARK SMILES IDX 29 95 31 96 32 97 33 98
REMARK H PARENT 90 25 60 36
REMARK Flexibility Score: inf
ROOT
ATOM      1  C   UNL A   1      31.960  26.425  26.818  1.00  0.00     0.188 C 
ENDROOT
BRANCH   1   2
ATOM      2  O   UNL A   1      32.153  27.726  27.336  1.00  0.00    -0.376 OA
BRANCH   2   3
ATOM      3  C   UNL A   1      31.830  28.886  26.591  1.00  0.00     0.202 C 
BRANCH   3   4
ATOM      4  C   UNL A   1      32.474  30.219  26.930  1.00  0.00     0.261 C 
BRANCH   4   5
ATOM      5  O   UNL A   1      33.854  30.101  27.270  1.00  0.00    -0.460 OA
BRANCH   5   6
ATOM      6  C   UNL A   1      34.677  31.077  27.707  1.00  0.00     0.338 C 
ATOM      7  O   UNL A   1      34.440  32.241  27.390  1.00  0.00    -0.246 OA
BRANCH   6   8
ATOM      8  C   UNL A   1      35.991  30.783  28.340  1.00  0.00     0.060 A 
ATOM      9  C   UNL A   1      37.023  31.700  28.574  1.00  0.00     0.016 A 
ATOM     10  C   UNL A   1      36.231  29.422  28.569  1.00  0.00     0.016 A 
ATOM     11  C   UNL A   1      38.277  31.261  29.007  1.00  0.00     0.010 A 
ATOM     12  C   UNL A   1      37.488  28.983  28.954  1.00  0.00     0.010 A 
ATOM     13  C   UNL A   1      38.526  29.896  29.130  1.00  0.00    -0.014 A 
BRANCH  13  14
ATOM     14  C   UNL A   1      39.892  29.411  29.332  1.00  0.00     0.031 A 
ATOM     15  C   UNL A   1      40.381  29.262  30.725  1.00  0.00     0.074 A 
ATOM     16  C   UNL A   1      40.605  28.849  28.334  1.00  0.00     0.049 A 
ATOM     17  N   UNL A   1      41.186  30.008  31.411  1.00  0.00    -0.248 NA
ATOM     18  C   UNL A   1      39.830  28.140  31.486  1.00  0.00     0.031 C 
ATOM     19  C   UNL A   1      40.145  28.532  26.977  1.00  0.00     0.029 A 
ATOM     20  N   UNL A   1      41.864  28.325  28.366  1.00  0.00    -0.354 N 
ATOM     21  C   UNL A   1      41.423  29.299  32.593  1.00  0.00     0.074 A 
ATOM     22  C   UNL A   1      40.370  28.322  32.689  1.00  0.00     0.031 C 
ATOM     23  C   UNL A   1      41.028  27.694  26.392  1.00  0.00     0.029 A 
ATOM     24  C   UNL A   1      42.180  27.540  27.264  1.00  0.00     0.049 A 
ATOM     25  H   UNL A   1      42.493  28.490  29.105  1.00  0.00     0.167 HD
ATOM     26  C   UNL A   1      42.625  29.318  33.239  1.00  0.00     0.031 A 
ATOM     27  C   UNL A   1      43.297  26.796  27.087  1.00  0.00     0.031 A 
ATOM     28  C   UNL A   1      43.504  30.334  32.719  1.00  0.00     0.049 A 
ATOM     29  C   UNL A   1      44.328  27.310  28.018  1.00  0.00     0.074 A 
ATOM     30  C   UNL A   1      43.422  31.694  32.499  1.00  0.00     0.029 A 
ATOM     31  N   UNL A   1      44.575  29.895  31.976  1.00  0.00    -0.354 N 
ATOM     32  N   UNL A   1      44.878  28.486  27.911  1.00  0.00    -0.248 NA
ATOM     33  C   UNL A   1      44.526  26.649  29.298  1.00  0.00     0.031 C 
ATOM     34  C   UNL A   1      44.140  31.915  31.286  1.00  0.00     0.029 A 
ATOM     35  C   UNL A   1      44.670  30.693  30.868  1.00  0.00     0.049 A 
ATOM     36  H   UNL A   1      45.168  29.141  32.202  1.00  0.00     0.167 HD
ATOM     37  C   UNL A   1      45.114  28.891  29.214  1.00  0.00     0.074 A 
ATOM     38  C   UNL A   1      45.027  27.667  30.004  1.00  0.00     0.031 C 
ATOM     39  C   UNL A   1      45.068  30.213  29.558  1.00  0.00     0.031 A 
BRANCH  26  40
ATOM     40  C   UNL A   1      43.181  28.146  34.035  1.00  0.00    -0.014 A 
ATOM     41  C   UNL A   1      44.256  27.407  33.495  1.00  0.00     0.010 A 
ATOM     42  C   UNL A   1      42.514  27.573  35.137  1.00  0.00     0.010 A 
ATOM     43  C   UNL A   1      44.585  26.132  33.980  1.00  0.00     0.020 A 
ATOM     44  C   UNL A   1      42.871  26.331  35.668  1.00  0.00     0.020 A 
ATOM     45  C   UNL A   1      43.875  25.598  35.055  1.00  0.00     0.054 A 
BRANCH  45  46
ATOM     46  S   UNL A   1      44.215  23.905  35.599  1.00  0.00     0.124 S 
ATOM     47  O   UNL A   1      44.434  24.095  37.030  1.00  0.00    -0.237 OA
ATOM     48  O   UNL A   1      42.987  23.206  35.232  1.00  0.00    -0.237 OA
ATOM     49  O   UNL A   1      45.395  23.530  34.824  1.00  0.00    -0.744 OA
ENDBRANCH  45  46
ENDBRANCH  26  40
BRANCH  27  50
ATOM     50  C   UNL A   1      43.503  25.578  26.271  1.00  0.00    -0.014 A 
ATOM     51  C   UNL A   1      44.741  25.340  25.644  1.00  0.00     0.010 A 
ATOM     52  C   UNL A   1      42.576  24.517  26.318  1.00  0.00     0.010 A 
ATOM     53  C   UNL A   1      45.069  24.068  25.150  1.00  0.00     0.020 A 
ATOM     54  C   UNL A   1      42.891  23.249  25.814  1.00  0.00     0.020 A 
ATOM     55  C   UNL A   1      44.149  23.024  25.260  1.00  0.00     0.054 A 
BRANCH  55  56
ATOM     56  S   UNL A   1      44.658  21.342  24.799  1.00  0.00     0.124 S 
ATOM     57  O   UNL A   1      45.979  21.236  25.411  1.00  0.00    -0.237 OA
ATOM     58  O   UNL A   1      43.614  20.517  25.403  1.00  0.00    -0.237 OA
ATOM     59  O   UNL A   1      44.654  21.368  23.337  1.00  0.00    -0.744 OA
ENDBRANCH  55  56
ENDBRANCH  27  50
BRANCH  39  60
ATOM     60  C   UNL A   1      45.166  31.251  28.461  1.00  0.00    -0.014 A 
ATOM     61  C   UNL A   1      44.059  31.941  27.931  1.00  0.00     0.010 A 
ATOM     62  C   UNL A   1      46.453  31.637  28.045  1.00  0.00     0.010 A 
ATOM     63  C   UNL A   1      44.233  32.964  26.989  1.00  0.00     0.020 A 
ATOM     64  C   UNL A   1      46.636  32.673  27.125  1.00  0.00     0.020 A 
ATOM     65  C   UNL A   1      45.524  33.325  26.592  1.00  0.00     0.054 A 
BRANCH  65  66
ATOM     66  S   UNL A   1      45.746  34.692  25.422  1.00  0.00     0.124 S 
ATOM     67  O   UNL A   1      45.252  35.840  26.178  1.00  0.00    -0.237 OA
ATOM     68  O   UNL A   1      47.186  34.677  25.171  1.00  0.00    -0.237 OA
ATOM     69  O   UNL A   1      44.926  34.306  24.274  1.00  0.00    -0.744 OA
ENDBRANCH  65  66
ENDBRANCH  39  60
ENDBRANCH  13  14
ENDBRANCH   6   8
ENDBRANCH   5   6
ENDBRANCH   4   5
ENDBRANCH   3   4
ENDBRANCH   2   3
ENDBRANCH   1   2
BRANCH   1  70
ATOM     70  C   UNL A   1      30.573  25.830  26.494  1.00  0.00     0.188 C 
BRANCH  70  71
ATOM     71  O   UNL A   1      30.090  25.589  25.185  1.00  0.00    -0.376 OA
BRANCH  71  72
ATOM     72  C   UNL A   1      29.269  26.517  24.515  1.00  0.00     0.202 C 
BRANCH  72  73
ATOM     73  C   UNL A   1      29.783  27.050  23.187  1.00  0.00     0.261 C 
BRANCH  73  74
ATOM     74  O   UNL A   1      31.214  27.057  23.092  1.00  0.00    -0.461 OA
BRANCH  74  75
ATOM     75  C   UNL A   1      31.733  26.296  22.073  1.00  0.00     0.332 C 
ATOM     76  O   UNL A   1      31.224  26.167  20.965  1.00  0.00    -0.249 OA
BRANCH  75  77
ATOM     77  C   UNL A   1      33.060  25.557  22.616  1.00  0.00     0.146 C 
ATOM     78  C   UNL A   1      33.905  25.028  23.867  1.00  0.00     0.062 C 
ATOM     79  C   UNL A   1      32.002  24.297  22.806  1.00  0.00     0.062 C 
ATOM     80  C   UNL A   1      34.675  23.761  23.495  1.00  0.00     0.122 C 
ATOM     81  C   UNL A   1      32.669  22.955  22.448  1.00  0.00     0.122 C 
ATOM     82  N   UNL A   1      33.729  22.673  23.391  1.00  0.00    -0.342 N 
ATOM     83  C   UNL A   1      33.883  21.593  24.242  1.00  0.00     0.227 C 
ATOM     84  O   UNL A   1      34.911  21.476  24.920  1.00  0.00    -0.274 OA
BRANCH  77  85
ATOM     85  N   UNL A   1      33.541  26.915  22.910  1.00  0.00    -0.320 N 
ATOM     86  C   UNL A   1      33.856  27.827  21.920  1.00  0.00     0.108 A 
ATOM     87  C   UNL A   1      33.862  27.510  24.112  1.00  0.00     0.200 A 
ATOM     88  C   UNL A   1      34.379  28.912  22.583  1.00  0.00     0.130 A 
ATOM     89  N   UNL A   1      34.363  28.713  23.937  1.00  0.00    -0.245 NA
ENDBRANCH  77  85
BRANCH  83  90
ATOM     90  C   UNL A   1      32.806  20.539  24.430  1.00  0.00     0.107 C 
ATOM     91  C   UNL A   1      32.762  19.898  25.801  1.00  0.00     0.115 C 
ATOM     92  C   UNL A   1      32.867  19.414  23.413  1.00  0.00     0.133 C 
ATOM     93  C   UNL A   1      32.611  18.421  25.524  1.00  0.00     0.223 C 
ATOM     94  N   UNL A   1      32.898  18.202  24.182  1.00  0.00    -0.339 N 
ATOM     95  O   UNL A   1      32.355  17.596  26.360  1.00  0.00    -0.275 OA
BRANCH  94  96
ATOM     96  C   UNL A   1      33.156  16.938  23.567  1.00  0.00     0.085 C 
ATOM     97  C   UNL A   1      34.437  16.767  22.782  1.00  0.00     0.027 C 
ATOM     98  C   UNL A   1      34.194  15.943  24.010  1.00  0.00     0.027 C 
ENDBRANCH  94  96
ENDBRANCH  83  90
ENDBRANCH  75  77
ENDBRANCH  74  75
ENDBRANCH  73  74
ENDBRANCH  72  73
ENDBRANCH  71  72
ENDBRANCH  70  71
ENDBRANCH   1  70
TORSDOF 23
ENDMDL
MODEL 3
REMARK VINA RESULT:     -10.9      2.216      4.996
REMARK SMILES O=C(OCCOCCOCCOC(=O)C1(n2ccnc2)CCN(C(=O)[C@@H]2CC(=O)N(C3CC3)C2)CC1)c1ccc(-c2c3nc(c(-c4ccc(S(=O)(=O)[O-])cc4)c4ccc([nH]4)c(-c4ccc(S(=O)(=O)[O-])cc4)c4nc(c(-c5ccc(S(=O)(=O)[O-])cc5)c5ccc2[nH]5)C=C4)C=C3)cc1
REMARK SMILES IDX 7 1 6 2 5 3 4 4 3 5 2 6 1 7 37 8 38 9 96 10 39 11 95 12
REMARK SMILES IDX 40 13 41 14 42 15 89 16 43 17 94 18 88 19 90 20 44 21 93 22
REMARK SMILES IDX 87 23 86 24 45 26 75 27 56 28 74 29 57 30 60 31 73 32 91 33
REMARK SMILES IDX 58 34 59 35 72 37 92 38 61 39 46 40 47 41 55 42 48 43 54 44
REMARK SMILES IDX 49 45 50 46 51 47 52 48 53 49 76 50 77 51 85 52 78 53 84 54
REMARK SMILES IDX 79 55 80 56 81 57 82 58 83 59 62 60 63 61 71 62 64 63 70 64
REMARK SMILES IDX 65 65 66 66 67 67 68 68 69 69 8 70 9 71 10 72 11 73 12 74
REMARK SMILES IDX 13 75 14 76 15 77 21 78 36 79 22 80 35 81 23 82 24 83 25 84
REMARK SMILES IDX 16 85 17 86 20 87 18 88 19 89 26 90 27 91 34 92 28 93 30 94
REMARK SMILES IDX 29 95 31 96 32 97 33 98
REMARK H PARENT 90 25 60 36
REMARK Flexibility Score: inf
ROOT
ATOM      1  C   UNL A   1      31.025  26.670  26.266  1.00  0.00     0.188 C 
ENDROOT
BRANCH   1   2
ATOM      2  O   UNL A   1      31.527  27.273  27.443  1.00  0.00    -0.376 OA
BRANCH   2   3
ATOM      3  C   UNL A   1      32.008  28.605  27.455  1.00  0.00     0.202 C 
BRANCH   3   4
ATOM      4  C   UNL A   1      33.501  28.880  27.394  1.00  0.00     0.261 C 
BRANCH   4   5
ATOM      5  O   UNL A   1      33.805  30.246  27.117  1.00  0.00    -0.460 OA
BRANCH   5   6
ATOM      6  C   UNL A   1      34.382  31.142  27.945  1.00  0.00     0.338 C 
ATOM      7  O   UNL A   1      33.882  32.260  28.053  1.00  0.00    -0.246 OA
BRANCH   6   8
ATOM      8  C   UNL A   1      35.730  30.923  28.535  1.00  0.00     0.060 A 
ATOM      9  C   UNL A   1      36.838  31.770  28.410  1.00  0.00     0.016 A 
ATOM     10  C   UNL A   1      35.902  29.670  29.136  1.00  0.00     0.016 A 
ATOM     11  C   UNL A   1      38.097  31.361  28.857  1.00  0.00     0.010 A 
ATOM     12  C   UNL A   1      37.159  29.246  29.538  1.00  0.00     0.010 A 
ATOM     13  C   UNL A   1      38.267  30.072  29.358  1.00  0.00    -0.014 A 
BRANCH  13  14
ATOM     14  C   UNL A   1      39.612  29.543  29.590  1.00  0.00     0.031 A 
ATOM     15  C   UNL A   1      40.034  29.299  30.992  1.00  0.00     0.074 A 
ATOM     16  C   UNL A   1      40.356  29.023  28.592  1.00  0.00     0.049 A 
ATOM     17  N   UNL A   1      40.823  29.982  31.756  1.00  0.00    -0.248 NA
ATOM     18  C   UNL A   1      39.424  28.147  31.659  1.00  0.00     0.031 C 
ATOM     19  C   UNL A   1      39.952  28.800  27.200  1.00  0.00     0.029 A 
ATOM     20  N   UNL A   1      41.601  28.468  28.648  1.00  0.00    -0.354 N 
ATOM     21  C   UNL A   1      40.990  29.199  32.902  1.00  0.00     0.074 A 
ATOM     22  C   UNL A   1      39.913  28.244  32.892  1.00  0.00     0.031 C 
ATOM     23  C   UNL A   1      40.842  27.976  26.604  1.00  0.00     0.029 A 
ATOM     24  C   UNL A   1      41.949  27.742  27.515  1.00  0.00     0.049 A 
ATOM     25  H   UNL A   1      42.199  28.573  29.422  1.00  0.00     0.167 HD
ATOM     26  C   UNL A   1      42.162  29.150  33.601  1.00  0.00     0.031 A 
ATOM     27  C   UNL A   1      43.057  26.983  27.342  1.00  0.00     0.031 A 
ATOM     28  C   UNL A   1      43.085  30.172  33.183  1.00  0.00     0.049 A 
ATOM     29  C   UNL A   1      44.055  27.415  28.348  1.00  0.00     0.074 A 
ATOM     30  C   UNL A   1      43.043  31.544  33.043  1.00  0.00     0.029 A 
ATOM     31  N   UNL A   1      44.180  29.752  32.463  1.00  0.00    -0.354 N 
ATOM     32  N   UNL A   1      44.636  28.582  28.337  1.00  0.00    -0.248 NA
ATOM     33  C   UNL A   1      44.181  26.674  29.593  1.00  0.00     0.031 C 
ATOM     34  C   UNL A   1      43.820  31.820  31.878  1.00  0.00     0.029 A 
ATOM     35  C   UNL A   1      44.341  30.612  31.410  1.00  0.00     0.049 A 
ATOM     36  H   UNL A   1      44.745  28.972  32.668  1.00  0.00     0.167 HD
ATOM     37  C   UNL A   1      44.821  28.902  29.671  1.00  0.00     0.074 A 
ATOM     38  C   UNL A   1      44.671  27.636  30.380  1.00  0.00     0.031 C 
ATOM     39  C   UNL A   1      44.788  30.201  30.092  1.00  0.00     0.031 A 
BRANCH  26  40
ATOM     40  C   UNL A   1      42.655  27.919  34.348  1.00  0.00    -0.014 A 
ATOM     41  C   UNL A   1      42.391  27.810  35.730  1.00  0.00     0.010 A 
ATOM     42  C   UNL A   1      43.603  27.019  33.815  1.00  0.00     0.010 A 
ATOM     43  C   UNL A   1      43.095  26.910  36.542  1.00  0.00     0.020 A 
ATOM     44  C   UNL A   1      44.268  26.077  34.603  1.00  0.00     0.020 A 
ATOM     45  C   UNL A   1      44.043  26.060  35.971  1.00  0.00     0.054 A 
BRANCH  45  46
ATOM     46  S   UNL A   1      45.041  24.989  37.035  1.00  0.00     0.124 S 
ATOM     47  O   UNL A   1      45.073  23.753  36.259  1.00  0.00    -0.237 OA
ATOM     48  O   UNL A   1      46.303  25.719  37.120  1.00  0.00    -0.237 OA
ATOM     49  O   UNL A   1      44.274  24.935  38.278  1.00  0.00    -0.744 OA
ENDBRANCH  45  46
ENDBRANCH  26  40
BRANCH  27  50
ATOM     50  C   UNL A   1      43.273  25.811  26.464  1.00  0.00    -0.014 A 
ATOM     51  C   UNL A   1      44.415  25.735  25.644  1.00  0.00     0.010 A 
ATOM     52  C   UNL A   1      42.497  24.645  26.620  1.00  0.00     0.010 A 
ATOM     53  C   UNL A   1      44.808  24.520  25.063  1.00  0.00     0.020 A 
ATOM     54  C   UNL A   1      42.876  23.432  26.031  1.00  0.00     0.020 A 
ATOM     55  C   UNL A   1      44.047  23.370  25.279  1.00  0.00     0.054 A 
BRANCH  55  56
ATOM     56  S   UNL A   1      44.672  21.769  24.688  1.00  0.00     0.124 S 
ATOM     57  O   UNL A   1      43.685  20.833  25.220  1.00  0.00    -0.237 OA
ATOM     58  O   UNL A   1      44.662  21.940  23.238  1.00  0.00    -0.237 OA
ATOM     59  O   UNL A   1      46.001  21.675  25.288  1.00  0.00    -0.744 OA
ENDBRANCH  55  56
ENDBRANCH  27  50
BRANCH  39  60
ATOM     60  C   UNL A   1      44.958  31.301  29.066  1.00  0.00    -0.014 A 
ATOM     61  C   UNL A   1      43.964  31.673  28.141  1.00  0.00     0.010 A 
ATOM     62  C   UNL A   1      46.130  32.077  29.133  1.00  0.00     0.010 A 
ATOM     63  C   UNL A   1      44.151  32.769  27.286  1.00  0.00     0.020 A 
ATOM     64  C   UNL A   1      46.313  33.186  28.303  1.00  0.00     0.020 A 
ATOM     65  C   UNL A   1      45.326  33.520  27.374  1.00  0.00     0.054 A 
BRANCH  65  66
ATOM     66  S   UNL A   1      45.535  34.975  26.312  1.00  0.00     0.124 S 
ATOM     67  O   UNL A   1      46.141  34.406  25.111  1.00  0.00    -0.237 OA
ATOM     68  O   UNL A   1      44.167  35.464  26.155  1.00  0.00    -0.237 OA
ATOM     69  O   UNL A   1      46.408  35.853  27.091  1.00  0.00    -0.744 OA
ENDBRANCH  65  66
ENDBRANCH  39  60
ENDBRANCH  13  14
ENDBRANCH   6   8
ENDBRANCH   5   6
ENDBRANCH   4   5
ENDBRANCH   3   4
ENDBRANCH   2   3
ENDBRANCH   1   2
BRANCH   1  70
ATOM     70  C   UNL A   1      29.805  25.724  26.242  1.00  0.00     0.188 C 
BRANCH  70  71
ATOM     71  O   UNL A   1      29.716  24.512  26.968  1.00  0.00    -0.376 OA
BRANCH  71  72
ATOM     72  C   UNL A   1      30.479  23.381  26.620  1.00  0.00     0.202 C 
BRANCH  72  73
ATOM     73  C   UNL A   1      31.836  23.240  27.292  1.00  0.00     0.261 C 
BRANCH  73  74
ATOM     74  O   UNL A   1      32.915  23.778  26.516  1.00  0.00    -0.461 OA
BRANCH  74  75
ATOM     75  C   UNL A   1      33.874  22.868  26.143  1.00  0.00     0.332 C 
ATOM     76  O   UNL A   1      34.668  22.334  26.910  1.00  0.00    -0.249 OA
BRANCH  75  77
ATOM     77  C   UNL A   1      33.817  22.696  24.540  1.00  0.00     0.146 C 
ATOM     78  C   UNL A   1      32.927  22.620  23.213  1.00  0.00     0.062 C 
ATOM     79  C   UNL A   1      33.572  24.332  24.604  1.00  0.00     0.062 C 
ATOM     80  C   UNL A   1      33.686  23.215  22.027  1.00  0.00     0.122 C 
ATOM     81  C   UNL A   1      34.303  25.047  23.453  1.00  0.00     0.122 C 
ATOM     82  N   UNL A   1      33.721  24.652  22.188  1.00  0.00    -0.342 N 
ATOM     83  C   UNL A   1      33.127  25.431  21.212  1.00  0.00     0.227 C 
ATOM     84  O   UNL A   1      32.763  24.923  20.145  1.00  0.00    -0.274 OA
BRANCH  77  85
ATOM     85  N   UNL A   1      33.437  21.305  24.831  1.00  0.00    -0.320 N 
ATOM     86  C   UNL A   1      34.328  20.252  24.740  1.00  0.00     0.108 A 
ATOM     87  C   UNL A   1      32.208  20.757  25.130  1.00  0.00     0.200 A 
ATOM     88  C   UNL A   1      33.576  19.124  24.959  1.00  0.00     0.130 A 
ATOM     89  N   UNL A   1      32.271  19.447  25.216  1.00  0.00    -0.245 NA
ENDBRANCH  77  85
BRANCH  83  90
ATOM     90  C   UNL A   1      32.845  26.911  21.406  1.00  0.00     0.107 C 
ATOM     91  C   UNL A   1      33.699  27.599  22.450  1.00  0.00     0.115 C 
ATOM     92  C   UNL A   1      31.397  27.219  21.741  1.00  0.00     0.133 C 
ATOM     93  C   UNL A   1      32.725  28.436  23.246  1.00  0.00     0.223 C 
ATOM     94  N   UNL A   1      31.439  28.007  22.941  1.00  0.00    -0.339 N 
ATOM     95  O   UNL A   1      33.045  29.271  24.048  1.00  0.00    -0.275 OA
BRANCH  94  96
ATOM     96  C   UNL A   1      30.248  28.319  23.667  1.00  0.00     0.085 C 
ATOM     97  C   UNL A   1      29.558  29.635  23.388  1.00  0.00     0.027 C 
ATOM     98  C   UNL A   1      28.856  28.344  23.098  1.00  0.00     0.027 C 
ENDBRANCH  94  96
ENDBRANCH  83  90
ENDBRANCH  75  77
ENDBRANCH  74  75
ENDBRANCH  73  74
ENDBRANCH  72  73
ENDBRANCH  71  72
ENDBRANCH  70  71
ENDBRANCH   1  70
TORSDOF 23
ENDMDL
