MODEL 1
REMARK VINA RESULT:      -9.2      0.000      0.000
REMARK SMILES COCCC(=O)N[C@@H](Cc1c[nH]c2ccccc12)C(=O)OCCOCCOCCOC(=O)c1ccc(-c2c3nc(c(-c4ccc(S(=O)(=O)[O-])cc4)c4ccc([nH]4)c(-c4ccc(S(=O)(=O)[O-])cc4)c4nc(c(-c5ccc(S(=O)(=O)[O-])cc5)c5ccc2[nH]5)C=C4)C=C3)cc1
REMARK SMILES IDX 25 1 24 2 23 3 22 4 21 5 19 6 20 7 8 8 7 9 5 10 6 11 4 13
REMARK SMILES IDX 3 14 2 15 1 16 9 17 10 18 11 19 18 20 12 21 13 22 17 23
REMARK SMILES IDX 14 25 16 26 15 27 26 28 27 29 28 30 29 31 30 32 31 33 32 34
REMARK SMILES IDX 33 35 34 36 92 37 35 38 91 39 36 40 37 41 38 42 85 43 39 44
REMARK SMILES IDX 90 45 84 46 86 47 40 48 89 49 83 50 82 51 41 53 71 54 52 55
REMARK SMILES IDX 70 56 53 57 56 58 69 59 87 60 54 61 55 62 68 64 88 65 57 66
REMARK SMILES IDX 42 67 43 68 51 69 44 70 50 71 45 72 46 73 47 74 48 75 49 76
REMARK SMILES IDX 72 77 73 78 81 79 74 80 80 81 75 82 76 83 77 84 78 85 79 86
REMARK SMILES IDX 58 87 59 88 67 89 60 90 66 91 61 92 62 93 63 94 64 95 65 96
REMARK H PARENT 7 12 12 24 86 52 56 63
REMARK Flexibility Score: inf
ROOT
ATOM      1  C   UNL A   1      32.359  28.321  26.160  1.00  0.00     0.188 C 
ENDROOT
BRANCH   1   2
ATOM      2  O   UNL A   1      33.411  27.445  25.775  1.00  0.00    -0.376 OA
BRANCH   2   3
ATOM      3  C   UNL A   1      33.407  27.119  24.382  1.00  0.00     0.202 C 
BRANCH   3   4
ATOM      4  C   UNL A   1      34.055  25.767  24.032  1.00  0.00     0.261 C 
BRANCH   4   5
ATOM      5  O   UNL A   1      33.272  24.646  24.509  1.00  0.00    -0.462 OA
BRANCH   5   6
ATOM      6  C   UNL A   1      33.697  24.013  25.636  1.00  0.00     0.329 C 
ATOM      7  O   UNL A   1      33.032  23.920  26.662  1.00  0.00    -0.250 OA
BRANCH   6   8
ATOM      8  C   UNL A   1      35.034  23.268  25.431  1.00  0.00     0.196 C 
BRANCH   8   9
ATOM      9  N   UNL A   1      36.261  23.859  25.988  1.00  0.00    -0.342 N 
ATOM     10  C   UNL A   1      37.541  23.403  26.018  1.00  0.00     0.223 C 
ATOM     11  O   UNL A   1      38.364  24.032  26.687  1.00  0.00    -0.275 OA
ATOM     12  H   UNL A   1      36.133  24.737  26.413  1.00  0.00     0.164 HD
BRANCH  10  13
ATOM     13  C   UNL A   1      37.947  22.155  25.278  1.00  0.00     0.128 C 
BRANCH  13  14
ATOM     14  C   UNL A   1      38.950  21.360  26.098  1.00  0.00     0.169 C 
BRANCH  14  15
ATOM     15  O   UNL A   1      40.188  21.276  25.390  1.00  0.00    -0.384 OA
ATOM     16  C   UNL A   1      41.316  21.488  26.226  1.00  0.00     0.194 C 
ENDBRANCH  14  15
ENDBRANCH  13  14
ENDBRANCH  10  13
ENDBRANCH   8   9
BRANCH   8  17
ATOM     17  C   UNL A   1      34.918  21.776  25.726  1.00  0.00     0.074 C 
BRANCH  17  18
ATOM     18  C   UNL A   1      34.102  20.826  24.876  1.00  0.00    -0.020 A 
ATOM     19  C   UNL A   1      32.929  21.271  24.286  1.00  0.00     0.087 A 
ATOM     20  C   UNL A   1      34.211  19.429  24.517  1.00  0.00     0.003 A 
ATOM     21  N   UNL A   1      32.304  20.226  23.678  1.00  0.00    -0.361 N 
ATOM     22  C   UNL A   1      33.036  19.078  23.842  1.00  0.00     0.046 A 
ATOM     23  C   UNL A   1      35.151  18.390  24.694  1.00  0.00     0.010 A 
ATOM     24  H   UNL A   1      31.451  20.285  23.189  1.00  0.00     0.166 HD
ATOM     25  C   UNL A   1      32.734  17.770  23.435  1.00  0.00     0.026 A 
ATOM     26  C   UNL A   1      34.879  17.077  24.289  1.00  0.00     0.001 A 
ATOM     27  C   UNL A   1      33.671  16.768  23.686  1.00  0.00     0.002 A 
ENDBRANCH  17  18
ENDBRANCH   8  17
ENDBRANCH   6   8
ENDBRANCH   5   6
ENDBRANCH   4   5
ENDBRANCH   3   4
ENDBRANCH   2   3
ENDBRANCH   1   2
BRANCH   1  28
ATOM     28  C   UNL A   1      32.816  29.751  26.283  1.00  0.00     0.188 C 
BRANCH  28  29
ATOM     29  O   UNL A   1      33.289  30.055  27.596  1.00  0.00    -0.376 OA
BRANCH  29  30
ATOM     30  C   UNL A   1      34.157  31.185  27.635  1.00  0.00     0.202 C 
BRANCH  30  31
ATOM     31  C   UNL A   1      35.296  31.055  28.662  1.00  0.00     0.261 C 
BRANCH  31  32
ATOM     32  O   UNL A   1      35.860  29.727  28.678  1.00  0.00    -0.460 OA
BRANCH  32  33
ATOM     33  C   UNL A   1      36.702  29.458  29.711  1.00  0.00     0.338 C 
ATOM     34  O   UNL A   1      36.397  29.367  30.891  1.00  0.00    -0.246 OA
BRANCH  33  35
ATOM     35  C   UNL A   1      38.032  29.047  29.187  1.00  0.00     0.060 A 
ATOM     36  C   UNL A   1      38.867  28.301  30.033  1.00  0.00     0.016 A 
ATOM     37  C   UNL A   1      38.447  29.338  27.884  1.00  0.00     0.016 A 
ATOM     38  C   UNL A   1      40.125  27.878  29.599  1.00  0.00     0.010 A 
ATOM     39  C   UNL A   1      39.722  28.940  27.458  1.00  0.00     0.010 A 
ATOM     40  C   UNL A   1      40.580  28.238  28.326  1.00  0.00    -0.014 A 
BRANCH  40  41
ATOM     41  C   UNL A   1      42.026  28.113  28.008  1.00  0.00     0.031 A 
ATOM     42  C   UNL A   1      42.905  29.305  28.284  1.00  0.00     0.074 A 
ATOM     43  C   UNL A   1      42.567  26.980  27.523  1.00  0.00     0.049 A 
ATOM     44  N   UNL A   1      44.184  29.467  28.063  1.00  0.00    -0.248 NA
ATOM     45  C   UNL A   1      42.248  30.472  28.899  1.00  0.00     0.031 C 
ATOM     46  C   UNL A   1      41.849  25.733  27.273  1.00  0.00     0.029 A 
ATOM     47  N   UNL A   1      43.862  26.704  27.154  1.00  0.00    -0.354 N 
ATOM     48  C   UNL A   1      44.481  30.752  28.502  1.00  0.00     0.074 A 
ATOM     49  C   UNL A   1      43.248  31.335  28.982  1.00  0.00     0.031 C 
ATOM     50  C   UNL A   1      42.712  24.825  26.781  1.00  0.00     0.029 A 
ATOM     51  C   UNL A   1      44.036  25.435  26.652  1.00  0.00     0.049 A 
ATOM     52  H   UNL A   1      44.597  27.352  27.243  1.00  0.00     0.167 HD
ATOM     53  C   UNL A   1      45.673  31.396  28.507  1.00  0.00     0.031 A 
ATOM     54  C   UNL A   1      45.131  24.845  26.127  1.00  0.00     0.031 A 
ATOM     55  C   UNL A   1      46.897  30.833  28.008  1.00  0.00     0.049 A 
ATOM     56  C   UNL A   1      46.429  25.613  26.058  1.00  0.00     0.074 A 
ATOM     57  C   UNL A   1      48.153  31.411  27.962  1.00  0.00     0.029 A 
ATOM     58  N   UNL A   1      47.017  29.566  27.460  1.00  0.00    -0.354 N 
ATOM     59  N   UNL A   1      46.696  26.827  26.479  1.00  0.00    -0.248 NA
ATOM     60  C   UNL A   1      47.576  24.927  25.443  1.00  0.00     0.031 C 
ATOM     61  C   UNL A   1      49.023  30.512  27.338  1.00  0.00     0.029 A 
ATOM     62  C   UNL A   1      48.321  29.351  27.050  1.00  0.00     0.049 A 
ATOM     63  H   UNL A   1      46.284  28.914  27.376  1.00  0.00     0.167 HD
ATOM     64  C   UNL A   1      48.044  27.039  26.202  1.00  0.00     0.074 A 
ATOM     65  C   UNL A   1      48.541  25.825  25.591  1.00  0.00     0.031 C 
ATOM     66  C   UNL A   1      48.803  28.138  26.438  1.00  0.00     0.031 A 
BRANCH  53  67
ATOM     67  C   UNL A   1      45.685  32.807  29.028  1.00  0.00    -0.014 A 
ATOM     68  C   UNL A   1      46.018  33.089  30.365  1.00  0.00     0.010 A 
ATOM     69  C   UNL A   1      45.362  33.867  28.162  1.00  0.00     0.010 A 
ATOM     70  C   UNL A   1      45.984  34.403  30.839  1.00  0.00     0.020 A 
ATOM     71  C   UNL A   1      45.353  35.185  28.625  1.00  0.00     0.020 A 
ATOM     72  C   UNL A   1      45.647  35.443  29.966  1.00  0.00     0.054 A 
BRANCH  72  73
ATOM     73  S   UNL A   1      45.618  37.140  30.602  1.00  0.00     0.124 S 
ATOM     74  O   UNL A   1      44.499  37.719  29.863  1.00  0.00    -0.237 OA
ATOM     75  O   UNL A   1      45.391  36.944  32.032  1.00  0.00    -0.237 OA
ATOM     76  O   UNL A   1      46.935  37.665  30.250  1.00  0.00    -0.744 OA
ENDBRANCH  72  73
ENDBRANCH  53  67
BRANCH  54  77
ATOM     77  C   UNL A   1      45.050  23.455  25.595  1.00  0.00    -0.014 A 
ATOM     78  C   UNL A   1      44.377  23.182  24.391  1.00  0.00     0.010 A 
ATOM     79  C   UNL A   1      45.637  22.390  26.303  1.00  0.00     0.010 A 
ATOM     80  C   UNL A   1      44.282  21.870  23.912  1.00  0.00     0.020 A 
ATOM     81  C   UNL A   1      45.566  21.082  25.815  1.00  0.00     0.020 A 
ATOM     82  C   UNL A   1      44.881  20.829  24.626  1.00  0.00     0.054 A 
BRANCH  82  83
ATOM     83  S   UNL A   1      44.794  19.142  23.959  1.00  0.00     0.124 S 
ATOM     84  O   UNL A   1      44.568  19.389  22.538  1.00  0.00    -0.237 OA
ATOM     85  O   UNL A   1      46.103  18.596  24.306  1.00  0.00    -0.237 OA
ATOM     86  O   UNL A   1      43.669  18.547  24.677  1.00  0.00    -0.744 OA
ENDBRANCH  82  83
ENDBRANCH  54  77
BRANCH  66  87
ATOM     87  C   UNL A   1      50.263  28.074  26.068  1.00  0.00    -0.014 A 
ATOM     88  C   UNL A   1      50.714  28.474  24.799  1.00  0.00     0.010 A 
ATOM     89  C   UNL A   1      51.205  27.667  27.033  1.00  0.00     0.010 A 
ATOM     90  C   UNL A   1      52.076  28.437  24.488  1.00  0.00     0.020 A 
ATOM     91  C   UNL A   1      52.570  27.653  26.734  1.00  0.00     0.020 A 
ATOM     92  C   UNL A   1      52.996  28.023  25.457  1.00  0.00     0.054 A 
BRANCH  92  93
ATOM     93  S   UNL A   1      54.763  28.020  25.045  1.00  0.00     0.124 S 
ATOM     94  O   UNL A   1      54.907  26.749  24.341  1.00  0.00    -0.237 OA
ATOM     95  O   UNL A   1      54.903  29.216  24.217  1.00  0.00    -0.237 OA
ATOM     96  O   UNL A   1      55.423  28.091  26.347  1.00  0.00    -0.744 OA
ENDBRANCH  92  93
ENDBRANCH  66  87
ENDBRANCH  40  41
ENDBRANCH  33  35
ENDBRANCH  32  33
ENDBRANCH  31  32
ENDBRANCH  30  31
ENDBRANCH  29  30
ENDBRANCH  28  29
ENDBRANCH   1  28
TORSDOF 26
ENDMDL
MODEL 2
REMARK VINA RESULT:      -9.1      6.868     11.939
REMARK SMILES COCCC(=O)N[C@@H](Cc1c[nH]c2ccccc12)C(=O)OCCOCCOCCOC(=O)c1ccc(-c2c3nc(c(-c4ccc(S(=O)(=O)[O-])cc4)c4ccc([nH]4)c(-c4ccc(S(=O)(=O)[O-])cc4)c4nc(c(-c5ccc(S(=O)(=O)[O-])cc5)c5ccc2[nH]5)C=C4)C=C3)cc1
REMARK SMILES IDX 25 1 24 2 23 3 22 4 21 5 19 6 20 7 8 8 7 9 5 10 6 11 4 13
REMARK SMILES IDX 3 14 2 15 1 16 9 17 10 18 11 19 18 20 12 21 13 22 17 23
REMARK SMILES IDX 14 25 16 26 15 27 26 28 27 29 28 30 29 31 30 32 31 33 32 34
REMARK SMILES IDX 33 35 34 36 92 37 35 38 91 39 36 40 37 41 38 42 85 43 39 44
REMARK SMILES IDX 90 45 84 46 86 47 40 48 89 49 83 50 82 51 41 53 71 54 52 55
REMARK SMILES IDX 70 56 53 57 56 58 69 59 87 60 54 61 55 62 68 64 88 65 57 66
REMARK SMILES IDX 42 67 43 68 51 69 44 70 50 71 45 72 46 73 47 74 48 75 49 76
REMARK SMILES IDX 72 77 73 78 81 79 74 80 80 81 75 82 76 83 77 84 78 85 79 86
REMARK SMILES IDX 58 87 59 88 67 89 60 90 66 91 61 92 62 93 63 94 64 95 65 96
REMARK H PARENT 7 12 12 24 86 52 56 63
REMARK Flexibility Score: inf
ROOT
ATOM      1  C   UNL A   1      34.342  21.883  25.445  1.00  0.00     0.188 C 
ENDROOT
BRANCH   1   2
ATOM      2  O   UNL A   1      33.979  23.081  24.767  1.00  0.00    -0.376 OA
BRANCH   2   3
ATOM      3  C   UNL A   1      32.625  23.481  24.992  1.00  0.00     0.202 C 
BRANCH   3   4
ATOM      4  C   UNL A   1      32.317  23.948  26.427  1.00  0.00     0.261 C 
BRANCH   4   5
ATOM      5  O   UNL A   1      32.653  25.341  26.631  1.00  0.00    -0.462 OA
BRANCH   5   6
ATOM      6  C   UNL A   1      31.698  26.269  26.349  1.00  0.00     0.329 C 
ATOM      7  O   UNL A   1      30.493  26.054  26.411  1.00  0.00    -0.250 OA
BRANCH   6   8
ATOM      8  C   UNL A   1      32.289  27.676  26.113  1.00  0.00     0.196 C 
BRANCH   8   9
ATOM      9  N   UNL A   1      33.684  27.929  26.508  1.00  0.00    -0.342 N 
ATOM     10  C   UNL A   1      34.265  29.002  27.105  1.00  0.00     0.223 C 
ATOM     11  O   UNL A   1      35.495  29.020  27.191  1.00  0.00    -0.275 OA
ATOM     12  H   UNL A   1      34.304  27.191  26.305  1.00  0.00     0.164 HD
BRANCH  10  13
ATOM     13  C   UNL A   1      33.443  30.150  27.628  1.00  0.00     0.128 C 
BRANCH  13  14
ATOM     14  C   UNL A   1      34.217  31.452  27.503  1.00  0.00     0.169 C 
BRANCH  14  15
ATOM     15  O   UNL A   1      35.273  31.477  28.467  1.00  0.00    -0.384 OA
ATOM     16  C   UNL A   1      35.866  32.759  28.600  1.00  0.00     0.194 C 
ENDBRANCH  14  15
ENDBRANCH  13  14
ENDBRANCH  10  13
ENDBRANCH   8   9
BRANCH   8  17
ATOM     17  C   UNL A   1      31.971  28.214  24.721  1.00  0.00     0.074 C 
BRANCH  17  18
ATOM     18  C   UNL A   1      31.094  29.424  24.484  1.00  0.00    -0.020 A 
ATOM     19  C   UNL A   1      31.291  30.571  25.237  1.00  0.00     0.087 A 
ATOM     20  C   UNL A   1      29.966  29.714  23.625  1.00  0.00     0.003 A 
ATOM     21  N   UNL A   1      30.320  31.479  24.943  1.00  0.00    -0.361 N 
ATOM     22  C   UNL A   1      29.467  30.967  23.999  1.00  0.00     0.046 A 
ATOM     23  C   UNL A   1      29.274  29.065  22.579  1.00  0.00     0.010 A 
ATOM     24  H   UNL A   1      30.241  32.373  25.348  1.00  0.00     0.166 HD
ATOM     25  C   UNL A   1      28.304  31.534  23.458  1.00  0.00     0.026 A 
ATOM     26  C   UNL A   1      28.115  29.612  22.015  1.00  0.00     0.001 A 
ATOM     27  C   UNL A   1      27.623  30.825  22.468  1.00  0.00     0.002 A 
ENDBRANCH  17  18
ENDBRANCH   8  17
ENDBRANCH   6   8
ENDBRANCH   5   6
ENDBRANCH   4   5
ENDBRANCH   3   4
ENDBRANCH   2   3
ENDBRANCH   1   2
BRANCH   1  28
ATOM     28  C   UNL A   1      35.751  21.925  25.974  1.00  0.00     0.188 C 
BRANCH  28  29
ATOM     29  O   UNL A   1      36.569  22.850  25.256  1.00  0.00    -0.376 OA
BRANCH  29  30
ATOM     30  C   UNL A   1      37.048  23.923  26.063  1.00  0.00     0.202 C 
BRANCH  30  31
ATOM     31  C   UNL A   1      38.583  23.986  26.160  1.00  0.00     0.261 C 
BRANCH  31  32
ATOM     32  O   UNL A   1      39.022  24.615  27.382  1.00  0.00    -0.460 OA
BRANCH  32  33
ATOM     33  C   UNL A   1      39.892  25.648  27.230  1.00  0.00     0.338 C 
ATOM     34  O   UNL A   1      40.520  25.926  26.219  1.00  0.00    -0.246 OA
BRANCH  33  35
ATOM     35  C   UNL A   1      39.805  26.560  28.403  1.00  0.00     0.060 A 
ATOM     36  C   UNL A   1      40.577  27.732  28.379  1.00  0.00     0.016 A 
ATOM     37  C   UNL A   1      38.957  26.311  29.485  1.00  0.00     0.016 A 
ATOM     38  C   UNL A   1      40.535  28.633  29.445  1.00  0.00     0.010 A 
ATOM     39  C   UNL A   1      38.936  27.200  30.569  1.00  0.00     0.010 A 
ATOM     40  C   UNL A   1      39.752  28.348  30.569  1.00  0.00    -0.014 A 
BRANCH  40  41
ATOM     41  C   UNL A   1      39.987  29.098  31.830  1.00  0.00     0.031 A 
ATOM     42  C   UNL A   1      39.025  30.205  32.171  1.00  0.00     0.074 A 
ATOM     43  C   UNL A   1      40.992  28.800  32.674  1.00  0.00     0.049 A 
ATOM     44  N   UNL A   1      39.029  31.030  33.186  1.00  0.00    -0.248 NA
ATOM     45  C   UNL A   1      37.902  30.404  31.238  1.00  0.00     0.031 C 
ATOM     46  C   UNL A   1      41.955  27.714  32.503  1.00  0.00     0.029 A 
ATOM     47  N   UNL A   1      41.366  29.399  33.854  1.00  0.00    -0.354 N 
ATOM     48  C   UNL A   1      37.920  31.848  33.010  1.00  0.00     0.074 A 
ATOM     49  C   UNL A   1      37.277  31.436  31.782  1.00  0.00     0.031 C 
ATOM     50  C   UNL A   1      42.816  27.729  33.538  1.00  0.00     0.029 A 
ATOM     51  C   UNL A   1      42.487  28.845  34.425  1.00  0.00     0.049 A 
ATOM     52  H   UNL A   1      40.876  30.154  34.252  1.00  0.00     0.167 HD
ATOM     53  C   UNL A   1      37.470  32.855  33.796  1.00  0.00     0.031 A 
ATOM     54  C   UNL A   1      43.180  29.211  35.525  1.00  0.00     0.031 A 
ATOM     55  C   UNL A   1      38.117  33.287  35.004  1.00  0.00     0.049 A 
ATOM     56  C   UNL A   1      42.714  30.395  36.338  1.00  0.00     0.074 A 
ATOM     57  C   UNL A   1      37.743  34.304  35.863  1.00  0.00     0.029 A 
ATOM     58  N   UNL A   1      39.279  32.733  35.518  1.00  0.00    -0.354 N 
ATOM     59  N   UNL A   1      41.661  31.158  36.160  1.00  0.00    -0.248 NA
ATOM     60  C   UNL A   1      43.531  30.765  37.504  1.00  0.00     0.031 C 
ATOM     61  C   UNL A   1      38.708  34.400  36.871  1.00  0.00     0.029 A 
ATOM     62  C   UNL A   1      39.650  33.402  36.671  1.00  0.00     0.049 A 
ATOM     63  H   UNL A   1      39.766  31.975  35.123  1.00  0.00     0.167 HD
ATOM     64  C   UNL A   1      41.677  32.080  37.203  1.00  0.00     0.074 A 
ATOM     65  C   UNL A   1      42.836  31.772  38.015  1.00  0.00     0.031 C 
ATOM     66  C   UNL A   1      40.809  33.088  37.469  1.00  0.00     0.031 A 
BRANCH  53  67
ATOM     67  C   UNL A   1      36.240  33.587  33.333  1.00  0.00    -0.014 A 
ATOM     68  C   UNL A   1      36.318  34.895  32.822  1.00  0.00     0.010 A 
ATOM     69  C   UNL A   1      34.987  32.953  33.409  1.00  0.00     0.010 A 
ATOM     70  C   UNL A   1      35.158  35.572  32.436  1.00  0.00     0.020 A 
ATOM     71  C   UNL A   1      33.829  33.617  32.999  1.00  0.00     0.020 A 
ATOM     72  C   UNL A   1      33.920  34.930  32.531  1.00  0.00     0.054 A 
BRANCH  72  73
ATOM     73  S   UNL A   1      32.430  35.826  32.016  1.00  0.00     0.124 S 
ATOM     74  O   UNL A   1      31.398  35.187  32.829  1.00  0.00    -0.237 OA
ATOM     75  O   UNL A   1      32.746  37.206  32.375  1.00  0.00    -0.237 OA
ATOM     76  O   UNL A   1      32.345  35.563  30.582  1.00  0.00    -0.744 OA
ENDBRANCH  72  73
ENDBRANCH  53  67
BRANCH  54  77
ATOM     77  C   UNL A   1      44.412  28.468  35.916  1.00  0.00    -0.014 A 
ATOM     78  C   UNL A   1      45.669  28.838  35.407  1.00  0.00     0.010 A 
ATOM     79  C   UNL A   1      44.329  27.371  36.793  1.00  0.00     0.010 A 
ATOM     80  C   UNL A   1      46.817  28.118  35.758  1.00  0.00     0.020 A 
ATOM     81  C   UNL A   1      45.476  26.665  37.166  1.00  0.00     0.020 A 
ATOM     82  C   UNL A   1      46.713  27.038  36.638  1.00  0.00     0.054 A 
BRANCH  82  83
ATOM     83  S   UNL A   1      48.222  26.152  37.124  1.00  0.00     0.124 S 
ATOM     84  O   UNL A   1      47.963  24.808  36.617  1.00  0.00    -0.237 OA
ATOM     85  O   UNL A   1      49.267  26.902  36.430  1.00  0.00    -0.237 OA
ATOM     86  O   UNL A   1      48.239  26.279  38.580  1.00  0.00    -0.744 OA
ENDBRANCH  82  83
ENDBRANCH  54  77
BRANCH  66  87
ATOM     87  C   UNL A   1      41.051  33.915  38.705  1.00  0.00    -0.014 A 
ATOM     88  C   UNL A   1      41.798  35.104  38.654  1.00  0.00     0.010 A 
ATOM     89  C   UNL A   1      40.466  33.526  39.925  1.00  0.00     0.010 A 
ATOM     90  C   UNL A   1      41.984  35.873  39.807  1.00  0.00     0.020 A 
ATOM     91  C   UNL A   1      40.627  34.305  41.074  1.00  0.00     0.020 A 
ATOM     92  C   UNL A   1      41.399  35.467  41.011  1.00  0.00     0.054 A 
BRANCH  92  93
ATOM     93  S   UNL A   1      41.620  36.500  42.486  1.00  0.00     0.124 S 
ATOM     94  O   UNL A   1      41.400  35.539  43.564  1.00  0.00    -0.237 OA
ATOM     95  O   UNL A   1      42.992  36.979  42.342  1.00  0.00    -0.237 OA
ATOM     96  O   UNL A   1      40.590  37.527  42.347  1.00  0.00    -0.744 OA
ENDBRANCH  92  93
ENDBRANCH  66  87
ENDBRANCH  40  41
ENDBRANCH  33  35
ENDBRANCH  32  33
ENDBRANCH  31  32
ENDBRANCH  30  31
ENDBRANCH  29  30
ENDBRANCH  28  29
ENDBRANCH   1  28
TORSDOF 26
ENDMDL
MODEL 3
REMARK VINA RESULT:      -9.1      2.626      7.784
REMARK SMILES COCCC(=O)N[C@@H](Cc1c[nH]c2ccccc12)C(=O)OCCOCCOCCOC(=O)c1ccc(-c2c3nc(c(-c4ccc(S(=O)(=O)[O-])cc4)c4ccc([nH]4)c(-c4ccc(S(=O)(=O)[O-])cc4)c4nc(c(-c5ccc(S(=O)(=O)[O-])cc5)c5ccc2[nH]5)C=C4)C=C3)cc1
REMARK SMILES IDX 25 1 24 2 23 3 22 4 21 5 19 6 20 7 8 8 7 9 5 10 6 11 4 13
REMARK SMILES IDX 3 14 2 15 1 16 9 17 10 18 11 19 18 20 12 21 13 22 17 23
REMARK SMILES IDX 14 25 16 26 15 27 26 28 27 29 28 30 29 31 30 32 31 33 32 34
REMARK SMILES IDX 33 35 34 36 92 37 35 38 91 39 36 40 37 41 38 42 85 43 39 44
REMARK SMILES IDX 90 45 84 46 86 47 40 48 89 49 83 50 82 51 41 53 71 54 52 55
REMARK SMILES IDX 70 56 53 57 56 58 69 59 87 60 54 61 55 62 68 64 88 65 57 66
REMARK SMILES IDX 42 67 43 68 51 69 44 70 50 71 45 72 46 73 47 74 48 75 49 76
REMARK SMILES IDX 72 77 73 78 81 79 74 80 80 81 75 82 76 83 77 84 78 85 79 86
REMARK SMILES IDX 58 87 59 88 67 89 60 90 66 91 61 92 62 93 63 94 64 95 65 96
REMARK H PARENT 7 12 12 24 86 52 56 63
REMARK Flexibility Score: inf
ROOT
ATOM      1  C   UNL A   1      37.165  22.676  25.649  1.00  0.00     0.188 C 
ENDROOT
BRANCH   1   2
ATOM      2  O   UNL A   1      36.658  24.005  25.603  1.00  0.00    -0.376 OA
BRANCH   2   3
ATOM      3  C   UNL A   1      35.309  24.090  25.138  1.00  0.00     0.202 C 
BRANCH   3   4
ATOM      4  C   UNL A   1      34.683  25.495  25.221  1.00  0.00     0.261 C 
BRANCH   4   5
ATOM      5  O   UNL A   1      33.437  25.494  25.958  1.00  0.00    -0.462 OA
BRANCH   5   6
ATOM      6  C   UNL A   1      32.770  26.675  26.072  1.00  0.00     0.329 C 
ATOM      7  O   UNL A   1      33.213  27.660  26.652  1.00  0.00    -0.250 OA
BRANCH   6   8
ATOM      8  C   UNL A   1      31.468  26.704  25.241  1.00  0.00     0.196 C 
BRANCH   8   9
ATOM      9  N   UNL A   1      31.571  26.766  23.774  1.00  0.00    -0.342 N 
ATOM     10  C   UNL A   1      30.756  27.326  22.843  1.00  0.00     0.223 C 
ATOM     11  O   UNL A   1      30.998  27.104  21.654  1.00  0.00    -0.275 OA
ATOM     12  H   UNL A   1      32.369  26.324  23.404  1.00  0.00     0.164 HD
BRANCH  10  13
ATOM     13  C   UNL A   1      29.578  28.176  23.239  1.00  0.00     0.128 C 
BRANCH  13  14
ATOM     14  C   UNL A   1      29.955  29.648  23.203  1.00  0.00     0.169 C 
BRANCH  14  15
ATOM     15  O   UNL A   1      28.782  30.439  23.004  1.00  0.00    -0.384 OA
ATOM     16  C   UNL A   1      28.679  30.948  21.683  1.00  0.00     0.194 C 
ENDBRANCH  14  15
ENDBRANCH  13  14
ENDBRANCH  10  13
ENDBRANCH   8   9
BRANCH   8  17
ATOM     17  C   UNL A   1      30.456  25.664  25.712  1.00  0.00     0.074 C 
BRANCH  17  18
ATOM     18  C   UNL A   1      30.736  24.177  25.705  1.00  0.00    -0.020 A 
ATOM     19  C   UNL A   1      30.402  23.411  26.812  1.00  0.00     0.087 A 
ATOM     20  C   UNL A   1      31.361  23.261  24.775  1.00  0.00     0.003 A 
ATOM     21  N   UNL A   1      30.853  22.139  26.635  1.00  0.00    -0.361 N 
ATOM     22  C   UNL A   1      31.485  22.027  25.424  1.00  0.00     0.046 A 
ATOM     23  C   UNL A   1      31.867  23.316  23.458  1.00  0.00     0.010 A 
ATOM     24  H   UNL A   1      30.740  21.405  27.282  1.00  0.00     0.166 HD
ATOM     25  C   UNL A   1      32.146  20.920  24.870  1.00  0.00     0.026 A 
ATOM     26  C   UNL A   1      32.523  22.223  22.877  1.00  0.00     0.001 A 
ATOM     27  C   UNL A   1      32.680  21.045  23.587  1.00  0.00     0.002 A 
ENDBRANCH  17  18
ENDBRANCH   8  17
ENDBRANCH   6   8
ENDBRANCH   5   6
ENDBRANCH   4   5
ENDBRANCH   3   4
ENDBRANCH   2   3
ENDBRANCH   1   2
BRANCH   1  28
ATOM     28  C   UNL A   1      36.243  21.686  24.988  1.00  0.00     0.188 C 
BRANCH  28  29
ATOM     29  O   UNL A   1      36.749  20.351  25.053  1.00  0.00    -0.376 OA
BRANCH  29  30
ATOM     30  C   UNL A   1      38.119  20.249  24.674  1.00  0.00     0.202 C 
BRANCH  30  31
ATOM     31  C   UNL A   1      39.007  19.581  25.740  1.00  0.00     0.261 C 
BRANCH  31  32
ATOM     32  O   UNL A   1      40.322  20.170  25.794  1.00  0.00    -0.460 OA
BRANCH  32  33
ATOM     33  C   UNL A   1      40.842  20.331  27.040  1.00  0.00     0.338 C 
ATOM     34  O   UNL A   1      40.742  19.550  27.975  1.00  0.00    -0.246 OA
BRANCH  33  35
ATOM     35  C   UNL A   1      41.771  21.493  27.055  1.00  0.00     0.060 A 
ATOM     36  C   UNL A   1      42.405  21.808  28.267  1.00  0.00     0.016 A 
ATOM     37  C   UNL A   1      42.059  22.237  25.908  1.00  0.00     0.016 A 
ATOM     38  C   UNL A   1      43.293  22.883  28.347  1.00  0.00     0.010 A 
ATOM     39  C   UNL A   1      42.928  23.334  25.994  1.00  0.00     0.010 A 
ATOM     40  C   UNL A   1      43.522  23.684  27.222  1.00  0.00    -0.014 A 
BRANCH  40  41
ATOM     41  C   UNL A   1      44.158  25.015  27.393  1.00  0.00     0.031 A 
ATOM     42  C   UNL A   1      43.285  26.150  27.862  1.00  0.00     0.074 A 
ATOM     43  C   UNL A   1      45.471  25.224  27.180  1.00  0.00     0.049 A 
ATOM     44  N   UNL A   1      43.584  27.408  28.053  1.00  0.00    -0.248 NA
ATOM     45  C   UNL A   1      41.881  25.813  28.159  1.00  0.00     0.031 C 
ATOM     46  C   UNL A   1      46.443  24.205  26.791  1.00  0.00     0.029 A 
ATOM     47  N   UNL A   1      46.209  26.381  27.264  1.00  0.00    -0.354 N 
ATOM     48  C   UNL A   1      42.409  28.013  28.483  1.00  0.00     0.074 A 
ATOM     49  C   UNL A   1      41.387  26.990  28.504  1.00  0.00     0.031 C 
ATOM     50  C   UNL A   1      47.651  24.785  26.660  1.00  0.00     0.029 A 
ATOM     51  C   UNL A   1      47.532  26.219  26.924  1.00  0.00     0.049 A 
ATOM     52  H   UNL A   1      45.827  27.244  27.543  1.00  0.00     0.167 HD
ATOM     53  C   UNL A   1      42.193  29.304  28.830  1.00  0.00     0.031 A 
ATOM     54  C   UNL A   1      48.524  27.128  26.817  1.00  0.00     0.031 A 
ATOM     55  C   UNL A   1      43.197  30.330  28.786  1.00  0.00     0.049 A 
ATOM     56  C   UNL A   1      48.239  28.580  27.120  1.00  0.00     0.074 A 
ATOM     57  C   UNL A   1      43.071  31.670  29.109  1.00  0.00     0.029 A 
ATOM     58  N   UNL A   1      44.509  30.135  28.386  1.00  0.00    -0.354 N 
ATOM     59  N   UNL A   1      47.123  29.137  27.527  1.00  0.00    -0.248 NA
ATOM     60  C   UNL A   1      49.353  29.525  26.950  1.00  0.00     0.031 C 
ATOM     61  C   UNL A   1      44.296  32.295  28.855  1.00  0.00     0.029 A 
ATOM     62  C   UNL A   1      45.199  31.333  28.430  1.00  0.00     0.049 A 
ATOM     63  H   UNL A   1      44.893  29.271  28.112  1.00  0.00     0.167 HD
ATOM     64  C   UNL A   1      47.408  30.491  27.685  1.00  0.00     0.074 A 
ATOM     65  C   UNL A   1      48.803  30.667  27.343  1.00  0.00     0.031 C 
ATOM     66  C   UNL A   1      46.589  31.496  28.083  1.00  0.00     0.031 A 
BRANCH  53  67
ATOM     67  C   UNL A   1      40.794  29.677  29.238  1.00  0.00    -0.014 A 
ATOM     68  C   UNL A   1      40.485  30.006  30.569  1.00  0.00     0.010 A 
ATOM     69  C   UNL A   1      39.774  29.702  28.269  1.00  0.00     0.010 A 
ATOM     70  C   UNL A   1      39.171  30.312  30.934  1.00  0.00     0.020 A 
ATOM     71  C   UNL A   1      38.464  30.032  28.625  1.00  0.00     0.020 A 
ATOM     72  C   UNL A   1      38.168  30.317  29.960  1.00  0.00     0.054 A 
BRANCH  72  73
ATOM     73  S   UNL A   1      36.472  30.724  30.457  1.00  0.00     0.124 S 
ATOM     74  O   UNL A   1      36.676  31.914  31.279  1.00  0.00    -0.237 OA
ATOM     75  O   UNL A   1      35.808  30.954  29.176  1.00  0.00    -0.237 OA
ATOM     76  O   UNL A   1      36.028  29.536  31.181  1.00  0.00    -0.744 OA
ENDBRANCH  72  73
ENDBRANCH  53  67
BRANCH  54  77
ATOM     77  C   UNL A   1      49.883  26.705  26.375  1.00  0.00    -0.014 A 
ATOM     78  C   UNL A   1      50.235  26.717  25.014  1.00  0.00     0.010 A 
ATOM     79  C   UNL A   1      50.832  26.270  27.319  1.00  0.00     0.010 A 
ATOM     80  C   UNL A   1      51.504  26.292  24.605  1.00  0.00     0.020 A 
ATOM     81  C   UNL A   1      52.109  25.868  26.917  1.00  0.00     0.020 A 
ATOM     82  C   UNL A   1      52.435  25.873  25.560  1.00  0.00     0.054 A 
BRANCH  82  83
ATOM     83  S   UNL A   1      54.094  25.378  25.014  1.00  0.00     0.124 S 
ATOM     84  O   UNL A   1      54.928  25.833  26.122  1.00  0.00    -0.237 OA
ATOM     85  O   UNL A   1      53.963  23.930  24.872  1.00  0.00    -0.237 OA
ATOM     86  O   UNL A   1      54.271  26.105  23.758  1.00  0.00    -0.744 OA
ENDBRANCH  82  83
ENDBRANCH  54  77
BRANCH  66  87
ATOM     87  C   UNL A   1      47.182  32.876  28.206  1.00  0.00    -0.014 A 
ATOM     88  C   UNL A   1      47.859  33.281  29.369  1.00  0.00     0.010 A 
ATOM     89  C   UNL A   1      47.114  33.759  27.111  1.00  0.00     0.010 A 
ATOM     90  C   UNL A   1      48.429  34.554  29.449  1.00  0.00     0.020 A 
ATOM     91  C   UNL A   1      47.705  35.024  27.178  1.00  0.00     0.020 A 
ATOM     92  C   UNL A   1      48.347  35.420  28.353  1.00  0.00     0.054 A 
BRANCH  92  93
ATOM     93  S   UNL A   1      49.129  37.054  28.465  1.00  0.00     0.124 S 
ATOM     94  O   UNL A   1      48.519  37.758  27.340  1.00  0.00    -0.237 OA
ATOM     95  O   UNL A   1      48.723  37.516  29.790  1.00  0.00    -0.237 OA
ATOM     96  O   UNL A   1      50.554  36.766  28.322  1.00  0.00    -0.744 OA
ENDBRANCH  92  93
ENDBRANCH  66  87
ENDBRANCH  40  41
ENDBRANCH  33  35
ENDBRANCH  32  33
ENDBRANCH  31  32
ENDBRANCH  30  31
ENDBRANCH  29  30
ENDBRANCH  28  29
ENDBRANCH   1  28
TORSDOF 26
ENDMDL
