MODEL 1
REMARK VINA RESULT:      -8.8      0.000      0.000
REMARK SMILES C[C@@H](C(=O)OCCOCCOCCOC(=O)c1ccc(-c2c3nc(c(-c4ccc(S(=O)(=O)[O-])cc4)c4ccc([nH]4)c(-c4ccc(S(=O)(=O)[O-])cc4)c4nc(c(-c5ccc(S(=O)(=O)[O-])cc5)c5ccc2[nH]5)C=C4)C=C3)cc1)n1ccc(C(=O)N2CC[NH+](Cc3cccc(F)c3)CC2)n1
REMARK SMILES IDX 9 1 8 2 7 3 6 4 5 5 3 6 4 7 2 8 1 9 77 10 78 11 97 12 79 13
REMARK SMILES IDX 80 14 81 15 82 16 83 17 84 18 96 19 85 20 95 21 86 22 87 24
REMARK SMILES IDX 88 25 89 26 94 27 90 28 92 29 91 30 93 31 10 32 11 33 12 34
REMARK SMILES IDX 13 35 14 36 15 37 16 38 17 39 18 40 76 41 19 42 75 43 20 44
REMARK SMILES IDX 21 45 22 46 69 47 23 48 74 49 68 50 70 51 24 52 73 53 67 54
REMARK SMILES IDX 66 55 25 57 55 58 36 59 54 60 37 61 40 62 53 63 71 64 38 65
REMARK SMILES IDX 39 66 52 68 72 69 41 70 26 71 27 72 35 73 28 74 34 75 29 76
REMARK SMILES IDX 30 77 31 78 32 79 33 80 56 81 57 82 65 83 58 84 64 85 59 86
REMARK SMILES IDX 60 87 61 88 62 89 63 90 42 91 43 92 51 93 44 94 50 95 45 96
REMARK SMILES IDX 46 97 47 98 48 99 49 100
REMARK H PARENT 86 23 70 56 40 67
REMARK Flexibility Score: inf
ROOT
ATOM      1  C   UNL A   1      35.936  20.669  25.263  1.00  0.00     0.188 C 
ENDROOT
BRANCH   1   2
ATOM      2  O   UNL A   1      34.850  21.271  24.566  1.00  0.00    -0.376 OA
BRANCH   2   3
ATOM      3  C   UNL A   1      33.554  20.684  24.709  1.00  0.00     0.202 C 
BRANCH   3   4
ATOM      4  C   UNL A   1      32.311  21.569  24.495  1.00  0.00     0.261 C 
BRANCH   4   5
ATOM      5  O   UNL A   1      31.631  21.893  25.724  1.00  0.00    -0.462 OA
BRANCH   5   6
ATOM      6  C   UNL A   1      31.843  23.142  26.222  1.00  0.00     0.330 C 
ATOM      7  O   UNL A   1      31.474  23.494  27.338  1.00  0.00    -0.250 OA
BRANCH   6   8
ATOM      8  C   UNL A   1      32.579  24.059  25.240  1.00  0.00     0.213 C 
ATOM      9  C   UNL A   1      33.986  24.453  25.700  1.00  0.00     0.046 C 
BRANCH   8  10
ATOM     10  N   UNL A   1      31.744  25.175  24.789  1.00  0.00    -0.258 N 
ATOM     11  C   UNL A   1      30.376  25.245  24.731  1.00  0.00     0.110 A 
ATOM     12  N   UNL A   1      32.322  26.365  24.569  1.00  0.00    -0.167 NA
ATOM     13  C   UNL A   1      30.066  26.580  24.586  1.00  0.00     0.056 A 
ATOM     14  C   UNL A   1      31.313  27.255  24.534  1.00  0.00     0.150 A 
BRANCH  14  15
ATOM     15  C   UNL A   1      31.544  28.714  24.592  1.00  0.00     0.274 C 
ATOM     16  O   UNL A   1      30.927  29.466  23.839  1.00  0.00    -0.267 OA
ATOM     17  N   UNL A   1      32.400  29.184  25.589  1.00  0.00    -0.326 N 
ATOM     18  C   UNL A   1      32.290  30.575  26.007  1.00  0.00     0.181 C 
ATOM     19  C   UNL A   1      33.675  28.539  25.886  1.00  0.00     0.181 C 
ATOM     20  C   UNL A   1      32.881  30.846  27.419  1.00  0.00     0.284 C 
ATOM     21  C   UNL A   1      34.115  28.740  27.345  1.00  0.00     0.284 C 
ATOM     22  N   UNL A   1      34.100  30.121  27.845  1.00  0.00    -0.328 N 
ATOM     23  H   UNL A   1      34.021  30.055  28.860  1.00  0.00     0.348 HD
BRANCH  22  24
ATOM     24  C   UNL A   1      35.380  30.851  27.750  1.00  0.00     0.299 C 
BRANCH  24  25
ATOM     25  C   UNL A   1      36.505  30.272  28.563  1.00  0.00     0.009 A 
ATOM     26  C   UNL A   1      36.379  29.911  29.917  1.00  0.00     0.010 A 
ATOM     27  C   UNL A   1      37.642  29.905  27.872  1.00  0.00     0.048 A 
ATOM     28  C   UNL A   1      37.325  29.075  30.520  1.00  0.00     0.004 A 
ATOM     29  C   UNL A   1      38.437  28.935  28.420  1.00  0.00     0.123 A 
ATOM     30  C   UNL A   1      38.337  28.534  29.744  1.00  0.00     0.039 A 
ATOM     31  F   UNL A   1      39.162  28.242  27.554  1.00  0.00    -0.207 F 
ENDBRANCH  24  25
ENDBRANCH  22  24
ENDBRANCH  14  15
ENDBRANCH   8  10
ENDBRANCH   6   8
ENDBRANCH   5   6
ENDBRANCH   4   5
ENDBRANCH   3   4
ENDBRANCH   2   3
ENDBRANCH   1   2
BRANCH   1  32
ATOM     32  C   UNL A   1      36.917  19.798  24.462  1.00  0.00     0.188 C 
BRANCH  32  33
ATOM     33  O   UNL A   1      38.195  19.660  25.036  1.00  0.00    -0.376 OA
BRANCH  33  34
ATOM     34  C   UNL A   1      38.630  20.596  26.006  1.00  0.00     0.202 C 
BRANCH  34  35
ATOM     35  C   UNL A   1      39.831  21.543  25.798  1.00  0.00     0.261 C 
BRANCH  35  36
ATOM     36  O   UNL A   1      41.145  20.971  25.714  1.00  0.00    -0.460 OA
BRANCH  36  37
ATOM     37  C   UNL A   1      41.823  20.803  26.875  1.00  0.00     0.338 C 
ATOM     38  O   UNL A   1      42.141  19.737  27.380  1.00  0.00    -0.246 OA
BRANCH  37  39
ATOM     39  C   UNL A   1      42.342  22.128  27.302  1.00  0.00     0.060 A 
ATOM     40  C   UNL A   1      42.606  23.103  26.328  1.00  0.00     0.016 A 
ATOM     41  C   UNL A   1      42.566  22.416  28.648  1.00  0.00     0.016 A 
ATOM     42  C   UNL A   1      43.119  24.356  26.692  1.00  0.00     0.010 A 
ATOM     43  C   UNL A   1      43.100  23.664  29.007  1.00  0.00     0.010 A 
ATOM     44  C   UNL A   1      43.411  24.637  28.032  1.00  0.00    -0.014 A 
BRANCH  44  45
ATOM     45  C   UNL A   1      44.251  25.818  28.401  1.00  0.00     0.031 A 
ATOM     46  C   UNL A   1      43.547  27.042  28.934  1.00  0.00     0.074 A 
ATOM     47  C   UNL A   1      45.601  25.831  28.359  1.00  0.00     0.049 A 
ATOM     48  N   UNL A   1      44.035  28.224  29.208  1.00  0.00    -0.248 NA
ATOM     49  C   UNL A   1      42.112  26.898  29.238  1.00  0.00     0.031 C 
ATOM     50  C   UNL A   1      46.461  24.684  28.093  1.00  0.00     0.029 A 
ATOM     51  N   UNL A   1      46.491  26.874  28.539  1.00  0.00    -0.354 N 
ATOM     52  C   UNL A   1      42.982  28.950  29.749  1.00  0.00     0.074 A 
ATOM     53  C   UNL A   1      41.811  28.101  29.702  1.00  0.00     0.031 C 
ATOM     54  C   UNL A   1      47.744  25.098  28.083  1.00  0.00     0.029 A 
ATOM     55  C   UNL A   1      47.799  26.548  28.225  1.00  0.00     0.049 A 
ATOM     56  H   UNL A   1      46.221  27.764  28.861  1.00  0.00     0.167 HD
ATOM     57  C   UNL A   1      42.993  30.198  30.272  1.00  0.00     0.031 A 
ATOM     58  C   UNL A   1      48.869  27.348  28.001  1.00  0.00     0.031 A 
ATOM     59  C   UNL A   1      44.148  31.054  30.318  1.00  0.00     0.049 A 
ATOM     60  C   UNL A   1      48.768  28.813  28.286  1.00  0.00     0.074 A 
ATOM     61  C   UNL A   1      44.261  32.317  30.874  1.00  0.00     0.029 A 
ATOM     62  N   UNL A   1      45.382  30.748  29.773  1.00  0.00    -0.354 N 
ATOM     63  N   UNL A   1      47.744  29.505  28.711  1.00  0.00    -0.248 NA
ATOM     64  C   UNL A   1      50.004  29.593  28.106  1.00  0.00     0.031 C 
ATOM     65  C   UNL A   1      45.538  32.809  30.592  1.00  0.00     0.029 A 
ATOM     66  C   UNL A   1      46.242  31.823  29.927  1.00  0.00     0.049 A 
ATOM     67  H   UNL A   1      45.614  29.894  29.340  1.00  0.00     0.167 HD
ATOM     68  C   UNL A   1      48.234  30.786  28.919  1.00  0.00     0.074 A 
ATOM     69  C   UNL A   1      49.624  30.790  28.517  1.00  0.00     0.031 C 
ATOM     70  C   UNL A   1      47.601  31.848  29.465  1.00  0.00     0.031 A 
BRANCH  57  71
ATOM     71  C   UNL A   1      41.702  30.735  30.818  1.00  0.00    -0.014 A 
ATOM     72  C   UNL A   1      41.351  30.564  32.169  1.00  0.00     0.010 A 
ATOM     73  C   UNL A   1      40.858  31.478  29.974  1.00  0.00     0.010 A 
ATOM     74  C   UNL A   1      40.160  31.105  32.660  1.00  0.00     0.020 A 
ATOM     75  C   UNL A   1      39.682  32.045  30.468  1.00  0.00     0.020 A 
ATOM     76  C   UNL A   1      39.334  31.842  31.804  1.00  0.00     0.054 A 
BRANCH  76  77
ATOM     77  S   UNL A   1      37.811  32.563  32.475  1.00  0.00     0.124 S 
ATOM     78  O   UNL A   1      37.135  33.017  31.262  1.00  0.00    -0.237 OA
ATOM     79  O   UNL A   1      37.190  31.426  33.150  1.00  0.00    -0.237 OA
ATOM     80  O   UNL A   1      38.288  33.624  33.356  1.00  0.00    -0.744 OA
ENDBRANCH  76  77
ENDBRANCH  57  71
BRANCH  58  81
ATOM     81  C   UNL A   1      50.141  26.887  27.371  1.00  0.00    -0.014 A 
ATOM     82  C   UNL A   1      51.290  26.592  28.119  1.00  0.00     0.010 A 
ATOM     83  C   UNL A   1      50.203  26.798  25.958  1.00  0.00     0.010 A 
ATOM     84  C   UNL A   1      52.439  26.101  27.477  1.00  0.00     0.020 A 
ATOM     85  C   UNL A   1      51.342  26.297  25.318  1.00  0.00     0.020 A 
ATOM     86  C   UNL A   1      52.443  25.915  26.089  1.00  0.00     0.054 A 
BRANCH  86  87
ATOM     87  S   UNL A   1      53.786  24.969  25.308  1.00  0.00     0.124 S 
ATOM     88  O   UNL A   1      54.866  25.099  26.279  1.00  0.00    -0.237 OA
ATOM     89  O   UNL A   1      53.216  23.629  25.171  1.00  0.00    -0.237 OA
ATOM     90  O   UNL A   1      53.989  25.666  24.039  1.00  0.00    -0.744 OA
ENDBRANCH  86  87
ENDBRANCH  58  81
BRANCH  70  91
ATOM     91  C   UNL A   1      48.432  33.073  29.701  1.00  0.00    -0.014 A 
ATOM     92  C   UNL A   1      49.332  33.157  30.778  1.00  0.00     0.010 A 
ATOM     93  C   UNL A   1      48.274  34.176  28.843  1.00  0.00     0.010 A 
ATOM     94  C   UNL A   1      50.035  34.340  31.010  1.00  0.00     0.020 A 
ATOM     95  C   UNL A   1      49.000  35.346  29.052  1.00  0.00     0.020 A 
ATOM     96  C   UNL A   1      49.866  35.426  30.145  1.00  0.00     0.054 A 
BRANCH  96  97
ATOM     97  S   UNL A   1      50.823  36.934  30.444  1.00  0.00     0.124 S 
ATOM     98  O   UNL A   1      52.168  36.526  30.046  1.00  0.00    -0.237 OA
ATOM     99  O   UNL A   1      50.174  37.904  29.566  1.00  0.00    -0.237 OA
ATOM    100  O   UNL A   1      50.644  37.181  31.874  1.00  0.00    -0.744 OA
ENDBRANCH  96  97
ENDBRANCH  70  91
ENDBRANCH  44  45
ENDBRANCH  37  39
ENDBRANCH  36  37
ENDBRANCH  35  36
ENDBRANCH  34  35
ENDBRANCH  33  34
ENDBRANCH  32  33
ENDBRANCH   1  32
TORSDOF 24
ENDMDL
MODEL 2
REMARK VINA RESULT:      -8.3      2.557      3.616
REMARK SMILES C[C@@H](C(=O)OCCOCCOCCOC(=O)c1ccc(-c2c3nc(c(-c4ccc(S(=O)(=O)[O-])cc4)c4ccc([nH]4)c(-c4ccc(S(=O)(=O)[O-])cc4)c4nc(c(-c5ccc(S(=O)(=O)[O-])cc5)c5ccc2[nH]5)C=C4)C=C3)cc1)n1ccc(C(=O)N2CC[NH+](Cc3cccc(F)c3)CC2)n1
REMARK SMILES IDX 9 1 8 2 7 3 6 4 5 5 3 6 4 7 2 8 1 9 77 10 78 11 97 12 79 13
REMARK SMILES IDX 80 14 81 15 82 16 83 17 84 18 96 19 85 20 95 21 86 22 87 24
REMARK SMILES IDX 88 25 89 26 94 27 90 28 92 29 91 30 93 31 10 32 11 33 12 34
REMARK SMILES IDX 13 35 14 36 15 37 16 38 17 39 18 40 76 41 19 42 75 43 20 44
REMARK SMILES IDX 21 45 22 46 69 47 23 48 74 49 68 50 70 51 24 52 73 53 67 54
REMARK SMILES IDX 66 55 25 57 55 58 36 59 54 60 37 61 40 62 53 63 71 64 38 65
REMARK SMILES IDX 39 66 52 68 72 69 41 70 26 71 27 72 35 73 28 74 34 75 29 76
REMARK SMILES IDX 30 77 31 78 32 79 33 80 56 81 57 82 65 83 58 84 64 85 59 86
REMARK SMILES IDX 60 87 61 88 62 89 63 90 42 91 43 92 51 93 44 94 50 95 45 96
REMARK SMILES IDX 46 97 47 98 48 99 49 100
REMARK H PARENT 86 23 70 56 40 67
REMARK Flexibility Score: inf
ROOT
ATOM      1  C   UNL A   1      36.590  20.567  25.218  1.00  0.00     0.188 C 
ENDROOT
BRANCH   1   2
ATOM      2  O   UNL A   1      35.376  21.242  24.906  1.00  0.00    -0.376 OA
BRANCH   2   3
ATOM      3  C   UNL A   1      34.146  20.548  25.125  1.00  0.00     0.202 C 
BRANCH   3   4
ATOM      4  C   UNL A   1      32.919  20.922  24.272  1.00  0.00     0.261 C 
BRANCH   4   5
ATOM      5  O   UNL A   1      31.962  21.732  24.985  1.00  0.00    -0.462 OA
BRANCH   5   6
ATOM      6  C   UNL A   1      32.434  22.888  25.528  1.00  0.00     0.330 C 
ATOM      7  O   UNL A   1      32.553  23.064  26.737  1.00  0.00    -0.250 OA
BRANCH   6   8
ATOM      8  C   UNL A   1      32.791  23.941  24.476  1.00  0.00     0.213 C 
ATOM      9  C   UNL A   1      34.244  24.421  24.548  1.00  0.00     0.046 C 
BRANCH   8  10
ATOM     10  N   UNL A   1      31.793  25.011  24.400  1.00  0.00    -0.258 N 
ATOM     11  C   UNL A   1      30.494  24.996  24.839  1.00  0.00     0.110 A 
ATOM     12  N   UNL A   1      32.191  26.238  24.035  1.00  0.00    -0.167 NA
ATOM     13  C   UNL A   1      30.085  26.311  24.869  1.00  0.00     0.056 A 
ATOM     14  C   UNL A   1      31.192  27.064  24.400  1.00  0.00     0.150 A 
BRANCH  14  15
ATOM     15  C   UNL A   1      31.353  28.533  24.430  1.00  0.00     0.274 C 
ATOM     16  O   UNL A   1      30.720  29.239  23.647  1.00  0.00    -0.267 OA
ATOM     17  N   UNL A   1      32.162  29.065  25.435  1.00  0.00    -0.326 N 
ATOM     18  C   UNL A   1      31.978  30.458  25.819  1.00  0.00     0.181 C 
ATOM     19  C   UNL A   1      33.459  28.488  25.775  1.00  0.00     0.181 C 
ATOM     20  C   UNL A   1      32.522  30.787  27.237  1.00  0.00     0.284 C 
ATOM     21  C   UNL A   1      33.855  28.741  27.239  1.00  0.00     0.284 C 
ATOM     22  N   UNL A   1      33.763  30.130  27.707  1.00  0.00    -0.328 N 
ATOM     23  H   UNL A   1      33.663  30.083  28.721  1.00  0.00     0.348 HD
BRANCH  22  24
ATOM     24  C   UNL A   1      35.009  30.918  27.625  1.00  0.00     0.299 C 
BRANCH  24  25
ATOM     25  C   UNL A   1      36.132  30.426  28.495  1.00  0.00     0.009 A 
ATOM     26  C   UNL A   1      35.970  30.082  29.850  1.00  0.00     0.010 A 
ATOM     27  C   UNL A   1      37.318  30.120  27.861  1.00  0.00     0.048 A 
ATOM     28  C   UNL A   1      36.940  29.319  30.510  1.00  0.00     0.004 A 
ATOM     29  C   UNL A   1      38.148  29.213  28.462  1.00  0.00     0.123 A 
ATOM     30  C   UNL A   1      38.016  28.830  29.788  1.00  0.00     0.039 A 
ATOM     31  F   UNL A   1      38.952  28.552  27.641  1.00  0.00    -0.207 F 
ENDBRANCH  24  25
ENDBRANCH  22  24
ENDBRANCH  14  15
ENDBRANCH   8  10
ENDBRANCH   6   8
ENDBRANCH   5   6
ENDBRANCH   4   5
ENDBRANCH   3   4
ENDBRANCH   2   3
ENDBRANCH   1   2
BRANCH   1  32
ATOM     32  C   UNL A   1      37.915  21.286  24.921  1.00  0.00     0.188 C 
BRANCH  32  33
ATOM     33  O   UNL A   1      38.547  21.857  26.042  1.00  0.00    -0.376 OA
BRANCH  33  34
ATOM     34  C   UNL A   1      39.867  21.466  26.374  1.00  0.00     0.202 C 
BRANCH  34  35
ATOM     35  C   UNL A   1      41.104  22.362  26.152  1.00  0.00     0.261 C 
BRANCH  35  36
ATOM     36  O   UNL A   1      41.249  23.536  26.966  1.00  0.00    -0.460 OA
BRANCH  36  37
ATOM     37  C   UNL A   1      42.093  23.457  28.022  1.00  0.00     0.338 C 
ATOM     38  O   UNL A   1      42.412  22.440  28.621  1.00  0.00    -0.246 OA
BRANCH  37  39
ATOM     39  C   UNL A   1      42.771  24.771  28.172  1.00  0.00     0.060 A 
ATOM     40  C   UNL A   1      43.312  25.121  29.418  1.00  0.00     0.016 A 
ATOM     41  C   UNL A   1      42.882  25.652  27.096  1.00  0.00     0.016 A 
ATOM     42  C   UNL A   1      43.937  26.362  29.602  1.00  0.00     0.010 A 
ATOM     43  C   UNL A   1      43.491  26.903  27.290  1.00  0.00     0.010 A 
ATOM     44  C   UNL A   1      43.998  27.285  28.552  1.00  0.00    -0.014 A 
BRANCH  44  45
ATOM     45  C   UNL A   1      44.357  28.714  28.808  1.00  0.00     0.031 A 
ATOM     46  C   UNL A   1      43.244  29.662  29.184  1.00  0.00     0.074 A 
ATOM     47  C   UNL A   1      45.619  29.193  28.797  1.00  0.00     0.049 A 
ATOM     48  N   UNL A   1      43.277  30.960  29.337  1.00  0.00    -0.248 NA
ATOM     49  C   UNL A   1      41.930  29.057  29.467  1.00  0.00     0.031 C 
ATOM     50  C   UNL A   1      46.836  28.397  28.681  1.00  0.00     0.029 A 
ATOM     51  N   UNL A   1      46.084  30.492  28.882  1.00  0.00    -0.354 N 
ATOM     52  C   UNL A   1      42.009  31.322  29.768  1.00  0.00     0.074 A 
ATOM     53  C   UNL A   1      41.205  30.118  29.787  1.00  0.00     0.031 C 
ATOM     54  C   UNL A   1      47.897  29.228  28.657  1.00  0.00     0.029 A 
ATOM     55  C   UNL A   1      47.441  30.613  28.638  1.00  0.00     0.049 A 
ATOM     56  H   UNL A   1      45.506  31.259  29.096  1.00  0.00     0.167 HD
ATOM     57  C   UNL A   1      41.558  32.540  30.149  1.00  0.00     0.031 A 
ATOM     58  C   UNL A   1      48.183  31.711  28.353  1.00  0.00     0.031 A 
ATOM     59  C   UNL A   1      42.343  33.745  30.128  1.00  0.00     0.049 A 
ATOM     60  C   UNL A   1      47.567  33.069  28.471  1.00  0.00     0.074 A 
ATOM     61  C   UNL A   1      41.980  35.015  30.542  1.00  0.00     0.029 A 
ATOM     62  N   UNL A   1      43.638  33.836  29.650  1.00  0.00    -0.354 N 
ATOM     63  N   UNL A   1      46.343  33.398  28.791  1.00  0.00    -0.248 NA
ATOM     64  C   UNL A   1      48.468  34.209  28.235  1.00  0.00     0.031 C 
ATOM     65  C   UNL A   1      43.025  35.892  30.238  1.00  0.00     0.029 A 
ATOM     66  C   UNL A   1      44.065  35.153  29.705  1.00  0.00     0.049 A 
ATOM     67  H   UNL A   1      44.175  33.080  29.321  1.00  0.00     0.167 HD
ATOM     68  C   UNL A   1      46.350  34.784  28.867  1.00  0.00     0.074 A 
ATOM     69  C   UNL A   1      47.676  35.233  28.501  1.00  0.00     0.031 C 
ATOM     70  C   UNL A   1      45.358  35.606  29.276  1.00  0.00     0.031 A 
BRANCH  57  71
ATOM     71  C   UNL A   1      40.130  32.643  30.600  1.00  0.00    -0.014 A 
ATOM     72  C   UNL A   1      39.750  32.305  31.911  1.00  0.00     0.010 A 
ATOM     73  C   UNL A   1      39.165  33.148  29.711  1.00  0.00     0.010 A 
ATOM     74  C   UNL A   1      38.420  32.445  32.317  1.00  0.00     0.020 A 
ATOM     75  C   UNL A   1      37.841  33.316  30.121  1.00  0.00     0.020 A 
ATOM     76  C   UNL A   1      37.475  32.950  31.417  1.00  0.00     0.054 A 
BRANCH  76  77
ATOM     77  S   UNL A   1      35.763  33.154  31.978  1.00  0.00     0.124 S 
ATOM     78  O   UNL A   1      35.835  34.415  32.711  1.00  0.00    -0.237 OA
ATOM     79  O   UNL A   1      35.019  33.200  30.722  1.00  0.00    -0.237 OA
ATOM     80  O   UNL A   1      35.524  31.969  32.798  1.00  0.00    -0.744 OA
ENDBRANCH  76  77
ENDBRANCH  57  71
BRANCH  58  81
ATOM     81  C   UNL A   1      49.572  31.664  27.809  1.00  0.00    -0.014 A 
ATOM     82  C   UNL A   1      49.888  32.084  26.509  1.00  0.00     0.010 A 
ATOM     83  C   UNL A   1      50.599  31.121  28.621  1.00  0.00     0.010 A 
ATOM     84  C   UNL A   1      51.223  32.076  26.074  1.00  0.00     0.020 A 
ATOM     85  C   UNL A   1      51.931  31.125  28.194  1.00  0.00     0.020 A 
ATOM     86  C   UNL A   1      52.240  31.639  26.933  1.00  0.00     0.054 A 
BRANCH  86  87
ATOM     87  S   UNL A   1      53.981  31.948  26.503  1.00  0.00     0.124 S 
ATOM     88  O   UNL A   1      54.430  30.634  26.057  1.00  0.00    -0.237 OA
ATOM     89  O   UNL A   1      53.893  32.973  25.465  1.00  0.00    -0.237 OA
ATOM     90  O   UNL A   1      54.555  32.418  27.763  1.00  0.00    -0.744 OA
ENDBRANCH  86  87
ENDBRANCH  58  81
BRANCH  70  91
ATOM     91  C   UNL A   1      45.701  37.060  29.394  1.00  0.00    -0.014 A 
ATOM     92  C   UNL A   1      46.247  37.595  30.575  1.00  0.00     0.010 A 
ATOM     93  C   UNL A   1      45.431  37.911  28.308  1.00  0.00     0.010 A 
ATOM     94  C   UNL A   1      46.486  38.966  30.675  1.00  0.00     0.020 A 
ATOM     95  C   UNL A   1      45.700  39.276  28.394  1.00  0.00     0.020 A 
ATOM     96  C   UNL A   1      46.213  39.797  29.584  1.00  0.00     0.054 A 
BRANCH  96  97
ATOM     97  S   UNL A   1      46.572  41.567  29.726  1.00  0.00     0.124 S 
ATOM     98  O   UNL A   1      48.031  41.588  29.656  1.00  0.00    -0.237 OA
ATOM     99  O   UNL A   1      45.878  42.127  28.569  1.00  0.00    -0.237 OA
ATOM    100  O   UNL A   1      46.005  41.933  31.022  1.00  0.00    -0.744 OA
ENDBRANCH  96  97
ENDBRANCH  70  91
ENDBRANCH  44  45
ENDBRANCH  37  39
ENDBRANCH  36  37
ENDBRANCH  35  36
ENDBRANCH  34  35
ENDBRANCH  33  34
ENDBRANCH  32  33
ENDBRANCH   1  32
TORSDOF 24
ENDMDL
MODEL 3
REMARK VINA RESULT:      -8.0      5.444     11.626
REMARK SMILES C[C@@H](C(=O)OCCOCCOCCOC(=O)c1ccc(-c2c3nc(c(-c4ccc(S(=O)(=O)[O-])cc4)c4ccc([nH]4)c(-c4ccc(S(=O)(=O)[O-])cc4)c4nc(c(-c5ccc(S(=O)(=O)[O-])cc5)c5ccc2[nH]5)C=C4)C=C3)cc1)n1ccc(C(=O)N2CC[NH+](Cc3cccc(F)c3)CC2)n1
REMARK SMILES IDX 9 1 8 2 7 3 6 4 5 5 3 6 4 7 2 8 1 9 77 10 78 11 97 12 79 13
REMARK SMILES IDX 80 14 81 15 82 16 83 17 84 18 96 19 85 20 95 21 86 22 87 24
REMARK SMILES IDX 88 25 89 26 94 27 90 28 92 29 91 30 93 31 10 32 11 33 12 34
REMARK SMILES IDX 13 35 14 36 15 37 16 38 17 39 18 40 76 41 19 42 75 43 20 44
REMARK SMILES IDX 21 45 22 46 69 47 23 48 74 49 68 50 70 51 24 52 73 53 67 54
REMARK SMILES IDX 66 55 25 57 55 58 36 59 54 60 37 61 40 62 53 63 71 64 38 65
REMARK SMILES IDX 39 66 52 68 72 69 41 70 26 71 27 72 35 73 28 74 34 75 29 76
REMARK SMILES IDX 30 77 31 78 32 79 33 80 56 81 57 82 65 83 58 84 64 85 59 86
REMARK SMILES IDX 60 87 61 88 62 89 63 90 42 91 43 92 51 93 44 94 50 95 45 96
REMARK SMILES IDX 46 97 47 98 48 99 49 100
REMARK H PARENT 86 23 70 56 40 67
REMARK Flexibility Score: inf
ROOT
ATOM      1  C   UNL A   1      39.184  27.882  28.769  1.00  0.00     0.188 C 
ENDROOT
BRANCH   1   2
ATOM      2  O   UNL A   1      39.746  27.048  27.761  1.00  0.00    -0.376 OA
BRANCH   2   3
ATOM      3  C   UNL A   1      40.945  26.334  28.073  1.00  0.00     0.202 C 
BRANCH   3   4
ATOM      4  C   UNL A   1      40.900  24.795  28.127  1.00  0.00     0.261 C 
BRANCH   4   5
ATOM      5  O   UNL A   1      40.650  24.192  26.841  1.00  0.00    -0.462 OA
BRANCH   5   6
ATOM      6  C   UNL A   1      39.377  23.767  26.610  1.00  0.00     0.330 C 
ATOM      7  O   UNL A   1      38.427  24.532  26.468  1.00  0.00    -0.250 OA
BRANCH   6   8
ATOM      8  C   UNL A   1      39.256  22.242  26.555  1.00  0.00     0.213 C 
ATOM      9  C   UNL A   1      40.547  21.535  26.126  1.00  0.00     0.046 C 
BRANCH   8  10
ATOM     10  N   UNL A   1      38.051  21.804  25.848  1.00  0.00    -0.258 N 
ATOM     11  C   UNL A   1      37.881  20.695  25.061  1.00  0.00     0.110 A 
ATOM     12  N   UNL A   1      36.890  22.422  26.111  1.00  0.00    -0.167 NA
ATOM     13  C   UNL A   1      36.520  20.530  24.918  1.00  0.00     0.056 A 
ATOM     14  C   UNL A   1      35.932  21.608  25.629  1.00  0.00     0.150 A 
BRANCH  14  15
ATOM     15  C   UNL A   1      34.503  21.785  25.964  1.00  0.00     0.274 C 
ATOM     16  O   UNL A   1      33.930  20.961  26.675  1.00  0.00    -0.267 OA
ATOM     17  N   UNL A   1      33.885  22.956  25.524  1.00  0.00    -0.326 N 
ATOM     18  C   UNL A   1      32.683  23.413  26.206  1.00  0.00     0.181 C 
ATOM     19  C   UNL A   1      34.074  23.473  24.172  1.00  0.00     0.181 C 
ATOM     20  C   UNL A   1      32.393  24.927  26.007  1.00  0.00     0.284 C 
ATOM     21  C   UNL A   1      33.908  25.000  24.093  1.00  0.00     0.284 C 
ATOM     22  N   UNL A   1      32.691  25.555  24.699  1.00  0.00    -0.328 N 
ATOM     23  H   UNL A   1      32.902  26.528  24.920  1.00  0.00     0.348 HD
BRANCH  22  24
ATOM     24  C   UNL A   1      31.553  25.759  23.780  1.00  0.00     0.299 C 
BRANCH  24  25
ATOM     25  C   UNL A   1      31.153  27.193  23.572  1.00  0.00     0.009 A 
ATOM     26  C   UNL A   1      29.982  27.581  22.895  1.00  0.00     0.010 A 
ATOM     27  C   UNL A   1      31.882  28.144  24.255  1.00  0.00     0.048 A 
ATOM     28  C   UNL A   1      29.485  28.883  23.024  1.00  0.00     0.004 A 
ATOM     29  C   UNL A   1      31.274  29.340  24.527  1.00  0.00     0.123 A 
ATOM     30  C   UNL A   1      30.110  29.757  23.899  1.00  0.00     0.039 A 
ATOM     31  F   UNL A   1      31.740  29.982  25.589  1.00  0.00    -0.207 F 
ENDBRANCH  24  25
ENDBRANCH  22  24
ENDBRANCH  14  15
ENDBRANCH   8  10
ENDBRANCH   6   8
ENDBRANCH   5   6
ENDBRANCH   4   5
ENDBRANCH   3   4
ENDBRANCH   2   3
ENDBRANCH   1   2
BRANCH   1  32
ATOM     32  C   UNL A   1      38.961  29.366  28.439  1.00  0.00     0.188 C 
BRANCH  32  33
ATOM     33  O   UNL A   1      37.896  29.626  27.556  1.00  0.00    -0.376 OA
BRANCH  33  34
ATOM     34  C   UNL A   1      36.567  29.620  28.045  1.00  0.00     0.202 C 
BRANCH  34  35
ATOM     35  C   UNL A   1      35.423  30.443  27.416  1.00  0.00     0.261 C 
BRANCH  35  36
ATOM     36  O   UNL A   1      34.371  30.915  28.272  1.00  0.00    -0.460 OA
BRANCH  36  37
ATOM     37  C   UNL A   1      34.376  32.232  28.591  1.00  0.00     0.338 C 
ATOM     38  O   UNL A   1      33.592  33.078  28.186  1.00  0.00    -0.246 OA
BRANCH  37  39
ATOM     39  C   UNL A   1      35.329  32.432  29.713  1.00  0.00     0.060 A 
ATOM     40  C   UNL A   1      36.192  33.538  29.686  1.00  0.00     0.016 A 
ATOM     41  C   UNL A   1      35.373  31.546  30.789  1.00  0.00     0.016 A 
ATOM     42  C   UNL A   1      37.120  33.746  30.716  1.00  0.00     0.010 A 
ATOM     43  C   UNL A   1      36.318  31.745  31.809  1.00  0.00     0.010 A 
ATOM     44  C   UNL A   1      37.222  32.829  31.769  1.00  0.00    -0.014 A 
BRANCH  44  45
ATOM     45  C   UNL A   1      38.403  32.848  32.688  1.00  0.00     0.031 A 
ATOM     46  C   UNL A   1      39.755  32.523  32.101  1.00  0.00     0.074 A 
ATOM     47  C   UNL A   1      38.346  33.209  33.987  1.00  0.00     0.049 A 
ATOM     48  N   UNL A   1      40.902  32.356  32.707  1.00  0.00    -0.248 NA
ATOM     49  C   UNL A   1      39.829  32.414  30.633  1.00  0.00     0.031 C 
ATOM     50  C   UNL A   1      37.186  33.769  34.672  1.00  0.00     0.029 A 
ATOM     51  N   UNL A   1      39.312  33.148  34.976  1.00  0.00    -0.354 N 
ATOM     52  C   UNL A   1      41.836  32.162  31.699  1.00  0.00     0.074 A 
ATOM     53  C   UNL A   1      41.115  32.162  30.444  1.00  0.00     0.031 C 
ATOM     54  C   UNL A   1      37.497  33.954  35.970  1.00  0.00     0.029 A 
ATOM     55  C   UNL A   1      38.827  33.424  36.242  1.00  0.00     0.049 A 
ATOM     56  H   UNL A   1      40.254  32.928  34.796  1.00  0.00     0.167 HD
ATOM     57  C   UNL A   1      43.179  32.031  31.801  1.00  0.00     0.031 A 
ATOM     58  C   UNL A   1      39.378  33.190  37.458  1.00  0.00     0.031 A 
ATOM     59  C   UNL A   1      43.907  32.021  33.041  1.00  0.00     0.049 A 
ATOM     60  C   UNL A   1      40.797  32.726  37.550  1.00  0.00     0.074 A 
ATOM     61  C   UNL A   1      45.276  31.941  33.235  1.00  0.00     0.029 A 
ATOM     62  N   UNL A   1      43.330  32.073  34.297  1.00  0.00    -0.354 N 
ATOM     63  N   UNL A   1      41.644  32.459  36.591  1.00  0.00    -0.248 NA
ATOM     64  C   UNL A   1      41.345  32.586  38.909  1.00  0.00     0.031 C 
ATOM     65  C   UNL A   1      45.521  31.860  34.608  1.00  0.00     0.029 A 
ATOM     66  C   UNL A   1      44.311  31.966  35.269  1.00  0.00     0.049 A 
ATOM     67  H   UNL A   1      42.366  32.172  34.474  1.00  0.00     0.167 HD
ATOM     68  C   UNL A   1      42.845  32.192  37.233  1.00  0.00     0.074 A 
ATOM     69  C   UNL A   1      42.602  32.269  38.657  1.00  0.00     0.031 C 
ATOM     70  C   UNL A   1      44.059  31.974  36.682  1.00  0.00     0.031 A 
BRANCH  57  71
ATOM     71  C   UNL A   1      43.960  31.856  30.530  1.00  0.00    -0.014 A 
ATOM     72  C   UNL A   1      44.211  30.580  29.995  1.00  0.00     0.010 A 
ATOM     73  C   UNL A   1      44.392  32.996  29.829  1.00  0.00     0.010 A 
ATOM     74  C   UNL A   1      44.908  30.447  28.791  1.00  0.00     0.020 A 
ATOM     75  C   UNL A   1      45.063  32.868  28.613  1.00  0.00     0.020 A 
ATOM     76  C   UNL A   1      45.329  31.594  28.109  1.00  0.00     0.054 A 
BRANCH  76  77
ATOM     77  S   UNL A   1      46.203  31.395  26.533  1.00  0.00     0.124 S 
ATOM     78  O   UNL A   1      47.599  31.383  26.962  1.00  0.00    -0.237 OA
ATOM     79  O   UNL A   1      45.687  30.120  26.040  1.00  0.00    -0.237 OA
ATOM     80  O   UNL A   1      45.799  32.568  25.762  1.00  0.00    -0.744 OA
ENDBRANCH  76  77
ENDBRANCH  57  71
BRANCH  58  81
ATOM     81  C   UNL A   1      38.623  33.253  38.744  1.00  0.00    -0.014 A 
ATOM     82  C   UNL A   1      38.784  34.300  39.663  1.00  0.00     0.010 A 
ATOM     83  C   UNL A   1      37.751  32.184  39.071  1.00  0.00     0.010 A 
ATOM     84  C   UNL A   1      37.999  34.340  40.827  1.00  0.00     0.020 A 
ATOM     85  C   UNL A   1      36.959  32.228  40.224  1.00  0.00     0.020 A 
ATOM     86  C   UNL A   1      37.063  33.329  41.078  1.00  0.00     0.054 A 
BRANCH  86  87
ATOM     87  S   UNL A   1      35.821  33.553  42.389  1.00  0.00     0.124 S 
ATOM     88  O   UNL A   1      34.699  34.134  41.660  1.00  0.00    -0.237 OA
ATOM     89  O   UNL A   1      35.614  32.195  42.890  1.00  0.00    -0.237 OA
ATOM     90  O   UNL A   1      36.492  34.445  43.333  1.00  0.00    -0.744 OA
ENDBRANCH  86  87
ENDBRANCH  58  81
BRANCH  70  91
ATOM     91  C   UNL A   1      45.213  31.857  37.632  1.00  0.00    -0.014 A 
ATOM     92  C   UNL A   1      45.714  30.605  38.031  1.00  0.00     0.010 A 
ATOM     93  C   UNL A   1      45.775  33.030  38.164  1.00  0.00     0.010 A 
ATOM     94  C   UNL A   1      46.741  30.533  38.974  1.00  0.00     0.020 A 
ATOM     95  C   UNL A   1      46.823  32.961  39.080  1.00  0.00     0.020 A 
ATOM     96  C   UNL A   1      47.289  31.711  39.491  1.00  0.00     0.054 A 
BRANCH  96  97
ATOM     97  S   UNL A   1      48.650  31.589  40.681  1.00  0.00     0.124 S 
ATOM     98  O   UNL A   1      49.803  31.391  39.806  1.00  0.00    -0.237 OA
ATOM     99  O   UNL A   1      48.592  32.878  41.365  1.00  0.00    -0.237 OA
ATOM    100  O   UNL A   1      48.288  30.436  41.504  1.00  0.00    -0.744 OA
ENDBRANCH  96  97
ENDBRANCH  70  91
ENDBRANCH  44  45
ENDBRANCH  37  39
ENDBRANCH  36  37
ENDBRANCH  35  36
ENDBRANCH  34  35
ENDBRANCH  33  34
ENDBRANCH  32  33
ENDBRANCH   1  32
TORSDOF 24
ENDMDL
