MODEL 1
REMARK VINA RESULT:      -6.4      0.000      0.000
REMARK SMILES [NH3+][C@@H](Cc1c[nH]c2ccccc12)C(=O)N[C@@H](CS)C(=O)N[C@@H](CO)C(=O)OCCOCCOCCOC(=O)c1ccc(-c2c3nc(c(-c4ccc(S(=O)(=O)[O-])cc4)c4ccc([nH]4)c(-c4ccc(S(=O)(=O)[O-])cc4)c4nc(c(-c5ccc(S(=O)(=O)[O-])cc5)c5ccc2[nH]5)C=C4)C=C3)cc1
REMARK SMILES IDX 30 1 29 2 28 3 27 4 25 5 26 6 22 7 21 8 19 9 20 10 16 12
REMARK SMILES IDX 15 13 13 14 14 15 2 17 1 18 3 22 4 23 5 24 12 25 6 26 7 27
REMARK SMILES IDX 11 28 8 30 10 31 9 32 17 33 18 34 23 36 24 37 31 39 32 40
REMARK SMILES IDX 33 41 34 42 35 43 36 44 37 45 38 46 39 47 40 48 98 49 41 50
REMARK SMILES IDX 97 51 42 52 43 53 44 54 91 55 45 56 96 57 90 58 92 59 46 60
REMARK SMILES IDX 95 61 89 62 88 63 47 65 77 66 58 67 76 68 59 69 62 70 75 71
REMARK SMILES IDX 93 72 60 73 61 74 74 76 94 77 63 78 48 79 49 80 57 81 50 82
REMARK SMILES IDX 56 83 51 84 52 85 53 86 54 87 55 88 78 89 79 90 87 91 80 92
REMARK SMILES IDX 86 93 81 94 82 95 83 96 84 97 85 98 64 99 65 100 73 101
REMARK SMILES IDX 66 102 72 103 67 104 68 105 69 106 70 107 71 108
REMARK H PARENT 21 11 15 16 1 19 1 20 1 21 6 29 18 35 24 38 92 64 62 75
REMARK Flexibility Score: inf
ROOT
ATOM      1  O   UNL A   1      39.680  28.824  32.762  1.00  0.00    -0.376 OA
ENDROOT
BRANCH   1   2
ATOM      2  C   UNL A   1      40.547  29.678  33.506  1.00  0.00     0.202 C 
BRANCH   2   3
ATOM      3  C   UNL A   1      40.730  29.228  34.953  1.00  0.00     0.261 C 
BRANCH   3   4
ATOM      4  O   UNL A   1      40.815  30.355  35.839  1.00  0.00    -0.462 OA
BRANCH   4   5
ATOM      5  C   UNL A   1      39.654  31.024  36.090  1.00  0.00     0.331 C 
ATOM      6  O   UNL A   1      38.553  30.494  36.164  1.00  0.00    -0.250 OA
BRANCH   5   7
ATOM      7  C   UNL A   1      39.900  32.533  36.200  1.00  0.00     0.218 C 
BRANCH   7   8
ATOM      8  N   UNL A   1      38.800  33.326  35.613  1.00  0.00    -0.339 N 
ATOM      9  C   UNL A   1      39.056  34.522  35.010  1.00  0.00     0.244 C 
ATOM     10  O   UNL A   1      39.156  35.516  35.734  1.00  0.00    -0.273 OA
ATOM     11  H   UNL A   1      37.876  32.988  35.658  1.00  0.00     0.164 HD
BRANCH   9  12
ATOM     12  C   UNL A   1      39.163  34.586  33.463  1.00  0.00     0.181 C 
BRANCH  12  13
ATOM     13  N   UNL A   1      40.074  33.524  33.058  1.00  0.00    -0.338 N 
ATOM     14  C   UNL A   1      41.314  33.623  32.501  1.00  0.00     0.279 C 
ATOM     15  O   UNL A   1      42.084  32.674  32.692  1.00  0.00    -0.268 OA
ATOM     16  H   UNL A   1      39.750  32.606  33.207  1.00  0.00     0.164 HD
BRANCH  14  17
ATOM     17  C   UNL A   1      41.763  34.826  31.638  1.00  0.00     0.275 C 
BRANCH  17  18
ATOM     18  N   UNL A   1      42.836  35.594  32.303  1.00  0.00    -0.347 N 
ATOM     19  H   UNL A   1      42.445  36.445  32.707  1.00  0.00     0.345 HD
ATOM     20  H   UNL A   1      43.552  35.840  31.620  1.00  0.00     0.345 HD
ATOM     21  H   UNL A   1      43.252  35.027  33.043  1.00  0.00     0.345 HD
ENDBRANCH  17  18
BRANCH  17  22
ATOM     22  C   UNL A   1      41.931  34.532  30.129  1.00  0.00     0.113 C 
BRANCH  22  23
ATOM     23  C   UNL A   1      42.817  35.443  29.315  1.00  0.00    -0.016 A 
ATOM     24  C   UNL A   1      42.963  36.813  29.455  1.00  0.00     0.087 A 
ATOM     25  C   UNL A   1      43.621  35.071  28.183  1.00  0.00     0.003 A 
ATOM     26  N   UNL A   1      43.860  37.259  28.522  1.00  0.00    -0.361 N 
ATOM     27  C   UNL A   1      44.315  36.207  27.766  1.00  0.00     0.046 A 
ATOM     28  C   UNL A   1      43.832  33.869  27.478  1.00  0.00     0.010 A 
ATOM     29  H   UNL A   1      44.138  38.197  28.408  1.00  0.00     0.166 HD
ATOM     30  C   UNL A   1      45.259  36.190  26.732  1.00  0.00     0.026 A 
ATOM     31  C   UNL A   1      44.740  33.841  26.412  1.00  0.00     0.001 A 
ATOM     32  C   UNL A   1      45.456  34.982  26.059  1.00  0.00     0.002 A 
ENDBRANCH  22  23
ENDBRANCH  17  22
ENDBRANCH  14  17
ENDBRANCH  12  13
BRANCH  12  33
ATOM     33  C   UNL A   1      37.869  34.678  32.645  1.00  0.00     0.101 C 
BRANCH  33  34
ATOM     34  S   UNL A   1      36.302  34.573  33.557  1.00  0.00    -0.177 SA
ATOM     35  H   UNL A   1      36.485  35.024  34.827  1.00  0.00     0.102 HD
ENDBRANCH  33  34
ENDBRANCH  12  33
ENDBRANCH   9  12
ENDBRANCH   7   8
BRANCH   7  36
ATOM     36  C   UNL A   1      40.109  32.879  37.682  1.00  0.00     0.193 C 
BRANCH  36  37
ATOM     37  O   UNL A   1      41.135  32.061  38.254  1.00  0.00    -0.394 OA
ATOM     38  H   UNL A   1      40.936  31.900  39.189  1.00  0.00     0.210 HD
ENDBRANCH  36  37
ENDBRANCH   7  36
ENDBRANCH   5   7
ENDBRANCH   4   5
ENDBRANCH   3   4
ENDBRANCH   2   3
ENDBRANCH   1   2
BRANCH   1  39
ATOM     39  C   UNL A   1      38.295  28.951  33.052  1.00  0.00     0.188 C 
BRANCH  39  40
ATOM     40  C   UNL A   1      37.540  29.976  32.182  1.00  0.00     0.188 C 
BRANCH  40  41
ATOM     41  O   UNL A   1      38.020  31.307  32.076  1.00  0.00    -0.376 OA
BRANCH  41  42
ATOM     42  C   UNL A   1      37.973  31.938  30.804  1.00  0.00     0.202 C 
BRANCH  42  43
ATOM     43  C   UNL A   1      36.677  31.792  29.999  1.00  0.00     0.261 C 
BRANCH  43  44
ATOM     44  O   UNL A   1      36.891  31.318  28.656  1.00  0.00    -0.460 OA
BRANCH  44  45
ATOM     45  C   UNL A   1      36.771  29.981  28.498  1.00  0.00     0.338 C 
ATOM     46  O   UNL A   1      35.736  29.327  28.455  1.00  0.00    -0.246 OA
BRANCH  45  47
ATOM     47  C   UNL A   1      38.065  29.368  28.152  1.00  0.00     0.060 A 
ATOM     48  C   UNL A   1      38.742  28.708  29.182  1.00  0.00     0.016 A 
ATOM     49  C   UNL A   1      38.684  29.571  26.917  1.00  0.00     0.016 A 
ATOM     50  C   UNL A   1      40.064  28.318  29.017  1.00  0.00     0.010 A 
ATOM     51  C   UNL A   1      40.017  29.165  26.748  1.00  0.00     0.010 A 
ATOM     52  C   UNL A   1      40.725  28.578  27.813  1.00  0.00    -0.014 A 
BRANCH  52  53
ATOM     53  C   UNL A   1      42.192  28.361  27.766  1.00  0.00     0.031 A 
ATOM     54  C   UNL A   1      43.107  29.391  28.374  1.00  0.00     0.074 A 
ATOM     55  C   UNL A   1      42.698  27.200  27.311  1.00  0.00     0.049 A 
ATOM     56  N   UNL A   1      44.410  29.374  28.487  1.00  0.00    -0.248 NA
ATOM     57  C   UNL A   1      42.467  30.584  28.951  1.00  0.00     0.031 C 
ATOM     58  C   UNL A   1      41.914  26.081  26.790  1.00  0.00     0.029 A 
ATOM     59  N   UNL A   1      43.997  26.763  27.243  1.00  0.00    -0.354 N 
ATOM     60  C   UNL A   1      44.748  30.557  29.136  1.00  0.00     0.074 A 
ATOM     61  C   UNL A   1      43.514  31.271  29.383  1.00  0.00     0.031 C 
ATOM     62  C   UNL A   1      42.749  25.079  26.464  1.00  0.00     0.029 A 
ATOM     63  C   UNL A   1      44.125  25.500  26.718  1.00  0.00     0.049 A 
ATOM     64  H   UNL A   1      44.764  27.303  27.541  1.00  0.00     0.167 HD
ATOM     65  C   UNL A   1      45.974  31.009  29.494  1.00  0.00     0.031 A 
ATOM     66  C   UNL A   1      45.229  24.771  26.453  1.00  0.00     0.031 A 
ATOM     67  C   UNL A   1      47.206  30.314  29.235  1.00  0.00     0.049 A 
ATOM     68  C   UNL A   1      46.587  25.341  26.769  1.00  0.00     0.074 A 
ATOM     69  C   UNL A   1      48.499  30.716  29.526  1.00  0.00     0.029 A 
ATOM     70  N   UNL A   1      47.301  29.077  28.619  1.00  0.00    -0.354 N 
ATOM     71  N   UNL A   1      46.891  26.478  27.349  1.00  0.00    -0.248 NA
ATOM     72  C   UNL A   1      47.751  24.526  26.392  1.00  0.00     0.031 C 
ATOM     73  C   UNL A   1      49.378  29.738  29.048  1.00  0.00     0.029 A 
ATOM     74  C   UNL A   1      48.630  28.707  28.503  1.00  0.00     0.049 A 
ATOM     75  H   UNL A   1      46.535  28.540  28.311  1.00  0.00     0.167 HD
ATOM     76  C   UNL A   1      48.280  26.507  27.419  1.00  0.00     0.074 A 
ATOM     77  C   UNL A   1      48.755  25.267  26.841  1.00  0.00     0.031 C 
ATOM     78  C   UNL A   1      49.090  27.474  27.917  1.00  0.00     0.031 A 
BRANCH  65  79
ATOM     79  C   UNL A   1      46.036  32.357  30.156  1.00  0.00    -0.014 A 
ATOM     80  C   UNL A   1      46.631  33.458  29.515  1.00  0.00     0.010 A 
ATOM     81  C   UNL A   1      45.484  32.524  31.439  1.00  0.00     0.010 A 
ATOM     82  C   UNL A   1      46.710  34.694  30.164  1.00  0.00     0.020 A 
ATOM     83  C   UNL A   1      45.543  33.763  32.082  1.00  0.00     0.020 A 
ATOM     84  C   UNL A   1      46.174  34.834  31.448  1.00  0.00     0.054 A 
BRANCH  84  85
ATOM     85  S   UNL A   1      46.295  36.445  32.275  1.00  0.00     0.124 S 
ATOM     86  O   UNL A   1      45.813  36.128  33.617  1.00  0.00    -0.237 OA
ATOM     87  O   UNL A   1      47.719  36.752  32.175  1.00  0.00    -0.237 OA
ATOM     88  O   UNL A   1      45.418  37.305  31.484  1.00  0.00    -0.744 OA
ENDBRANCH  84  85
ENDBRANCH  65  79
BRANCH  66  89
ATOM     89  C   UNL A   1      45.102  23.437  25.809  1.00  0.00    -0.014 A 
ATOM     90  C   UNL A   1      45.300  22.257  26.545  1.00  0.00     0.010 A 
ATOM     91  C   UNL A   1      44.800  23.346  24.437  1.00  0.00     0.010 A 
ATOM     92  C   UNL A   1      45.217  21.010  25.917  1.00  0.00     0.020 A 
ATOM     93  C   UNL A   1      44.691  22.102  23.812  1.00  0.00     0.020 A 
ATOM     94  C   UNL A   1      44.915  20.941  24.554  1.00  0.00     0.054 A 
BRANCH  94  95
ATOM     95  S   UNL A   1      44.770  19.315  23.763  1.00  0.00     0.124 S 
ATOM     96  O   UNL A   1      46.050  18.701  24.098  1.00  0.00    -0.237 OA
ATOM     97  O   UNL A   1      43.600  18.741  24.423  1.00  0.00    -0.237 OA
ATOM     98  O   UNL A   1      44.580  19.641  22.350  1.00  0.00    -0.744 OA
ENDBRANCH  94  95
ENDBRANCH  66  89
BRANCH  78  99
ATOM     99  C   UNL A   1      50.574  27.221  27.875  1.00  0.00    -0.014 A 
ATOM    100  C   UNL A   1      51.330  27.517  26.727  1.00  0.00     0.010 A 
ATOM    101  C   UNL A   1      51.224  26.713  29.014  1.00  0.00     0.010 A 
ATOM    102  C   UNL A   1      52.706  27.273  26.706  1.00  0.00     0.020 A 
ATOM    103  C   UNL A   1      52.604  26.491  29.004  1.00  0.00     0.020 A 
ATOM    104  C   UNL A   1      53.334  26.756  27.843  1.00  0.00     0.054 A 
BRANCH 104 105
ATOM    105  S   UNL A   1      55.125  26.472  27.806  1.00  0.00     0.124 S 
ATOM    106  O   UNL A   1      55.478  26.577  29.220  1.00  0.00    -0.237 OA
ATOM    107  O   UNL A   1      55.229  25.134  27.230  1.00  0.00    -0.237 OA
ATOM    108  O   UNL A   1      55.628  27.549  26.956  1.00  0.00    -0.744 OA
ENDBRANCH 104 105
ENDBRANCH  78  99
ENDBRANCH  52  53
ENDBRANCH  45  47
ENDBRANCH  44  45
ENDBRANCH  43  44
ENDBRANCH  42  43
ENDBRANCH  41  42
ENDBRANCH  40  41
ENDBRANCH  39  40
ENDBRANCH   1  39
TORSDOF 31
ENDMDL
MODEL 2
REMARK VINA RESULT:      -6.2      7.993     15.855
REMARK SMILES [NH3+][C@@H](Cc1c[nH]c2ccccc12)C(=O)N[C@@H](CS)C(=O)N[C@@H](CO)C(=O)OCCOCCOCCOC(=O)c1ccc(-c2c3nc(c(-c4ccc(S(=O)(=O)[O-])cc4)c4ccc([nH]4)c(-c4ccc(S(=O)(=O)[O-])cc4)c4nc(c(-c5ccc(S(=O)(=O)[O-])cc5)c5ccc2[nH]5)C=C4)C=C3)cc1
REMARK SMILES IDX 30 1 29 2 28 3 27 4 25 5 26 6 22 7 21 8 19 9 20 10 16 12
REMARK SMILES IDX 15 13 13 14 14 15 2 17 1 18 3 22 4 23 5 24 12 25 6 26 7 27
REMARK SMILES IDX 11 28 8 30 10 31 9 32 17 33 18 34 23 36 24 37 31 39 32 40
REMARK SMILES IDX 33 41 34 42 35 43 36 44 37 45 38 46 39 47 40 48 98 49 41 50
REMARK SMILES IDX 97 51 42 52 43 53 44 54 91 55 45 56 96 57 90 58 92 59 46 60
REMARK SMILES IDX 95 61 89 62 88 63 47 65 77 66 58 67 76 68 59 69 62 70 75 71
REMARK SMILES IDX 93 72 60 73 61 74 74 76 94 77 63 78 48 79 49 80 57 81 50 82
REMARK SMILES IDX 56 83 51 84 52 85 53 86 54 87 55 88 78 89 79 90 87 91 80 92
REMARK SMILES IDX 86 93 81 94 82 95 83 96 84 97 85 98 64 99 65 100 73 101
REMARK SMILES IDX 66 102 72 103 67 104 68 105 69 106 70 107 71 108
REMARK H PARENT 21 11 15 16 1 19 1 20 1 21 6 29 18 35 24 38 92 64 62 75
REMARK Flexibility Score: inf
ROOT
ATOM      1  O   UNL A   1      40.826  34.669  31.516  1.00  0.00    -0.376 OA
ENDROOT
BRANCH   1   2
ATOM      2  C   UNL A   1      40.874  33.584  32.441  1.00  0.00     0.202 C 
BRANCH   2   3
ATOM      3  C   UNL A   1      39.808  33.680  33.529  1.00  0.00     0.261 C 
BRANCH   3   4
ATOM      4  O   UNL A   1      38.903  32.567  33.466  1.00  0.00    -0.462 OA
BRANCH   4   5
ATOM      5  C   UNL A   1      37.590  32.832  33.717  1.00  0.00     0.331 C 
ATOM      6  O   UNL A   1      37.181  33.845  34.270  1.00  0.00    -0.250 OA
BRANCH   5   7
ATOM      7  C   UNL A   1      36.698  31.666  33.276  1.00  0.00     0.218 C 
BRANCH   7   8
ATOM      8  N   UNL A   1      35.881  31.999  32.091  1.00  0.00    -0.339 N 
ATOM      9  C   UNL A   1      36.477  32.266  30.893  1.00  0.00     0.244 C 
ATOM     10  O   UNL A   1      36.900  33.410  30.710  1.00  0.00    -0.273 OA
ATOM     11  H   UNL A   1      34.900  32.028  32.166  1.00  0.00     0.164 HD
BRANCH   9  12
ATOM     12  C   UNL A   1      36.554  31.151  29.817  1.00  0.00     0.181 C 
BRANCH  12  13
ATOM     13  N   UNL A   1      35.211  30.995  29.272  1.00  0.00    -0.338 N 
ATOM     14  C   UNL A   1      34.482  31.871  28.525  1.00  0.00     0.279 C 
ATOM     15  O   UNL A   1      33.625  31.382  27.779  1.00  0.00    -0.268 OA
ATOM     16  H   UNL A   1      34.769  30.139  29.471  1.00  0.00     0.164 HD
BRANCH  14  17
ATOM     17  C   UNL A   1      34.659  33.406  28.603  1.00  0.00     0.275 C 
BRANCH  17  18
ATOM     18  N   UNL A   1      35.675  33.880  27.639  1.00  0.00    -0.347 N 
ATOM     19  H   UNL A   1      35.795  33.185  26.902  1.00  0.00     0.345 HD
ATOM     20  H   UNL A   1      36.562  34.020  28.122  1.00  0.00     0.345 HD
ATOM     21  H   UNL A   1      35.368  34.762  27.229  1.00  0.00     0.345 HD
ENDBRANCH  17  18
BRANCH  17  22
ATOM     22  C   UNL A   1      33.348  34.219  28.710  1.00  0.00     0.113 C 
BRANCH  22  23
ATOM     23  C   UNL A   1      33.384  35.546  29.430  1.00  0.00    -0.016 A 
ATOM     24  C   UNL A   1      33.261  36.805  28.869  1.00  0.00     0.087 A 
ATOM     25  C   UNL A   1      33.636  35.756  30.830  1.00  0.00     0.003 A 
ATOM     26  N   UNL A   1      33.350  37.742  29.864  1.00  0.00    -0.361 N 
ATOM     27  C   UNL A   1      33.528  37.125  31.077  1.00  0.00     0.046 A 
ATOM     28  C   UNL A   1      33.936  34.907  31.914  1.00  0.00     0.010 A 
ATOM     29  H   UNL A   1      33.296  38.716  29.730  1.00  0.00     0.166 HD
ATOM     30  C   UNL A   1      33.633  37.680  32.358  1.00  0.00     0.026 A 
ATOM     31  C   UNL A   1      34.088  35.450  33.197  1.00  0.00     0.001 A 
ATOM     32  C   UNL A   1      33.918  36.815  33.416  1.00  0.00     0.002 A 
ENDBRANCH  22  23
ENDBRANCH  17  22
ENDBRANCH  14  17
ENDBRANCH  12  13
BRANCH  12  33
ATOM     33  C   UNL A   1      37.673  31.222  28.771  1.00  0.00     0.101 C 
BRANCH  33  34
ATOM     34  S   UNL A   1      38.597  29.694  28.439  1.00  0.00    -0.177 SA
ATOM     35  H   UNL A   1      39.926  29.919  28.625  1.00  0.00     0.102 HD
ENDBRANCH  33  34
ENDBRANCH  12  33
ENDBRANCH   9  12
ENDBRANCH   7   8
BRANCH   7  36
ATOM     36  C   UNL A   1      37.595  30.447  33.011  1.00  0.00     0.193 C 
BRANCH  36  37
ATOM     37  O   UNL A   1      37.857  29.737  34.226  1.00  0.00    -0.394 OA
ATOM     38  H   UNL A   1      37.086  29.800  34.810  1.00  0.00     0.210 HD
ENDBRANCH  36  37
ENDBRANCH   7  36
ENDBRANCH   5   7
ENDBRANCH   4   5
ENDBRANCH   3   4
ENDBRANCH   2   3
ENDBRANCH   1   2
BRANCH   1  39
ATOM     39  C   UNL A   1      41.105  34.336  30.163  1.00  0.00     0.188 C 
BRANCH  39  40
ATOM     40  C   UNL A   1      42.576  34.521  29.738  1.00  0.00     0.188 C 
BRANCH  40  41
ATOM     41  O   UNL A   1      42.953  35.646  28.959  1.00  0.00    -0.376 OA
BRANCH  41  42
ATOM     42  C   UNL A   1      41.939  36.562  28.570  1.00  0.00     0.202 C 
BRANCH  42  43
ATOM     43  C   UNL A   1      42.227  37.450  27.355  1.00  0.00     0.261 C 
BRANCH  43  44
ATOM     44  O   UNL A   1      43.213  38.468  27.613  1.00  0.00    -0.460 OA
BRANCH  44  45
ATOM     45  C   UNL A   1      42.714  39.713  27.784  1.00  0.00     0.338 C 
ATOM     46  O   UNL A   1      41.885  40.284  27.085  1.00  0.00    -0.246 OA
BRANCH  45  47
ATOM     47  C   UNL A   1      43.122  40.276  29.082  1.00  0.00     0.060 A 
ATOM     48  C   UNL A   1      44.402  39.943  29.535  1.00  0.00     0.016 A 
ATOM     49  C   UNL A   1      42.235  40.962  29.914  1.00  0.00     0.016 A 
ATOM     50  C   UNL A   1      44.779  40.219  30.842  1.00  0.00     0.010 A 
ATOM     51  C   UNL A   1      42.622  41.251  31.232  1.00  0.00     0.010 A 
ATOM     52  C   UNL A   1      43.880  40.840  31.713  1.00  0.00    -0.014 A 
BRANCH  52  53
ATOM     53  C   UNL A   1      44.235  40.899  33.152  1.00  0.00     0.031 A 
ATOM     54  C   UNL A   1      43.965  39.703  34.026  1.00  0.00     0.074 A 
ATOM     55  C   UNL A   1      44.914  41.951  33.647  1.00  0.00     0.049 A 
ATOM     56  N   UNL A   1      44.244  39.524  35.291  1.00  0.00    -0.248 NA
ATOM     57  C   UNL A   1      43.318  38.548  33.382  1.00  0.00     0.031 C 
ATOM     58  C   UNL A   1      45.327  43.128  32.884  1.00  0.00     0.029 A 
ATOM     59  N   UNL A   1      45.400  42.181  34.910  1.00  0.00    -0.354 N 
ATOM     60  C   UNL A   1      43.797  38.244  35.600  1.00  0.00     0.074 A 
ATOM     61  C   UNL A   1      43.220  37.695  34.391  1.00  0.00     0.031 C 
ATOM     62  C   UNL A   1      46.014  43.953  33.692  1.00  0.00     0.029 A 
ATOM     63  C   UNL A   1      46.057  43.380  35.036  1.00  0.00     0.049 A 
ATOM     64  H   UNL A   1      45.288  41.546  35.654  1.00  0.00     0.167 HD
ATOM     65  C   UNL A   1      43.858  37.584  36.781  1.00  0.00     0.031 A 
ATOM     66  C   UNL A   1      46.613  43.962  36.118  1.00  0.00     0.031 A 
ATOM     67  C   UNL A   1      44.411  38.130  37.991  1.00  0.00     0.049 A 
ATOM     68  C   UNL A   1      46.579  43.249  37.444  1.00  0.00     0.074 A 
ATOM     69  C   UNL A   1      44.480  37.548  39.246  1.00  0.00     0.029 A 
ATOM     70  N   UNL A   1      44.987  39.385  38.101  1.00  0.00    -0.354 N 
ATOM     71  N   UNL A   1      46.118  42.053  37.727  1.00  0.00    -0.248 NA
ATOM     72  C   UNL A   1      47.140  43.967  38.597  1.00  0.00     0.031 C 
ATOM     73  C   UNL A   1      45.060  38.471  40.124  1.00  0.00     0.029 A 
ATOM     74  C   UNL A   1      45.396  39.606  39.404  1.00  0.00     0.049 A 
ATOM     75  H   UNL A   1      45.090  40.026  37.360  1.00  0.00     0.167 HD
ATOM     76  C   UNL A   1      46.347  41.871  39.087  1.00  0.00     0.074 A 
ATOM     77  C   UNL A   1      47.004  43.070  39.565  1.00  0.00     0.031 C 
ATOM     78  C   UNL A   1      46.040  40.808  39.870  1.00  0.00     0.031 A 
BRANCH  65  79
ATOM     79  C   UNL A   1      43.251  36.210  36.827  1.00  0.00    -0.014 A 
ATOM     80  C   UNL A   1      41.885  36.025  37.101  1.00  0.00     0.010 A 
ATOM     81  C   UNL A   1      44.063  35.087  36.584  1.00  0.00     0.010 A 
ATOM     82  C   UNL A   1      41.349  34.735  37.174  1.00  0.00     0.020 A 
ATOM     83  C   UNL A   1      43.526  33.798  36.635  1.00  0.00     0.020 A 
ATOM     84  C   UNL A   1      42.176  33.630  36.951  1.00  0.00     0.054 A 
BRANCH  84  85
ATOM     85  S   UNL A   1      41.461  31.967  37.058  1.00  0.00     0.124 S 
ATOM     86  O   UNL A   1      41.621  31.484  35.689  1.00  0.00    -0.237 OA
ATOM     87  O   UNL A   1      42.306  31.316  38.056  1.00  0.00    -0.237 OA
ATOM     88  O   UNL A   1      40.083  32.210  37.477  1.00  0.00    -0.744 OA
ENDBRANCH  84  85
ENDBRANCH  65  79
BRANCH  66  89
ATOM     89  C   UNL A   1      47.211  45.320  36.008  1.00  0.00    -0.014 A 
ATOM     90  C   UNL A   1      48.599  45.489  35.877  1.00  0.00     0.010 A 
ATOM     91  C   UNL A   1      46.383  46.457  36.055  1.00  0.00     0.010 A 
ATOM     92  C   UNL A   1      49.152  46.773  35.813  1.00  0.00     0.020 A 
ATOM     93  C   UNL A   1      46.929  47.740  35.967  1.00  0.00     0.020 A 
ATOM     94  C   UNL A   1      48.312  47.890  35.861  1.00  0.00     0.054 A 
BRANCH  94  95
ATOM     95  S   UNL A   1      49.040  49.547  35.737  1.00  0.00     0.124 S 
ATOM     96  O   UNL A   1      48.201  50.170  34.719  1.00  0.00    -0.237 OA
ATOM     97  O   UNL A   1      48.884  50.066  37.093  1.00  0.00    -0.237 OA
ATOM     98  O   UNL A   1      50.421  49.282  35.337  1.00  0.00    -0.744 OA
ENDBRANCH  94  95
ENDBRANCH  66  89
BRANCH  78  99
ATOM     99  C   UNL A   1      46.430  40.884  41.322  1.00  0.00    -0.014 A 
ATOM    100  C   UNL A   1      47.700  40.466  41.757  1.00  0.00     0.010 A 
ATOM    101  C   UNL A   1      45.524  41.414  42.258  1.00  0.00     0.010 A 
ATOM    102  C   UNL A   1      48.044  40.542  43.110  1.00  0.00     0.020 A 
ATOM    103  C   UNL A   1      45.873  41.514  43.608  1.00  0.00     0.020 A 
ATOM    104  C   UNL A   1      47.125  41.060  44.028  1.00  0.00     0.054 A 
BRANCH 104 105
ATOM    105  S   UNL A   1      47.599  41.177  45.775  1.00  0.00     0.124 S 
ATOM    106  O   UNL A   1      48.920  40.553  45.773  1.00  0.00    -0.237 OA
ATOM    107  O   UNL A   1      47.585  42.617  46.019  1.00  0.00    -0.237 OA
ATOM    108  O   UNL A   1      46.555  40.425  46.468  1.00  0.00    -0.744 OA
ENDBRANCH 104 105
ENDBRANCH  78  99
ENDBRANCH  52  53
ENDBRANCH  45  47
ENDBRANCH  44  45
ENDBRANCH  43  44
ENDBRANCH  42  43
ENDBRANCH  41  42
ENDBRANCH  40  41
ENDBRANCH  39  40
ENDBRANCH   1  39
TORSDOF 31
ENDMDL
MODEL 3
REMARK VINA RESULT:      -6.0      4.072     11.822
REMARK SMILES [NH3+][C@@H](Cc1c[nH]c2ccccc12)C(=O)N[C@@H](CS)C(=O)N[C@@H](CO)C(=O)OCCOCCOCCOC(=O)c1ccc(-c2c3nc(c(-c4ccc(S(=O)(=O)[O-])cc4)c4ccc([nH]4)c(-c4ccc(S(=O)(=O)[O-])cc4)c4nc(c(-c5ccc(S(=O)(=O)[O-])cc5)c5ccc2[nH]5)C=C4)C=C3)cc1
REMARK SMILES IDX 30 1 29 2 28 3 27 4 25 5 26 6 22 7 21 8 19 9 20 10 16 12
REMARK SMILES IDX 15 13 13 14 14 15 2 17 1 18 3 22 4 23 5 24 12 25 6 26 7 27
REMARK SMILES IDX 11 28 8 30 10 31 9 32 17 33 18 34 23 36 24 37 31 39 32 40
REMARK SMILES IDX 33 41 34 42 35 43 36 44 37 45 38 46 39 47 40 48 98 49 41 50
REMARK SMILES IDX 97 51 42 52 43 53 44 54 91 55 45 56 96 57 90 58 92 59 46 60
REMARK SMILES IDX 95 61 89 62 88 63 47 65 77 66 58 67 76 68 59 69 62 70 75 71
REMARK SMILES IDX 93 72 60 73 61 74 74 76 94 77 63 78 48 79 49 80 57 81 50 82
REMARK SMILES IDX 56 83 51 84 52 85 53 86 54 87 55 88 78 89 79 90 87 91 80 92
REMARK SMILES IDX 86 93 81 94 82 95 83 96 84 97 85 98 64 99 65 100 73 101
REMARK SMILES IDX 66 102 72 103 67 104 68 105 69 106 70 107 71 108
REMARK H PARENT 21 11 15 16 1 19 1 20 1 21 6 29 18 35 24 38 92 64 62 75
REMARK Flexibility Score: inf
ROOT
ATOM      1  O   UNL A   1      45.748  25.819  28.450  1.00  0.00    -0.376 OA
ENDROOT
BRANCH   1   2
ATOM      2  C   UNL A   1      46.768  26.802  28.618  1.00  0.00     0.202 C 
BRANCH   2   3
ATOM      3  C   UNL A   1      46.302  28.011  29.425  1.00  0.00     0.261 C 
BRANCH   3   4
ATOM      4  O   UNL A   1      46.183  29.175  28.591  1.00  0.00    -0.462 OA
BRANCH   4   5
ATOM      5  C   UNL A   1      47.271  29.992  28.524  1.00  0.00     0.331 C 
ATOM      6  O   UNL A   1      47.766  30.567  29.485  1.00  0.00    -0.250 OA
BRANCH   5   7
ATOM      7  C   UNL A   1      47.753  30.151  27.078  1.00  0.00     0.218 C 
BRANCH   7   8
ATOM      8  N   UNL A   1      47.374  31.456  26.498  1.00  0.00    -0.339 N 
ATOM      9  C   UNL A   1      46.080  31.885  26.548  1.00  0.00     0.244 C 
ATOM     10  O   UNL A   1      45.308  31.469  25.681  1.00  0.00    -0.273 OA
ATOM     11  H   UNL A   1      48.060  32.020  26.073  1.00  0.00     0.164 HD
BRANCH   9  12
ATOM     12  C   UNL A   1      45.655  32.894  27.648  1.00  0.00     0.181 C 
BRANCH  12  13
ATOM     13  N   UNL A   1      46.810  33.741  27.913  1.00  0.00    -0.338 N 
ATOM     14  C   UNL A   1      47.412  34.023  29.103  1.00  0.00     0.279 C 
ATOM     15  O   UNL A   1      48.609  34.332  29.058  1.00  0.00    -0.268 OA
ATOM     16  H   UNL A   1      47.213  34.170  27.124  1.00  0.00     0.164 HD
BRANCH  14  17
ATOM     17  C   UNL A   1      46.666  34.004  30.458  1.00  0.00     0.275 C 
BRANCH  17  18
ATOM     18  N   UNL A   1      46.842  32.711  31.151  1.00  0.00    -0.347 N 
ATOM     19  H   UNL A   1      46.000  32.147  31.039  1.00  0.00     0.345 HD
ATOM     20  H   UNL A   1      47.011  32.877  32.143  1.00  0.00     0.345 HD
ATOM     21  H   UNL A   1      47.639  32.215  30.750  1.00  0.00     0.345 HD
ENDBRANCH  17  18
BRANCH  17  22
ATOM     22  C   UNL A   1      46.801  35.289  31.306  1.00  0.00     0.113 C 
BRANCH  22  23
ATOM     23  C   UNL A   1      45.543  35.946  31.819  1.00  0.00    -0.016 A 
ATOM     24  C   UNL A   1      45.030  37.177  31.446  1.00  0.00     0.087 A 
ATOM     25  C   UNL A   1      44.678  35.452  32.856  1.00  0.00     0.003 A 
ATOM     26  N   UNL A   1      43.875  37.405  32.146  1.00  0.00    -0.361 N 
ATOM     27  C   UNL A   1      43.611  36.343  32.975  1.00  0.00     0.046 A 
ATOM     28  C   UNL A   1      44.697  34.322  33.697  1.00  0.00     0.010 A 
ATOM     29  H   UNL A   1      43.316  38.211  32.067  1.00  0.00     0.166 HD
ATOM     30  C   UNL A   1      42.530  36.129  33.839  1.00  0.00     0.026 A 
ATOM     31  C   UNL A   1      43.645  34.113  34.600  1.00  0.00     0.001 A 
ATOM     32  C   UNL A   1      42.569  34.995  34.653  1.00  0.00     0.002 A 
ENDBRANCH  22  23
ENDBRANCH  17  22
ENDBRANCH  14  17
ENDBRANCH  12  13
BRANCH  12  33
ATOM     33  C   UNL A   1      44.327  33.642  27.478  1.00  0.00     0.101 C 
BRANCH  33  34
ATOM     34  S   UNL A   1      44.337  35.431  27.795  1.00  0.00    -0.177 SA
ATOM     35  H   UNL A   1      45.253  35.715  28.759  1.00  0.00     0.102 HD
ENDBRANCH  33  34
ENDBRANCH  12  33
ENDBRANCH   9  12
ENDBRANCH   7   8
BRANCH   7  36
ATOM     36  C   UNL A   1      49.276  29.951  27.053  1.00  0.00     0.193 C 
BRANCH  36  37
ATOM     37  O   UNL A   1      49.643  28.768  27.770  1.00  0.00    -0.394 OA
ATOM     38  H   UNL A   1      50.271  28.251  27.242  1.00  0.00     0.210 HD
ENDBRANCH  36  37
ENDBRANCH   7  36
ENDBRANCH   5   7
ENDBRANCH   4   5
ENDBRANCH   3   4
ENDBRANCH   2   3
ENDBRANCH   1   2
BRANCH   1  39
ATOM     39  C   UNL A   1      46.198  24.473  28.378  1.00  0.00     0.188 C 
BRANCH  39  40
ATOM     40  C   UNL A   1      46.409  23.932  26.950  1.00  0.00     0.188 C 
BRANCH  40  41
ATOM     41  O   UNL A   1      45.648  22.824  26.492  1.00  0.00    -0.376 OA
BRANCH  41  42
ATOM     42  C   UNL A   1      44.233  22.896  26.589  1.00  0.00     0.202 C 
BRANCH  42  43
ATOM     43  C   UNL A   1      43.515  23.865  25.644  1.00  0.00     0.261 C 
BRANCH  43  44
ATOM     44  O   UNL A   1      42.176  24.189  26.067  1.00  0.00    -0.460 OA
BRANCH  44  45
ATOM     45  C   UNL A   1      41.855  25.500  25.984  1.00  0.00     0.338 C 
ATOM     46  O   UNL A   1      41.362  26.085  25.027  1.00  0.00    -0.246 OA
BRANCH  45  47
ATOM     47  C   UNL A   1      41.961  26.158  27.297  1.00  0.00     0.060 A 
ATOM     48  C   UNL A   1      41.016  25.790  28.260  1.00  0.00     0.016 A 
ATOM     49  C   UNL A   1      42.835  27.219  27.537  1.00  0.00     0.016 A 
ATOM     50  C   UNL A   1      40.883  26.524  29.431  1.00  0.00     0.010 A 
ATOM     51  C   UNL A   1      42.708  27.953  28.726  1.00  0.00     0.010 A 
ATOM     52  C   UNL A   1      41.700  27.635  29.657  1.00  0.00    -0.014 A 
BRANCH  52  53
ATOM     53  C   UNL A   1      41.366  28.523  30.797  1.00  0.00     0.031 A 
ATOM     54  C   UNL A   1      42.237  28.502  32.025  1.00  0.00     0.074 A 
ATOM     55  C   UNL A   1      40.383  29.436  30.688  1.00  0.00     0.049 A 
ATOM     56  N   UNL A   1      42.155  29.231  33.108  1.00  0.00    -0.248 NA
ATOM     57  C   UNL A   1      43.361  27.552  32.021  1.00  0.00     0.031 C 
ATOM     58  C   UNL A   1      39.532  29.628  29.515  1.00  0.00     0.029 A 
ATOM     59  N   UNL A   1      39.955  30.391  31.575  1.00  0.00    -0.354 N 
ATOM     60  C   UNL A   1      43.208  28.821  33.920  1.00  0.00     0.074 A 
ATOM     61  C   UNL A   1      43.908  27.773  33.208  1.00  0.00     0.031 C 
ATOM     62  C   UNL A   1      38.689  30.649  29.750  1.00  0.00     0.029 A 
ATOM     63  C   UNL A   1      38.916  31.155  31.102  1.00  0.00     0.049 A 
ATOM     64  H   UNL A   1      40.355  30.518  32.465  1.00  0.00     0.167 HD
ATOM     65  C   UNL A   1      43.560  29.273  35.148  1.00  0.00     0.031 A 
ATOM     66  C   UNL A   1      38.211  32.138  31.699  1.00  0.00     0.031 A 
ATOM     67  C   UNL A   1      42.859  30.299  35.869  1.00  0.00     0.049 A 
ATOM     68  C   UNL A   1      38.561  32.553  33.104  1.00  0.00     0.074 A 
ATOM     69  C   UNL A   1      43.121  30.794  37.136  1.00  0.00     0.029 A 
ATOM     70  N   UNL A   1      41.754  30.987  35.393  1.00  0.00    -0.354 N 
ATOM     71  N   UNL A   1      39.536  32.128  33.872  1.00  0.00    -0.248 NA
ATOM     72  C   UNL A   1      37.711  33.581  33.721  1.00  0.00     0.031 C 
ATOM     73  C   UNL A   1      42.147  31.752  37.441  1.00  0.00     0.029 A 
ATOM     74  C   UNL A   1      41.310  31.887  36.346  1.00  0.00     0.049 A 
ATOM     75  H   UNL A   1      41.346  30.854  34.507  1.00  0.00     0.167 HD
ATOM     76  C   UNL A   1      39.425  32.848  35.057  1.00  0.00     0.074 A 
ATOM     77  C   UNL A   1      38.301  33.748  34.898  1.00  0.00     0.031 C 
ATOM     78  C   UNL A   1      40.184  32.770  36.178  1.00  0.00     0.031 A 
BRANCH  65  79
ATOM     79  C   UNL A   1      44.734  28.605  35.808  1.00  0.00    -0.014 A 
ATOM     80  C   UNL A   1      44.567  27.461  36.607  1.00  0.00     0.010 A 
ATOM     81  C   UNL A   1      46.025  29.131  35.619  1.00  0.00     0.010 A 
ATOM     82  C   UNL A   1      45.668  26.878  37.241  1.00  0.00     0.020 A 
ATOM     83  C   UNL A   1      47.130  28.539  36.235  1.00  0.00     0.020 A 
ATOM     84  C   UNL A   1      46.941  27.428  37.059  1.00  0.00     0.054 A 
BRANCH  84  85
ATOM     85  S   UNL A   1      48.354  26.659  37.899  1.00  0.00     0.124 S 
ATOM     86  O   UNL A   1      49.113  26.120  36.773  1.00  0.00    -0.237 OA
ATOM     87  O   UNL A   1      48.971  27.787  38.590  1.00  0.00    -0.237 OA
ATOM     88  O   UNL A   1      47.737  25.661  38.769  1.00  0.00    -0.744 OA
ENDBRANCH  84  85
ENDBRANCH  65  79
BRANCH  66  89
ATOM     89  C   UNL A   1      37.068  32.770  30.988  1.00  0.00    -0.014 A 
ATOM     90  C   UNL A   1      37.280  33.763  30.018  1.00  0.00     0.010 A 
ATOM     91  C   UNL A   1      35.750  32.389  31.301  1.00  0.00     0.010 A 
ATOM     92  C   UNL A   1      36.194  34.378  29.385  1.00  0.00     0.020 A 
ATOM     93  C   UNL A   1      34.664  32.982  30.654  1.00  0.00     0.020 A 
ATOM     94  C   UNL A   1      34.892  33.984  29.710  1.00  0.00     0.054 A 
BRANCH  94  95
ATOM     95  S   UNL A   1      33.496  34.761  28.852  1.00  0.00     0.124 S 
ATOM     96  O   UNL A   1      32.556  34.984  29.945  1.00  0.00    -0.237 OA
ATOM     97  O   UNL A   1      34.100  35.962  28.280  1.00  0.00    -0.237 OA
ATOM     98  O   UNL A   1      33.094  33.751  27.874  1.00  0.00    -0.744 OA
ENDBRANCH  94  95
ENDBRANCH  66  89
BRANCH  78  99
ATOM     99  C   UNL A   1      39.837  33.697  37.313  1.00  0.00    -0.014 A 
ATOM    100  C   UNL A   1      38.923  33.313  38.311  1.00  0.00     0.010 A 
ATOM    101  C   UNL A   1      40.460  34.955  37.399  1.00  0.00     0.010 A 
ATOM    102  C   UNL A   1      38.612  34.188  39.356  1.00  0.00     0.020 A 
ATOM    103  C   UNL A   1      40.169  35.822  38.456  1.00  0.00     0.020 A 
ATOM    104  C   UNL A   1      39.232  35.440  39.419  1.00  0.00     0.054 A 
BRANCH 104 105
ATOM    105  S   UNL A   1      38.835  36.549  40.798  1.00  0.00     0.124 S 
ATOM    106  O   UNL A   1      40.138  36.718  41.436  1.00  0.00    -0.237 OA
ATOM    107  O   UNL A   1      38.309  37.732  40.120  1.00  0.00    -0.237 OA
ATOM    108  O   UNL A   1      37.852  35.797  41.574  1.00  0.00    -0.744 OA
ENDBRANCH 104 105
ENDBRANCH  78  99
ENDBRANCH  52  53
ENDBRANCH  45  47
ENDBRANCH  44  45
ENDBRANCH  43  44
ENDBRANCH  42  43
ENDBRANCH  41  42
ENDBRANCH  40  41
ENDBRANCH  39  40
ENDBRANCH   1  39
TORSDOF 31
ENDMDL
