MODEL 1
REMARK VINA RESULT:     -10.0      0.000      0.000
REMARK SMILES O=C(OCCOCCOCCOC(=O)c1ccc2nc(Cl)sc2c1)c1ccc(-c2c3nc(c(-c4ccc(S(=O)(=O)[O-])cc4)c4ccc([nH]4)c(-c4ccc(S(=O)(=O)[O-])cc4)c4nc(c(-c5ccc(S(=O)(=O)[O-])cc5)c5ccc2[nH]5)C=C4)C=C3)cc1
REMARK SMILES IDX 6 1 5 2 4 3 3 4 2 5 1 6 25 7 26 8 84 9 27 10 83 11 28 12
REMARK SMILES IDX 29 13 30 14 77 15 31 16 82 17 76 18 78 19 32 20 81 21 75 22
REMARK SMILES IDX 74 23 33 25 63 26 44 27 62 28 45 29 48 30 61 31 79 32 46 33
REMARK SMILES IDX 47 34 60 36 80 37 49 38 34 39 35 40 43 41 36 42 42 43 37 44
REMARK SMILES IDX 38 45 39 46 40 47 41 48 64 49 65 50 73 51 66 52 72 53 67 54
REMARK SMILES IDX 68 55 69 56 70 57 71 58 50 59 51 60 59 61 52 62 58 63 53 64
REMARK SMILES IDX 54 65 55 66 56 67 57 68 7 69 8 70 9 71 10 72 11 73 12 74
REMARK SMILES IDX 13 75 14 76 15 77 16 78 24 79 17 80 23 81 18 82 22 83 19 84
REMARK SMILES IDX 20 85 21 86
REMARK H PARENT 78 24 48 35
REMARK Flexibility Score: inf
ROOT
ATOM      1  O   UNL A   1      36.890  21.290  25.995  1.00  0.00    -0.376 OA
ENDROOT
BRANCH   1   2
ATOM      2  C   UNL A   1      38.164  21.473  25.374  1.00  0.00     0.202 C 
BRANCH   2   3
ATOM      3  C   UNL A   1      39.037  22.457  26.148  1.00  0.00     0.261 C 
BRANCH   3   4
ATOM      4  O   UNL A   1      39.900  21.674  26.987  1.00  0.00    -0.460 OA
BRANCH   4   5
ATOM      5  C   UNL A   1      41.146  21.483  26.499  1.00  0.00     0.338 C 
ATOM      6  O   UNL A   1      41.538  20.522  25.856  1.00  0.00    -0.246 OA
BRANCH   5   7
ATOM      7  C   UNL A   1      42.024  22.577  26.968  1.00  0.00     0.060 A 
ATOM      8  C   UNL A   1      42.003  22.951  28.306  1.00  0.00     0.016 A 
ATOM      9  C   UNL A   1      42.764  23.326  26.051  1.00  0.00     0.016 A 
ATOM     10  C   UNL A   1      42.683  24.104  28.709  1.00  0.00     0.010 A 
ATOM     11  C   UNL A   1      43.347  24.527  26.437  1.00  0.00     0.010 A 
ATOM     12  C   UNL A   1      43.241  24.992  27.759  1.00  0.00    -0.014 A 
BRANCH  12  13
ATOM     13  C   UNL A   1      43.904  26.516  28.166  1.00  0.00     0.031 A 
ATOM     14  C   UNL A   1      42.219  27.261  28.098  1.00  0.00     0.074 A 
ATOM     15  C   UNL A   1      45.454  27.352  28.906  1.00  0.00     0.049 A 
ATOM     16  N   UNL A   1      41.509  27.508  29.176  1.00  0.00    -0.248 NA
ATOM     17  C   UNL A   1      41.479  27.571  26.870  1.00  0.00     0.031 C 
ATOM     18  C   UNL A   1      46.681  26.995  30.008  1.00  0.00     0.029 A 
ATOM     19  N   UNL A   1      45.910  28.800  28.899  1.00  0.00    -0.354 N 
ATOM     20  C   UNL A   1      40.345  28.125  28.830  1.00  0.00     0.074 A 
ATOM     21  C   UNL A   1      40.332  28.077  27.376  1.00  0.00     0.031 C 
ATOM     22  C   UNL A   1      47.105  28.119  30.640  1.00  0.00     0.029 A 
ATOM     23  C   UNL A   1      46.630  29.283  29.955  1.00  0.00     0.049 A 
ATOM     24  H   UNL A   1      45.689  29.387  28.141  1.00  0.00     0.167 HD
ATOM     25  C   UNL A   1      39.495  28.665  29.750  1.00  0.00     0.031 A 
ATOM     26  C   UNL A   1      46.621  30.595  30.308  1.00  0.00     0.031 A 
ATOM     27  C   UNL A   1      39.900  28.721  31.149  1.00  0.00     0.049 A 
ATOM     28  C   UNL A   1      45.234  30.779  30.940  1.00  0.00     0.074 A 
ATOM     29  C   UNL A   1      39.636  28.020  32.308  1.00  0.00     0.029 A 
ATOM     30  N   UNL A   1      40.633  29.811  31.580  1.00  0.00    -0.354 N 
ATOM     31  N   UNL A   1      44.855  30.578  32.177  1.00  0.00    -0.248 NA
ATOM     32  C   UNL A   1      44.125  31.161  30.051  1.00  0.00     0.031 C 
ATOM     33  C   UNL A   1      40.453  28.582  33.347  1.00  0.00     0.029 A 
ATOM     34  C   UNL A   1      41.285  29.548  32.775  1.00  0.00     0.049 A 
ATOM     35  H   UNL A   1      40.684  30.669  31.098  1.00  0.00     0.167 HD
ATOM     36  C   UNL A   1      43.451  30.642  32.180  1.00  0.00     0.074 A 
ATOM     37  C   UNL A   1      43.096  31.172  30.885  1.00  0.00     0.031 C 
ATOM     38  C   UNL A   1      42.640  30.057  33.123  1.00  0.00     0.031 A 
BRANCH  25  39
ATOM     39  C   UNL A   1      38.180  29.245  29.385  1.00  0.00    -0.014 A 
ATOM     40  C   UNL A   1      37.351  29.778  30.385  1.00  0.00     0.010 A 
ATOM     41  C   UNL A   1      37.864  29.473  28.033  1.00  0.00     0.010 A 
ATOM     42  C   UNL A   1      36.246  30.560  30.037  1.00  0.00     0.020 A 
ATOM     43  C   UNL A   1      36.763  30.257  27.682  1.00  0.00     0.020 A 
ATOM     44  C   UNL A   1      35.968  30.806  28.689  1.00  0.00     0.054 A 
BRANCH  44  45
ATOM     45  S   UNL A   1      34.608  31.931  28.271  1.00  0.00     0.124 S 
ATOM     46  O   UNL A   1      33.737  31.072  27.475  1.00  0.00    -0.237 OA
ATOM     47  O   UNL A   1      34.091  32.305  29.586  1.00  0.00    -0.237 OA
ATOM     48  O   UNL A   1      35.263  33.011  27.535  1.00  0.00    -0.744 OA
ENDBRANCH  44  45
ENDBRANCH  25  39
BRANCH  26  49
ATOM     49  C   UNL A   1      47.015  31.517  29.143  1.00  0.00    -0.014 A 
ATOM     50  C   UNL A   1      47.148  31.095  27.805  1.00  0.00     0.010 A 
ATOM     51  C   UNL A   1      47.326  32.871  29.411  1.00  0.00     0.010 A 
ATOM     52  C   UNL A   1      47.763  31.910  26.840  1.00  0.00     0.020 A 
ATOM     53  C   UNL A   1      47.909  33.705  28.447  1.00  0.00     0.020 A 
ATOM     54  C   UNL A   1      48.173  33.199  27.179  1.00  0.00     0.054 A 
BRANCH  54  55
ATOM     55  S   UNL A   1      49.060  34.201  25.952  1.00  0.00     0.124 S 
ATOM     56  O   UNL A   1      49.595  35.283  26.773  1.00  0.00    -0.237 OA
ATOM     57  O   UNL A   1      50.046  33.261  25.426  1.00  0.00    -0.237 OA
ATOM     58  O   UNL A   1      48.017  34.595  25.007  1.00  0.00    -0.744 OA
ENDBRANCH  54  55
ENDBRANCH  26  49
BRANCH  38  59
ATOM     59  C   UNL A   1      43.362  29.581  34.380  1.00  0.00    -0.014 A 
ATOM     60  C   UNL A   1      43.475  30.404  35.516  1.00  0.00     0.010 A 
ATOM     61  C   UNL A   1      43.920  28.293  34.477  1.00  0.00     0.010 A 
ATOM     62  C   UNL A   1      44.088  29.982  36.700  1.00  0.00     0.020 A 
ATOM     63  C   UNL A   1      44.547  27.853  35.660  1.00  0.00     0.020 A 
ATOM     64  C   UNL A   1      44.624  28.703  36.766  1.00  0.00     0.054 A 
BRANCH  64  65
ATOM     65  S   UNL A   1      45.439  28.196  38.304  1.00  0.00     0.124 S 
ATOM     66  O   UNL A   1      44.485  27.240  38.865  1.00  0.00    -0.237 OA
ATOM     67  O   UNL A   1      46.694  27.620  37.827  1.00  0.00    -0.237 OA
ATOM     68  O   UNL A   1      45.573  29.441  39.057  1.00  0.00    -0.744 OA
ENDBRANCH  64  65
ENDBRANCH  38  59
ENDBRANCH  12  13
ENDBRANCH   5   7
ENDBRANCH   4   5
ENDBRANCH   3   4
ENDBRANCH   2   3
ENDBRANCH   1   2
BRANCH   1  69
ATOM     69  C   UNL A   1      35.786  21.761  25.228  1.00  0.00     0.188 C 
BRANCH  69  70
ATOM     70  C   UNL A   1      34.474  21.246  25.823  1.00  0.00     0.188 C 
BRANCH  70  71
ATOM     71  O   UNL A   1      33.626  22.265  26.355  1.00  0.00    -0.376 OA
BRANCH  71  72
ATOM     72  C   UNL A   1      32.771  22.949  25.438  1.00  0.00     0.202 C 
BRANCH  72  73
ATOM     73  C   UNL A   1      31.288  22.566  25.454  1.00  0.00     0.261 C 
BRANCH  73  74
ATOM     74  O   UNL A   1      30.392  23.601  25.024  1.00  0.00    -0.460 OA
BRANCH  74  75
ATOM     75  C   UNL A   1      30.610  24.832  25.564  1.00  0.00     0.338 C 
ATOM     76  O   UNL A   1      30.906  25.099  26.712  1.00  0.00    -0.246 OA
BRANCH  75  77
ATOM     77  C   UNL A   1      30.364  25.836  24.513  1.00  0.00     0.061 A 
ATOM     78  C   UNL A   1      31.524  26.174  23.770  1.00  0.00     0.018 A 
ATOM     79  C   UNL A   1      29.079  26.391  24.347  1.00  0.00     0.037 A 
ATOM     80  C   UNL A   1      31.593  27.118  22.742  1.00  0.00     0.031 A 
ATOM     81  C   UNL A   1      29.012  27.478  23.454  1.00  0.00     0.057 A 
ATOM     82  C   UNL A   1      30.517  27.956  22.543  1.00  0.00     0.083 A 
ATOM     83  S   UNL A   1      27.247  28.966  22.974  1.00  0.00    -0.102 S 
ATOM     84  N   UNL A   1      30.277  29.680  21.618  1.00  0.00    -0.225 NA
ATOM     85  C   UNL A   1      28.679  30.378  21.767  1.00  0.00     0.184 A 
ATOM     86  Cl  UNL A   1      27.979  31.775  21.077  1.00  0.00    -0.050 Cl
ENDBRANCH  75  77
ENDBRANCH  74  75
ENDBRANCH  73  74
ENDBRANCH  72  73
ENDBRANCH  71  72
ENDBRANCH  70  71
ENDBRANCH  69  70
ENDBRANCH   1  69
TORSDOF 20
ENDMDL
MODEL 2
REMARK VINA RESULT:     -10.0      8.100     14.346
REMARK SMILES O=C(OCCOCCOCCOC(=O)c1ccc2nc(Cl)sc2c1)c1ccc(-c2c3nc(c(-c4ccc(S(=O)(=O)[O-])cc4)c4ccc([nH]4)c(-c4ccc(S(=O)(=O)[O-])cc4)c4nc(c(-c5ccc(S(=O)(=O)[O-])cc5)c5ccc2[nH]5)C=C4)C=C3)cc1
REMARK SMILES IDX 6 1 5 2 4 3 3 4 2 5 1 6 25 7 26 8 84 9 27 10 83 11 28 12
REMARK SMILES IDX 29 13 30 14 77 15 31 16 82 17 76 18 78 19 32 20 81 21 75 22
REMARK SMILES IDX 74 23 33 25 63 26 44 27 62 28 45 29 48 30 61 31 79 32 46 33
REMARK SMILES IDX 47 34 60 36 80 37 49 38 34 39 35 40 43 41 36 42 42 43 37 44
REMARK SMILES IDX 38 45 39 46 40 47 41 48 64 49 65 50 73 51 66 52 72 53 67 54
REMARK SMILES IDX 68 55 69 56 70 57 71 58 50 59 51 60 59 61 52 62 58 63 53 64
REMARK SMILES IDX 54 65 55 66 56 67 57 68 7 69 8 70 9 71 10 72 11 73 12 74
REMARK SMILES IDX 13 75 14 76 15 77 16 78 24 79 17 80 23 81 18 82 22 83 19 84
REMARK SMILES IDX 20 85 21 86
REMARK H PARENT 78 24 48 35
REMARK Flexibility Score: inf
ROOT
ATOM      1  O   UNL A   1      49.007  19.705  37.450  1.00  0.00    -0.376 OA
ENDROOT
BRANCH   1   2
ATOM      2  C   UNL A   1      48.045  20.401  36.654  1.00  0.00     0.202 C 
BRANCH   2   3
ATOM      3  C   UNL A   1      48.499  21.820  36.327  1.00  0.00     0.261 C 
BRANCH   3   4
ATOM      4  O   UNL A   1      47.632  22.304  35.290  1.00  0.00    -0.460 OA
BRANCH   4   5
ATOM      5  C   UNL A   1      47.056  23.500  35.542  1.00  0.00     0.338 C 
ATOM      6  O   UNL A   1      46.621  23.888  36.614  1.00  0.00    -0.246 OA
BRANCH   5   7
ATOM      7  C   UNL A   1      46.916  24.249  34.275  1.00  0.00     0.060 A 
ATOM      8  C   UNL A   1      48.026  24.874  33.718  1.00  0.00     0.016 A 
ATOM      9  C   UNL A   1      45.654  24.450  33.712  1.00  0.00     0.016 A 
ATOM     10  C   UNL A   1      47.856  25.739  32.632  1.00  0.00     0.010 A 
ATOM     11  C   UNL A   1      45.478  25.391  32.704  1.00  0.00     0.010 A 
ATOM     12  C   UNL A   1      46.565  26.127  32.203  1.00  0.00    -0.014 A 
BRANCH  12  13
ATOM     13  C   UNL A   1      46.286  27.332  31.021  1.00  0.00     0.031 A 
ATOM     14  C   UNL A   1      46.128  26.025  29.731  1.00  0.00     0.074 A 
ATOM     15  C   UNL A   1      45.793  29.165  30.806  1.00  0.00     0.049 A 
ATOM     16  N   UNL A   1      44.965  25.606  29.285  1.00  0.00    -0.248 NA
ATOM     17  C   UNL A   1      47.244  25.277  29.143  1.00  0.00     0.031 C 
ATOM     18  C   UNL A   1      44.870  30.330  31.605  1.00  0.00     0.029 A 
ATOM     19  N   UNL A   1      45.893  30.095  29.610  1.00  0.00    -0.354 N 
ATOM     20  C   UNL A   1      45.154  24.697  28.289  1.00  0.00     0.074 A 
ATOM     21  C   UNL A   1      46.590  24.464  28.283  1.00  0.00     0.031 C 
ATOM     22  C   UNL A   1      44.327  31.207  30.722  1.00  0.00     0.029 A 
ATOM     23  C   UNL A   1      44.960  31.080  29.444  1.00  0.00     0.049 A 
ATOM     24  H   UNL A   1      46.624  29.990  28.959  1.00  0.00     0.167 HD
ATOM     25  C   UNL A   1      44.132  24.230  27.515  1.00  0.00     0.031 A 
ATOM     26  C   UNL A   1      44.636  31.582  28.224  1.00  0.00     0.031 A 
ATOM     27  C   UNL A   1      42.808  24.821  27.648  1.00  0.00     0.049 A 
ATOM     28  C   UNL A   1      43.816  30.452  27.585  1.00  0.00     0.074 A 
ATOM     29  C   UNL A   1      41.609  24.493  28.248  1.00  0.00     0.029 A 
ATOM     30  N   UNL A   1      42.507  25.943  26.899  1.00  0.00    -0.354 N 
ATOM     31  N   UNL A   1      42.534  30.205  27.680  1.00  0.00    -0.248 NA
ATOM     32  C   UNL A   1      44.545  29.435  26.811  1.00  0.00     0.031 C 
ATOM     33  C   UNL A   1      40.708  25.593  28.041  1.00  0.00     0.029 A 
ATOM     34  C   UNL A   1      41.412  26.622  27.411  1.00  0.00     0.049 A 
ATOM     35  H   UNL A   1      43.008  26.224  26.099  1.00  0.00     0.167 HD
ATOM     36  C   UNL A   1      42.332  28.928  27.128  1.00  0.00     0.074 A 
ATOM     37  C   UNL A   1      43.574  28.604  26.466  1.00  0.00     0.031 C 
ATOM     38  C   UNL A   1      41.271  28.104  27.421  1.00  0.00     0.031 A 
BRANCH  25  39
ATOM     39  C   UNL A   1      44.318  23.165  26.499  1.00  0.00    -0.014 A 
ATOM     40  C   UNL A   1      45.576  22.981  25.904  1.00  0.00     0.010 A 
ATOM     41  C   UNL A   1      43.313  22.201  26.301  1.00  0.00     0.010 A 
ATOM     42  C   UNL A   1      45.836  21.829  25.155  1.00  0.00     0.020 A 
ATOM     43  C   UNL A   1      43.571  21.047  25.557  1.00  0.00     0.020 A 
ATOM     44  C   UNL A   1      44.836  20.864  24.999  1.00  0.00     0.054 A 
BRANCH  44  45
ATOM     45  S   UNL A   1      45.243  19.321  24.137  1.00  0.00     0.124 S 
ATOM     46  O   UNL A   1      44.692  18.314  25.040  1.00  0.00    -0.237 OA
ATOM     47  O   UNL A   1      44.542  19.475  22.864  1.00  0.00    -0.237 OA
ATOM     48  O   UNL A   1      46.701  19.347  24.046  1.00  0.00    -0.744 OA
ENDBRANCH  44  45
ENDBRANCH  25  39
BRANCH  26  49
ATOM     49  C   UNL A   1      45.863  32.107  27.462  1.00  0.00    -0.014 A 
ATOM     50  C   UNL A   1      47.150  31.538  27.539  1.00  0.00     0.010 A 
ATOM     51  C   UNL A   1      45.736  33.271  26.668  1.00  0.00     0.010 A 
ATOM     52  C   UNL A   1      48.278  32.211  27.039  1.00  0.00     0.020 A 
ATOM     53  C   UNL A   1      46.850  33.934  26.134  1.00  0.00     0.020 A 
ATOM     54  C   UNL A   1      48.122  33.425  26.371  1.00  0.00     0.054 A 
BRANCH  54  55
ATOM     55  S   UNL A   1      49.595  34.333  25.823  1.00  0.00     0.124 S 
ATOM     56  O   UNL A   1      50.131  34.834  27.085  1.00  0.00    -0.237 OA
ATOM     57  O   UNL A   1      50.386  33.293  25.170  1.00  0.00    -0.237 OA
ATOM     58  O   UNL A   1      49.059  35.354  24.926  1.00  0.00    -0.744 OA
ENDBRANCH  54  55
ENDBRANCH  26  49
BRANCH  38  59
ATOM     59  C   UNL A   1      40.121  28.782  28.159  1.00  0.00    -0.014 A 
ATOM     60  C   UNL A   1      39.086  29.432  27.463  1.00  0.00     0.010 A 
ATOM     61  C   UNL A   1      40.022  28.764  29.563  1.00  0.00     0.010 A 
ATOM     62  C   UNL A   1      37.993  30.021  28.106  1.00  0.00     0.020 A 
ATOM     63  C   UNL A   1      38.932  29.358  30.228  1.00  0.00     0.020 A 
ATOM     64  C   UNL A   1      37.922  29.982  29.493  1.00  0.00     0.054 A 
BRANCH  64  65
ATOM     65  S   UNL A   1      36.507  30.781  30.299  1.00  0.00     0.124 S 
ATOM     66  O   UNL A   1      37.060  32.077  30.690  1.00  0.00    -0.237 OA
ATOM     67  O   UNL A   1      35.512  30.823  29.230  1.00  0.00    -0.237 OA
ATOM     68  O   UNL A   1      36.187  29.889  31.411  1.00  0.00    -0.744 OA
ENDBRANCH  64  65
ENDBRANCH  38  59
ENDBRANCH  12  13
ENDBRANCH   5   7
ENDBRANCH   4   5
ENDBRANCH   3   4
ENDBRANCH   2   3
ENDBRANCH   1   2
BRANCH   1  69
ATOM     69  C   UNL A   1      48.525  19.280  38.722  1.00  0.00     0.188 C 
BRANCH  69  70
ATOM     70  C   UNL A   1      46.995  19.262  38.725  1.00  0.00     0.188 C 
BRANCH  70  71
ATOM     71  O   UNL A   1      46.420  17.992  39.037  1.00  0.00    -0.376 OA
BRANCH  71  72
ATOM     72  C   UNL A   1      45.139  17.700  38.478  1.00  0.00     0.202 C 
BRANCH  72  73
ATOM     73  C   UNL A   1      44.395  16.485  39.041  1.00  0.00     0.261 C 
BRANCH  73  74
ATOM     74  O   UNL A   1      43.337  16.796  39.959  1.00  0.00    -0.460 OA
BRANCH  74  75
ATOM     75  C   UNL A   1      43.729  17.295  41.163  1.00  0.00     0.338 C 
ATOM     76  O   UNL A   1      43.960  18.454  41.450  1.00  0.00    -0.246 OA
BRANCH  75  77
ATOM     77  C   UNL A   1      43.894  16.161  42.090  1.00  0.00     0.061 A 
ATOM     78  C   UNL A   1      42.748  15.330  42.178  1.00  0.00     0.018 A 
ATOM     79  C   UNL A   1      45.094  16.002  42.814  1.00  0.00     0.037 A 
ATOM     80  C   UNL A   1      42.610  14.208  43.001  1.00  0.00     0.031 A 
ATOM     81  C   UNL A   1      45.060  15.007  43.809  1.00  0.00     0.057 A 
ATOM     82  C   UNL A   1      43.564  13.978  43.968  1.00  0.00     0.083 A 
ATOM     83  S   UNL A   1      46.619  14.466  45.494  1.00  0.00    -0.102 S 
ATOM     84  N   UNL A   1      43.611  12.894  45.614  1.00  0.00    -0.225 NA
ATOM     85  C   UNL A   1      45.079  13.051  46.556  1.00  0.00     0.184 A 
ATOM     86  Cl  UNL A   1      45.612  12.258  47.970  1.00  0.00    -0.050 Cl
ENDBRANCH  75  77
ENDBRANCH  74  75
ENDBRANCH  73  74
ENDBRANCH  72  73
ENDBRANCH  71  72
ENDBRANCH  70  71
ENDBRANCH  69  70
ENDBRANCH   1  69
TORSDOF 20
ENDMDL
MODEL 3
REMARK VINA RESULT:      -9.6      4.177      9.324
REMARK SMILES O=C(OCCOCCOCCOC(=O)c1ccc2nc(Cl)sc2c1)c1ccc(-c2c3nc(c(-c4ccc(S(=O)(=O)[O-])cc4)c4ccc([nH]4)c(-c4ccc(S(=O)(=O)[O-])cc4)c4nc(c(-c5ccc(S(=O)(=O)[O-])cc5)c5ccc2[nH]5)C=C4)C=C3)cc1
REMARK SMILES IDX 6 1 5 2 4 3 3 4 2 5 1 6 25 7 26 8 84 9 27 10 83 11 28 12
REMARK SMILES IDX 29 13 30 14 77 15 31 16 82 17 76 18 78 19 32 20 81 21 75 22
REMARK SMILES IDX 74 23 33 25 63 26 44 27 62 28 45 29 48 30 61 31 79 32 46 33
REMARK SMILES IDX 47 34 60 36 80 37 49 38 34 39 35 40 43 41 36 42 42 43 37 44
REMARK SMILES IDX 38 45 39 46 40 47 41 48 64 49 65 50 73 51 66 52 72 53 67 54
REMARK SMILES IDX 68 55 69 56 70 57 71 58 50 59 51 60 59 61 52 62 58 63 53 64
REMARK SMILES IDX 54 65 55 66 56 67 57 68 7 69 8 70 9 71 10 72 11 73 12 74
REMARK SMILES IDX 13 75 14 76 15 77 16 78 24 79 17 80 23 81 18 82 22 83 19 84
REMARK SMILES IDX 20 85 21 86
REMARK H PARENT 78 24 48 35
REMARK Flexibility Score: inf
ROOT
ATOM      1  O   UNL A   1      38.618  22.932  26.336  1.00  0.00    -0.376 OA
ENDROOT
BRANCH   1   2
ATOM      2  C   UNL A   1      39.828  22.262  26.695  1.00  0.00     0.202 C 
BRANCH   2   3
ATOM      3  C   UNL A   1      41.053  23.146  26.478  1.00  0.00     0.261 C 
BRANCH   3   4
ATOM      4  O   UNL A   1      40.803  24.377  27.174  1.00  0.00    -0.460 OA
BRANCH   4   5
ATOM      5  C   UNL A   1      40.799  25.480  26.394  1.00  0.00     0.338 C 
ATOM      6  O   UNL A   1      41.151  25.550  25.228  1.00  0.00    -0.246 OA
BRANCH   5   7
ATOM      7  C   UNL A   1      40.408  26.650  27.210  1.00  0.00     0.060 A 
ATOM      8  C   UNL A   1      40.906  27.909  26.891  1.00  0.00     0.016 A 
ATOM      9  C   UNL A   1      39.659  26.477  28.375  1.00  0.00     0.016 A 
ATOM     10  C   UNL A   1      40.694  28.975  27.771  1.00  0.00     0.010 A 
ATOM     11  C   UNL A   1      39.544  27.513  29.295  1.00  0.00     0.010 A 
ATOM     12  C   UNL A   1      40.140  28.762  29.056  1.00  0.00    -0.014 A 
BRANCH  12  13
ATOM     13  C   UNL A   1      40.043  29.979  30.254  1.00  0.00     0.031 A 
ATOM     14  C   UNL A   1      41.704  29.487  30.883  1.00  0.00     0.074 A 
ATOM     15  C   UNL A   1      39.111  31.580  30.725  1.00  0.00     0.049 A 
ATOM     16  N   UNL A   1      42.800  30.151  30.585  1.00  0.00    -0.248 NA
ATOM     17  C   UNL A   1      41.987  28.293  31.686  1.00  0.00     0.031 C 
ATOM     18  C   UNL A   1      38.333  32.865  29.956  1.00  0.00     0.029 A 
ATOM     19  N   UNL A   1      39.029  32.342  32.036  1.00  0.00    -0.354 N 
ATOM     20  C   UNL A   1      43.860  29.609  31.246  1.00  0.00     0.074 A 
ATOM     21  C   UNL A   1      43.322  28.405  31.862  1.00  0.00     0.031 C 
ATOM     22  C   UNL A   1      38.442  34.003  30.687  1.00  0.00     0.029 A 
ATOM     23  C   UNL A   1      38.882  33.700  32.015  1.00  0.00     0.049 A 
ATOM     24  H   UNL A   1      39.082  31.862  32.894  1.00  0.00     0.167 HD
ATOM     25  C   UNL A   1      45.089  30.199  31.275  1.00  0.00     0.031 A 
ATOM     26  C   UNL A   1      39.321  34.498  33.023  1.00  0.00     0.031 A 
ATOM     27  C   UNL A   1      45.255  31.531  30.708  1.00  0.00     0.049 A 
ATOM     28  C   UNL A   1      40.846  34.483  32.846  1.00  0.00     0.074 A 
ATOM     29  C   UNL A   1      45.763  32.081  29.548  1.00  0.00     0.029 A 
ATOM     30  N   UNL A   1      45.004  32.627  31.512  1.00  0.00    -0.354 N 
ATOM     31  N   UNL A   1      41.599  35.242  32.091  1.00  0.00    -0.248 NA
ATOM     32  C   UNL A   1      41.602  33.432  33.545  1.00  0.00     0.031 C 
ATOM     33  C   UNL A   1      45.540  33.498  29.609  1.00  0.00     0.029 A 
ATOM     34  C   UNL A   1      44.800  33.775  30.762  1.00  0.00     0.049 A 
ATOM     35  H   UNL A   1      44.976  32.596  32.496  1.00  0.00     0.167 HD
ATOM     36  C   UNL A   1      42.879  34.661  32.091  1.00  0.00     0.074 A 
ATOM     37  C   UNL A   1      42.840  33.666  33.136  1.00  0.00     0.031 C 
ATOM     38  C   UNL A   1      43.825  34.844  31.110  1.00  0.00     0.031 A 
BRANCH  25  39
ATOM     39  C   UNL A   1      46.271  29.562  31.906  1.00  0.00    -0.014 A 
ATOM     40  C   UNL A   1      46.528  29.767  33.270  1.00  0.00     0.010 A 
ATOM     41  C   UNL A   1      46.994  28.578  31.208  1.00  0.00     0.010 A 
ATOM     42  C   UNL A   1      47.467  28.972  33.934  1.00  0.00     0.020 A 
ATOM     43  C   UNL A   1      47.930  27.780  31.869  1.00  0.00     0.020 A 
ATOM     44  C   UNL A   1      48.151  27.974  33.233  1.00  0.00     0.054 A 
BRANCH  44  45
ATOM     45  S   UNL A   1      49.264  26.873  34.148  1.00  0.00     0.124 S 
ATOM     46  O   UNL A   1      50.358  27.772  34.502  1.00  0.00    -0.237 OA
ATOM     47  O   UNL A   1      48.427  26.431  35.262  1.00  0.00    -0.237 OA
ATOM     48  O   UNL A   1      49.599  25.833  33.177  1.00  0.00    -0.744 OA
ENDBRANCH  44  45
ENDBRANCH  25  39
BRANCH  26  49
ATOM     49  C   UNL A   1      38.746  34.087  34.388  1.00  0.00    -0.014 A 
ATOM     50  C   UNL A   1      39.270  34.500  35.629  1.00  0.00     0.010 A 
ATOM     51  C   UNL A   1      37.652  33.189  34.433  1.00  0.00     0.010 A 
ATOM     52  C   UNL A   1      38.875  33.886  36.830  1.00  0.00     0.020 A 
ATOM     53  C   UNL A   1      37.226  32.595  35.629  1.00  0.00     0.020 A 
ATOM     54  C   UNL A   1      37.879  32.911  36.816  1.00  0.00     0.054 A 
BRANCH  54  55
ATOM     55  S   UNL A   1      37.454  32.053  38.358  1.00  0.00     0.124 S 
ATOM     56  O   UNL A   1      37.350  30.665  37.916  1.00  0.00    -0.237 OA
ATOM     57  O   UNL A   1      38.595  32.358  39.217  1.00  0.00    -0.237 OA
ATOM     58  O   UNL A   1      36.194  32.673  38.763  1.00  0.00    -0.744 OA
ENDBRANCH  54  55
ENDBRANCH  26  49
BRANCH  38  59
ATOM     59  C   UNL A   1      43.531  35.989  30.146  1.00  0.00    -0.014 A 
ATOM     60  C   UNL A   1      44.149  37.245  30.290  1.00  0.00     0.010 A 
ATOM     61  C   UNL A   1      42.658  35.838  29.053  1.00  0.00     0.010 A 
ATOM     62  C   UNL A   1      43.939  38.300  29.396  1.00  0.00     0.020 A 
ATOM     63  C   UNL A   1      42.429  36.892  28.146  1.00  0.00     0.020 A 
ATOM     64  C   UNL A   1      43.075  38.117  28.324  1.00  0.00     0.054 A 
BRANCH  64  65
ATOM     65  S   UNL A   1      42.801  39.514  27.200  1.00  0.00     0.124 S 
ATOM     66  O   UNL A   1      41.707  39.030  26.359  1.00  0.00    -0.237 OA
ATOM     67  O   UNL A   1      42.453  40.598  28.116  1.00  0.00    -0.237 OA
ATOM     68  O   UNL A   1      44.081  39.668  26.513  1.00  0.00    -0.744 OA
ENDBRANCH  64  65
ENDBRANCH  38  59
ENDBRANCH  12  13
ENDBRANCH   5   7
ENDBRANCH   4   5
ENDBRANCH   3   4
ENDBRANCH   2   3
ENDBRANCH   1   2
BRANCH   1  69
ATOM     69  C   UNL A   1      37.736  22.165  25.522  1.00  0.00     0.188 C 
BRANCH  69  70
ATOM     70  C   UNL A   1      36.549  23.021  25.080  1.00  0.00     0.188 C 
BRANCH  70  71
ATOM     71  O   UNL A   1      35.282  22.368  25.173  1.00  0.00    -0.376 OA
BRANCH  71  72
ATOM     72  C   UNL A   1      35.264  20.950  25.005  1.00  0.00     0.202 C 
BRANCH  72  73
ATOM     73  C   UNL A   1      33.890  20.278  24.922  1.00  0.00     0.261 C 
BRANCH  73  74
ATOM     74  O   UNL A   1      32.788  21.175  24.718  1.00  0.00    -0.460 OA
BRANCH  74  75
ATOM     75  C   UNL A   1      32.305  21.235  23.447  1.00  0.00     0.338 C 
ATOM     76  O   UNL A   1      32.132  20.315  22.671  1.00  0.00    -0.246 OA
BRANCH  75  77
ATOM     77  C   UNL A   1      32.069  22.653  23.120  1.00  0.00     0.061 A 
ATOM     78  C   UNL A   1      33.143  23.259  22.420  1.00  0.00     0.018 A 
ATOM     79  C   UNL A   1      30.879  23.290  23.531  1.00  0.00     0.037 A 
ATOM     80  C   UNL A   1      33.209  24.596  22.017  1.00  0.00     0.031 A 
ATOM     81  C   UNL A   1      30.856  24.684  23.341  1.00  0.00     0.057 A 
ATOM     82  C   UNL A   1      32.264  25.477  22.497  1.00  0.00     0.083 A 
ATOM     83  S   UNL A   1      29.302  26.306  24.058  1.00  0.00    -0.102 S 
ATOM     84  N   UNL A   1      32.170  27.441  22.636  1.00  0.00    -0.225 NA
ATOM     85  C   UNL A   1      30.746  28.053  23.450  1.00  0.00     0.184 A 
ATOM     86  Cl  UNL A   1      30.185  29.643  23.719  1.00  0.00    -0.050 Cl
ENDBRANCH  75  77
ENDBRANCH  74  75
ENDBRANCH  73  74
ENDBRANCH  72  73
ENDBRANCH  71  72
ENDBRANCH  70  71
ENDBRANCH  69  70
ENDBRANCH   1  69
TORSDOF 20
ENDMDL
