MODEL 1
REMARK VINA RESULT:     -14.0      0.000      0.000
REMARK SMILES Cc1ccc(S(=O)(=O)n2cc(C(=O)C(=O)NCC(=O)NCC(=O)OCCOCCOCCOC(=O)c3ccc(-c4c5nc(c(-c6ccc(S(=O)(=O)[O-])cc6)c6ccc([nH]6)c(-c6ccc(S(=O)(=O)[O-])cc6)c6nc(c(-c7ccc(S(=O)(=O)[O-])cc7)c7ccc4[nH]7)C=C6)C=C5)cc3)c3ccccc32)cc1
REMARK SMILES IDX 26 1 25 2 24 3 22 4 23 5 21 6 20 7 18 8 19 9 17 11 16 12
REMARK SMILES IDX 14 13 15 14 12 16 13 17 11 18 9 19 10 20 101 21 96 22 100 23
REMARK SMILES IDX 97 24 99 25 98 26 6 27 7 28 8 29 5 30 1 31 2 32 3 33 103 34
REMARK SMILES IDX 4 35 102 36 27 37 28 38 29 39 30 40 31 41 32 42 33 43 34 44
REMARK SMILES IDX 35 45 36 46 37 47 95 48 38 49 94 50 39 51 40 52 41 53 88 54
REMARK SMILES IDX 42 55 93 56 87 57 89 58 43 59 92 60 86 61 85 62 44 64 74 65
REMARK SMILES IDX 55 66 73 67 56 68 59 69 72 70 90 71 57 72 58 73 71 75 91 76
REMARK SMILES IDX 60 77 45 78 46 79 54 80 47 81 53 82 48 83 49 84 50 85 51 86
REMARK SMILES IDX 52 87 75 88 76 89 84 90 77 91 83 92 78 93 79 94 80 95 81 96
REMARK SMILES IDX 82 97 61 98 62 99 70 100 63 101 69 102 64 103 65 104 66 105
REMARK SMILES IDX 67 106 68 107
REMARK H PARENT 20 10 16 15 89 63 59 74
REMARK Flexibility Score: inf
ROOT
ATOM      1  C   UNL A   1      41.279  19.570  26.127  1.00  0.00     0.202 C 
ENDROOT
BRANCH   1   2
ATOM      2  C   UNL A   1      40.213  20.669  26.211  1.00  0.00     0.261 C 
BRANCH   2   3
ATOM      3  O   UNL A   1      38.720  20.413  25.345  1.00  0.00    -0.462 OA
BRANCH   3   4
ATOM      4  C   UNL A   1      37.268  20.248  25.135  1.00  0.00     0.325 C 
ATOM      5  O   UNL A   1      36.982  19.109  24.813  1.00  0.00    -0.250 OA
BRANCH   4   6
ATOM      6  C   UNL A   1      35.853  21.322  25.335  1.00  0.00     0.238 C 
BRANCH   6   7
ATOM      7  N   UNL A   1      34.719  21.095  26.441  1.00  0.00    -0.344 N 
ATOM      8  C   UNL A   1      33.501  21.670  26.777  1.00  0.00     0.239 C 
ATOM      9  O   UNL A   1      33.321  22.029  27.949  1.00  0.00    -0.273 OA
ATOM     10  H   UNL A   1      34.945  20.350  27.044  1.00  0.00     0.164 HD
BRANCH   8  11
ATOM     11  C   UNL A   1      32.280  21.663  25.861  1.00  0.00     0.216 C 
BRANCH  11  12
ATOM     12  N   UNL A   1      31.147  22.158  26.568  1.00  0.00    -0.340 N 
ATOM     13  C   UNL A   1      30.560  23.370  26.707  1.00  0.00     0.292 C 
ATOM     14  O   UNL A   1      29.461  23.423  27.238  1.00  0.00    -0.265 OA
ATOM     15  H   UNL A   1      30.681  21.453  27.075  1.00  0.00     0.164 HD
BRANCH  13  16
ATOM     16  C   UNL A   1      31.316  24.636  26.373  1.00  0.00     0.252 C 
ATOM     17  O   UNL A   1      32.056  25.076  27.253  1.00  0.00    -0.283 OA
BRANCH  16  18
ATOM     18  C   UNL A   1      31.070  25.344  25.100  1.00  0.00     0.054 A 
ATOM     19  N   UNL A   1      30.196  27.000  23.346  1.00  0.00    -0.240 N 
ATOM     20  C   UNL A   1      30.147  26.331  24.851  1.00  0.00     0.117 A 
ATOM     21  C   UNL A   1      31.360  25.906  22.835  1.00  0.00     0.065 A 
ATOM     22  C   UNL A   1      31.771  25.078  23.915  1.00  0.00     0.012 A 
ATOM     23  C   UNL A   1      31.944  25.590  21.570  1.00  0.00     0.028 A 
ATOM     24  C   UNL A   1      32.779  24.091  23.721  1.00  0.00     0.011 A 
ATOM     25  C   UNL A   1      32.860  24.542  21.408  1.00  0.00     0.002 A 
ATOM     26  C   UNL A   1      33.292  23.800  22.477  1.00  0.00     0.001 A 
BRANCH  19  27
ATOM     27  S   UNL A   1      29.674  29.343  22.658  1.00  0.00     0.268 S 
ATOM     28  O   UNL A   1      28.704  30.137  23.430  1.00  0.00    -0.201 OA
ATOM     29  O   UNL A   1      29.996  29.794  21.293  1.00  0.00    -0.201 OA
BRANCH  27  30
ATOM     30  C   UNL A   1      30.977  29.265  23.391  1.00  0.00     0.088 A 
ATOM     31  C   UNL A   1      34.523  29.051  26.657  1.00  0.00     0.044 C 
ATOM     32  C   UNL A   1      33.629  29.315  25.471  1.00  0.00    -0.051 A 
ATOM     33  C   UNL A   1      32.055  29.724  25.983  1.00  0.00     0.005 A 
ATOM     34  C   UNL A   1      34.103  28.871  23.874  1.00  0.00     0.005 A 
ATOM     35  C   UNL A   1      30.758  29.719  25.057  1.00  0.00     0.022 A 
ATOM     36  C   UNL A   1      32.839  28.777  22.655  1.00  0.00     0.022 A 
ENDBRANCH  27  30
ENDBRANCH  19  27
ENDBRANCH  16  18
ENDBRANCH  13  16
ENDBRANCH  11  12
ENDBRANCH   8  11
ENDBRANCH   6   7
ENDBRANCH   4   6
ENDBRANCH   3   4
ENDBRANCH   2   3
ENDBRANCH   1   2
BRANCH   1  37
ATOM     37  O   UNL A   1      42.294  19.586  25.152  1.00  0.00    -0.376 OA
BRANCH  37  38
ATOM     38  C   UNL A   1      43.475  20.292  25.482  1.00  0.00     0.188 C 
BRANCH  38  39
ATOM     39  C   UNL A   1      43.326  21.447  26.480  1.00  0.00     0.188 C 
BRANCH  39  40
ATOM     40  O   UNL A   1      43.048  22.732  25.925  1.00  0.00    -0.376 OA
BRANCH  40  41
ATOM     41  C   UNL A   1      43.679  23.277  24.797  1.00  0.00     0.202 C 
BRANCH  41  42
ATOM     42  C   UNL A   1      43.789  24.741  24.969  1.00  0.00     0.261 C 
BRANCH  42  43
ATOM     43  O   UNL A   1      42.621  25.376  25.590  1.00  0.00    -0.460 OA
BRANCH  43  44
ATOM     44  C   UNL A   1      42.089  26.637  25.525  1.00  0.00     0.338 C 
ATOM     45  O   UNL A   1      42.547  27.423  24.698  1.00  0.00    -0.246 OA
BRANCH  44  46
ATOM     46  C   UNL A   1      40.933  27.103  26.374  1.00  0.00     0.060 A 
ATOM     47  C   UNL A   1      40.584  28.416  26.259  1.00  0.00     0.016 A 
ATOM     48  C   UNL A   1      40.301  26.421  27.408  1.00  0.00     0.016 A 
ATOM     49  C   UNL A   1      40.036  29.062  27.384  1.00  0.00     0.010 A 
ATOM     50  C   UNL A   1      39.848  27.123  28.578  1.00  0.00     0.010 A 
ATOM     51  C   UNL A   1      39.864  28.530  28.704  1.00  0.00    -0.014 A 
BRANCH  51  52
ATOM     52  C   UNL A   1      39.893  29.231  30.379  1.00  0.00     0.031 A 
ATOM     53  C   UNL A   1      38.711  30.119  30.343  1.00  0.00     0.074 A 
ATOM     54  C   UNL A   1      40.613  28.957  31.723  1.00  0.00     0.049 A 
ATOM     55  N   UNL A   1      37.883  30.340  31.289  1.00  0.00    -0.248 NA
ATOM     56  C   UNL A   1      38.329  30.801  29.080  1.00  0.00     0.031 C 
ATOM     57  C   UNL A   1      40.159  28.940  33.188  1.00  0.00     0.029 A 
ATOM     58  N   UNL A   1      41.760  28.098  32.034  1.00  0.00    -0.354 N 
ATOM     59  C   UNL A   1      37.280  31.520  30.900  1.00  0.00     0.074 A 
ATOM     60  C   UNL A   1      37.381  31.633  29.471  1.00  0.00     0.031 C 
ATOM     61  C   UNL A   1      41.071  28.386  34.058  1.00  0.00     0.029 A 
ATOM     62  C   UNL A   1      42.202  27.864  33.320  1.00  0.00     0.049 A 
ATOM     63  H   UNL A   1      42.237  27.666  31.289  1.00  0.00     0.167 HD
ATOM     64  C   UNL A   1      37.283  32.561  31.761  1.00  0.00     0.031 A 
ATOM     65  C   UNL A   1      43.553  27.842  33.561  1.00  0.00     0.031 A 
ATOM     66  C   UNL A   1      38.083  32.248  32.938  1.00  0.00     0.049 A 
ATOM     67  C   UNL A   1      43.782  29.304  33.795  1.00  0.00     0.074 A 
ATOM     68  C   UNL A   1      37.889  31.425  34.028  1.00  0.00     0.029 A 
ATOM     69  N   UNL A   1      39.453  32.398  32.825  1.00  0.00    -0.354 N 
ATOM     70  N   UNL A   1      43.104  30.219  33.145  1.00  0.00    -0.248 NA
ATOM     71  C   UNL A   1      44.304  29.745  35.073  1.00  0.00     0.031 C 
ATOM     72  C   UNL A   1      39.164  31.214  34.647  1.00  0.00     0.029 A 
ATOM     73  C   UNL A   1      40.156  31.767  33.840  1.00  0.00     0.049 A 
ATOM     74  H   UNL A   1      39.886  32.901  32.098  1.00  0.00     0.167 HD
ATOM     75  C   UNL A   1      42.521  30.951  34.159  1.00  0.00     0.074 A 
ATOM     76  C   UNL A   1      43.457  30.760  35.280  1.00  0.00     0.031 C 
ATOM     77  C   UNL A   1      41.606  31.906  33.870  1.00  0.00     0.031 A 
BRANCH  64  78
ATOM     78  C   UNL A   1      36.348  33.705  31.581  1.00  0.00    -0.014 A 
ATOM     79  C   UNL A   1      36.248  34.552  32.686  1.00  0.00     0.010 A 
ATOM     80  C   UNL A   1      35.395  33.856  30.548  1.00  0.00     0.010 A 
ATOM     81  C   UNL A   1      35.125  35.350  32.865  1.00  0.00     0.020 A 
ATOM     82  C   UNL A   1      34.261  34.649  30.718  1.00  0.00     0.020 A 
ATOM     83  C   UNL A   1      34.116  35.353  31.904  1.00  0.00     0.054 A 
BRANCH  83  84
ATOM     84  S   UNL A   1      32.594  36.241  32.269  1.00  0.00     0.124 S 
ATOM     85  O   UNL A   1      31.649  35.148  32.491  1.00  0.00    -0.237 OA
ATOM     86  O   UNL A   1      32.967  37.008  33.453  1.00  0.00    -0.237 OA
ATOM     87  O   UNL A   1      32.353  37.030  31.063  1.00  0.00    -0.744 OA
ENDBRANCH  83  84
ENDBRANCH  64  78
BRANCH  65  88
ATOM     88  C   UNL A   1      44.421  27.015  32.638  1.00  0.00    -0.014 A 
ATOM     89  C   UNL A   1      44.560  25.633  32.906  1.00  0.00     0.010 A 
ATOM     90  C   UNL A   1      44.832  27.477  31.377  1.00  0.00     0.010 A 
ATOM     91  C   UNL A   1      44.795  24.716  31.861  1.00  0.00     0.020 A 
ATOM     92  C   UNL A   1      45.105  26.562  30.332  1.00  0.00     0.020 A 
ATOM     93  C   UNL A   1      44.966  25.184  30.554  1.00  0.00     0.054 A 
BRANCH  93  94
ATOM     94  S   UNL A   1      44.498  24.065  29.125  1.00  0.00     0.124 S 
ATOM     95  O   UNL A   1      43.426  24.823  28.489  1.00  0.00    -0.237 OA
ATOM     96  O   UNL A   1      45.741  23.988  28.353  1.00  0.00    -0.237 OA
ATOM     97  O   UNL A   1      44.064  22.798  29.712  1.00  0.00    -0.744 OA
ENDBRANCH  93  94
ENDBRANCH  65  88
BRANCH  77  98
ATOM     98  C   UNL A   1      42.153  33.234  34.069  1.00  0.00    -0.014 A 
ATOM     99  C   UNL A   1      43.662  33.902  32.977  1.00  0.00     0.010 A 
ATOM    100  C   UNL A   1      41.723  34.365  35.623  1.00  0.00     0.010 A 
ATOM    101  C   UNL A   1      44.495  35.529  33.672  1.00  0.00     0.020 A 
ATOM    102  C   UNL A   1      42.572  35.942  36.405  1.00  0.00     0.020 A 
ATOM    103  C   UNL A   1      44.223  36.627  35.266  1.00  0.00     0.054 A 
BRANCH 103 104
ATOM    104  S   UNL A   1      45.438  38.103  35.008  1.00  0.00     0.124 S 
ATOM    105  O   UNL A   1      44.962  38.695  33.761  1.00  0.00    -0.237 OA
ATOM    106  O   UNL A   1      45.165  38.917  36.196  1.00  0.00    -0.237 OA
ATOM    107  O   UNL A   1      46.806  37.596  35.013  1.00  0.00    -0.744 OA
ENDBRANCH 103 104
ENDBRANCH  77  98
ENDBRANCH  51  52
ENDBRANCH  44  46
ENDBRANCH  43  44
ENDBRANCH  42  43
ENDBRANCH  41  42
ENDBRANCH  40  41
ENDBRANCH  39  40
ENDBRANCH  38  39
ENDBRANCH  37  38
ENDBRANCH   1  37
TORSDOF 27
ENDMDL
MODEL 2
REMARK VINA RESULT:     -11.1      1.928      2.230
REMARK SMILES Cc1ccc(S(=O)(=O)n2cc(C(=O)C(=O)NCC(=O)NCC(=O)OCCOCCOCCOC(=O)c3ccc(-c4c5nc(c(-c6ccc(S(=O)(=O)[O-])cc6)c6ccc([nH]6)c(-c6ccc(S(=O)(=O)[O-])cc6)c6nc(c(-c7ccc(S(=O)(=O)[O-])cc7)c7ccc4[nH]7)C=C6)C=C5)cc3)c3ccccc32)cc1
REMARK SMILES IDX 26 1 25 2 24 3 22 4 23 5 21 6 20 7 18 8 19 9 17 11 16 12
REMARK SMILES IDX 14 13 15 14 12 16 13 17 11 18 9 19 10 20 101 21 96 22 100 23
REMARK SMILES IDX 97 24 99 25 98 26 6 27 7 28 8 29 5 30 1 31 2 32 3 33 103 34
REMARK SMILES IDX 4 35 102 36 27 37 28 38 29 39 30 40 31 41 32 42 33 43 34 44
REMARK SMILES IDX 35 45 36 46 37 47 95 48 38 49 94 50 39 51 40 52 41 53 88 54
REMARK SMILES IDX 42 55 93 56 87 57 89 58 43 59 92 60 86 61 85 62 44 64 74 65
REMARK SMILES IDX 55 66 73 67 56 68 59 69 72 70 90 71 57 72 58 73 71 75 91 76
REMARK SMILES IDX 60 77 45 78 46 79 54 80 47 81 53 82 48 83 49 84 50 85 51 86
REMARK SMILES IDX 52 87 75 88 76 89 84 90 77 91 83 92 78 93 79 94 80 95 81 96
REMARK SMILES IDX 82 97 61 98 62 99 70 100 63 101 69 102 64 103 65 104 66 105
REMARK SMILES IDX 67 106 68 107
REMARK H PARENT 20 10 16 15 89 63 59 74
REMARK Flexibility Score: inf
ROOT
ATOM      1  C   UNL A   1      40.640  19.532  26.130  1.00  0.00     0.202 C 
ENDROOT
BRANCH   1   2
ATOM      2  C   UNL A   1      39.519  20.518  25.777  1.00  0.00     0.261 C 
BRANCH   2   3
ATOM      3  O   UNL A   1      38.104  19.880  24.982  1.00  0.00    -0.462 OA
BRANCH   3   4
ATOM      4  C   UNL A   1      36.728  19.365  24.838  1.00  0.00     0.325 C 
ATOM      5  O   UNL A   1      36.689  18.150  24.900  1.00  0.00    -0.250 OA
BRANCH   4   6
ATOM      6  C   UNL A   1      35.122  20.135  24.681  1.00  0.00     0.238 C 
BRANCH   6   7
ATOM      7  N   UNL A   1      34.130  20.372  25.914  1.00  0.00    -0.344 N 
ATOM      8  C   UNL A   1      33.217  21.340  26.308  1.00  0.00     0.239 C 
ATOM      9  O   UNL A   1      33.316  21.816  27.448  1.00  0.00    -0.273 OA
ATOM     10  H   UNL A   1      34.181  19.637  26.567  1.00  0.00     0.164 HD
BRANCH   8  11
ATOM     11  C   UNL A   1      31.949  21.676  25.527  1.00  0.00     0.216 C 
BRANCH  11  12
ATOM     12  N   UNL A   1      30.954  22.174  26.418  1.00  0.00    -0.340 N 
ATOM     13  C   UNL A   1      30.473  23.401  26.725  1.00  0.00     0.292 C 
ATOM     14  O   UNL A   1      29.459  23.471  27.404  1.00  0.00    -0.265 OA
ATOM     15  H   UNL A   1      30.514  21.456  26.929  1.00  0.00     0.164 HD
BRANCH  13  16
ATOM     16  C   UNL A   1      31.260  24.645  26.386  1.00  0.00     0.252 C 
ATOM     17  O   UNL A   1      32.016  25.067  27.262  1.00  0.00    -0.283 OA
BRANCH  16  18
ATOM     18  C   UNL A   1      31.026  25.359  25.114  1.00  0.00     0.054 A 
ATOM     19  N   UNL A   1      30.154  27.009  23.354  1.00  0.00    -0.240 N 
ATOM     20  C   UNL A   1      30.086  26.326  24.851  1.00  0.00     0.117 A 
ATOM     21  C   UNL A   1      31.356  25.949  22.861  1.00  0.00     0.065 A 
ATOM     22  C   UNL A   1      31.761  25.121  23.943  1.00  0.00     0.012 A 
ATOM     23  C   UNL A   1      31.977  25.658  21.607  1.00  0.00     0.028 A 
ATOM     24  C   UNL A   1      32.797  24.161  23.765  1.00  0.00     0.011 A 
ATOM     25  C   UNL A   1      32.921  24.634  21.458  1.00  0.00     0.002 A 
ATOM     26  C   UNL A   1      33.346  23.894  22.530  1.00  0.00     0.001 A 
BRANCH  19  27
ATOM     27  S   UNL A   1      29.591  29.346  22.674  1.00  0.00     0.268 S 
ATOM     28  O   UNL A   1      28.630  30.131  23.467  1.00  0.00    -0.201 OA
ATOM     29  O   UNL A   1      29.878  29.798  21.301  1.00  0.00    -0.201 OA
BRANCH  27  30
ATOM     30  C   UNL A   1      30.911  29.283  23.378  1.00  0.00     0.088 A 
ATOM     31  C   UNL A   1      34.539  29.219  26.559  1.00  0.00     0.044 C 
ATOM     32  C   UNL A   1      33.622  29.413  25.378  1.00  0.00    -0.051 A 
ATOM     33  C   UNL A   1      32.077  29.921  25.893  1.00  0.00     0.005 A 
ATOM     34  C   UNL A   1      34.034  28.820  23.814  1.00  0.00     0.005 A 
ATOM     35  C   UNL A   1      30.755  29.885  25.004  1.00  0.00     0.022 A 
ATOM     36  C   UNL A   1      32.734  28.668  22.639  1.00  0.00     0.022 A 
ENDBRANCH  27  30
ENDBRANCH  19  27
ENDBRANCH  16  18
ENDBRANCH  13  16
ENDBRANCH  11  12
ENDBRANCH   8  11
ENDBRANCH   6   7
ENDBRANCH   4   6
ENDBRANCH   3   4
ENDBRANCH   2   3
ENDBRANCH   1   2
BRANCH   1  37
ATOM     37  O   UNL A   1      41.849  19.486  25.409  1.00  0.00    -0.376 OA
BRANCH  37  38
ATOM     38  C   UNL A   1      42.941  20.198  25.962  1.00  0.00     0.188 C 
BRANCH  38  39
ATOM     39  C   UNL A   1      42.594  21.388  26.865  1.00  0.00     0.188 C 
BRANCH  39  40
ATOM     40  O   UNL A   1      42.648  22.679  26.261  1.00  0.00    -0.376 OA
BRANCH  40  41
ATOM     41  C   UNL A   1      43.157  22.951  24.982  1.00  0.00     0.202 C 
BRANCH  41  42
ATOM     42  C   UNL A   1      43.934  24.208  25.031  1.00  0.00     0.261 C 
BRANCH  42  43
ATOM     43  O   UNL A   1      43.562  25.118  26.121  1.00  0.00    -0.460 OA
BRANCH  43  44
ATOM     44  C   UNL A   1      43.791  26.447  26.358  1.00  0.00     0.338 C 
ATOM     45  O   UNL A   1      44.886  26.915  26.050  1.00  0.00    -0.246 OA
BRANCH  44  46
ATOM     46  C   UNL A   1      42.759  27.387  26.926  1.00  0.00     0.060 A 
ATOM     47  C   UNL A   1      43.168  28.664  27.173  1.00  0.00     0.016 A 
ATOM     48  C   UNL A   1      41.495  27.076  27.418  1.00  0.00     0.016 A 
ATOM     49  C   UNL A   1      42.560  29.366  28.232  1.00  0.00     0.010 A 
ATOM     50  C   UNL A   1      40.966  27.763  28.563  1.00  0.00     0.010 A 
ATOM     51  C   UNL A   1      41.591  28.876  29.168  1.00  0.00    -0.014 A 
BRANCH  51  52
ATOM     52  C   UNL A   1      41.204  29.225  30.907  1.00  0.00     0.031 A 
ATOM     53  C   UNL A   1      39.998  30.070  30.774  1.00  0.00     0.074 A 
ATOM     54  C   UNL A   1      41.631  28.704  32.303  1.00  0.00     0.049 A 
ATOM     55  N   UNL A   1      38.971  30.073  31.531  1.00  0.00    -0.248 NA
ATOM     56  C   UNL A   1      39.854  30.983  29.611  1.00  0.00     0.031 C 
ATOM     57  C   UNL A   1      40.872  28.379  33.595  1.00  0.00     0.029 A 
ATOM     58  N   UNL A   1      42.741  27.830  32.697  1.00  0.00    -0.354 N 
ATOM     59  C   UNL A   1      38.384  31.292  31.247  1.00  0.00     0.074 A 
ATOM     60  C   UNL A   1      38.786  31.694  29.928  1.00  0.00     0.031 C 
ATOM     61  C   UNL A   1      41.609  27.684  34.527  1.00  0.00     0.029 A 
ATOM     62  C   UNL A   1      42.908  27.353  33.981  1.00  0.00     0.049 A 
ATOM     63  H   UNL A   1      43.399  27.570  32.012  1.00  0.00     0.167 HD
ATOM     64  C   UNL A   1      38.126  32.136  32.269  1.00  0.00     0.031 A 
ATOM     65  C   UNL A   1      44.172  27.319  34.515  1.00  0.00     0.031 A 
ATOM     66  C   UNL A   1      38.669  31.613  33.515  1.00  0.00     0.049 A 
ATOM     67  C   UNL A   1      44.240  28.708  35.070  1.00  0.00     0.074 A 
ATOM     68  C   UNL A   1      38.302  30.581  34.354  1.00  0.00     0.029 A 
ATOM     69  N   UNL A   1      40.017  31.819  33.749  1.00  0.00    -0.354 N 
ATOM     70  N   UNL A   1      43.656  29.717  34.469  1.00  0.00    -0.248 NA
ATOM     71  C   UNL A   1      44.438  28.895  36.493  1.00  0.00     0.031 C 
ATOM     72  C   UNL A   1      39.422  30.284  35.195  1.00  0.00     0.029 A 
ATOM     73  C   UNL A   1      40.525  31.015  34.757  1.00  0.00     0.049 A 
ATOM     74  H   UNL A   1      40.561  32.470  33.248  1.00  0.00     0.167 HD
ATOM     75  C   UNL A   1      42.816  30.213  35.445  1.00  0.00     0.074 A 
ATOM     76  C   UNL A   1      43.495  29.825  36.692  1.00  0.00     0.031 C 
ATOM     77  C   UNL A   1      41.920  31.183  35.143  1.00  0.00     0.031 A 
BRANCH  64  78
ATOM     78  C   UNL A   1      37.173  33.268  32.102  1.00  0.00    -0.014 A 
ATOM     79  C   UNL A   1      36.363  33.512  33.213  1.00  0.00     0.010 A 
ATOM     80  C   UNL A   1      36.839  33.913  30.890  1.00  0.00     0.010 A 
ATOM     81  C   UNL A   1      35.152  34.179  33.071  1.00  0.00     0.020 A 
ATOM     82  C   UNL A   1      35.625  34.579  30.733  1.00  0.00     0.020 A 
ATOM     83  C   UNL A   1      34.769  34.662  31.821  1.00  0.00     0.054 A 
BRANCH  83  84
ATOM     84  S   UNL A   1      33.110  35.336  31.641  1.00  0.00     0.124 S 
ATOM     85  O   UNL A   1      33.336  36.764  31.850  1.00  0.00    -0.237 OA
ATOM     86  O   UNL A   1      32.769  34.941  30.277  1.00  0.00    -0.237 OA
ATOM     87  O   UNL A   1      32.346  34.670  32.694  1.00  0.00    -0.744 OA
ENDBRANCH  83  84
ENDBRANCH  64  78
BRANCH  65  88
ATOM     88  C   UNL A   1      45.277  26.719  33.674  1.00  0.00    -0.014 A 
ATOM     89  C   UNL A   1      45.949  27.555  32.752  1.00  0.00     0.010 A 
ATOM     90  C   UNL A   1      45.867  25.481  33.977  1.00  0.00     0.010 A 
ATOM     91  C   UNL A   1      47.292  27.309  32.401  1.00  0.00     0.020 A 
ATOM     92  C   UNL A   1      47.204  25.210  33.598  1.00  0.00     0.020 A 
ATOM     93  C   UNL A   1      47.947  26.183  32.913  1.00  0.00     0.054 A 
BRANCH  93  94
ATOM     94  S   UNL A   1      49.808  26.240  33.130  1.00  0.00     0.124 S 
ATOM     95  O   UNL A   1      50.274  26.077  31.757  1.00  0.00    -0.237 OA
ATOM     96  O   UNL A   1      50.027  27.571  33.702  1.00  0.00    -0.237 OA
ATOM     97  O   UNL A   1      50.159  25.130  34.014  1.00  0.00    -0.744 OA
ENDBRANCH  93  94
ENDBRANCH  65  88
BRANCH  77  98
ATOM     98  C   UNL A   1      42.314  32.457  35.710  1.00  0.00    -0.014 A 
ATOM     99  C   UNL A   1      43.522  33.689  34.741  1.00  0.00     0.010 A 
ATOM    100  C   UNL A   1      42.004  32.951  37.592  1.00  0.00     0.010 A 
ATOM    101  C   UNL A   1      44.238  35.138  35.841  1.00  0.00     0.020 A 
ATOM    102  C   UNL A   1      42.758  34.329  38.755  1.00  0.00     0.020 A 
ATOM    103  C   UNL A   1      44.094  35.617  37.731  1.00  0.00     0.054 A 
BRANCH 103 104
ATOM    104  S   UNL A   1      45.046  37.291  37.844  1.00  0.00     0.124 S 
ATOM    105  O   UNL A   1      44.874  37.663  39.245  1.00  0.00    -0.237 OA
ATOM    106  O   UNL A   1      46.409  36.875  37.501  1.00  0.00    -0.237 OA
ATOM    107  O   UNL A   1      44.505  38.211  36.849  1.00  0.00    -0.744 OA
ENDBRANCH 103 104
ENDBRANCH  77  98
ENDBRANCH  51  52
ENDBRANCH  44  46
ENDBRANCH  43  44
ENDBRANCH  42  43
ENDBRANCH  41  42
ENDBRANCH  40  41
ENDBRANCH  39  40
ENDBRANCH  38  39
ENDBRANCH  37  38
ENDBRANCH   1  37
TORSDOF 27
ENDMDL
