MODEL 1
REMARK VINA RESULT:      -6.7      0.000      0.000
REMARK SMILES CN(C)Nc1ncnc(Nc2ccc(C(=O)OCCOCCOCCOC(=O)c3ccc(-c4c5nc(c(-c6ccc(S(=O)(=O)[O-])cc6)c6ccc([nH]6)c(-c6ccc(S(=O)(=O)[O-])cc6)c6nc(c(-c7ccc(S(=O)(=O)[O-])cc7)c7ccc4[nH]7)C=C6)C=C5)cc3)cc2)c1[N+](=O)[O-]
REMARK SMILES IDX 21 1 20 2 19 3 18 4 17 5 15 6 16 7 14 8 11 9 12 10 90 11
REMARK SMILES IDX 13 12 89 13 10 14 9 16 5 17 6 18 91 19 7 20 8 21 4 22 2 24
REMARK SMILES IDX 1 25 3 26 92 27 93 28 94 29 22 30 23 31 24 32 25 33 26 34
REMARK SMILES IDX 27 35 28 36 29 37 30 38 88 39 31 40 87 41 32 42 33 43 34 44
REMARK SMILES IDX 81 45 35 46 86 47 80 48 82 49 36 50 85 51 79 52 78 53 37 55
REMARK SMILES IDX 67 56 48 57 66 58 49 59 52 60 65 61 83 62 50 63 51 64 64 66
REMARK SMILES IDX 84 67 53 68 38 69 39 70 47 71 40 72 46 73 41 74 42 75 43 76
REMARK SMILES IDX 44 77 45 78 68 79 69 80 77 81 70 82 76 83 71 84 72 85 73 86
REMARK SMILES IDX 74 87 75 88 54 89 55 90 63 91 56 92 62 93 57 94 58 95 59 96
REMARK SMILES IDX 60 97 61 98
REMARK H PARENT 10 15 4 23 82 54 52 65
REMARK Flexibility Score: inf
ROOT
ATOM      1  C   UNL A   1      45.428  25.334  31.156  1.00  0.00     0.188 C 
ENDROOT
BRANCH   1   2
ATOM      2  O   UNL A   1      44.765  26.104  30.179  1.00  0.00    -0.376 OA
BRANCH   2   3
ATOM      3  C   UNL A   1      43.514  25.698  29.651  1.00  0.00     0.202 C 
BRANCH   3   4
ATOM      4  C   UNL A   1      42.926  26.088  28.281  1.00  0.00     0.261 C 
BRANCH   4   5
ATOM      5  O   UNL A   1      41.505  26.128  28.151  1.00  0.00    -0.460 OA
BRANCH   5   6
ATOM      6  C   UNL A   1      41.015  27.255  27.573  1.00  0.00     0.338 C 
ATOM      7  O   UNL A   1      40.960  27.501  26.383  1.00  0.00    -0.246 OA
BRANCH   6   8
ATOM      8  C   UNL A   1      40.372  28.094  28.603  1.00  0.00     0.060 A 
ATOM      9  C   UNL A   1      39.323  29.817  30.543  1.00  0.00     0.040 A 
ATOM     10  C   UNL A   1      39.554  30.281  29.244  1.00  0.00     0.027 A 
ATOM     11  C   UNL A   1      39.541  28.459  30.830  1.00  0.00     0.027 A 
ATOM     12  C   UNL A   1      40.096  29.429  28.283  1.00  0.00     0.018 A 
ATOM     13  C   UNL A   1      40.051  27.590  29.863  1.00  0.00     0.018 A 
BRANCH   9  14
ATOM     14  N   UNL A   1      39.093  30.756  31.571  1.00  0.00    -0.334 N 
ATOM     15  H   UNL A   1      39.809  30.896  32.232  1.00  0.00     0.168 HD
BRANCH  14  16
ATOM     16  C   UNL A   1      37.909  31.509  31.716  1.00  0.00     0.215 A 
ATOM     17  C   UNL A   1      36.690  33.483  32.211  1.00  0.00     0.225 A 
ATOM     18  N   UNL A   1      35.559  32.928  31.722  1.00  0.00    -0.212 NA
ATOM     19  C   UNL A   1      37.865  32.761  32.305  1.00  0.00     0.354 A 
ATOM     20  C   UNL A   1      35.657  31.689  31.245  1.00  0.00     0.227 A 
ATOM     21  N   UNL A   1      36.784  30.985  31.176  1.00  0.00    -0.212 NA
BRANCH  17  22
ATOM     22  N   UNL A   1      36.525  34.848  32.459  1.00  0.00    -0.298 N 
ATOM     23  H   UNL A   1      37.023  35.468  31.879  1.00  0.00     0.184 HD
BRANCH  22  24
ATOM     24  N   UNL A   1      35.709  35.430  33.468  1.00  0.00    -0.228 NA
ATOM     25  C   UNL A   1      34.449  35.988  32.948  1.00  0.00     0.130 C 
ATOM     26  C   UNL A   1      35.359  34.342  34.404  1.00  0.00     0.130 C 
ENDBRANCH  22  24
ENDBRANCH  17  22
BRANCH  19  27
ATOM     27  N   UNL A   1      38.945  33.225  33.131  1.00  0.00     0.070 N 
ATOM     28  O   UNL A   1      38.661  33.637  34.266  1.00  0.00    -0.258 OA
ATOM     29  O   UNL A   1      40.073  33.283  32.622  1.00  0.00    -0.258 OA
ENDBRANCH  19  27
ENDBRANCH  14  16
ENDBRANCH   9  14
ENDBRANCH   6   8
ENDBRANCH   5   6
ENDBRANCH   4   5
ENDBRANCH   3   4
ENDBRANCH   2   3
ENDBRANCH   1   2
BRANCH   1  30
ATOM     30  C   UNL A   1      44.590  24.877  32.367  1.00  0.00     0.188 C 
BRANCH  30  31
ATOM     31  O   UNL A   1      44.464  23.501  32.663  1.00  0.00    -0.376 OA
BRANCH  31  32
ATOM     32  C   UNL A   1      44.204  23.084  33.993  1.00  0.00     0.202 C 
BRANCH  32  33
ATOM     33  C   UNL A   1      42.930  23.442  34.784  1.00  0.00     0.261 C 
BRANCH  33  34
ATOM     34  O   UNL A   1      43.075  24.281  35.934  1.00  0.00    -0.460 OA
BRANCH  34  35
ATOM     35  C   UNL A   1      41.957  24.941  36.322  1.00  0.00     0.338 C 
ATOM     36  O   UNL A   1      41.066  24.523  37.050  1.00  0.00    -0.246 OA
BRANCH  35  37
ATOM     37  C   UNL A   1      42.043  26.339  35.866  1.00  0.00     0.060 A 
ATOM     38  C   UNL A   1      41.119  26.799  34.917  1.00  0.00     0.016 A 
ATOM     39  C   UNL A   1      43.045  27.182  36.347  1.00  0.00     0.016 A 
ATOM     40  C   UNL A   1      41.196  28.108  34.444  1.00  0.00     0.010 A 
ATOM     41  C   UNL A   1      43.136  28.487  35.852  1.00  0.00     0.010 A 
ATOM     42  C   UNL A   1      42.224  28.950  34.885  1.00  0.00    -0.014 A 
BRANCH  42  43
ATOM     43  C   UNL A   1      42.427  30.273  34.246  1.00  0.00     0.031 A 
ATOM     44  C   UNL A   1      42.981  30.331  32.849  1.00  0.00     0.074 A 
ATOM     45  C   UNL A   1      42.126  31.409  34.900  1.00  0.00     0.049 A 
ATOM     46  N   UNL A   1      43.298  31.373  32.127  1.00  0.00    -0.248 NA
ATOM     47  C   UNL A   1      43.206  29.039  32.182  1.00  0.00     0.031 C 
ATOM     48  C   UNL A   1      41.547  31.485  36.240  1.00  0.00     0.029 A 
ATOM     49  N   UNL A   1      42.281  32.720  34.524  1.00  0.00    -0.354 N 
ATOM     50  C   UNL A   1      43.768  30.866  30.921  1.00  0.00     0.074 A 
ATOM     51  C   UNL A   1      43.723  29.423  31.024  1.00  0.00     0.031 C 
ATOM     52  C   UNL A   1      41.414  32.778  36.583  1.00  0.00     0.029 A 
ATOM     53  C   UNL A   1      41.934  33.618  35.504  1.00  0.00     0.049 A 
ATOM     54  H   UNL A   1      42.610  32.991  33.636  1.00  0.00     0.167 HD
ATOM     55  C   UNL A   1      44.195  31.540  29.825  1.00  0.00     0.031 A 
ATOM     56  C   UNL A   1      42.052  34.961  35.543  1.00  0.00     0.031 A 
ATOM     57  C   UNL A   1      44.271  32.975  29.741  1.00  0.00     0.049 A 
ATOM     58  C   UNL A   1      42.615  35.688  34.350  1.00  0.00     0.074 A 
ATOM     59  C   UNL A   1      44.681  33.754  28.673  1.00  0.00     0.029 A 
ATOM     60  N   UNL A   1      43.942  33.849  30.768  1.00  0.00    -0.354 N 
ATOM     61  N   UNL A   1      43.028  35.199  33.204  1.00  0.00    -0.248 NA
ATOM     62  C   UNL A   1      42.724  37.150  34.454  1.00  0.00     0.031 C 
ATOM     63  C   UNL A   1      44.666  35.093  29.077  1.00  0.00     0.029 A 
ATOM     64  C   UNL A   1      44.177  35.156  30.371  1.00  0.00     0.049 A 
ATOM     65  H   UNL A   1      43.594  33.579  31.648  1.00  0.00     0.167 HD
ATOM     66  C   UNL A   1      43.428  36.294  32.445  1.00  0.00     0.074 A 
ATOM     67  C   UNL A   1      43.188  37.472  33.253  1.00  0.00     0.031 C 
ATOM     68  C   UNL A   1      43.948  36.322  31.191  1.00  0.00     0.031 A 
BRANCH  55  69
ATOM     69  C   UNL A   1      44.656  30.720  28.647  1.00  0.00    -0.014 A 
ATOM     70  C   UNL A   1      43.735  30.142  27.754  1.00  0.00     0.010 A 
ATOM     71  C   UNL A   1      46.032  30.534  28.424  1.00  0.00     0.010 A 
ATOM     72  C   UNL A   1      44.180  29.349  26.692  1.00  0.00     0.020 A 
ATOM     73  C   UNL A   1      46.482  29.767  27.345  1.00  0.00     0.020 A 
ATOM     74  C   UNL A   1      45.552  29.162  26.499  1.00  0.00     0.054 A 
BRANCH  74  75
ATOM     75  S   UNL A   1      46.101  28.124  25.116  1.00  0.00     0.124 S 
ATOM     76  O   UNL A   1      47.010  27.192  25.782  1.00  0.00    -0.237 OA
ATOM     77  O   UNL A   1      44.850  27.543  24.635  1.00  0.00    -0.237 OA
ATOM     78  O   UNL A   1      46.739  29.068  24.204  1.00  0.00    -0.744 OA
ENDBRANCH  74  75
ENDBRANCH  55  69
BRANCH  56  79
ATOM     79  C   UNL A   1      41.655  35.699  36.774  1.00  0.00    -0.014 A 
ATOM     80  C   UNL A   1      40.323  36.094  36.980  1.00  0.00     0.010 A 
ATOM     81  C   UNL A   1      42.615  35.991  37.762  1.00  0.00     0.010 A 
ATOM     82  C   UNL A   1      39.957  36.768  38.150  1.00  0.00     0.020 A 
ATOM     83  C   UNL A   1      42.248  36.638  38.945  1.00  0.00     0.020 A 
ATOM     84  C   UNL A   1      40.921  37.027  39.129  1.00  0.00     0.054 A 
BRANCH  84  85
ATOM     85  S   UNL A   1      40.407  37.834  40.671  1.00  0.00     0.124 S 
ATOM     86  O   UNL A   1      39.598  38.944  40.179  1.00  0.00    -0.237 OA
ATOM     87  O   UNL A   1      39.675  36.769  41.352  1.00  0.00    -0.237 OA
ATOM     88  O   UNL A   1      41.671  38.211  41.299  1.00  0.00    -0.744 OA
ENDBRANCH  84  85
ENDBRANCH  56  79
BRANCH  68  89
ATOM     89  C   UNL A   1      44.279  37.671  30.602  1.00  0.00    -0.014 A 
ATOM     90  C   UNL A   1      43.335  38.387  29.844  1.00  0.00     0.010 A 
ATOM     91  C   UNL A   1      45.532  38.256  30.861  1.00  0.00     0.010 A 
ATOM     92  C   UNL A   1      43.650  39.650  29.331  1.00  0.00     0.020 A 
ATOM     93  C   UNL A   1      45.839  39.531  30.378  1.00  0.00     0.020 A 
ATOM     94  C   UNL A   1      44.900  40.216  29.604  1.00  0.00     0.054 A 
BRANCH  94  95
ATOM     95  S   UNL A   1      45.265  41.873  28.967  1.00  0.00     0.124 S 
ATOM     96  O   UNL A   1      44.309  42.700  29.701  1.00  0.00    -0.237 OA
ATOM     97  O   UNL A   1      46.667  42.057  29.336  1.00  0.00    -0.237 OA
ATOM     98  O   UNL A   1      45.013  41.758  27.532  1.00  0.00    -0.744 OA
ENDBRANCH  94  95
ENDBRANCH  68  89
ENDBRANCH  42  43
ENDBRANCH  35  37
ENDBRANCH  34  35
ENDBRANCH  33  34
ENDBRANCH  32  33
ENDBRANCH  31  32
ENDBRANCH  30  31
ENDBRANCH   1  30
TORSDOF 25
ENDMDL
MODEL 2
REMARK VINA RESULT:      -6.7      5.471      9.900
REMARK SMILES CN(C)Nc1ncnc(Nc2ccc(C(=O)OCCOCCOCCOC(=O)c3ccc(-c4c5nc(c(-c6ccc(S(=O)(=O)[O-])cc6)c6ccc([nH]6)c(-c6ccc(S(=O)(=O)[O-])cc6)c6nc(c(-c7ccc(S(=O)(=O)[O-])cc7)c7ccc4[nH]7)C=C6)C=C5)cc3)cc2)c1[N+](=O)[O-]
REMARK SMILES IDX 21 1 20 2 19 3 18 4 17 5 15 6 16 7 14 8 11 9 12 10 90 11
REMARK SMILES IDX 13 12 89 13 10 14 9 16 5 17 6 18 91 19 7 20 8 21 4 22 2 24
REMARK SMILES IDX 1 25 3 26 92 27 93 28 94 29 22 30 23 31 24 32 25 33 26 34
REMARK SMILES IDX 27 35 28 36 29 37 30 38 88 39 31 40 87 41 32 42 33 43 34 44
REMARK SMILES IDX 81 45 35 46 86 47 80 48 82 49 36 50 85 51 79 52 78 53 37 55
REMARK SMILES IDX 67 56 48 57 66 58 49 59 52 60 65 61 83 62 50 63 51 64 64 66
REMARK SMILES IDX 84 67 53 68 38 69 39 70 47 71 40 72 46 73 41 74 42 75 43 76
REMARK SMILES IDX 44 77 45 78 68 79 69 80 77 81 70 82 76 83 71 84 72 85 73 86
REMARK SMILES IDX 74 87 75 88 54 89 55 90 63 91 56 92 62 93 57 94 58 95 59 96
REMARK SMILES IDX 60 97 61 98
REMARK H PARENT 10 15 4 23 82 54 52 65
REMARK Flexibility Score: inf
ROOT
ATOM      1  C   UNL A   1      34.502  34.377  29.742  1.00  0.00     0.188 C 
ENDROOT
BRANCH   1   2
ATOM      2  O   UNL A   1      35.336  33.820  28.751  1.00  0.00    -0.376 OA
BRANCH   2   3
ATOM      3  C   UNL A   1      34.834  32.887  27.810  1.00  0.00     0.202 C 
BRANCH   3   4
ATOM      4  C   UNL A   1      33.785  31.790  28.075  1.00  0.00     0.261 C 
BRANCH   4   5
ATOM      5  O   UNL A   1      33.555  30.824  27.049  1.00  0.00    -0.460 OA
BRANCH   5   6
ATOM      6  C   UNL A   1      34.366  29.736  27.096  1.00  0.00     0.338 C 
ATOM      7  O   UNL A   1      35.493  29.684  27.548  1.00  0.00    -0.246 OA
BRANCH   6   8
ATOM      8  C   UNL A   1      33.608  28.542  26.674  1.00  0.00     0.060 A 
ATOM      9  C   UNL A   1      32.173  26.213  26.079  1.00  0.00     0.040 A 
ATOM     10  C   UNL A   1      31.632  27.169  26.945  1.00  0.00     0.027 A 
ATOM     11  C   UNL A   1      33.400  26.482  25.450  1.00  0.00     0.027 A 
ATOM     12  C   UNL A   1      32.355  28.320  27.257  1.00  0.00     0.018 A 
ATOM     13  C   UNL A   1      34.116  27.648  25.731  1.00  0.00     0.018 A 
BRANCH   9  14
ATOM     14  N   UNL A   1      31.592  24.929  26.034  1.00  0.00    -0.334 N 
ATOM     15  H   UNL A   1      30.639  24.866  25.790  1.00  0.00     0.168 HD
BRANCH  14  16
ATOM     16  C   UNL A   1      32.279  23.729  26.310  1.00  0.00     0.215 A 
ATOM     17  C   UNL A   1      33.834  22.005  25.822  1.00  0.00     0.225 A 
ATOM     18  N   UNL A   1      33.722  21.524  27.080  1.00  0.00    -0.212 NA
ATOM     19  C   UNL A   1      33.051  23.055  25.380  1.00  0.00     0.354 A 
ATOM     20  C   UNL A   1      32.898  22.173  27.899  1.00  0.00     0.227 A 
ATOM     21  N   UNL A   1      32.219  23.274  27.584  1.00  0.00    -0.212 NA
BRANCH  17  22
ATOM     22  N   UNL A   1      34.889  21.401  25.134  1.00  0.00    -0.298 N 
ATOM     23  H   UNL A   1      34.654  20.676  24.511  1.00  0.00     0.184 HD
BRANCH  22  24
ATOM     24  N   UNL A   1      36.267  21.730  25.245  1.00  0.00    -0.228 NA
ATOM     25  C   UNL A   1      36.902  22.026  23.949  1.00  0.00     0.130 C 
ATOM     26  C   UNL A   1      36.342  22.956  26.065  1.00  0.00     0.130 C 
ENDBRANCH  22  24
ENDBRANCH  17  22
BRANCH  19  27
ATOM     27  N   UNL A   1      32.918  23.329  23.976  1.00  0.00     0.070 N 
ATOM     28  O   UNL A   1      33.955  23.570  23.340  1.00  0.00    -0.258 OA
ATOM     29  O   UNL A   1      31.772  23.413  23.513  1.00  0.00    -0.258 OA
ENDBRANCH  19  27
ENDBRANCH  14  16
ENDBRANCH   9  14
ENDBRANCH   6   8
ENDBRANCH   5   6
ENDBRANCH   4   5
ENDBRANCH   3   4
ENDBRANCH   2   3
ENDBRANCH   1   2
BRANCH   1  30
ATOM     30  C   UNL A   1      33.488  35.442  29.278  1.00  0.00     0.188 C 
BRANCH  30  31
ATOM     31  O   UNL A   1      32.647  36.076  30.220  1.00  0.00    -0.376 OA
BRANCH  31  32
ATOM     32  C   UNL A   1      33.185  37.032  31.118  1.00  0.00     0.202 C 
BRANCH  32  33
ATOM     33  C   UNL A   1      33.380  36.794  32.629  1.00  0.00     0.261 C 
BRANCH  33  34
ATOM     34  O   UNL A   1      34.557  36.094  33.045  1.00  0.00    -0.460 OA
BRANCH  34  35
ATOM     35  C   UNL A   1      34.433  34.749  33.145  1.00  0.00     0.338 C 
ATOM     36  O   UNL A   1      33.406  34.091  33.045  1.00  0.00    -0.246 OA
BRANCH  35  37
ATOM     37  C   UNL A   1      35.775  34.148  33.229  1.00  0.00     0.060 A 
ATOM     38  C   UNL A   1      35.909  32.867  33.782  1.00  0.00     0.016 A 
ATOM     39  C   UNL A   1      36.898  34.854  32.796  1.00  0.00     0.016 A 
ATOM     40  C   UNL A   1      37.171  32.287  33.905  1.00  0.00     0.010 A 
ATOM     41  C   UNL A   1      38.164  34.280  32.942  1.00  0.00     0.010 A 
ATOM     42  C   UNL A   1      38.309  33.003  33.514  1.00  0.00    -0.014 A 
BRANCH  42  43
ATOM     43  C   UNL A   1      39.661  32.473  33.818  1.00  0.00     0.031 A 
ATOM     44  C   UNL A   1      40.363  31.632  32.789  1.00  0.00     0.074 A 
ATOM     45  C   UNL A   1      40.256  32.736  34.995  1.00  0.00     0.049 A 
ATOM     46  N   UNL A   1      41.513  31.016  32.867  1.00  0.00    -0.248 NA
ATOM     47  C   UNL A   1      39.672  31.463  31.501  1.00  0.00     0.031 C 
ATOM     48  C   UNL A   1      39.698  33.570  36.058  1.00  0.00     0.029 A 
ATOM     49  N   UNL A   1      41.461  32.311  35.497  1.00  0.00    -0.354 N 
ATOM     50  C   UNL A   1      41.683  30.379  31.643  1.00  0.00     0.074 A 
ATOM     51  C   UNL A   1      40.503  30.659  30.854  1.00  0.00     0.031 C 
ATOM     52  C   UNL A   1      40.552  33.580  37.096  1.00  0.00     0.029 A 
ATOM     53  C   UNL A   1      41.696  32.722  36.786  1.00  0.00     0.049 A 
ATOM     54  H   UNL A   1      42.097  31.763  34.982  1.00  0.00     0.167 HD
ATOM     55  C   UNL A   1      42.729  29.632  31.213  1.00  0.00     0.031 A 
ATOM     56  C   UNL A   1      42.700  32.417  37.634  1.00  0.00     0.031 A 
ATOM     57  C   UNL A   1      43.886  29.328  32.014  1.00  0.00     0.049 A 
ATOM     58  C   UNL A   1      43.809  31.509  37.170  1.00  0.00     0.074 A 
ATOM     59  C   UNL A   1      45.002  28.588  31.668  1.00  0.00     0.029 A 
ATOM     60  N   UNL A   1      44.070  29.735  33.328  1.00  0.00    -0.354 N 
ATOM     61  N   UNL A   1      43.974  30.939  36.000  1.00  0.00    -0.248 NA
ATOM     62  C   UNL A   1      44.871  31.210  38.140  1.00  0.00     0.031 C 
ATOM     63  C   UNL A   1      45.829  28.489  32.792  1.00  0.00     0.029 A 
ATOM     64  C   UNL A   1      45.264  29.230  33.818  1.00  0.00     0.049 A 
ATOM     65  H   UNL A   1      43.445  30.300  33.837  1.00  0.00     0.167 HD
ATOM     66  C   UNL A   1      45.166  30.227  36.087  1.00  0.00     0.074 A 
ATOM     67  C   UNL A   1      45.691  30.457  37.418  1.00  0.00     0.031 C 
ATOM     68  C   UNL A   1      45.771  29.453  35.151  1.00  0.00     0.031 A 
BRANCH  55  69
ATOM     69  C   UNL A   1      42.641  29.058  29.822  1.00  0.00    -0.014 A 
ATOM     70  C   UNL A   1      43.142  29.756  28.708  1.00  0.00     0.010 A 
ATOM     71  C   UNL A   1      42.055  27.793  29.627  1.00  0.00     0.010 A 
ATOM     72  C   UNL A   1      43.012  29.226  27.422  1.00  0.00     0.020 A 
ATOM     73  C   UNL A   1      41.951  27.246  28.345  1.00  0.00     0.020 A 
ATOM     74  C   UNL A   1      42.410  27.976  27.249  1.00  0.00     0.054 A 
BRANCH  74  75
ATOM     75  S   UNL A   1      42.250  27.315  25.567  1.00  0.00     0.124 S 
ATOM     76  O   UNL A   1      41.009  26.548  25.663  1.00  0.00    -0.237 OA
ATOM     77  O   UNL A   1      42.176  28.525  24.752  1.00  0.00    -0.237 OA
ATOM     78  O   UNL A   1      43.460  26.518  25.389  1.00  0.00    -0.744 OA
ENDBRANCH  74  75
ENDBRANCH  55  69
BRANCH  56  79
ATOM     79  C   UNL A   1      42.678  32.954  39.023  1.00  0.00    -0.014 A 
ATOM     80  C   UNL A   1      41.976  32.291  40.042  1.00  0.00     0.010 A 
ATOM     81  C   UNL A   1      43.386  34.131  39.335  1.00  0.00     0.010 A 
ATOM     82  C   UNL A   1      41.980  32.793  41.348  1.00  0.00     0.020 A 
ATOM     83  C   UNL A   1      43.418  34.620  40.644  1.00  0.00     0.020 A 
ATOM     84  C   UNL A   1      42.709  33.950  41.641  1.00  0.00     0.054 A 
BRANCH  84  85
ATOM     85  S   UNL A   1      42.761  34.538  43.357  1.00  0.00     0.124 S 
ATOM     86  O   UNL A   1      43.095  33.320  44.087  1.00  0.00    -0.237 OA
ATOM     87  O   UNL A   1      43.810  35.555  43.307  1.00  0.00    -0.237 OA
ATOM     88  O   UNL A   1      41.414  35.055  43.584  1.00  0.00    -0.744 OA
ENDBRANCH  84  85
ENDBRANCH  56  79
BRANCH  68  89
ATOM     89  C   UNL A   1      47.084  28.807  35.520  1.00  0.00    -0.014 A 
ATOM     90  C   UNL A   1      47.129  27.523  36.091  1.00  0.00     0.010 A 
ATOM     91  C   UNL A   1      48.292  29.471  35.237  1.00  0.00     0.010 A 
ATOM     92  C   UNL A   1      48.356  26.927  36.399  1.00  0.00     0.020 A 
ATOM     93  C   UNL A   1      49.521  28.867  35.514  1.00  0.00     0.020 A 
ATOM     94  C   UNL A   1      49.546  27.603  36.106  1.00  0.00     0.054 A 
BRANCH  94  95
ATOM     95  S   UNL A   1      51.124  26.788  36.472  1.00  0.00     0.124 S 
ATOM     96  O   UNL A   1      51.016  26.543  37.908  1.00  0.00    -0.237 OA
ATOM     97  O   UNL A   1      51.075  25.598  35.626  1.00  0.00    -0.237 OA
ATOM     98  O   UNL A   1      52.125  27.780  36.085  1.00  0.00    -0.744 OA
ENDBRANCH  94  95
ENDBRANCH  68  89
ENDBRANCH  42  43
ENDBRANCH  35  37
ENDBRANCH  34  35
ENDBRANCH  33  34
ENDBRANCH  32  33
ENDBRANCH  31  32
ENDBRANCH  30  31
ENDBRANCH   1  30
TORSDOF 25
ENDMDL
MODEL 3
REMARK VINA RESULT:      -6.3      7.351     12.479
REMARK SMILES CN(C)Nc1ncnc(Nc2ccc(C(=O)OCCOCCOCCOC(=O)c3ccc(-c4c5nc(c(-c6ccc(S(=O)(=O)[O-])cc6)c6ccc([nH]6)c(-c6ccc(S(=O)(=O)[O-])cc6)c6nc(c(-c7ccc(S(=O)(=O)[O-])cc7)c7ccc4[nH]7)C=C6)C=C5)cc3)cc2)c1[N+](=O)[O-]
REMARK SMILES IDX 21 1 20 2 19 3 18 4 17 5 15 6 16 7 14 8 11 9 12 10 90 11
REMARK SMILES IDX 13 12 89 13 10 14 9 16 5 17 6 18 91 19 7 20 8 21 4 22 2 24
REMARK SMILES IDX 1 25 3 26 92 27 93 28 94 29 22 30 23 31 24 32 25 33 26 34
REMARK SMILES IDX 27 35 28 36 29 37 30 38 88 39 31 40 87 41 32 42 33 43 34 44
REMARK SMILES IDX 81 45 35 46 86 47 80 48 82 49 36 50 85 51 79 52 78 53 37 55
REMARK SMILES IDX 67 56 48 57 66 58 49 59 52 60 65 61 83 62 50 63 51 64 64 66
REMARK SMILES IDX 84 67 53 68 38 69 39 70 47 71 40 72 46 73 41 74 42 75 43 76
REMARK SMILES IDX 44 77 45 78 68 79 69 80 77 81 70 82 76 83 71 84 72 85 73 86
REMARK SMILES IDX 74 87 75 88 54 89 55 90 63 91 56 92 62 93 57 94 58 95 59 96
REMARK SMILES IDX 60 97 61 98
REMARK H PARENT 10 15 4 23 82 54 52 65
REMARK Flexibility Score: inf
ROOT
ATOM      1  C   UNL A   1      39.846  28.842  28.103  1.00  0.00     0.188 C 
ENDROOT
BRANCH   1   2
ATOM      2  O   UNL A   1      38.962  29.624  28.872  1.00  0.00    -0.376 OA
BRANCH   2   3
ATOM      3  C   UNL A   1      37.722  30.063  28.344  1.00  0.00     0.202 C 
BRANCH   3   4
ATOM      4  C   UNL A   1      36.548  30.667  29.137  1.00  0.00     0.261 C 
BRANCH   4   5
ATOM      5  O   UNL A   1      35.231  30.203  28.840  1.00  0.00    -0.460 OA
BRANCH   5   6
ATOM      6  C   UNL A   1      34.465  31.068  28.128  1.00  0.00     0.338 C 
ATOM      7  O   UNL A   1      34.447  32.280  28.226  1.00  0.00    -0.246 OA
BRANCH   6   8
ATOM      8  C   UNL A   1      33.765  30.334  27.055  1.00  0.00     0.060 A 
ATOM      9  C   UNL A   1      32.604  28.987  24.894  1.00  0.00     0.040 A 
ATOM     10  C   UNL A   1      33.823  28.548  25.421  1.00  0.00     0.027 A 
ATOM     11  C   UNL A   1      31.935  30.052  25.520  1.00  0.00     0.027 A 
ATOM     12  C   UNL A   1      34.412  29.231  26.484  1.00  0.00     0.018 A 
ATOM     13  C   UNL A   1      32.502  30.720  26.609  1.00  0.00     0.018 A 
BRANCH   9  14
ATOM     14  N   UNL A   1      32.192  28.502  23.635  1.00  0.00    -0.334 N 
ATOM     15  H   UNL A   1      32.389  29.056  22.844  1.00  0.00     0.168 HD
BRANCH  14  16
ATOM     16  C   UNL A   1      31.521  27.279  23.428  1.00  0.00     0.215 A 
ATOM     17  C   UNL A   1      31.392  25.011  22.745  1.00  0.00     0.225 A 
ATOM     18  N   UNL A   1      30.169  24.892  23.309  1.00  0.00    -0.212 NA
ATOM     19  C   UNL A   1      32.055  26.223  22.710  1.00  0.00     0.354 A 
ATOM     20  C   UNL A   1      29.681  25.973  23.914  1.00  0.00     0.227 A 
ATOM     21  N   UNL A   1      30.322  27.133  24.040  1.00  0.00    -0.212 NA
BRANCH  17  22
ATOM     22  N   UNL A   1      31.899  23.768  22.355  1.00  0.00    -0.298 N 
ATOM     23  H   UNL A   1      31.834  23.544  21.399  1.00  0.00     0.184 HD
BRANCH  22  24
ATOM     24  N   UNL A   1      32.498  22.797  23.203  1.00  0.00    -0.228 NA
ATOM     25  C   UNL A   1      32.202  21.412  22.802  1.00  0.00     0.130 C 
ATOM     26  C   UNL A   1      33.959  22.987  23.093  1.00  0.00     0.130 C 
ENDBRANCH  22  24
ENDBRANCH  17  22
BRANCH  19  27
ATOM     27  N   UNL A   1      33.167  26.424  21.822  1.00  0.00     0.070 N 
ATOM     28  O   UNL A   1      33.971  27.324  22.110  1.00  0.00    -0.258 OA
ATOM     29  O   UNL A   1      33.193  25.763  20.776  1.00  0.00    -0.258 OA
ENDBRANCH  19  27
ENDBRANCH  14  16
ENDBRANCH   9  14
ENDBRANCH   6   8
ENDBRANCH   5   6
ENDBRANCH   4   5
ENDBRANCH   3   4
ENDBRANCH   2   3
ENDBRANCH   1   2
BRANCH   1  30
ATOM     30  C   UNL A   1      39.682  27.312  28.199  1.00  0.00     0.188 C 
BRANCH  30  31
ATOM     31  O   UNL A   1      40.747  26.460  27.826  1.00  0.00    -0.376 OA
BRANCH  31  32
ATOM     32  C   UNL A   1      40.559  25.055  27.818  1.00  0.00     0.202 C 
BRANCH  32  33
ATOM     33  C   UNL A   1      41.695  24.026  27.646  1.00  0.00     0.261 C 
BRANCH  33  34
ATOM     34  O   UNL A   1      42.888  24.459  26.986  1.00  0.00    -0.460 OA
BRANCH  34  35
ATOM     35  C   UNL A   1      44.050  24.045  27.546  1.00  0.00     0.338 C 
ATOM     36  O   UNL A   1      44.278  22.957  28.059  1.00  0.00    -0.246 OA
BRANCH  35  37
ATOM     37  C   UNL A   1      45.090  25.059  27.300  1.00  0.00     0.060 A 
ATOM     38  C   UNL A   1      45.832  25.544  28.385  1.00  0.00     0.016 A 
ATOM     39  C   UNL A   1      45.311  25.552  26.013  1.00  0.00     0.016 A 
ATOM     40  C   UNL A   1      46.800  26.528  28.187  1.00  0.00     0.010 A 
ATOM     41  C   UNL A   1      46.265  26.555  25.820  1.00  0.00     0.010 A 
ATOM     42  C   UNL A   1      47.001  27.061  26.908  1.00  0.00    -0.014 A 
BRANCH  42  43
ATOM     43  C   UNL A   1      47.887  28.236  26.723  1.00  0.00     0.031 A 
ATOM     44  C   UNL A   1      47.292  29.615  26.785  1.00  0.00     0.074 A 
ATOM     45  C   UNL A   1      49.204  28.078  26.500  1.00  0.00     0.049 A 
ATOM     46  N   UNL A   1      47.865  30.774  26.587  1.00  0.00    -0.248 NA
ATOM     47  C   UNL A   1      45.860  29.695  27.112  1.00  0.00     0.031 C 
ATOM     48  C   UNL A   1      49.907  26.797  26.458  1.00  0.00     0.029 A 
ATOM     49  N   UNL A   1      50.183  29.009  26.254  1.00  0.00    -0.354 N 
ATOM     50  C   UNL A   1      46.864  31.723  26.758  1.00  0.00     0.074 A 
ATOM     51  C   UNL A   1      45.643  31.000  27.044  1.00  0.00     0.031 C 
ATOM     52  C   UNL A   1      51.203  27.022  26.180  1.00  0.00     0.029 A 
ATOM     53  C   UNL A   1      51.412  28.457  25.987  1.00  0.00     0.049 A 
ATOM     54  H   UNL A   1      50.019  29.980  26.267  1.00  0.00     0.167 HD
ATOM     55  C   UNL A   1      46.953  33.073  26.688  1.00  0.00     0.031 A 
ATOM     56  C   UNL A   1      52.566  29.037  25.599  1.00  0.00     0.031 A 
ATOM     57  C   UNL A   1      48.163  33.785  26.370  1.00  0.00     0.049 A 
ATOM     58  C   UNL A   1      52.624  30.533  25.436  1.00  0.00     0.074 A 
ATOM     59  C   UNL A   1      48.360  35.152  26.282  1.00  0.00     0.029 A 
ATOM     60  N   UNL A   1      49.380  33.188  26.072  1.00  0.00    -0.354 N 
ATOM     61  N   UNL A   1      51.678  31.422  25.630  1.00  0.00    -0.248 NA
ATOM     62  C   UNL A   1      53.907  31.105  25.006  1.00  0.00     0.031 C 
ATOM     63  C   UNL A   1      49.676  35.380  25.865  1.00  0.00     0.029 A 
ATOM     64  C   UNL A   1      50.321  34.158  25.764  1.00  0.00     0.049 A 
ATOM     65  H   UNL A   1      49.550  32.219  26.079  1.00  0.00     0.167 HD
ATOM     66  C   UNL A   1      52.256  32.659  25.363  1.00  0.00     0.074 A 
ATOM     67  C   UNL A   1      53.640  32.405  25.015  1.00  0.00     0.031 C 
ATOM     68  C   UNL A   1      51.694  33.893  25.403  1.00  0.00     0.031 A 
BRANCH  55  69
ATOM     69  C   UNL A   1      45.689  33.861  26.919  1.00  0.00    -0.014 A 
ATOM     70  C   UNL A   1      44.755  34.064  25.887  1.00  0.00     0.010 A 
ATOM     71  C   UNL A   1      45.426  34.399  28.192  1.00  0.00     0.010 A 
ATOM     72  C   UNL A   1      43.610  34.834  26.109  1.00  0.00     0.020 A 
ATOM     73  C   UNL A   1      44.266  35.143  28.426  1.00  0.00     0.020 A 
ATOM     74  C   UNL A   1      43.377  35.375  27.377  1.00  0.00     0.054 A 
BRANCH  74  75
ATOM     75  S   UNL A   1      41.885  36.375  27.635  1.00  0.00     0.124 S 
ATOM     76  O   UNL A   1      40.825  35.415  27.336  1.00  0.00    -0.237 OA
ATOM     77  O   UNL A   1      42.001  36.765  29.038  1.00  0.00    -0.237 OA
ATOM     78  O   UNL A   1      42.027  37.464  26.673  1.00  0.00    -0.744 OA
ENDBRANCH  74  75
ENDBRANCH  55  69
BRANCH  56  79
ATOM     79  C   UNL A   1      53.754  28.187  25.307  1.00  0.00    -0.014 A 
ATOM     80  C   UNL A   1      54.017  27.738  24.003  1.00  0.00     0.010 A 
ATOM     81  C   UNL A   1      54.645  27.840  26.341  1.00  0.00     0.010 A 
ATOM     82  C   UNL A   1      55.146  26.958  23.736  1.00  0.00     0.020 A 
ATOM     83  C   UNL A   1      55.791  27.086  26.074  1.00  0.00     0.020 A 
ATOM     84  C   UNL A   1      56.031  26.645  24.772  1.00  0.00     0.054 A 
BRANCH  84  85
ATOM     85  S   UNL A   1      57.529  25.696  24.387  1.00  0.00     0.124 S 
ATOM     86  O   UNL A   1      57.661  25.905  22.949  1.00  0.00    -0.237 OA
ATOM     87  O   UNL A   1      58.537  26.352  25.218  1.00  0.00    -0.237 OA
ATOM     88  O   UNL A   1      57.188  24.335  24.793  1.00  0.00    -0.744 OA
ENDBRANCH  84  85
ENDBRANCH  56  79
BRANCH  68  89
ATOM     89  C   UNL A   1      52.575  35.074  25.079  1.00  0.00    -0.014 A 
ATOM     90  C   UNL A   1      53.230  35.795  26.093  1.00  0.00     0.010 A 
ATOM     91  C   UNL A   1      52.799  35.429  23.736  1.00  0.00     0.010 A 
ATOM     92  C   UNL A   1      54.068  36.868  25.771  1.00  0.00     0.020 A 
ATOM     93  C   UNL A   1      53.659  36.479  23.407  1.00  0.00     0.020 A 
ATOM     94  C   UNL A   1      54.280  37.202  24.429  1.00  0.00     0.054 A 
BRANCH  94  95
ATOM     95  S   UNL A   1      55.407  38.567  24.037  1.00  0.00     0.124 S 
ATOM     96  O   UNL A   1      55.196  38.735  22.601  1.00  0.00    -0.237 OA
ATOM     97  O   UNL A   1      54.903  39.650  24.877  1.00  0.00    -0.237 OA
ATOM     98  O   UNL A   1      56.721  38.052  24.415  1.00  0.00    -0.744 OA
ENDBRANCH  94  95
ENDBRANCH  68  89
ENDBRANCH  42  43
ENDBRANCH  35  37
ENDBRANCH  34  35
ENDBRANCH  33  34
ENDBRANCH  32  33
ENDBRANCH  31  32
ENDBRANCH  30  31
ENDBRANCH   1  30
TORSDOF 25
ENDMDL
