MODEL 1
REMARK VINA RESULT:      -9.0      0.000      0.000
REMARK SMILES CC(C)(Cn1ccnc1C(N)=S)C(=O)OCCOCCOCCOC(=O)c1ccc(-c2c3nc(c(-c4ccc(S(=O)(=O)[O-])cc4)c4ccc([nH]4)c(-c4ccc(S(=O)(=O)[O-])cc4)c4nc(c(-c5ccc(S(=O)(=O)[O-])cc5)c5ccc2[nH]5)C=C4)C=C3)cc1
REMARK SMILES IDX 19 1 18 2 17 3 16 4 15 5 13 6 14 7 2 8 1 9 3 10 4 11 5 12
REMARK SMILES IDX 6 13 9 14 7 15 8 16 10 17 12 18 11 19 20 22 21 23 22 24
REMARK SMILES IDX 23 25 24 26 25 27 26 28 27 29 28 30 86 31 29 32 85 33 30 34
REMARK SMILES IDX 31 35 32 36 79 37 33 38 84 39 78 40 80 41 34 42 83 43 77 44
REMARK SMILES IDX 76 45 35 47 65 48 46 49 64 50 47 51 50 52 63 53 81 54 48 55
REMARK SMILES IDX 49 56 62 58 82 59 51 60 36 61 37 62 45 63 38 64 44 65 39 66
REMARK SMILES IDX 40 67 41 68 42 69 43 70 66 71 67 72 75 73 68 74 74 75 69 76
REMARK SMILES IDX 70 77 71 78 72 79 73 80 52 81 53 82 61 83 54 84 60 85 55 86
REMARK SMILES IDX 56 87 57 88 58 89 59 90
REMARK H PARENT 11 20 11 21 80 46 50 57
REMARK Flexibility Score: inf
ROOT
ATOM      1  C   UNL A   1      38.519  21.969  25.856  1.00  0.00     0.188 C 
ENDROOT
BRANCH   1   2
ATOM      2  O   UNL A   1      37.812  23.169  25.538  1.00  0.00    -0.376 OA
BRANCH   2   3
ATOM      3  C   UNL A   1      36.442  23.218  25.920  1.00  0.00     0.202 C 
BRANCH   3   4
ATOM      4  C   UNL A   1      35.600  24.278  25.207  1.00  0.00     0.261 C 
BRANCH   4   5
ATOM      5  O   UNL A   1      34.249  24.436  25.702  1.00  0.00    -0.463 OA
BRANCH   5   6
ATOM      6  C   UNL A   1      33.289  23.850  24.939  1.00  0.00     0.313 C 
ATOM      7  O   UNL A   1      33.533  23.126  23.978  1.00  0.00    -0.252 OA
BRANCH   6   8
ATOM      8  C   UNL A   1      31.852  24.229  25.305  1.00  0.00     0.080 C 
ATOM      9  C   UNL A   1      31.800  24.428  26.827  1.00  0.00     0.025 C 
ATOM     10  C   UNL A   1      31.015  22.972  24.953  1.00  0.00     0.025 C 
BRANCH   8  11
ATOM     11  C   UNL A   1      31.197  25.391  24.523  1.00  0.00     0.142 C 
BRANCH  11  12
ATOM     12  N   UNL A   1      31.949  26.180  23.566  1.00  0.00    -0.328 N 
ATOM     13  C   UNL A   1      32.266  25.809  22.284  1.00  0.00     0.108 A 
ATOM     14  C   UNL A   1      32.803  27.213  23.910  1.00  0.00     0.167 A 
ATOM     15  C   UNL A   1      33.236  26.688  21.872  1.00  0.00     0.131 A 
ATOM     16  N   UNL A   1      33.567  27.539  22.886  1.00  0.00    -0.235 NA
BRANCH  14  17
ATOM     17  C   UNL A   1      32.879  27.882  25.184  1.00  0.00     0.140 C 
ATOM     18  S   UNL A   1      32.082  29.309  25.476  1.00  0.00    -0.057 S 
BRANCH  17  19
ATOM     19  N   UNL A   1      33.672  27.307  26.132  1.00  0.00    -0.387 N 
ATOM     20  H   UNL A   1      34.512  26.866  25.870  1.00  0.00     0.157 HD
ATOM     21  H   UNL A   1      33.404  27.331  27.079  1.00  0.00     0.157 HD
ENDBRANCH  17  19
ENDBRANCH  14  17
ENDBRANCH  11  12
ENDBRANCH   8  11
ENDBRANCH   6   8
ENDBRANCH   5   6
ENDBRANCH   4   5
ENDBRANCH   3   4
ENDBRANCH   2   3
ENDBRANCH   1   2
BRANCH   1  22
ATOM     22  C   UNL A   1      39.861  22.200  26.555  1.00  0.00     0.188 C 
BRANCH  22  23
ATOM     23  O   UNL A   1      40.255  21.040  27.283  1.00  0.00    -0.376 OA
BRANCH  23  24
ATOM     24  C   UNL A   1      40.743  19.885  26.585  1.00  0.00     0.202 C 
BRANCH  24  25
ATOM     25  C   UNL A   1      42.230  19.662  26.349  1.00  0.00     0.261 C 
BRANCH  25  26
ATOM     26  O   UNL A   1      42.815  20.685  25.570  1.00  0.00    -0.460 OA
BRANCH  26  27
ATOM     27  C   UNL A   1      44.033  20.464  25.027  1.00  0.00     0.338 C 
ATOM     28  O   UNL A   1      44.511  19.405  24.689  1.00  0.00    -0.246 OA
BRANCH  27  29
ATOM     29  C   UNL A   1      44.697  21.780  25.013  1.00  0.00     0.060 A 
ATOM     30  C   UNL A   1      45.774  21.974  25.873  1.00  0.00     0.016 A 
ATOM     31  C   UNL A   1      44.056  22.851  24.363  1.00  0.00     0.016 A 
ATOM     32  C   UNL A   1      46.002  23.254  26.328  1.00  0.00     0.010 A 
ATOM     33  C   UNL A   1      44.245  24.110  24.847  1.00  0.00     0.010 A 
ATOM     34  C   UNL A   1      45.130  24.262  25.908  1.00  0.00    -0.014 A 
BRANCH  34  35
ATOM     35  C   UNL A   1      44.954  25.418  26.753  1.00  0.00     0.031 A 
ATOM     36  C   UNL A   1      45.931  26.495  26.569  1.00  0.00     0.074 A 
ATOM     37  C   UNL A   1      43.836  25.542  27.493  1.00  0.00     0.049 A 
ATOM     38  N   UNL A   1      46.897  26.816  27.360  1.00  0.00    -0.248 NA
ATOM     39  C   UNL A   1      45.938  27.197  25.276  1.00  0.00     0.031 C 
ATOM     40  C   UNL A   1      42.635  24.699  27.438  1.00  0.00     0.029 A 
ATOM     41  N   UNL A   1      43.486  26.530  28.356  1.00  0.00    -0.354 N 
ATOM     42  C   UNL A   1      47.488  27.919  26.763  1.00  0.00     0.074 A 
ATOM     43  C   UNL A   1      47.047  27.923  25.393  1.00  0.00     0.031 C 
ATOM     44  C   UNL A   1      41.624  25.331  28.073  1.00  0.00     0.029 A 
ATOM     45  C   UNL A   1      42.133  26.560  28.660  1.00  0.00     0.049 A 
ATOM     46  H   UNL A   1      44.134  27.167  28.734  1.00  0.00     0.167 HD
ATOM     47  C   UNL A   1      48.017  28.930  27.504  1.00  0.00     0.031 A 
ATOM     48  C   UNL A   1      41.470  27.574  29.267  1.00  0.00     0.031 A 
ATOM     49  C   UNL A   1      48.157  28.566  28.891  1.00  0.00     0.049 A 
ATOM     50  C   UNL A   1      42.481  28.416  29.959  1.00  0.00     0.074 A 
ATOM     51  C   UNL A   1      48.819  27.562  29.569  1.00  0.00     0.029 A 
ATOM     52  N   UNL A   1      47.224  29.077  29.767  1.00  0.00    -0.354 N 
ATOM     53  N   UNL A   1      43.181  28.013  30.982  1.00  0.00    -0.248 NA
ATOM     54  C   UNL A   1      43.024  29.579  29.269  1.00  0.00     0.031 C 
ATOM     55  C   UNL A   1      47.991  27.248  30.687  1.00  0.00     0.029 A 
ATOM     56  C   UNL A   1      46.880  28.094  30.660  1.00  0.00     0.049 A 
ATOM     57  H   UNL A   1      46.865  29.993  29.752  1.00  0.00     0.167 HD
ATOM     58  C   UNL A   1      44.437  28.582  30.812  1.00  0.00     0.074 A 
ATOM     59  C   UNL A   1      44.234  29.641  29.831  1.00  0.00     0.031 C 
ATOM     60  C   UNL A   1      45.564  27.951  31.260  1.00  0.00     0.031 A 
BRANCH  47  61
ATOM     61  C   UNL A   1      48.000  30.367  27.046  1.00  0.00    -0.014 A 
ATOM     62  C   UNL A   1      49.186  31.120  27.132  1.00  0.00     0.010 A 
ATOM     63  C   UNL A   1      46.810  31.079  26.778  1.00  0.00     0.010 A 
ATOM     64  C   UNL A   1      49.164  32.517  27.027  1.00  0.00     0.020 A 
ATOM     65  C   UNL A   1      46.784  32.460  26.614  1.00  0.00     0.020 A 
ATOM     66  C   UNL A   1      47.957  33.176  26.786  1.00  0.00     0.054 A 
BRANCH  66  67
ATOM     67  S   UNL A   1      47.905  34.982  26.795  1.00  0.00     0.124 S 
ATOM     68  O   UNL A   1      47.231  35.250  28.061  1.00  0.00    -0.237 OA
ATOM     69  O   UNL A   1      49.320  35.335  26.740  1.00  0.00    -0.237 OA
ATOM     70  O   UNL A   1      47.139  35.307  25.594  1.00  0.00    -0.744 OA
ENDBRANCH  66  67
ENDBRANCH  47  61
BRANCH  48  71
ATOM     71  C   UNL A   1      40.063  27.992  29.043  1.00  0.00    -0.014 A 
ATOM     72  C   UNL A   1      39.126  27.976  30.091  1.00  0.00     0.010 A 
ATOM     73  C   UNL A   1      39.687  28.635  27.845  1.00  0.00     0.010 A 
ATOM     74  C   UNL A   1      37.886  28.627  29.963  1.00  0.00     0.020 A 
ATOM     75  C   UNL A   1      38.448  29.267  27.701  1.00  0.00     0.020 A 
ATOM     76  C   UNL A   1      37.562  29.282  28.772  1.00  0.00     0.054 A 
BRANCH  76  77
ATOM     77  S   UNL A   1      36.038  30.264  28.669  1.00  0.00     0.124 S 
ATOM     78  O   UNL A   1      36.484  31.456  27.955  1.00  0.00    -0.237 OA
ATOM     79  O   UNL A   1      35.141  29.381  27.930  1.00  0.00    -0.237 OA
ATOM     80  O   UNL A   1      35.674  30.480  30.069  1.00  0.00    -0.744 OA
ENDBRANCH  76  77
ENDBRANCH  48  71
BRANCH  60  81
ATOM     81  C   UNL A   1      45.398  26.819  32.253  1.00  0.00    -0.014 A 
ATOM     82  C   UNL A   1      45.378  27.016  33.648  1.00  0.00     0.010 A 
ATOM     83  C   UNL A   1      45.108  25.536  31.756  1.00  0.00     0.010 A 
ATOM     84  C   UNL A   1      45.104  25.954  34.521  1.00  0.00     0.020 A 
ATOM     85  C   UNL A   1      44.814  24.476  32.620  1.00  0.00     0.020 A 
ATOM     86  C   UNL A   1      44.822  24.689  34.000  1.00  0.00     0.054 A 
BRANCH  86  87
ATOM     87  S   UNL A   1      44.398  23.336  35.135  1.00  0.00     0.124 S 
ATOM     88  O   UNL A   1      45.189  22.225  34.613  1.00  0.00    -0.237 OA
ATOM     89  O   UNL A   1      44.820  23.855  36.434  1.00  0.00    -0.237 OA
ATOM     90  O   UNL A   1      42.951  23.192  34.978  1.00  0.00    -0.744 OA
ENDBRANCH  86  87
ENDBRANCH  60  81
ENDBRANCH  34  35
ENDBRANCH  27  29
ENDBRANCH  26  27
ENDBRANCH  25  26
ENDBRANCH  24  25
ENDBRANCH  23  24
ENDBRANCH  22  23
ENDBRANCH   1  22
TORSDOF 24
ENDMDL
MODEL 2
REMARK VINA RESULT:      -8.9      3.596      4.709
REMARK SMILES CC(C)(Cn1ccnc1C(N)=S)C(=O)OCCOCCOCCOC(=O)c1ccc(-c2c3nc(c(-c4ccc(S(=O)(=O)[O-])cc4)c4ccc([nH]4)c(-c4ccc(S(=O)(=O)[O-])cc4)c4nc(c(-c5ccc(S(=O)(=O)[O-])cc5)c5ccc2[nH]5)C=C4)C=C3)cc1
REMARK SMILES IDX 19 1 18 2 17 3 16 4 15 5 13 6 14 7 2 8 1 9 3 10 4 11 5 12
REMARK SMILES IDX 6 13 9 14 7 15 8 16 10 17 12 18 11 19 20 22 21 23 22 24
REMARK SMILES IDX 23 25 24 26 25 27 26 28 27 29 28 30 86 31 29 32 85 33 30 34
REMARK SMILES IDX 31 35 32 36 79 37 33 38 84 39 78 40 80 41 34 42 83 43 77 44
REMARK SMILES IDX 76 45 35 47 65 48 46 49 64 50 47 51 50 52 63 53 81 54 48 55
REMARK SMILES IDX 49 56 62 58 82 59 51 60 36 61 37 62 45 63 38 64 44 65 39 66
REMARK SMILES IDX 40 67 41 68 42 69 43 70 66 71 67 72 75 73 68 74 74 75 69 76
REMARK SMILES IDX 70 77 71 78 72 79 73 80 52 81 53 82 61 83 54 84 60 85 55 86
REMARK SMILES IDX 56 87 57 88 58 89 59 90
REMARK H PARENT 11 20 11 21 80 46 50 57
REMARK Flexibility Score: inf
ROOT
ATOM      1  C   UNL A   1      37.946  21.296  25.627  1.00  0.00     0.188 C 
ENDROOT
BRANCH   1   2
ATOM      2  O   UNL A   1      37.831  22.373  24.697  1.00  0.00    -0.376 OA
BRANCH   2   3
ATOM      3  C   UNL A   1      36.833  23.348  24.977  1.00  0.00     0.202 C 
BRANCH   3   4
ATOM      4  C   UNL A   1      36.011  23.099  26.245  1.00  0.00     0.261 C 
BRANCH   4   5
ATOM      5  O   UNL A   1      34.575  23.108  26.065  1.00  0.00    -0.463 OA
BRANCH   5   6
ATOM      6  C   UNL A   1      33.947  21.953  26.411  1.00  0.00     0.313 C 
ATOM      7  O   UNL A   1      34.107  21.391  27.491  1.00  0.00    -0.252 OA
BRANCH   6   8
ATOM      8  C   UNL A   1      33.079  21.334  25.314  1.00  0.00     0.080 C 
ATOM      9  C   UNL A   1      33.484  21.986  23.982  1.00  0.00     0.025 C 
ATOM     10  C   UNL A   1      31.636  21.786  25.655  1.00  0.00     0.025 C 
BRANCH   8  11
ATOM     11  C   UNL A   1      33.018  19.791  25.234  1.00  0.00     0.142 C 
BRANCH  11  12
ATOM     12  N   UNL A   1      32.991  19.098  23.959  1.00  0.00    -0.328 N 
ATOM     13  C   UNL A   1      32.187  19.402  22.890  1.00  0.00     0.108 A 
ATOM     14  C   UNL A   1      33.447  17.806  23.767  1.00  0.00     0.167 A 
ATOM     15  C   UNL A   1      32.258  18.318  22.052  1.00  0.00     0.131 A 
ATOM     16  N   UNL A   1      33.025  17.337  22.609  1.00  0.00    -0.235 NA
BRANCH  14  17
ATOM     17  C   UNL A   1      34.274  17.040  24.664  1.00  0.00     0.140 C 
ATOM     18  S   UNL A   1      33.726  15.655  25.399  1.00  0.00    -0.057 S 
BRANCH  17  19
ATOM     19  N   UNL A   1      35.522  17.529  24.915  1.00  0.00    -0.387 N 
ATOM     20  H   UNL A   1      35.662  18.499  25.007  1.00  0.00     0.157 HD
ATOM     21  H   UNL A   1      36.284  16.912  25.003  1.00  0.00     0.157 HD
ENDBRANCH  17  19
ENDBRANCH  14  17
ENDBRANCH  11  12
ENDBRANCH   8  11
ENDBRANCH   6   8
ENDBRANCH   5   6
ENDBRANCH   4   5
ENDBRANCH   3   4
ENDBRANCH   2   3
ENDBRANCH   1   2
BRANCH   1  22
ATOM     22  C   UNL A   1      38.244  19.940  24.981  1.00  0.00     0.188 C 
BRANCH  22  23
ATOM     23  O   UNL A   1      39.480  19.416  25.459  1.00  0.00    -0.376 OA
BRANCH  23  24
ATOM     24  C   UNL A   1      40.267  20.170  26.393  1.00  0.00     0.202 C 
BRANCH  24  25
ATOM     25  C   UNL A   1      41.650  20.692  26.035  1.00  0.00     0.261 C 
BRANCH  25  26
ATOM     26  O   UNL A   1      41.607  21.951  25.396  1.00  0.00    -0.460 OA
BRANCH  26  27
ATOM     27  C   UNL A   1      42.422  22.931  25.848  1.00  0.00     0.338 C 
ATOM     28  O   UNL A   1      43.625  23.002  25.738  1.00  0.00    -0.246 OA
BRANCH  27  29
ATOM     29  C   UNL A   1      41.544  23.858  26.584  1.00  0.00     0.060 A 
ATOM     30  C   UNL A   1      41.054  24.968  25.902  1.00  0.00     0.016 A 
ATOM     31  C   UNL A   1      41.470  23.747  27.984  1.00  0.00     0.016 A 
ATOM     32  C   UNL A   1      40.784  26.100  26.640  1.00  0.00     0.010 A 
ATOM     33  C   UNL A   1      41.253  24.877  28.713  1.00  0.00     0.010 A 
ATOM     34  C   UNL A   1      41.034  26.058  28.015  1.00  0.00    -0.014 A 
BRANCH  34  35
ATOM     35  C   UNL A   1      41.327  27.295  28.699  1.00  0.00     0.031 A 
ATOM     36  C   UNL A   1      42.476  28.046  28.190  1.00  0.00     0.074 A 
ATOM     37  C   UNL A   1      40.452  27.784  29.599  1.00  0.00     0.049 A 
ATOM     38  N   UNL A   1      43.635  28.170  28.742  1.00  0.00    -0.248 NA
ATOM     39  C   UNL A   1      42.385  28.594  26.827  1.00  0.00     0.031 C 
ATOM     40  C   UNL A   1      39.097  27.293  29.881  1.00  0.00     0.029 A 
ATOM     41  N   UNL A   1      40.542  28.907  30.356  1.00  0.00    -0.354 N 
ATOM     42  C   UNL A   1      44.339  29.012  27.895  1.00  0.00     0.074 A 
ATOM     43  C   UNL A   1      43.638  29.003  26.639  1.00  0.00     0.031 C 
ATOM     44  C   UNL A   1      38.427  28.231  30.584  1.00  0.00     0.029 A 
ATOM     45  C   UNL A   1      39.332  29.329  30.886  1.00  0.00     0.049 A 
ATOM     46  H   UNL A   1      41.391  29.381  30.515  1.00  0.00     0.167 HD
ATOM     47  C   UNL A   1      45.242  29.910  28.374  1.00  0.00     0.031 A 
ATOM     48  C   UNL A   1      39.078  30.537  31.445  1.00  0.00     0.031 A 
ATOM     49  C   UNL A   1      45.575  29.656  29.754  1.00  0.00     0.049 A 
ATOM     50  C   UNL A   1      40.386  31.139  31.816  1.00  0.00     0.074 A 
ATOM     51  C   UNL A   1      46.097  28.581  30.444  1.00  0.00     0.029 A 
ATOM     52  N   UNL A   1      44.999  30.481  30.695  1.00  0.00    -0.354 N 
ATOM     53  N   UNL A   1      41.163  30.662  32.748  1.00  0.00    -0.248 NA
ATOM     54  C   UNL A   1      41.040  32.042  30.878  1.00  0.00     0.031 C 
ATOM     55  C   UNL A   1      45.470  28.610  31.724  1.00  0.00     0.029 A 
ATOM     56  C   UNL A   1      44.618  29.716  31.770  1.00  0.00     0.049 A 
ATOM     57  H   UNL A   1      44.880  31.454  30.610  1.00  0.00     0.167 HD
ATOM     58  C   UNL A   1      42.456  30.855  32.278  1.00  0.00     0.074 A 
ATOM     59  C   UNL A   1      42.319  31.830  31.202  1.00  0.00     0.031 C 
ATOM     60  C   UNL A   1      43.462  29.990  32.607  1.00  0.00     0.031 A 
BRANCH  47  61
ATOM     61  C   UNL A   1      45.483  31.248  27.721  1.00  0.00    -0.014 A 
ATOM     62  C   UNL A   1      46.720  31.484  27.095  1.00  0.00     0.010 A 
ATOM     63  C   UNL A   1      44.644  32.367  27.922  1.00  0.00     0.010 A 
ATOM     64  C   UNL A   1      47.121  32.782  26.755  1.00  0.00     0.020 A 
ATOM     65  C   UNL A   1      45.007  33.654  27.536  1.00  0.00     0.020 A 
ATOM     66  C   UNL A   1      46.265  33.860  26.996  1.00  0.00     0.054 A 
BRANCH  66  67
ATOM     67  S   UNL A   1      46.840  35.545  26.693  1.00  0.00     0.124 S 
ATOM     68  O   UNL A   1      45.624  36.187  26.204  1.00  0.00    -0.237 OA
ATOM     69  O   UNL A   1      47.293  35.963  28.017  1.00  0.00    -0.237 OA
ATOM     70  O   UNL A   1      47.900  35.371  25.703  1.00  0.00    -0.744 OA
ENDBRANCH  66  67
ENDBRANCH  47  61
BRANCH  48  71
ATOM     71  C   UNL A   1      37.801  31.294  31.413  1.00  0.00    -0.014 A 
ATOM     72  C   UNL A   1      36.806  31.078  32.383  1.00  0.00     0.010 A 
ATOM     73  C   UNL A   1      37.647  32.408  30.561  1.00  0.00     0.010 A 
ATOM     74  C   UNL A   1      35.732  31.973  32.528  1.00  0.00     0.020 A 
ATOM     75  C   UNL A   1      36.571  33.292  30.684  1.00  0.00     0.020 A 
ATOM     76  C   UNL A   1      35.630  33.084  31.686  1.00  0.00     0.054 A 
BRANCH  76  77
ATOM     77  S   UNL A   1      34.341  34.328  31.987  1.00  0.00     0.124 S 
ATOM     78  O   UNL A   1      33.520  33.683  33.007  1.00  0.00    -0.237 OA
ATOM     79  O   UNL A   1      35.113  35.484  32.431  1.00  0.00    -0.237 OA
ATOM     80  O   UNL A   1      33.701  34.480  30.680  1.00  0.00    -0.744 OA
ENDBRANCH  76  77
ENDBRANCH  48  71
BRANCH  60  81
ATOM     81  C   UNL A   1      43.236  29.045  33.769  1.00  0.00    -0.014 A 
ATOM     82  C   UNL A   1      43.193  29.472  35.111  1.00  0.00     0.010 A 
ATOM     83  C   UNL A   1      42.912  27.706  33.484  1.00  0.00     0.010 A 
ATOM     84  C   UNL A   1      42.862  28.578  36.140  1.00  0.00     0.020 A 
ATOM     85  C   UNL A   1      42.563  26.814  34.503  1.00  0.00     0.020 A 
ATOM     86  C   UNL A   1      42.548  27.253  35.828  1.00  0.00     0.054 A 
BRANCH  86  87
ATOM     87  S   UNL A   1      42.053  26.122  37.159  1.00  0.00     0.124 S 
ATOM     88  O   UNL A   1      42.134  24.816  36.511  1.00  0.00    -0.237 OA
ATOM     89  O   UNL A   1      43.054  26.376  38.193  1.00  0.00    -0.237 OA
ATOM     90  O   UNL A   1      40.700  26.559  37.500  1.00  0.00    -0.744 OA
ENDBRANCH  86  87
ENDBRANCH  60  81
ENDBRANCH  34  35
ENDBRANCH  27  29
ENDBRANCH  26  27
ENDBRANCH  25  26
ENDBRANCH  24  25
ENDBRANCH  23  24
ENDBRANCH  22  23
ENDBRANCH   1  22
TORSDOF 24
ENDMDL
MODEL 3
REMARK VINA RESULT:      -8.7      2.430      3.406
REMARK SMILES CC(C)(Cn1ccnc1C(N)=S)C(=O)OCCOCCOCCOC(=O)c1ccc(-c2c3nc(c(-c4ccc(S(=O)(=O)[O-])cc4)c4ccc([nH]4)c(-c4ccc(S(=O)(=O)[O-])cc4)c4nc(c(-c5ccc(S(=O)(=O)[O-])cc5)c5ccc2[nH]5)C=C4)C=C3)cc1
REMARK SMILES IDX 19 1 18 2 17 3 16 4 15 5 13 6 14 7 2 8 1 9 3 10 4 11 5 12
REMARK SMILES IDX 6 13 9 14 7 15 8 16 10 17 12 18 11 19 20 22 21 23 22 24
REMARK SMILES IDX 23 25 24 26 25 27 26 28 27 29 28 30 86 31 29 32 85 33 30 34
REMARK SMILES IDX 31 35 32 36 79 37 33 38 84 39 78 40 80 41 34 42 83 43 77 44
REMARK SMILES IDX 76 45 35 47 65 48 46 49 64 50 47 51 50 52 63 53 81 54 48 55
REMARK SMILES IDX 49 56 62 58 82 59 51 60 36 61 37 62 45 63 38 64 44 65 39 66
REMARK SMILES IDX 40 67 41 68 42 69 43 70 66 71 67 72 75 73 68 74 74 75 69 76
REMARK SMILES IDX 70 77 71 78 72 79 73 80 52 81 53 82 61 83 54 84 60 85 55 86
REMARK SMILES IDX 56 87 57 88 58 89 59 90
REMARK H PARENT 11 20 11 21 80 46 50 57
REMARK Flexibility Score: inf
ROOT
ATOM      1  C   UNL A   1      37.927  21.712  25.061  1.00  0.00     0.188 C 
ENDROOT
BRANCH   1   2
ATOM      2  O   UNL A   1      36.739  20.952  24.838  1.00  0.00    -0.376 OA
BRANCH   2   3
ATOM      3  C   UNL A   1      35.585  21.353  25.567  1.00  0.00     0.202 C 
BRANCH   3   4
ATOM      4  C   UNL A   1      34.862  22.588  25.023  1.00  0.00     0.261 C 
BRANCH   4   5
ATOM      5  O   UNL A   1      33.908  23.197  25.925  1.00  0.00    -0.463 OA
BRANCH   5   6
ATOM      6  C   UNL A   1      32.792  23.692  25.329  1.00  0.00     0.313 C 
ATOM      7  O   UNL A   1      31.925  22.987  24.818  1.00  0.00    -0.252 OA
BRANCH   6   8
ATOM      8  C   UNL A   1      32.721  25.218  25.251  1.00  0.00     0.080 C 
ATOM      9  C   UNL A   1      34.128  25.761  25.547  1.00  0.00     0.025 C 
ATOM     10  C   UNL A   1      31.790  25.627  26.421  1.00  0.00     0.025 C 
BRANCH   8  11
ATOM     11  C   UNL A   1      32.090  25.843  23.985  1.00  0.00     0.142 C 
BRANCH  11  12
ATOM     12  N   UNL A   1      30.776  26.456  24.018  1.00  0.00    -0.328 N 
ATOM     13  C   UNL A   1      29.574  25.799  23.946  1.00  0.00     0.108 A 
ATOM     14  C   UNL A   1      30.529  27.783  23.710  1.00  0.00     0.167 A 
ATOM     15  C   UNL A   1      28.636  26.767  23.684  1.00  0.00     0.131 A 
ATOM     16  N   UNL A   1      29.238  27.981  23.528  1.00  0.00    -0.235 NA
BRANCH  14  17
ATOM     17  C   UNL A   1      31.503  28.839  23.602  1.00  0.00     0.140 C 
ATOM     18  S   UNL A   1      32.196  29.535  24.941  1.00  0.00    -0.057 S 
BRANCH  17  19
ATOM     19  N   UNL A   1      31.801  29.272  22.344  1.00  0.00    -0.387 N 
ATOM     20  H   UNL A   1      32.206  28.655  21.693  1.00  0.00     0.157 HD
ATOM     21  H   UNL A   1      31.613  30.204  22.087  1.00  0.00     0.157 HD
ENDBRANCH  17  19
ENDBRANCH  14  17
ENDBRANCH  11  12
ENDBRANCH   8  11
ENDBRANCH   6   8
ENDBRANCH   5   6
ENDBRANCH   4   5
ENDBRANCH   3   4
ENDBRANCH   2   3
ENDBRANCH   1   2
BRANCH   1  22
ATOM     22  C   UNL A   1      38.868  21.109  26.107  1.00  0.00     0.188 C 
BRANCH  22  23
ATOM     23  O   UNL A   1      40.207  21.547  25.891  1.00  0.00    -0.376 OA
BRANCH  23  24
ATOM     24  C   UNL A   1      41.308  20.704  26.263  1.00  0.00     0.202 C 
BRANCH  24  25
ATOM     25  C   UNL A   1      42.707  20.926  25.709  1.00  0.00     0.261 C 
BRANCH  25  26
ATOM     26  O   UNL A   1      42.841  22.171  25.053  1.00  0.00    -0.460 OA
BRANCH  26  27
ATOM     27  C   UNL A   1      43.579  23.136  25.647  1.00  0.00     0.338 C 
ATOM     28  O   UNL A   1      44.785  23.219  25.697  1.00  0.00    -0.246 OA
BRANCH  27  29
ATOM     29  C   UNL A   1      42.602  24.027  26.299  1.00  0.00     0.060 A 
ATOM     30  C   UNL A   1      42.162  25.140  25.588  1.00  0.00     0.016 A 
ATOM     31  C   UNL A   1      42.378  23.884  27.680  1.00  0.00     0.016 A 
ATOM     32  C   UNL A   1      41.785  26.249  26.314  1.00  0.00     0.010 A 
ATOM     33  C   UNL A   1      42.054  24.993  28.402  1.00  0.00     0.010 A 
ATOM     34  C   UNL A   1      41.883  26.183  27.707  1.00  0.00    -0.014 A 
BRANCH  34  35
ATOM     35  C   UNL A   1      42.068  27.411  28.442  1.00  0.00     0.031 A 
ATOM     36  C   UNL A   1      43.333  28.110  28.205  1.00  0.00     0.074 A 
ATOM     37  C   UNL A   1      41.036  27.943  29.125  1.00  0.00     0.049 A 
ATOM     38  N   UNL A   1      44.343  28.189  29.002  1.00  0.00    -0.248 NA
ATOM     39  C   UNL A   1      43.573  28.651  26.858  1.00  0.00     0.031 C 
ATOM     40  C   UNL A   1      39.633  27.512  29.096  1.00  0.00     0.029 A 
ATOM     41  N   UNL A   1      41.003  29.067  29.886  1.00  0.00    -0.354 N 
ATOM     42  C   UNL A   1      45.254  28.994  28.337  1.00  0.00     0.074 A 
ATOM     43  C   UNL A   1      44.852  29.006  26.955  1.00  0.00     0.031 C 
ATOM     44  C   UNL A   1      38.863  28.482  29.634  1.00  0.00     0.029 A 
ATOM     45  C   UNL A   1      39.724  29.542  30.133  1.00  0.00     0.049 A 
ATOM     46  H   UNL A   1      41.813  29.505  30.232  1.00  0.00     0.167 HD
ATOM     47  C   UNL A   1      46.064  29.856  29.008  1.00  0.00     0.031 A 
ATOM     48  C   UNL A   1      39.403  30.764  30.624  1.00  0.00     0.031 A 
ATOM     49  C   UNL A   1      46.070  29.598  30.426  1.00  0.00     0.049 A 
ATOM     50  C   UNL A   1      40.619  31.313  31.280  1.00  0.00     0.074 A 
ATOM     51  C   UNL A   1      46.378  28.507  31.213  1.00  0.00     0.029 A 
ATOM     52  N   UNL A   1      45.333  30.453  31.217  1.00  0.00    -0.354 N 
ATOM     53  N   UNL A   1      41.147  30.810  32.361  1.00  0.00    -0.248 NA
ATOM     54  C   UNL A   1      41.504  32.181  30.514  1.00  0.00     0.031 C 
ATOM     55  C   UNL A   1      45.482  28.571  32.320  1.00  0.00     0.029 A 
ATOM     56  C   UNL A   1      44.690  29.713  32.178  1.00  0.00     0.049 A 
ATOM     57  H   UNL A   1      45.278  31.430  31.110  1.00  0.00     0.167 HD
ATOM     58  C   UNL A   1      42.520  30.945  32.192  1.00  0.00     0.074 A 
ATOM     59  C   UNL A   1      42.668  31.917  31.116  1.00  0.00     0.031 C 
ATOM     60  C   UNL A   1      43.389  30.041  32.736  1.00  0.00     0.031 A 
BRANCH  47  61
ATOM     61  C   UNL A   1      46.502  31.179  28.428  1.00  0.00    -0.014 A 
ATOM     62  C   UNL A   1      45.553  32.208  28.296  1.00  0.00     0.010 A 
ATOM     63  C   UNL A   1      47.740  31.363  27.774  1.00  0.00     0.010 A 
ATOM     64  C   UNL A   1      45.807  33.326  27.491  1.00  0.00     0.020 A 
ATOM     65  C   UNL A   1      48.027  32.496  27.019  1.00  0.00     0.020 A 
ATOM     66  C   UNL A   1      47.039  33.451  26.845  1.00  0.00     0.054 A 
BRANCH  66  67
ATOM     67  S   UNL A   1      47.313  34.816  25.694  1.00  0.00     0.124 S 
ATOM     68  O   UNL A   1      47.355  35.960  26.599  1.00  0.00    -0.237 OA
ATOM     69  O   UNL A   1      48.581  34.449  25.070  1.00  0.00    -0.237 OA
ATOM     70  O   UNL A   1      46.150  34.755  24.811  1.00  0.00    -0.744 OA
ENDBRANCH  66  67
ENDBRANCH  47  61
BRANCH  48  71
ATOM     71  C   UNL A   1      38.198  31.574  30.310  1.00  0.00    -0.014 A 
ATOM     72  C   UNL A   1      38.231  32.567  29.315  1.00  0.00     0.010 A 
ATOM     73  C   UNL A   1      36.936  31.214  30.828  1.00  0.00     0.010 A 
ATOM     74  C   UNL A   1      37.044  33.133  28.821  1.00  0.00     0.020 A 
ATOM     75  C   UNL A   1      35.751  31.788  30.358  1.00  0.00     0.020 A 
ATOM     76  C   UNL A   1      35.809  32.728  29.336  1.00  0.00     0.054 A 
BRANCH  76  77
ATOM     77  S   UNL A   1      34.274  33.335  28.579  1.00  0.00     0.124 S 
ATOM     78  O   UNL A   1      33.595  33.959  29.711  1.00  0.00    -0.237 OA
ATOM     79  O   UNL A   1      34.766  34.248  27.552  1.00  0.00    -0.237 OA
ATOM     80  O   UNL A   1      33.639  32.119  28.069  1.00  0.00    -0.744 OA
ENDBRANCH  76  77
ENDBRANCH  48  71
BRANCH  60  81
ATOM     81  C   UNL A   1      42.869  29.114  33.815  1.00  0.00    -0.014 A 
ATOM     82  C   UNL A   1      42.136  27.943  33.538  1.00  0.00     0.010 A 
ATOM     83  C   UNL A   1      43.257  29.359  35.145  1.00  0.00     0.010 A 
ATOM     84  C   UNL A   1      41.779  27.058  34.564  1.00  0.00     0.020 A 
ATOM     85  C   UNL A   1      42.921  28.470  36.171  1.00  0.00     0.020 A 
ATOM     86  C   UNL A   1      42.176  27.327  35.876  1.00  0.00     0.054 A 
BRANCH  86  87
ATOM     87  S   UNL A   1      41.770  26.138  37.187  1.00  0.00     0.124 S 
ATOM     88  O   UNL A   1      41.814  24.861  36.481  1.00  0.00    -0.237 OA
ATOM     89  O   UNL A   1      42.833  26.355  38.166  1.00  0.00    -0.237 OA
ATOM     90  O   UNL A   1      40.439  26.553  37.631  1.00  0.00    -0.744 OA
ENDBRANCH  86  87
ENDBRANCH  60  81
ENDBRANCH  34  35
ENDBRANCH  27  29
ENDBRANCH  26  27
ENDBRANCH  25  26
ENDBRANCH  24  25
ENDBRANCH  23  24
ENDBRANCH  22  23
ENDBRANCH   1  22
TORSDOF 24
ENDMDL
