MODEL 1
REMARK VINA RESULT:     -10.9      0.000      0.000
REMARK SMILES Cc1cc(C(=O)OCCOCCOCCOC(=O)c2ccc(-c3c4nc(c(-c5ccc(S(=O)(=O)[O-])cc5)c5ccc([nH]5)c(-c5ccc(S(=O)(=O)[O-])cc5)c5nc(c(-c6ccc(S(=O)(=O)[O-])cc6)c6ccc3[nH]6)C=C5)C=C4)cc2)c(C#Cc2ccccc2)s1
REMARK SMILES IDX 12 1 11 2 10 3 9 4 8 5 7 6 5 7 6 8 4 9 1 10 2 11 3 12 88 13
REMARK SMILES IDX 79 14 80 15 81 16 82 17 83 18 87 19 84 20 86 21 85 22 13 23
REMARK SMILES IDX 14 24 15 25 16 26 17 27 18 28 19 29 20 30 78 31 21 32 77 33
REMARK SMILES IDX 22 34 23 35 24 36 71 37 25 38 76 39 70 40 72 41 26 42 75 43
REMARK SMILES IDX 69 44 68 45 27 47 57 48 38 49 56 50 39 51 42 52 55 53 73 54
REMARK SMILES IDX 40 55 41 56 54 58 74 59 43 60 28 61 29 62 37 63 30 64 36 65
REMARK SMILES IDX 31 66 32 67 33 68 34 69 35 70 58 71 59 72 67 73 60 74 66 75
REMARK SMILES IDX 61 76 62 77 63 78 64 79 65 80 44 81 45 82 53 83 46 84 52 85
REMARK SMILES IDX 47 86 48 87 49 88 50 89 51 90
REMARK H PARENT 72 46 42 57
REMARK Flexibility Score: inf
ROOT
ATOM      1  C   UNL A   1      40.925  21.244  27.085  1.00  0.00     0.188 C 
ENDROOT
BRANCH   1   2
ATOM      2  C   UNL A   1      39.655  21.890  26.500  1.00  0.00     0.188 C 
BRANCH   2   3
ATOM      3  O   UNL A   1      38.951  20.959  25.690  1.00  0.00    -0.376 OA
BRANCH   3   4
ATOM      4  C   UNL A   1      37.696  21.420  25.205  1.00  0.00     0.202 C 
BRANCH   4   5
ATOM      5  C   UNL A   1      37.267  22.826  25.665  1.00  0.00     0.261 C 
BRANCH   5   6
ATOM      6  O   UNL A   1      36.265  23.422  24.840  1.00  0.00    -0.460 OA
BRANCH   6   7
ATOM      7  C   UNL A   1      34.983  23.475  25.315  1.00  0.00     0.340 C 
ATOM      8  O   UNL A   1      34.639  23.501  26.455  1.00  0.00    -0.246 OA
BRANCH   7   9
ATOM      9  C   UNL A   1      34.120  23.691  24.169  1.00  0.00     0.086 A 
ATOM     10  C   UNL A   1      32.540  25.814  21.411  1.00  0.00     0.056 C 
ATOM     11  C   UNL A   1      32.932  24.934  22.560  1.00  0.00     0.004 A 
ATOM     12  C   UNL A   1      34.034  24.921  23.387  1.00  0.00     0.032 A 
ATOM     13  S   UNL A   1      31.898  23.687  23.071  1.00  0.00    -0.131 S 
ATOM     14  C   UNL A   1      33.161  22.749  23.810  1.00  0.00     0.092 A 
BRANCH  14  15
ATOM     15  C   UNL A   1      33.100  21.297  24.106  1.00  0.00    -0.050 C 
ATOM     16  C   UNL A   1      33.096  20.098  24.310  1.00  0.00    -0.061 C 
BRANCH  16  17
ATOM     17  C   UNL A   1      33.128  18.626  24.468  1.00  0.00     0.025 A 
ATOM     18  C   UNL A   1      32.648  17.973  25.603  1.00  0.00     0.017 A 
ATOM     19  C   UNL A   1      33.676  17.791  23.480  1.00  0.00     0.017 A 
ATOM     20  C   UNL A   1      32.763  16.567  25.740  1.00  0.00     0.001 A 
ATOM     21  C   UNL A   1      33.923  16.421  23.663  1.00  0.00     0.001 A 
ATOM     22  C   UNL A   1      33.447  15.798  24.798  1.00  0.00     0.000 A 
ENDBRANCH  16  17
ENDBRANCH  14  15
ENDBRANCH   7   9
ENDBRANCH   6   7
ENDBRANCH   5   6
ENDBRANCH   4   5
ENDBRANCH   3   4
ENDBRANCH   2   3
ENDBRANCH   1   2
BRANCH   1  23
ATOM     23  O   UNL A   1      41.167  19.854  26.922  1.00  0.00    -0.376 OA
BRANCH  23  24
ATOM     24  C   UNL A   1      41.912  19.495  25.784  1.00  0.00     0.202 C 
BRANCH  24  25
ATOM     25  C   UNL A   1      43.445  19.684  25.854  1.00  0.00     0.261 C 
BRANCH  25  26
ATOM     26  O   UNL A   1      44.094  20.293  24.695  1.00  0.00    -0.460 OA
BRANCH  26  27
ATOM     27  C   UNL A   1      44.800  21.453  24.870  1.00  0.00     0.338 C 
ATOM     28  O   UNL A   1      45.872  21.703  24.341  1.00  0.00    -0.246 OA
BRANCH  27  29
ATOM     29  C   UNL A   1      44.037  22.475  25.691  1.00  0.00     0.060 A 
ATOM     30  C   UNL A   1      43.105  23.345  25.154  1.00  0.00     0.016 A 
ATOM     31  C   UNL A   1      44.250  22.597  27.077  1.00  0.00     0.016 A 
ATOM     32  C   UNL A   1      42.580  24.399  25.957  1.00  0.00     0.010 A 
ATOM     33  C   UNL A   1      43.778  23.738  27.832  1.00  0.00     0.010 A 
ATOM     34  C   UNL A   1      43.064  24.772  27.221  1.00  0.00    -0.014 A 
BRANCH  34  35
ATOM     35  C   UNL A   1      42.745  26.202  27.739  1.00  0.00     0.031 A 
ATOM     36  C   UNL A   1      43.876  27.172  27.665  1.00  0.00     0.074 A 
ATOM     37  C   UNL A   1      41.693  26.772  28.419  1.00  0.00     0.049 A 
ATOM     38  N   UNL A   1      44.370  27.855  28.655  1.00  0.00    -0.248 NA
ATOM     39  C   UNL A   1      44.580  27.332  26.394  1.00  0.00     0.031 C 
ATOM     40  C   UNL A   1      40.520  26.119  28.951  1.00  0.00     0.029 A 
ATOM     41  N   UNL A   1      41.420  28.066  28.866  1.00  0.00    -0.354 N 
ATOM     42  C   UNL A   1      45.350  28.661  28.105  1.00  0.00     0.074 A 
ATOM     43  C   UNL A   1      45.512  28.221  26.735  1.00  0.00     0.031 C 
ATOM     44  C   UNL A   1      39.521  26.955  29.263  1.00  0.00     0.029 A 
ATOM     45  C   UNL A   1      40.089  28.281  29.226  1.00  0.00     0.049 A 
ATOM     46  H   UNL A   1      42.109  28.768  28.922  1.00  0.00     0.167 HD
ATOM     47  C   UNL A   1      45.835  29.774  28.719  1.00  0.00     0.031 A 
ATOM     48  C   UNL A   1      39.382  29.278  29.810  1.00  0.00     0.031 A 
ATOM     49  C   UNL A   1      45.667  29.869  30.149  1.00  0.00     0.049 A 
ATOM     50  C   UNL A   1      40.271  30.105  30.629  1.00  0.00     0.074 A 
ATOM     51  C   UNL A   1      46.470  30.035  31.261  1.00  0.00     0.029 A 
ATOM     52  N   UNL A   1      44.401  29.720  30.629  1.00  0.00    -0.354 N 
ATOM     53  N   UNL A   1      40.709  29.747  31.807  1.00  0.00    -0.248 NA
ATOM     54  C   UNL A   1      40.958  31.217  29.991  1.00  0.00     0.031 C 
ATOM     55  C   UNL A   1      45.625  30.026  32.414  1.00  0.00     0.029 A 
ATOM     56  C   UNL A   1      44.315  29.938  31.981  1.00  0.00     0.049 A 
ATOM     57  H   UNL A   1      43.629  29.479  30.066  1.00  0.00     0.167 HD
ATOM     58  C   UNL A   1      41.951  30.340  31.887  1.00  0.00     0.074 A 
ATOM     59  C   UNL A   1      42.013  31.311  30.798  1.00  0.00     0.031 C 
ATOM     60  C   UNL A   1      43.003  29.809  32.572  1.00  0.00     0.031 A 
BRANCH  47  61
ATOM     61  C   UNL A   1      46.192  30.986  27.896  1.00  0.00    -0.014 A 
ATOM     62  C   UNL A   1      45.244  32.013  27.677  1.00  0.00     0.010 A 
ATOM     63  C   UNL A   1      47.525  31.264  27.548  1.00  0.00     0.010 A 
ATOM     64  C   UNL A   1      45.581  33.220  27.072  1.00  0.00     0.020 A 
ATOM     65  C   UNL A   1      47.885  32.496  26.981  1.00  0.00     0.020 A 
ATOM     66  C   UNL A   1      46.906  33.458  26.732  1.00  0.00     0.054 A 
BRANCH  66  67
ATOM     67  S   UNL A   1      47.319  35.076  26.039  1.00  0.00     0.124 S 
ATOM     68  O   UNL A   1      46.003  35.706  25.948  1.00  0.00    -0.237 OA
ATOM     69  O   UNL A   1      48.214  35.634  27.049  1.00  0.00    -0.237 OA
ATOM     70  O   UNL A   1      47.946  34.753  24.760  1.00  0.00    -0.744 OA
ENDBRANCH  66  67
ENDBRANCH  47  61
BRANCH  48  71
ATOM     71  C   UNL A   1      37.989  29.626  29.396  1.00  0.00    -0.014 A 
ATOM     72  C   UNL A   1      37.739  30.063  28.074  1.00  0.00     0.010 A 
ATOM     73  C   UNL A   1      36.967  29.809  30.342  1.00  0.00     0.010 A 
ATOM     74  C   UNL A   1      36.624  30.828  27.753  1.00  0.00     0.020 A 
ATOM     75  C   UNL A   1      35.837  30.587  30.027  1.00  0.00     0.020 A 
ATOM     76  C   UNL A   1      35.722  31.153  28.755  1.00  0.00     0.054 A 
BRANCH  76  77
ATOM     77  S   UNL A   1      34.523  32.462  28.395  1.00  0.00     0.124 S 
ATOM     78  O   UNL A   1      35.332  33.399  27.619  1.00  0.00    -0.237 OA
ATOM     79  O   UNL A   1      33.494  31.752  27.638  1.00  0.00    -0.237 OA
ATOM     80  O   UNL A   1      34.114  32.929  29.715  1.00  0.00    -0.744 OA
ENDBRANCH  76  77
ENDBRANCH  48  71
BRANCH  60  81
ATOM     81  C   UNL A   1      42.823  28.954  33.789  1.00  0.00    -0.014 A 
ATOM     82  C   UNL A   1      43.057  27.575  33.632  1.00  0.00     0.010 A 
ATOM     83  C   UNL A   1      42.344  29.410  35.029  1.00  0.00     0.010 A 
ATOM     84  C   UNL A   1      42.754  26.665  34.644  1.00  0.00     0.020 A 
ATOM     85  C   UNL A   1      42.059  28.499  36.065  1.00  0.00     0.020 A 
ATOM     86  C   UNL A   1      42.235  27.128  35.852  1.00  0.00     0.054 A 
BRANCH  86  87
ATOM     87  S   UNL A   1      41.794  25.900  37.113  1.00  0.00     0.124 S 
ATOM     88  O   UNL A   1      40.429  26.288  37.460  1.00  0.00    -0.237 OA
ATOM     89  O   UNL A   1      41.910  24.635  36.387  1.00  0.00    -0.237 OA
ATOM     90  O   UNL A   1      42.785  26.091  38.169  1.00  0.00    -0.744 OA
ENDBRANCH  86  87
ENDBRANCH  60  81
ENDBRANCH  34  35
ENDBRANCH  27  29
ENDBRANCH  26  27
ENDBRANCH  25  26
ENDBRANCH  24  25
ENDBRANCH  23  24
ENDBRANCH   1  23
TORSDOF 22
ENDMDL
MODEL 2
REMARK VINA RESULT:     -10.5      1.845      2.563
REMARK SMILES Cc1cc(C(=O)OCCOCCOCCOC(=O)c2ccc(-c3c4nc(c(-c5ccc(S(=O)(=O)[O-])cc5)c5ccc([nH]5)c(-c5ccc(S(=O)(=O)[O-])cc5)c5nc(c(-c6ccc(S(=O)(=O)[O-])cc6)c6ccc3[nH]6)C=C5)C=C4)cc2)c(C#Cc2ccccc2)s1
REMARK SMILES IDX 12 1 11 2 10 3 9 4 8 5 7 6 5 7 6 8 4 9 1 10 2 11 3 12 88 13
REMARK SMILES IDX 79 14 80 15 81 16 82 17 83 18 87 19 84 20 86 21 85 22 13 23
REMARK SMILES IDX 14 24 15 25 16 26 17 27 18 28 19 29 20 30 78 31 21 32 77 33
REMARK SMILES IDX 22 34 23 35 24 36 71 37 25 38 76 39 70 40 72 41 26 42 75 43
REMARK SMILES IDX 69 44 68 45 27 47 57 48 38 49 56 50 39 51 42 52 55 53 73 54
REMARK SMILES IDX 40 55 41 56 54 58 74 59 43 60 28 61 29 62 37 63 30 64 36 65
REMARK SMILES IDX 31 66 32 67 33 68 34 69 35 70 58 71 59 72 67 73 60 74 66 75
REMARK SMILES IDX 61 76 62 77 63 78 64 79 65 80 44 81 45 82 53 83 46 84 52 85
REMARK SMILES IDX 47 86 48 87 49 88 50 89 51 90
REMARK H PARENT 72 46 42 57
REMARK Flexibility Score: inf
ROOT
ATOM      1  C   UNL A   1      40.738  20.895  26.900  1.00  0.00     0.188 C 
ENDROOT
BRANCH   1   2
ATOM      2  C   UNL A   1      39.786  21.883  26.198  1.00  0.00     0.188 C 
BRANCH   2   3
ATOM      3  O   UNL A   1      38.598  21.223  25.788  1.00  0.00    -0.376 OA
BRANCH   3   4
ATOM      4  C   UNL A   1      37.541  22.088  25.390  1.00  0.00     0.202 C 
BRANCH   4   5
ATOM      5  C   UNL A   1      37.683  23.565  25.805  1.00  0.00     0.261 C 
BRANCH   5   6
ATOM      6  O   UNL A   1      36.435  24.239  25.970  1.00  0.00    -0.460 OA
BRANCH   6   7
ATOM      7  C   UNL A   1      35.295  23.484  26.029  1.00  0.00     0.340 C 
ATOM      8  O   UNL A   1      34.898  22.851  26.957  1.00  0.00    -0.246 OA
BRANCH   7   9
ATOM      9  C   UNL A   1      34.551  23.753  24.813  1.00  0.00     0.086 A 
ATOM     10  C   UNL A   1      33.081  26.030  22.118  1.00  0.00     0.056 C 
ATOM     11  C   UNL A   1      33.430  25.061  23.207  1.00  0.00     0.004 A 
ATOM     12  C   UNL A   1      34.424  25.053  24.161  1.00  0.00     0.032 A 
ATOM     13  S   UNL A   1      32.484  23.670  23.448  1.00  0.00    -0.131 S 
ATOM     14  C   UNL A   1      33.748  22.774  24.237  1.00  0.00     0.092 A 
BRANCH  14  15
ATOM     15  C   UNL A   1      33.809  21.299  24.366  1.00  0.00    -0.050 C 
ATOM     16  C   UNL A   1      33.804  20.089  24.500  1.00  0.00    -0.061 C 
BRANCH  16  17
ATOM     17  C   UNL A   1      33.744  18.630  24.744  1.00  0.00     0.025 A 
ATOM     18  C   UNL A   1      34.683  17.734  24.231  1.00  0.00     0.017 A 
ATOM     19  C   UNL A   1      32.709  18.051  25.497  1.00  0.00     0.017 A 
ATOM     20  C   UNL A   1      34.545  16.339  24.433  1.00  0.00     0.001 A 
ATOM     21  C   UNL A   1      32.485  16.668  25.584  1.00  0.00     0.001 A 
ATOM     22  C   UNL A   1      33.422  15.801  25.061  1.00  0.00     0.000 A 
ENDBRANCH  16  17
ENDBRANCH  14  15
ENDBRANCH   7   9
ENDBRANCH   6   7
ENDBRANCH   5   6
ENDBRANCH   4   5
ENDBRANCH   3   4
ENDBRANCH   2   3
ENDBRANCH   1   2
BRANCH   1  23
ATOM     23  O   UNL A   1      40.639  19.501  26.653  1.00  0.00    -0.376 OA
BRANCH  23  24
ATOM     24  C   UNL A   1      41.831  18.866  26.259  1.00  0.00     0.202 C 
BRANCH  24  25
ATOM     25  C   UNL A   1      42.945  19.760  25.667  1.00  0.00     0.261 C 
BRANCH  25  26
ATOM     26  O   UNL A   1      43.680  19.235  24.518  1.00  0.00    -0.460 OA
BRANCH  26  27
ATOM     27  C   UNL A   1      44.943  19.705  24.275  1.00  0.00     0.338 C 
ATOM     28  O   UNL A   1      45.827  19.071  23.718  1.00  0.00    -0.246 OA
BRANCH  27  29
ATOM     29  C   UNL A   1      45.097  21.167  24.645  1.00  0.00     0.060 A 
ATOM     30  C   UNL A   1      45.816  21.607  25.742  1.00  0.00     0.016 A 
ATOM     31  C   UNL A   1      44.493  22.177  23.874  1.00  0.00     0.016 A 
ATOM     32  C   UNL A   1      45.748  22.977  26.127  1.00  0.00     0.010 A 
ATOM     33  C   UNL A   1      44.362  23.538  24.352  1.00  0.00     0.010 A 
ATOM     34  C   UNL A   1      44.850  23.922  25.603  1.00  0.00    -0.014 A 
BRANCH  34  35
ATOM     35  C   UNL A   1      44.553  25.197  26.439  1.00  0.00     0.031 A 
ATOM     36  C   UNL A   1      45.653  26.204  26.474  1.00  0.00     0.074 A 
ATOM     37  C   UNL A   1      43.558  25.571  27.313  1.00  0.00     0.049 A 
ATOM     38  N   UNL A   1      46.224  26.684  27.539  1.00  0.00    -0.248 NA
ATOM     39  C   UNL A   1      46.232  26.655  25.209  1.00  0.00     0.031 C 
ATOM     40  C   UNL A   1      42.453  24.776  27.794  1.00  0.00     0.029 A 
ATOM     41  N   UNL A   1      43.303  26.731  28.047  1.00  0.00    -0.354 N 
ATOM     42  C   UNL A   1      47.133  27.624  27.090  1.00  0.00     0.074 A 
ATOM     43  C   UNL A   1      47.174  27.488  25.648  1.00  0.00     0.031 C 
ATOM     44  C   UNL A   1      41.472  25.488  28.363  1.00  0.00     0.029 A 
ATOM     45  C   UNL A   1      42.008  26.814  28.559  1.00  0.00     0.049 A 
ATOM     46  H   UNL A   1      43.980  27.431  28.190  1.00  0.00     0.167 HD
ATOM     47  C   UNL A   1      47.651  28.602  27.881  1.00  0.00     0.031 A 
ATOM     48  C   UNL A   1      41.339  27.638  29.401  1.00  0.00     0.031 A 
ATOM     49  C   UNL A   1      47.616  28.388  29.308  1.00  0.00     0.049 A 
ATOM     50  C   UNL A   1      42.285  28.309  30.297  1.00  0.00     0.074 A 
ATOM     51  C   UNL A   1      48.516  28.348  30.355  1.00  0.00     0.029 A 
ATOM     52  N   UNL A   1      46.403  28.092  29.854  1.00  0.00    -0.354 N 
ATOM     53  N   UNL A   1      42.838  27.729  31.329  1.00  0.00    -0.248 NA
ATOM     54  C   UNL A   1      42.888  29.556  29.852  1.00  0.00     0.031 C 
ATOM     55  C   UNL A   1      47.783  28.065  31.549  1.00  0.00     0.029 A 
ATOM     56  C   UNL A   1      46.441  28.019  31.224  1.00  0.00     0.049 A 
ATOM     57  H   UNL A   1      45.587  27.946  29.322  1.00  0.00     0.167 HD
ATOM     58  C   UNL A   1      44.071  28.339  31.423  1.00  0.00     0.074 A 
ATOM     59  C   UNL A   1      44.012  29.519  30.565  1.00  0.00     0.031 C 
ATOM     60  C   UNL A   1      45.192  27.718  31.886  1.00  0.00     0.031 A 
BRANCH  47  61
ATOM     61  C   UNL A   1      47.906  29.972  27.307  1.00  0.00    -0.014 A 
ATOM     62  C   UNL A   1      46.833  30.857  27.051  1.00  0.00     0.010 A 
ATOM     63  C   UNL A   1      49.203  30.511  27.254  1.00  0.00     0.010 A 
ATOM     64  C   UNL A   1      47.034  32.184  26.684  1.00  0.00     0.020 A 
ATOM     65  C   UNL A   1      49.416  31.860  26.931  1.00  0.00     0.020 A 
ATOM     66  C   UNL A   1      48.330  32.682  26.632  1.00  0.00     0.054 A 
BRANCH  66  67
ATOM     67  S   UNL A   1      48.543  34.435  26.248  1.00  0.00     0.124 S 
ATOM     68  O   UNL A   1      47.199  34.811  25.813  1.00  0.00    -0.237 OA
ATOM     69  O   UNL A   1      48.967  34.991  27.530  1.00  0.00    -0.237 OA
ATOM     70  O   UNL A   1      49.561  34.437  25.200  1.00  0.00    -0.744 OA
ENDBRANCH  66  67
ENDBRANCH  47  61
BRANCH  48  71
ATOM     71  C   UNL A   1      39.907  28.011  29.193  1.00  0.00    -0.014 A 
ATOM     72  C   UNL A   1      39.528  28.718  28.028  1.00  0.00     0.010 A 
ATOM     73  C   UNL A   1      38.971  27.939  30.239  1.00  0.00     0.010 A 
ATOM     74  C   UNL A   1      38.373  29.488  27.981  1.00  0.00     0.020 A 
ATOM     75  C   UNL A   1      37.802  28.719  30.201  1.00  0.00     0.020 A 
ATOM     76  C   UNL A   1      37.559  29.547  29.102  1.00  0.00     0.054 A 
BRANCH  76  77
ATOM     77  S   UNL A   1      36.304  30.852  29.145  1.00  0.00     0.124 S 
ATOM     78  O   UNL A   1      35.260  30.286  28.294  1.00  0.00    -0.237 OA
ATOM     79  O   UNL A   1      35.974  30.931  30.567  1.00  0.00    -0.237 OA
ATOM     80  O   UNL A   1      36.995  32.015  28.601  1.00  0.00    -0.744 OA
ENDBRANCH  76  77
ENDBRANCH  48  71
BRANCH  60  81
ATOM     81  C   UNL A   1      45.143  26.621  32.905  1.00  0.00    -0.014 A 
ATOM     82  C   UNL A   1      44.746  26.984  34.205  1.00  0.00     0.010 A 
ATOM     83  C   UNL A   1      45.561  25.298  32.683  1.00  0.00     0.010 A 
ATOM     84  C   UNL A   1      44.831  26.088  35.271  1.00  0.00     0.020 A 
ATOM     85  C   UNL A   1      45.626  24.380  33.750  1.00  0.00     0.020 A 
ATOM     86  C   UNL A   1      45.292  24.792  35.043  1.00  0.00     0.054 A 
BRANCH  86  87
ATOM     87  S   UNL A   1      45.448  23.685  36.472  1.00  0.00     0.124 S 
ATOM     88  O   UNL A   1      46.896  23.639  36.671  1.00  0.00    -0.237 OA
ATOM     89  O   UNL A   1      44.704  24.392  37.513  1.00  0.00    -0.237 OA
ATOM     90  O   UNL A   1      44.839  22.433  36.029  1.00  0.00    -0.744 OA
ENDBRANCH  86  87
ENDBRANCH  60  81
ENDBRANCH  34  35
ENDBRANCH  27  29
ENDBRANCH  26  27
ENDBRANCH  25  26
ENDBRANCH  24  25
ENDBRANCH  23  24
ENDBRANCH   1  23
TORSDOF 22
ENDMDL
MODEL 3
REMARK VINA RESULT:     -10.0      1.753      2.429
REMARK SMILES Cc1cc(C(=O)OCCOCCOCCOC(=O)c2ccc(-c3c4nc(c(-c5ccc(S(=O)(=O)[O-])cc5)c5ccc([nH]5)c(-c5ccc(S(=O)(=O)[O-])cc5)c5nc(c(-c6ccc(S(=O)(=O)[O-])cc6)c6ccc3[nH]6)C=C5)C=C4)cc2)c(C#Cc2ccccc2)s1
REMARK SMILES IDX 12 1 11 2 10 3 9 4 8 5 7 6 5 7 6 8 4 9 1 10 2 11 3 12 88 13
REMARK SMILES IDX 79 14 80 15 81 16 82 17 83 18 87 19 84 20 86 21 85 22 13 23
REMARK SMILES IDX 14 24 15 25 16 26 17 27 18 28 19 29 20 30 78 31 21 32 77 33
REMARK SMILES IDX 22 34 23 35 24 36 71 37 25 38 76 39 70 40 72 41 26 42 75 43
REMARK SMILES IDX 69 44 68 45 27 47 57 48 38 49 56 50 39 51 42 52 55 53 73 54
REMARK SMILES IDX 40 55 41 56 54 58 74 59 43 60 28 61 29 62 37 63 30 64 36 65
REMARK SMILES IDX 31 66 32 67 33 68 34 69 35 70 58 71 59 72 67 73 60 74 66 75
REMARK SMILES IDX 61 76 62 77 63 78 64 79 65 80 44 81 45 82 53 83 46 84 52 85
REMARK SMILES IDX 47 86 48 87 49 88 50 89 51 90
REMARK H PARENT 72 46 42 57
REMARK Flexibility Score: inf
ROOT
ATOM      1  C   UNL A   1      40.455  21.015  26.652  1.00  0.00     0.188 C 
ENDROOT
BRANCH   1   2
ATOM      2  C   UNL A   1      39.052  21.099  26.021  1.00  0.00     0.188 C 
BRANCH   2   3
ATOM      3  O   UNL A   1      38.613  22.449  25.962  1.00  0.00    -0.376 OA
BRANCH   3   4
ATOM      4  C   UNL A   1      37.376  22.645  25.287  1.00  0.00     0.202 C 
BRANCH   4   5
ATOM      5  C   UNL A   1      36.575  23.897  25.693  1.00  0.00     0.261 C 
BRANCH   5   6
ATOM      6  O   UNL A   1      35.449  24.157  24.854  1.00  0.00    -0.460 OA
BRANCH   6   7
ATOM      7  C   UNL A   1      34.198  24.050  25.398  1.00  0.00     0.340 C 
ATOM      8  O   UNL A   1      33.923  23.944  26.553  1.00  0.00    -0.246 OA
BRANCH   7   9
ATOM      9  C   UNL A   1      33.252  24.289  24.325  1.00  0.00     0.086 A 
ATOM     10  C   UNL A   1      31.215  26.506  21.971  1.00  0.00     0.056 C 
ATOM     11  C   UNL A   1      31.800  25.543  22.960  1.00  0.00     0.004 A 
ATOM     12  C   UNL A   1      32.933  25.588  23.743  1.00  0.00     0.032 A 
ATOM     13  S   UNL A   1      31.002  24.083  23.305  1.00  0.00    -0.131 S 
ATOM     14  C   UNL A   1      32.435  23.265  23.854  1.00  0.00     0.092 A 
BRANCH  14  15
ATOM     15  C   UNL A   1      32.617  21.796  23.926  1.00  0.00    -0.050 C 
ATOM     16  C   UNL A   1      32.716  20.587  24.022  1.00  0.00    -0.061 C 
BRANCH  16  17
ATOM     17  C   UNL A   1      32.796  19.123  24.226  1.00  0.00     0.025 A 
ATOM     18  C   UNL A   1      32.713  18.525  25.484  1.00  0.00     0.017 A 
ATOM     19  C   UNL A   1      32.989  18.238  23.153  1.00  0.00     0.017 A 
ATOM     20  C   UNL A   1      32.864  17.125  25.639  1.00  0.00     0.001 A 
ATOM     21  C   UNL A   1      33.281  16.873  23.306  1.00  0.00     0.001 A 
ATOM     22  C   UNL A   1      33.201  16.306  24.561  1.00  0.00     0.000 A 
ENDBRANCH  16  17
ENDBRANCH  14  15
ENDBRANCH   7   9
ENDBRANCH   6   7
ENDBRANCH   5   6
ENDBRANCH   4   5
ENDBRANCH   3   4
ENDBRANCH   2   3
ENDBRANCH   1   2
BRANCH   1  23
ATOM     23  O   UNL A   1      41.613  20.985  25.831  1.00  0.00    -0.376 OA
BRANCH  23  24
ATOM     24  C   UNL A   1      42.373  22.169  25.807  1.00  0.00     0.202 C 
BRANCH  24  25
ATOM     25  C   UNL A   1      43.836  22.079  26.299  1.00  0.00     0.261 C 
BRANCH  25  26
ATOM     26  O   UNL A   1      44.627  23.307  26.261  1.00  0.00    -0.460 OA
BRANCH  26  27
ATOM     27  C   UNL A   1      44.554  24.102  25.149  1.00  0.00     0.338 C 
ATOM     28  O   UNL A   1      44.782  23.729  24.009  1.00  0.00    -0.246 OA
BRANCH  27  29
ATOM     29  C   UNL A   1      44.013  25.484  25.463  1.00  0.00     0.060 A 
ATOM     30  C   UNL A   1      44.779  26.500  26.005  1.00  0.00     0.016 A 
ATOM     31  C   UNL A   1      42.666  25.808  25.217  1.00  0.00     0.016 A 
ATOM     32  C   UNL A   1      44.148  27.699  26.448  1.00  0.00     0.010 A 
ATOM     33  C   UNL A   1      42.044  26.992  25.771  1.00  0.00     0.010 A 
ATOM     34  C   UNL A   1      42.762  27.889  26.566  1.00  0.00    -0.014 A 
BRANCH  34  35
ATOM     35  C   UNL A   1      42.251  29.017  27.503  1.00  0.00     0.031 A 
ATOM     36  C   UNL A   1      43.260  30.057  27.856  1.00  0.00     0.074 A 
ATOM     37  C   UNL A   1      41.106  29.217  28.242  1.00  0.00     0.049 A 
ATOM     38  N   UNL A   1      43.621  30.404  29.056  1.00  0.00    -0.248 NA
ATOM     39  C   UNL A   1      44.001  30.710  26.777  1.00  0.00     0.031 C 
ATOM     40  C   UNL A   1      39.995  28.313  28.422  1.00  0.00     0.029 A 
ATOM     41  N   UNL A   1      40.661  30.247  29.072  1.00  0.00    -0.354 N 
ATOM     42  C   UNL A   1      44.524  31.438  28.894  1.00  0.00     0.074 A 
ATOM     43  C   UNL A   1      44.803  31.513  27.475  1.00  0.00     0.031 C 
ATOM     44  C   UNL A   1      38.890  28.892  28.909  1.00  0.00     0.029 A 
ATOM     45  C   UNL A   1      39.298  30.198  29.368  1.00  0.00     0.049 A 
ATOM     46  H   UNL A   1      41.258  30.950  29.419  1.00  0.00     0.167 HD
ATOM     47  C   UNL A   1      44.843  32.315  29.885  1.00  0.00     0.031 A 
ATOM     48  C   UNL A   1      38.450  30.862  30.190  1.00  0.00     0.031 A 
ATOM     49  C   UNL A   1      44.597  31.898  31.243  1.00  0.00     0.049 A 
ATOM     50  C   UNL A   1      39.194  31.439  31.311  1.00  0.00     0.074 A 
ATOM     51  C   UNL A   1      45.320  31.748  32.411  1.00  0.00     0.029 A 
ATOM     52  N   UNL A   1      43.336  31.473  31.536  1.00  0.00    -0.354 N 
ATOM     53  N   UNL A   1      39.615  30.743  32.334  1.00  0.00    -0.248 NA
ATOM     54  C   UNL A   1      39.775  32.763  31.144  1.00  0.00     0.031 C 
ATOM     55  C   UNL A   1      44.428  31.265  33.418  1.00  0.00     0.029 A 
ATOM     56  C   UNL A   1      43.160  31.206  32.870  1.00  0.00     0.049 A 
ATOM     57  H   UNL A   1      42.626  31.368  30.861  1.00  0.00     0.167 HD
ATOM     58  C   UNL A   1      40.772  31.388  32.714  1.00  0.00     0.074 A 
ATOM     59  C   UNL A   1      40.771  32.675  32.024  1.00  0.00     0.031 C 
ATOM     60  C   UNL A   1      41.845  30.758  33.269  1.00  0.00     0.031 A 
BRANCH  47  61
ATOM     61  C   UNL A   1      45.093  33.764  29.550  1.00  0.00    -0.014 A 
ATOM     62  C   UNL A   1      46.407  34.286  29.545  1.00  0.00     0.010 A 
ATOM     63  C   UNL A   1      44.087  34.566  28.983  1.00  0.00     0.010 A 
ATOM     64  C   UNL A   1      46.698  35.564  29.079  1.00  0.00     0.020 A 
ATOM     65  C   UNL A   1      44.377  35.838  28.467  1.00  0.00     0.020 A 
ATOM     66  C   UNL A   1      45.679  36.334  28.535  1.00  0.00     0.054 A 
BRANCH  66  67
ATOM     67  S   UNL A   1      46.116  37.949  27.852  1.00  0.00     0.124 S 
ATOM     68  O   UNL A   1      45.206  38.047  26.712  1.00  0.00    -0.237 OA
ATOM     69  O   UNL A   1      45.829  38.852  28.964  1.00  0.00    -0.237 OA
ATOM     70  O   UNL A   1      47.529  37.808  27.511  1.00  0.00    -0.744 OA
ENDBRANCH  66  67
ENDBRANCH  47  61
BRANCH  48  71
ATOM     71  C   UNL A   1      37.047  31.196  29.798  1.00  0.00    -0.014 A 
ATOM     72  C   UNL A   1      36.721  31.363  28.432  1.00  0.00     0.010 A 
ATOM     73  C   UNL A   1      36.105  31.631  30.745  1.00  0.00     0.010 A 
ATOM     74  C   UNL A   1      35.621  32.108  28.026  1.00  0.00     0.020 A 
ATOM     75  C   UNL A   1      34.991  32.391  30.343  1.00  0.00     0.020 A 
ATOM     76  C   UNL A   1      34.809  32.686  28.990  1.00  0.00     0.054 A 
BRANCH  76  77
ATOM     77  S   UNL A   1      33.645  33.958  28.436  1.00  0.00     0.124 S 
ATOM     78  O   UNL A   1      34.531  34.885  27.736  1.00  0.00    -0.237 OA
ATOM     79  O   UNL A   1      32.731  33.204  27.581  1.00  0.00    -0.237 OA
ATOM     80  O   UNL A   1      33.065  34.460  29.677  1.00  0.00    -0.744 OA
ENDBRANCH  76  77
ENDBRANCH  48  71
BRANCH  60  81
ATOM     81  C   UNL A   1      41.710  29.525  34.109  1.00  0.00    -0.014 A 
ATOM     82  C   UNL A   1      41.893  29.683  35.496  1.00  0.00     0.010 A 
ATOM     83  C   UNL A   1      41.522  28.226  33.608  1.00  0.00     0.010 A 
ATOM     84  C   UNL A   1      41.963  28.584  36.352  1.00  0.00     0.020 A 
ATOM     85  C   UNL A   1      41.567  27.113  34.470  1.00  0.00     0.020 A 
ATOM     86  C   UNL A   1      41.821  27.299  35.832  1.00  0.00     0.054 A 
BRANCH  86  87
ATOM     87  S   UNL A   1      41.987  25.899  36.975  1.00  0.00     0.124 S 
ATOM     88  O   UNL A   1      42.664  24.902  36.147  1.00  0.00    -0.237 OA
ATOM     89  O   UNL A   1      42.798  26.458  38.056  1.00  0.00    -0.237 OA
ATOM     90  O   UNL A   1      40.614  25.570  37.349  1.00  0.00    -0.744 OA
ENDBRANCH  86  87
ENDBRANCH  60  81
ENDBRANCH  34  35
ENDBRANCH  27  29
ENDBRANCH  26  27
ENDBRANCH  25  26
ENDBRANCH  24  25
ENDBRANCH  23  24
ENDBRANCH   1  23
TORSDOF 22
ENDMDL
