MODEL 1
REMARK VINA RESULT:     -10.4      0.000      0.000
REMARK SMILES CS(=O)(=O)c1ccc(/C=C(/C(=O)OCCOCCOCCOC(=O)c2ccc(-c3c4nc(c(-c5ccc(S(=O)(=O)[O-])cc5)c5ccc([nH]5)c(-c5ccc(S(=O)(=O)[O-])cc5)c5nc(c(-c6ccc(S(=O)(=O)[O-])cc6)c6ccc3[nH]6)C=C5)C=C4)cc2)c2ccc(O)cc2)cc1
REMARK SMILES IDX 18 1 17 2 16 3 15 4 14 5 13 6 11 7 12 8 10 9 9 10 8 11 5 12
REMARK SMILES IDX 6 13 93 14 7 15 92 16 2 17 1 18 3 19 4 20 85 21 86 22 91 23
REMARK SMILES IDX 87 24 90 25 88 26 89 27 19 29 20 30 21 31 22 32 23 33 24 34
REMARK SMILES IDX 25 35 26 36 84 37 27 38 83 39 28 40 29 41 30 42 77 43 31 44
REMARK SMILES IDX 82 45 76 46 78 47 32 48 81 49 75 50 74 51 33 53 63 54 44 55
REMARK SMILES IDX 62 56 45 57 48 58 61 59 79 60 46 61 47 62 60 64 80 65 49 66
REMARK SMILES IDX 34 67 35 68 43 69 36 70 42 71 37 72 38 73 39 74 40 75 41 76
REMARK SMILES IDX 64 77 65 78 73 79 66 80 72 81 67 82 68 83 69 84 70 85 71 86
REMARK SMILES IDX 50 87 51 88 59 89 52 90 58 91 53 92 54 93 55 94 56 95 57 96
REMARK H PARENT 89 28 78 52 48 63
REMARK Flexibility Score: inf
ROOT
ATOM      1  C   UNL A   1      32.288  29.097  25.560  1.00  0.00     0.188 C 
ENDROOT
BRANCH   1   2
ATOM      2  C   UNL A   1      32.495  29.344  24.051  1.00  0.00     0.188 C 
BRANCH   2   3
ATOM      3  O   UNL A   1      31.343  29.069  23.272  1.00  0.00    -0.376 OA
BRANCH   3   4
ATOM      4  C   UNL A   1      30.460  28.102  23.819  1.00  0.00     0.202 C 
BRANCH   4   5
ATOM      5  C   UNL A   1      30.580  26.665  23.280  1.00  0.00     0.261 C 
BRANCH   5   6
ATOM      6  O   UNL A   1      31.459  25.783  24.004  1.00  0.00    -0.460 OA
BRANCH   6   7
ATOM      7  C   UNL A   1      32.661  25.481  23.451  1.00  0.00     0.338 C 
ATOM      8  O   UNL A   1      33.359  26.269  22.832  1.00  0.00    -0.246 OA
BRANCH   7   9
ATOM      9  C   UNL A   1      33.077  24.072  23.797  1.00  0.00     0.067 C 
ATOM     10  C   UNL A   1      32.138  23.098  23.911  1.00  0.00     0.024 C 
BRANCH  10  11
ATOM     11  C   UNL A   1      32.328  21.637  24.117  1.00  0.00    -0.025 A 
ATOM     12  C   UNL A   1      33.100  18.933  24.244  1.00  0.00     0.067 A 
ATOM     13  C   UNL A   1      33.124  19.712  25.397  1.00  0.00     0.021 A 
ATOM     14  C   UNL A   1      32.569  19.449  23.062  1.00  0.00     0.021 A 
ATOM     15  C   UNL A   1      32.702  21.046  25.334  1.00  0.00     0.009 A 
ATOM     16  C   UNL A   1      32.183  20.794  23.003  1.00  0.00     0.009 A 
BRANCH  12  17
ATOM     17  S   UNL A   1      33.816  17.306  24.248  1.00  0.00     0.175 S 
ATOM     18  C   UNL A   1      33.059  16.466  25.619  1.00  0.00     0.163 C 
ATOM     19  O   UNL A   1      35.223  17.455  24.576  1.00  0.00    -0.224 OA
ATOM     20  O   UNL A   1      33.402  16.656  23.021  1.00  0.00    -0.224 OA
ENDBRANCH  12  17
ENDBRANCH  10  11
BRANCH   9  21
ATOM     21  C   UNL A   1      34.515  23.805  24.025  1.00  0.00    -0.011 A 
ATOM     22  C   UNL A   1      35.069  24.064  25.290  1.00  0.00     0.013 A 
ATOM     23  C   UNL A   1      35.293  23.137  23.068  1.00  0.00     0.013 A 
ATOM     24  C   UNL A   1      36.346  23.607  25.614  1.00  0.00     0.047 A 
ATOM     25  C   UNL A   1      36.570  22.670  23.398  1.00  0.00     0.047 A 
ATOM     26  C   UNL A   1      37.074  22.891  24.675  1.00  0.00     0.115 A 
BRANCH  26  27
ATOM     27  O   UNL A   1      38.275  22.390  25.069  1.00  0.00    -0.508 OA
ATOM     28  H   UNL A   1      39.056  22.892  24.950  1.00  0.00     0.293 HD
ENDBRANCH  26  27
ENDBRANCH   9  21
ENDBRANCH   7   9
ENDBRANCH   6   7
ENDBRANCH   5   6
ENDBRANCH   4   5
ENDBRANCH   3   4
ENDBRANCH   2   3
ENDBRANCH   1   2
BRANCH   1  29
ATOM     29  O   UNL A   1      32.436  30.159  26.491  1.00  0.00    -0.376 OA
BRANCH  29  30
ATOM     30  C   UNL A   1      31.568  31.277  26.403  1.00  0.00     0.202 C 
BRANCH  30  31
ATOM     31  C   UNL A   1      31.973  32.637  27.003  1.00  0.00     0.261 C 
BRANCH  31  32
ATOM     32  O   UNL A   1      33.228  32.695  27.703  1.00  0.00    -0.460 OA
BRANCH  32  33
ATOM     33  C   UNL A   1      33.445  33.812  28.440  1.00  0.00     0.338 C 
ATOM     34  O   UNL A   1      32.761  34.828  28.451  1.00  0.00    -0.246 OA
BRANCH  33  35
ATOM     35  C   UNL A   1      34.543  33.569  29.403  1.00  0.00     0.060 A 
ATOM     36  C   UNL A   1      35.818  34.081  29.116  1.00  0.00     0.016 A 
ATOM     37  C   UNL A   1      34.336  32.809  30.555  1.00  0.00     0.016 A 
ATOM     38  C   UNL A   1      36.890  33.827  29.973  1.00  0.00     0.010 A 
ATOM     39  C   UNL A   1      35.420  32.528  31.396  1.00  0.00     0.010 A 
ATOM     40  C   UNL A   1      36.706  33.017  31.099  1.00  0.00    -0.014 A 
BRANCH  40  41
ATOM     41  C   UNL A   1      37.883  32.520  31.856  1.00  0.00     0.031 A 
ATOM     42  C   UNL A   1      38.671  31.374  31.280  1.00  0.00     0.074 A 
ATOM     43  C   UNL A   1      38.255  33.068  33.027  1.00  0.00     0.049 A 
ATOM     44  N   UNL A   1      39.685  30.724  31.791  1.00  0.00    -0.248 NA
ATOM     45  C   UNL A   1      38.257  30.897  29.951  1.00  0.00     0.031 C 
ATOM     46  C   UNL A   1      37.619  34.220  33.664  1.00  0.00     0.029 A 
ATOM     47  N   UNL A   1      39.262  32.718  33.893  1.00  0.00    -0.354 N 
ATOM     48  C   UNL A   1      40.023  29.755  30.853  1.00  0.00     0.074 A 
ATOM     49  C   UNL A   1      39.093  29.889  29.753  1.00  0.00     0.031 C 
ATOM     50  C   UNL A   1      38.247  34.476  34.826  1.00  0.00     0.029 A 
ATOM     51  C   UNL A   1      39.297  33.479  35.038  1.00  0.00     0.049 A 
ATOM     52  H   UNL A   1      39.899  31.990  33.712  1.00  0.00     0.167 HD
ATOM     53  C   UNL A   1      41.014  28.833  30.904  1.00  0.00     0.031 A 
ATOM     54  C   UNL A   1      40.064  33.366  36.142  1.00  0.00     0.031 A 
ATOM     55  C   UNL A   1      41.918  28.680  32.012  1.00  0.00     0.049 A 
ATOM     56  C   UNL A   1      41.096  32.266  36.219  1.00  0.00     0.074 A 
ATOM     57  C   UNL A   1      42.955  27.773  32.156  1.00  0.00     0.029 A 
ATOM     58  N   UNL A   1      41.890  29.440  33.171  1.00  0.00    -0.354 N 
ATOM     59  N   UNL A   1      41.415  31.365  35.320  1.00  0.00    -0.248 NA
ATOM     60  C   UNL A   1      41.876  32.171  37.463  1.00  0.00     0.031 C 
ATOM     61  C   UNL A   1      43.507  27.939  33.428  1.00  0.00     0.029 A 
ATOM     62  C   UNL A   1      42.869  29.002  34.048  1.00  0.00     0.049 A 
ATOM     63  H   UNL A   1      41.267  30.181  33.346  1.00  0.00     0.167 HD
ATOM     64  C   UNL A   1      42.454  30.622  35.875  1.00  0.00     0.074 A 
ATOM     65  C   UNL A   1      42.718  31.185  37.183  1.00  0.00     0.031 C 
ATOM     66  C   UNL A   1      43.131  29.572  35.346  1.00  0.00     0.031 A 
BRANCH  53  67
ATOM     67  C   UNL A   1      41.135  27.881  29.744  1.00  0.00    -0.014 A 
ATOM     68  C   UNL A   1      40.181  26.872  29.521  1.00  0.00     0.010 A 
ATOM     69  C   UNL A   1      42.207  28.020  28.843  1.00  0.00     0.010 A 
ATOM     70  C   UNL A   1      40.318  25.995  28.441  1.00  0.00     0.020 A 
ATOM     71  C   UNL A   1      42.331  27.165  27.745  1.00  0.00     0.020 A 
ATOM     72  C   UNL A   1      41.394  26.147  27.560  1.00  0.00     0.054 A 
BRANCH  72  73
ATOM     73  S   UNL A   1      41.535  25.009  26.155  1.00  0.00     0.124 S 
ATOM     74  O   UNL A   1      41.524  25.929  25.021  1.00  0.00    -0.237 OA
ATOM     75  O   UNL A   1      42.809  24.343  26.412  1.00  0.00    -0.237 OA
ATOM     76  O   UNL A   1      40.354  24.158  26.277  1.00  0.00    -0.744 OA
ENDBRANCH  72  73
ENDBRANCH  53  67
BRANCH  54  77
ATOM     77  C   UNL A   1      39.870  34.297  37.290  1.00  0.00    -0.014 A 
ATOM     78  C   UNL A   1      40.499  35.554  37.312  1.00  0.00     0.010 A 
ATOM     79  C   UNL A   1      39.067  33.920  38.383  1.00  0.00     0.010 A 
ATOM     80  C   UNL A   1      40.347  36.406  38.411  1.00  0.00     0.020 A 
ATOM     81  C   UNL A   1      38.886  34.782  39.469  1.00  0.00     0.020 A 
ATOM     82  C   UNL A   1      39.537  36.016  39.480  1.00  0.00     0.054 A 
BRANCH  82  83
ATOM     83  S   UNL A   1      39.316  37.160  40.872  1.00  0.00     0.124 S 
ATOM     84  O   UNL A   1      38.545  38.238  40.260  1.00  0.00    -0.237 OA
ATOM     85  O   UNL A   1      38.597  36.338  41.842  1.00  0.00    -0.237 OA
ATOM     86  O   UNL A   1      40.684  37.507  41.252  1.00  0.00    -0.744 OA
ENDBRANCH  82  83
ENDBRANCH  54  77
BRANCH  66  87
ATOM     87  C   UNL A   1      44.265  28.985  36.151  1.00  0.00    -0.014 A 
ATOM     88  C   UNL A   1      45.567  29.513  36.089  1.00  0.00     0.010 A 
ATOM     89  C   UNL A   1      44.002  27.925  37.039  1.00  0.00     0.010 A 
ATOM     90  C   UNL A   1      46.589  28.972  36.877  1.00  0.00     0.020 A 
ATOM     91  C   UNL A   1      45.012  27.404  37.852  1.00  0.00     0.020 A 
ATOM     92  C   UNL A   1      46.303  27.922  37.756  1.00  0.00     0.054 A 
BRANCH  92  93
ATOM     93  S   UNL A   1      47.636  27.271  38.802  1.00  0.00     0.124 S 
ATOM     94  O   UNL A   1      47.030  26.061  39.350  1.00  0.00    -0.237 OA
ATOM     95  O   UNL A   1      48.717  27.054  37.843  1.00  0.00    -0.237 OA
ATOM     96  O   UNL A   1      47.874  28.340  39.768  1.00  0.00    -0.744 OA
ENDBRANCH  92  93
ENDBRANCH  66  87
ENDBRANCH  40  41
ENDBRANCH  33  35
ENDBRANCH  32  33
ENDBRANCH  31  32
ENDBRANCH  30  31
ENDBRANCH  29  30
ENDBRANCH   1  29
TORSDOF 24
ENDMDL
MODEL 2
REMARK VINA RESULT:     -10.4      6.005     10.366
REMARK SMILES CS(=O)(=O)c1ccc(/C=C(/C(=O)OCCOCCOCCOC(=O)c2ccc(-c3c4nc(c(-c5ccc(S(=O)(=O)[O-])cc5)c5ccc([nH]5)c(-c5ccc(S(=O)(=O)[O-])cc5)c5nc(c(-c6ccc(S(=O)(=O)[O-])cc6)c6ccc3[nH]6)C=C5)C=C4)cc2)c2ccc(O)cc2)cc1
REMARK SMILES IDX 18 1 17 2 16 3 15 4 14 5 13 6 11 7 12 8 10 9 9 10 8 11 5 12
REMARK SMILES IDX 6 13 93 14 7 15 92 16 2 17 1 18 3 19 4 20 85 21 86 22 91 23
REMARK SMILES IDX 87 24 90 25 88 26 89 27 19 29 20 30 21 31 22 32 23 33 24 34
REMARK SMILES IDX 25 35 26 36 84 37 27 38 83 39 28 40 29 41 30 42 77 43 31 44
REMARK SMILES IDX 82 45 76 46 78 47 32 48 81 49 75 50 74 51 33 53 63 54 44 55
REMARK SMILES IDX 62 56 45 57 48 58 61 59 79 60 46 61 47 62 60 64 80 65 49 66
REMARK SMILES IDX 34 67 35 68 43 69 36 70 42 71 37 72 38 73 39 74 40 75 41 76
REMARK SMILES IDX 64 77 65 78 73 79 66 80 72 81 67 82 68 83 69 84 70 85 71 86
REMARK SMILES IDX 50 87 51 88 59 89 52 90 58 91 53 92 54 93 55 94 56 95 57 96
REMARK H PARENT 89 28 78 52 48 63
REMARK Flexibility Score: inf
ROOT
ATOM      1  C   UNL A   1      33.342  28.635  25.966  1.00  0.00     0.188 C 
ENDROOT
BRANCH   1   2
ATOM      2  C   UNL A   1      33.128  29.339  24.609  1.00  0.00     0.188 C 
BRANCH   2   3
ATOM      3  O   UNL A   1      31.785  29.297  24.158  1.00  0.00    -0.376 OA
BRANCH   3   4
ATOM      4  C   UNL A   1      31.001  28.240  24.691  1.00  0.00     0.202 C 
BRANCH   4   5
ATOM      5  C   UNL A   1      30.695  27.058  23.753  1.00  0.00     0.261 C 
BRANCH   5   6
ATOM      6  O   UNL A   1      31.325  25.804  24.079  1.00  0.00    -0.460 OA
BRANCH   6   7
ATOM      7  C   UNL A   1      32.527  25.526  23.514  1.00  0.00     0.338 C 
ATOM      8  O   UNL A   1      33.181  26.314  22.849  1.00  0.00    -0.246 OA
BRANCH   7   9
ATOM      9  C   UNL A   1      33.004  24.150  23.907  1.00  0.00     0.067 C 
ATOM     10  C   UNL A   1      32.107  23.141  24.063  1.00  0.00     0.024 C 
BRANCH  10  11
ATOM     11  C   UNL A   1      32.360  21.698  24.320  1.00  0.00    -0.025 A 
ATOM     12  C   UNL A   1      33.238  19.032  24.528  1.00  0.00     0.067 A 
ATOM     13  C   UNL A   1      33.270  19.858  25.648  1.00  0.00     0.021 A 
ATOM     14  C   UNL A   1      32.649  19.480  23.344  1.00  0.00     0.021 A 
ATOM     15  C   UNL A   1      32.795  21.171  25.546  1.00  0.00     0.009 A 
ATOM     16  C   UNL A   1      32.211  20.805  23.246  1.00  0.00     0.009 A 
BRANCH  12  17
ATOM     17  S   UNL A   1      34.015  17.434  24.571  1.00  0.00     0.175 S 
ATOM     18  C   UNL A   1      33.722  16.727  22.967  1.00  0.00     0.163 C 
ATOM     19  O   UNL A   1      33.279  16.623  25.525  1.00  0.00    -0.224 OA
ATOM     20  O   UNL A   1      35.439  17.657  24.726  1.00  0.00    -0.224 OA
ENDBRANCH  12  17
ENDBRANCH  10  11
BRANCH   9  21
ATOM     21  C   UNL A   1      34.453  23.951  24.134  1.00  0.00    -0.011 A 
ATOM     22  C   UNL A   1      35.007  24.298  25.377  1.00  0.00     0.013 A 
ATOM     23  C   UNL A   1      35.249  23.264  23.205  1.00  0.00     0.013 A 
ATOM     24  C   UNL A   1      36.304  23.908  25.711  1.00  0.00     0.047 A 
ATOM     25  C   UNL A   1      36.546  22.865  23.545  1.00  0.00     0.047 A 
ATOM     26  C   UNL A   1      37.052  23.173  24.803  1.00  0.00     0.115 A 
BRANCH  26  27
ATOM     27  O   UNL A   1      38.275  22.740  25.211  1.00  0.00    -0.508 OA
ATOM     28  H   UNL A   1      38.622  23.023  26.034  1.00  0.00     0.293 HD
ENDBRANCH  26  27
ENDBRANCH   9  21
ENDBRANCH   7   9
ENDBRANCH   6   7
ENDBRANCH   5   6
ENDBRANCH   4   5
ENDBRANCH   3   4
ENDBRANCH   2   3
ENDBRANCH   1   2
BRANCH   1  29
ATOM     29  O   UNL A   1      33.957  29.323  27.045  1.00  0.00    -0.376 OA
BRANCH  29  30
ATOM     30  C   UNL A   1      33.557  30.654  27.330  1.00  0.00     0.202 C 
BRANCH  30  31
ATOM     31  C   UNL A   1      34.521  31.632  28.029  1.00  0.00     0.261 C 
BRANCH  31  32
ATOM     32  O   UNL A   1      35.922  31.308  27.993  1.00  0.00    -0.460 OA
BRANCH  32  33
ATOM     33  C   UNL A   1      36.494  31.017  29.186  1.00  0.00     0.338 C 
ATOM     34  O   UNL A   1      36.004  31.186  30.296  1.00  0.00    -0.246 OA
BRANCH  33  35
ATOM     35  C   UNL A   1      37.753  30.270  28.967  1.00  0.00     0.060 A 
ATOM     36  C   UNL A   1      38.594  30.028  30.064  1.00  0.00     0.016 A 
ATOM     37  C   UNL A   1      38.127  29.848  27.691  1.00  0.00     0.016 A 
ATOM     38  C   UNL A   1      39.815  29.374  29.887  1.00  0.00     0.010 A 
ATOM     39  C   UNL A   1      39.367  29.221  27.511  1.00  0.00     0.010 A 
ATOM     40  C   UNL A   1      40.226  29.000  28.603  1.00  0.00    -0.014 A 
BRANCH  40  41
ATOM     41  C   UNL A   1      41.626  28.559  28.371  1.00  0.00     0.031 A 
ATOM     42  C   UNL A   1      42.719  29.592  28.426  1.00  0.00     0.074 A 
ATOM     43  C   UNL A   1      41.929  27.273  28.120  1.00  0.00     0.049 A 
ATOM     44  N   UNL A   1      43.998  29.460  28.184  1.00  0.00    -0.248 NA
ATOM     45  C   UNL A   1      42.313  30.955  28.803  1.00  0.00     0.031 C 
ATOM     46  C   UNL A   1      40.977  26.164  28.100  1.00  0.00     0.029 A 
ATOM     47  N   UNL A   1      43.136  26.685  27.825  1.00  0.00    -0.354 N 
ATOM     48  C   UNL A   1      44.548  30.724  28.367  1.00  0.00     0.074 A 
ATOM     49  C   UNL A   1      43.460  31.612  28.720  1.00  0.00     0.031 C 
ATOM     50  C   UNL A   1      41.635  25.030  27.799  1.00  0.00     0.029 A 
ATOM     51  C   UNL A   1      43.045  25.339  27.559  1.00  0.00     0.049 A 
ATOM     52  H   UNL A   1      43.985  27.181  27.806  1.00  0.00     0.167 HD
ATOM     53  C   UNL A   1      45.839  31.113  28.249  1.00  0.00     0.031 A 
ATOM     54  C   UNL A   1      43.983  24.464  27.140  1.00  0.00     0.031 A 
ATOM     55  C   UNL A   1      46.915  30.237  27.867  1.00  0.00     0.049 A 
ATOM     56  C   UNL A   1      45.398  24.943  26.917  1.00  0.00     0.074 A 
ATOM     57  C   UNL A   1      48.258  30.540  27.719  1.00  0.00     0.029 A 
ATOM     58  N   UNL A   1      46.773  28.892  27.562  1.00  0.00    -0.354 N 
ATOM     59  N   UNL A   1      45.907  26.137  27.106  1.00  0.00    -0.248 NA
ATOM     60  C   UNL A   1      46.366  23.951  26.424  1.00  0.00     0.031 C 
ATOM     61  C   UNL A   1      48.915  29.397  27.257  1.00  0.00     0.029 A 
ATOM     62  C   UNL A   1      47.998  28.360  27.194  1.00  0.00     0.049 A 
ATOM     63  H   UNL A   1      45.928  28.390  27.600  1.00  0.00     0.167 HD
ATOM     64  C   UNL A   1      47.260  26.030  26.792  1.00  0.00     0.074 A 
ATOM     65  C   UNL A   1      47.492  24.652  26.410  1.00  0.00     0.031 C 
ATOM     66  C   UNL A   1      48.223  26.984  26.822  1.00  0.00     0.031 A 
BRANCH  53  67
ATOM     67  C   UNL A   1      46.150  32.568  28.483  1.00  0.00    -0.014 A 
ATOM     68  C   UNL A   1      46.309  33.465  27.411  1.00  0.00     0.010 A 
ATOM     69  C   UNL A   1      46.252  33.050  29.800  1.00  0.00     0.010 A 
ATOM     70  C   UNL A   1      46.604  34.810  27.653  1.00  0.00     0.020 A 
ATOM     71  C   UNL A   1      46.516  34.400  30.047  1.00  0.00     0.020 A 
ATOM     72  C   UNL A   1      46.706  35.269  28.971  1.00  0.00     0.054 A 
BRANCH  72  73
ATOM     73  S   UNL A   1      47.069  37.023  29.255  1.00  0.00     0.124 S 
ATOM     74  O   UNL A   1      45.793  37.651  28.917  1.00  0.00    -0.237 OA
ATOM     75  O   UNL A   1      47.426  37.049  30.671  1.00  0.00    -0.237 OA
ATOM     76  O   UNL A   1      48.165  37.306  28.333  1.00  0.00    -0.744 OA
ENDBRANCH  72  73
ENDBRANCH  53  67
BRANCH  54  77
ATOM     77  C   UNL A   1      43.617  23.045  26.866  1.00  0.00    -0.014 A 
ATOM     78  C   UNL A   1      42.832  22.316  27.777  1.00  0.00     0.010 A 
ATOM     79  C   UNL A   1      44.073  22.406  25.698  1.00  0.00     0.010 A 
ATOM     80  C   UNL A   1      42.527  20.972  27.535  1.00  0.00     0.020 A 
ATOM     81  C   UNL A   1      43.743  21.072  25.436  1.00  0.00     0.020 A 
ATOM     82  C   UNL A   1      42.981  20.360  26.363  1.00  0.00     0.054 A 
BRANCH  82  83
ATOM     83  S   UNL A   1      42.530  18.631  26.049  1.00  0.00     0.124 S 
ATOM     84  O   UNL A   1      42.924  17.982  27.296  1.00  0.00    -0.237 OA
ATOM     85  O   UNL A   1      41.092  18.720  25.809  1.00  0.00    -0.237 OA
ATOM     86  O   UNL A   1      43.330  18.275  24.878  1.00  0.00    -0.744 OA
ENDBRANCH  82  83
ENDBRANCH  54  77
BRANCH  66  87
ATOM     87  C   UNL A   1      49.636  26.575  26.485  1.00  0.00    -0.014 A 
ATOM     88  C   UNL A   1      50.461  25.923  27.419  1.00  0.00     0.010 A 
ATOM     89  C   UNL A   1      50.122  26.787  25.180  1.00  0.00     0.010 A 
ATOM     90  C   UNL A   1      51.752  25.520  27.064  1.00  0.00     0.020 A 
ATOM     91  C   UNL A   1      51.399  26.356  24.812  1.00  0.00     0.020 A 
ATOM     92  C   UNL A   1      52.212  25.737  25.761  1.00  0.00     0.054 A 
BRANCH  92  93
ATOM     93  S   UNL A   1      53.873  25.161  25.313  1.00  0.00     0.124 S 
ATOM     94  O   UNL A   1      53.749  23.715  25.476  1.00  0.00    -0.237 OA
ATOM     95  O   UNL A   1      54.013  25.629  23.936  1.00  0.00    -0.237 OA
ATOM     96  O   UNL A   1      54.744  25.823  26.281  1.00  0.00    -0.744 OA
ENDBRANCH  92  93
ENDBRANCH  66  87
ENDBRANCH  40  41
ENDBRANCH  33  35
ENDBRANCH  32  33
ENDBRANCH  31  32
ENDBRANCH  30  31
ENDBRANCH  29  30
ENDBRANCH   1  29
TORSDOF 24
ENDMDL
MODEL 3
REMARK VINA RESULT:     -10.3      5.492      9.190
REMARK SMILES CS(=O)(=O)c1ccc(/C=C(/C(=O)OCCOCCOCCOC(=O)c2ccc(-c3c4nc(c(-c5ccc(S(=O)(=O)[O-])cc5)c5ccc([nH]5)c(-c5ccc(S(=O)(=O)[O-])cc5)c5nc(c(-c6ccc(S(=O)(=O)[O-])cc6)c6ccc3[nH]6)C=C5)C=C4)cc2)c2ccc(O)cc2)cc1
REMARK SMILES IDX 18 1 17 2 16 3 15 4 14 5 13 6 11 7 12 8 10 9 9 10 8 11 5 12
REMARK SMILES IDX 6 13 93 14 7 15 92 16 2 17 1 18 3 19 4 20 85 21 86 22 91 23
REMARK SMILES IDX 87 24 90 25 88 26 89 27 19 29 20 30 21 31 22 32 23 33 24 34
REMARK SMILES IDX 25 35 26 36 84 37 27 38 83 39 28 40 29 41 30 42 77 43 31 44
REMARK SMILES IDX 82 45 76 46 78 47 32 48 81 49 75 50 74 51 33 53 63 54 44 55
REMARK SMILES IDX 62 56 45 57 48 58 61 59 79 60 46 61 47 62 60 64 80 65 49 66
REMARK SMILES IDX 34 67 35 68 43 69 36 70 42 71 37 72 38 73 39 74 40 75 41 76
REMARK SMILES IDX 64 77 65 78 73 79 66 80 72 81 67 82 68 83 69 84 70 85 71 86
REMARK SMILES IDX 50 87 51 88 59 89 52 90 58 91 53 92 54 93 55 94 56 95 57 96
REMARK H PARENT 89 28 78 52 48 63
REMARK Flexibility Score: inf
ROOT
ATOM      1  C   UNL A   1      34.302  19.539  24.628  1.00  0.00     0.188 C 
ENDROOT
BRANCH   1   2
ATOM      2  C   UNL A   1      32.950  19.191  25.287  1.00  0.00     0.188 C 
BRANCH   2   3
ATOM      3  O   UNL A   1      31.966  20.197  25.119  1.00  0.00    -0.376 OA
BRANCH   3   4
ATOM      4  C   UNL A   1      32.332  21.487  25.587  1.00  0.00     0.202 C 
BRANCH   4   5
ATOM      5  C   UNL A   1      31.910  22.688  24.723  1.00  0.00     0.261 C 
BRANCH   5   6
ATOM      6  O   UNL A   1      30.812  23.478  25.220  1.00  0.00    -0.460 OA
BRANCH   6   7
ATOM      7  C   UNL A   1      31.085  24.461  26.115  1.00  0.00     0.338 C 
ATOM      8  O   UNL A   1      31.492  24.273  27.250  1.00  0.00    -0.246 OA
BRANCH   7   9
ATOM      9  C   UNL A   1      30.926  25.824  25.487  1.00  0.00     0.067 C 
ATOM     10  C   UNL A   1      30.033  26.005  24.480  1.00  0.00     0.024 C 
BRANCH  10  11
ATOM     11  C   UNL A   1      29.626  27.269  23.809  1.00  0.00    -0.025 A 
ATOM     12  C   UNL A   1      28.655  29.775  22.974  1.00  0.00     0.067 A 
ATOM     13  C   UNL A   1      30.027  29.574  23.097  1.00  0.00     0.021 A 
ATOM     14  C   UNL A   1      27.773  28.705  23.130  1.00  0.00     0.021 A 
ATOM     15  C   UNL A   1      30.504  28.313  23.476  1.00  0.00     0.009 A 
ATOM     16  C   UNL A   1      28.261  27.460  23.543  1.00  0.00     0.009 A 
BRANCH  12  17
ATOM     17  S   UNL A   1      28.012  31.409  22.692  1.00  0.00     0.175 S 
ATOM     18  C   UNL A   1      29.323  32.514  23.160  1.00  0.00     0.163 C 
ATOM     19  O   UNL A   1      26.933  31.616  23.642  1.00  0.00    -0.224 OA
ATOM     20  O   UNL A   1      27.785  31.537  21.267  1.00  0.00    -0.224 OA
ENDBRANCH  12  17
ENDBRANCH  10  11
BRANCH   9  21
ATOM     21  C   UNL A   1      31.780  26.926  25.985  1.00  0.00    -0.011 A 
ATOM     22  C   UNL A   1      33.028  27.155  25.379  1.00  0.00     0.013 A 
ATOM     23  C   UNL A   1      31.302  27.852  26.922  1.00  0.00     0.013 A 
ATOM     24  C   UNL A   1      33.748  28.317  25.654  1.00  0.00     0.047 A 
ATOM     25  C   UNL A   1      32.021  29.022  27.189  1.00  0.00     0.047 A 
ATOM     26  C   UNL A   1      33.227  29.252  26.536  1.00  0.00     0.115 A 
BRANCH  26  27
ATOM     27  O   UNL A   1      33.924  30.408  26.700  1.00  0.00    -0.508 OA
ATOM     28  H   UNL A   1      34.583  30.468  27.362  1.00  0.00     0.293 HD
ENDBRANCH  26  27
ENDBRANCH   9  21
ENDBRANCH   7   9
ENDBRANCH   6   7
ENDBRANCH   5   6
ENDBRANCH   4   5
ENDBRANCH   3   4
ENDBRANCH   2   3
ENDBRANCH   1   2
BRANCH   1  29
ATOM     29  O   UNL A   1      35.313  20.208  25.367  1.00  0.00    -0.376 OA
BRANCH  29  30
ATOM     30  C   UNL A   1      36.256  21.009  24.673  1.00  0.00     0.202 C 
BRANCH  30  31
ATOM     31  C   UNL A   1      37.733  21.042  25.110  1.00  0.00     0.261 C 
BRANCH  31  32
ATOM     32  O   UNL A   1      38.154  22.161  25.909  1.00  0.00    -0.460 OA
BRANCH  32  33
ATOM     33  C   UNL A   1      39.404  22.084  26.426  1.00  0.00     0.338 C 
ATOM     34  O   UNL A   1      40.188  21.149  26.316  1.00  0.00    -0.246 OA
BRANCH  33  35
ATOM     35  C   UNL A   1      39.787  23.392  27.003  1.00  0.00     0.060 A 
ATOM     36  C   UNL A   1      39.182  24.555  26.501  1.00  0.00     0.016 A 
ATOM     37  C   UNL A   1      40.764  23.484  27.995  1.00  0.00     0.016 A 
ATOM     38  C   UNL A   1      39.557  25.810  26.983  1.00  0.00     0.010 A 
ATOM     39  C   UNL A   1      41.162  24.746  28.453  1.00  0.00     0.010 A 
ATOM     40  C   UNL A   1      40.576  25.916  27.935  1.00  0.00    -0.014 A 
BRANCH  40  41
ATOM     41  C   UNL A   1      41.167  27.243  28.247  1.00  0.00     0.031 A 
ATOM     42  C   UNL A   1      42.651  27.424  28.073  1.00  0.00     0.074 A 
ATOM     43  C   UNL A   1      40.411  28.272  28.670  1.00  0.00     0.049 A 
ATOM     44  N   UNL A   1      43.399  28.460  28.350  1.00  0.00    -0.248 NA
ATOM     45  C   UNL A   1      43.388  26.280  27.513  1.00  0.00     0.031 C 
ATOM     46  C   UNL A   1      38.957  28.251  28.822  1.00  0.00     0.029 A 
ATOM     47  N   UNL A   1      40.771  29.539  29.060  1.00  0.00    -0.354 N 
ATOM     48  C   UNL A   1      44.695  28.091  28.011  1.00  0.00     0.074 A 
ATOM     49  C   UNL A   1      44.634  26.729  27.526  1.00  0.00     0.031 C 
ATOM     50  C   UNL A   1      38.549  29.448  29.280  1.00  0.00     0.029 A 
ATOM     51  C   UNL A   1      39.716  30.304  29.500  1.00  0.00     0.049 A 
ATOM     52  H   UNL A   1      41.697  29.869  29.027  1.00  0.00     0.167 HD
ATOM     53  C   UNL A   1      45.835  28.817  28.098  1.00  0.00     0.031 A 
ATOM     54  C   UNL A   1      39.697  31.537  30.047  1.00  0.00     0.031 A 
ATOM     55  C   UNL A   1      45.900  30.160  28.609  1.00  0.00     0.049 A 
ATOM     56  C   UNL A   1      40.994  32.290  30.227  1.00  0.00     0.074 A 
ATOM     57  C   UNL A   1      47.011  30.977  28.737  1.00  0.00     0.029 A 
ATOM     58  N   UNL A   1      44.817  30.881  29.087  1.00  0.00    -0.354 N 
ATOM     59  N   UNL A   1      42.210  31.935  29.889  1.00  0.00    -0.248 NA
ATOM     60  C   UNL A   1      40.911  33.615  30.863  1.00  0.00     0.031 C 
ATOM     61  C   UNL A   1      46.610  32.164  29.357  1.00  0.00     0.029 A 
ATOM     62  C   UNL A   1      45.237  32.120  29.542  1.00  0.00     0.049 A 
ATOM     63  H   UNL A   1      43.887  30.560  29.102  1.00  0.00     0.167 HD
ATOM     64  C   UNL A   1      43.031  33.005  30.237  1.00  0.00     0.074 A 
ATOM     65  C   UNL A   1      42.171  34.024  30.802  1.00  0.00     0.031 C 
ATOM     66  C   UNL A   1      44.374  33.134  30.096  1.00  0.00     0.031 A 
BRANCH  53  67
ATOM     67  C   UNL A   1      47.117  28.148  27.678  1.00  0.00    -0.014 A 
ATOM     68  C   UNL A   1      47.629  28.296  26.375  1.00  0.00     0.010 A 
ATOM     69  C   UNL A   1      47.838  27.384  28.613  1.00  0.00     0.010 A 
ATOM     70  C   UNL A   1      48.818  27.660  26.006  1.00  0.00     0.020 A 
ATOM     71  C   UNL A   1      49.043  26.771  28.257  1.00  0.00     0.020 A 
ATOM     72  C   UNL A   1      49.517  26.901  26.950  1.00  0.00     0.054 A 
BRANCH  72  73
ATOM     73  S   UNL A   1      51.067  26.105  26.450  1.00  0.00     0.124 S 
ATOM     74  O   UNL A   1      50.949  24.793  27.082  1.00  0.00    -0.237 OA
ATOM     75  O   UNL A   1      50.972  26.110  24.993  1.00  0.00    -0.237 OA
ATOM     76  O   UNL A   1      52.100  26.973  27.008  1.00  0.00    -0.744 OA
ENDBRANCH  72  73
ENDBRANCH  53  67
BRANCH  54  77
ATOM     77  C   UNL A   1      38.409  32.137  30.500  1.00  0.00    -0.014 A 
ATOM     78  C   UNL A   1      37.727  33.068  29.697  1.00  0.00     0.010 A 
ATOM     79  C   UNL A   1      37.867  31.794  31.752  1.00  0.00     0.010 A 
ATOM     80  C   UNL A   1      36.541  33.659  30.146  1.00  0.00     0.020 A 
ATOM     81  C   UNL A   1      36.665  32.358  32.191  1.00  0.00     0.020 A 
ATOM     82  C   UNL A   1      36.015  33.297  31.388  1.00  0.00     0.054 A 
BRANCH  82  83
ATOM     83  S   UNL A   1      34.450  34.040  31.926  1.00  0.00     0.124 S 
ATOM     84  O   UNL A   1      33.709  34.132  30.672  1.00  0.00    -0.237 OA
ATOM     85  O   UNL A   1      33.950  33.059  32.887  1.00  0.00    -0.237 OA
ATOM     86  O   UNL A   1      34.858  35.318  32.507  1.00  0.00    -0.744 OA
ENDBRANCH  82  83
ENDBRANCH  54  77
BRANCH  66  87
ATOM     87  C   UNL A   1      45.006  34.441  30.508  1.00  0.00    -0.014 A 
ATOM     88  C   UNL A   1      45.476  34.656  31.816  1.00  0.00     0.010 A 
ATOM     89  C   UNL A   1      45.194  35.448  29.543  1.00  0.00     0.010 A 
ATOM     90  C   UNL A   1      46.093  35.864  32.157  1.00  0.00     0.020 A 
ATOM     91  C   UNL A   1      45.840  36.644  29.871  1.00  0.00     0.020 A 
ATOM     92  C   UNL A   1      46.273  36.850  31.180  1.00  0.00     0.054 A 
BRANCH  92  93
ATOM     93  S   UNL A   1      47.120  38.388  31.637  1.00  0.00     0.124 S 
ATOM     94  O   UNL A   1      46.435  39.372  30.804  1.00  0.00    -0.237 OA
ATOM     95  O   UNL A   1      46.856  38.485  33.071  1.00  0.00    -0.237 OA
ATOM     96  O   UNL A   1      48.515  38.137  31.282  1.00  0.00    -0.744 OA
ENDBRANCH  92  93
ENDBRANCH  66  87
ENDBRANCH  40  41
ENDBRANCH  33  35
ENDBRANCH  32  33
ENDBRANCH  31  32
ENDBRANCH  30  31
ENDBRANCH  29  30
ENDBRANCH   1  29
TORSDOF 24
ENDMDL
