MODEL 1
REMARK VINA RESULT:      -9.1      0.000      0.000
REMARK SMILES O=C(OCCOCCOCCOC(=O)c1cc(OC[C@@H]2Cc3cc(F)ccc3O2)cs1)c1ccc(-c2c3nc(c(-c4ccc(S(=O)(=O)[O-])cc4)c4ccc([nH]4)c(-c4ccc(S(=O)(=O)[O-])cc4)c4nc(c(-c5ccc(S(=O)(=O)[O-])cc5)c5ccc2[nH]5)C=C4)C=C3)cc1
REMARK SMILES IDX 7 1 6 2 5 3 4 4 3 5 2 6 1 7 32 8 33 9 91 10 34 11 90 12
REMARK SMILES IDX 35 13 36 14 37 15 84 16 38 17 89 18 83 19 85 20 39 21 88 22
REMARK SMILES IDX 82 23 81 24 40 26 70 27 51 28 69 29 52 30 55 31 68 32 86 33
REMARK SMILES IDX 53 34 54 35 67 37 87 38 56 39 41 40 42 41 50 42 43 43 49 44
REMARK SMILES IDX 44 45 45 46 46 47 47 48 48 49 71 50 72 51 80 52 73 53 79 54
REMARK SMILES IDX 74 55 75 56 76 57 77 58 78 59 57 60 58 61 66 62 59 63 65 64
REMARK SMILES IDX 60 65 61 66 62 67 63 68 64 69 8 70 9 71 10 72 11 73 12 74
REMARK SMILES IDX 13 75 14 76 15 77 16 78 31 79 17 80 30 81 18 82 19 83 20 84
REMARK SMILES IDX 21 85 29 86 22 87 28 88 23 89 27 90 24 91 26 92 25 93
REMARK H PARENT 85 25 55 36
REMARK Flexibility Score: inf
ROOT
ATOM      1  C   UNL A   1      33.563  34.218  28.363  1.00  0.00     0.188 C 
ENDROOT
BRANCH   1   2
ATOM      2  O   UNL A   1      32.744  34.599  29.478  1.00  0.00    -0.376 OA
BRANCH   2   3
ATOM      3  C   UNL A   1      33.275  35.706  30.205  1.00  0.00     0.202 C 
BRANCH   3   4
ATOM      4  C   UNL A   1      33.505  35.430  31.696  1.00  0.00     0.261 C 
BRANCH   4   5
ATOM      5  O   UNL A   1      34.695  34.674  31.973  1.00  0.00    -0.460 OA
BRANCH   5   6
ATOM      6  C   UNL A   1      34.966  33.360  31.784  1.00  0.00     0.338 C 
ATOM      7  O   UNL A   1      34.036  32.570  31.968  1.00  0.00    -0.246 OA
BRANCH   6   8
ATOM      8  C   UNL A   1      36.294  32.779  31.374  1.00  0.00     0.060 A 
ATOM      9  C   UNL A   1      36.715  33.048  30.052  1.00  0.00     0.016 A 
ATOM     10  C   UNL A   1      37.152  32.014  32.165  1.00  0.00     0.016 A 
ATOM     11  C   UNL A   1      37.947  32.595  29.553  1.00  0.00     0.010 A 
ATOM     12  C   UNL A   1      38.392  31.578  31.679  1.00  0.00     0.010 A 
ATOM     13  C   UNL A   1      38.801  31.860  30.374  1.00  0.00    -0.014 A 
BRANCH  13  14
ATOM     14  C   UNL A   1      40.172  31.485  29.958  1.00  0.00     0.031 A 
ATOM     15  C   UNL A   1      40.477  30.161  29.327  1.00  0.00     0.074 A 
ATOM     16  C   UNL A   1      41.173  32.336  30.244  1.00  0.00     0.049 A 
ATOM     17  N   UNL A   1      41.640  29.629  29.047  1.00  0.00    -0.248 NA
ATOM     18  C   UNL A   1      39.326  29.328  28.963  1.00  0.00     0.031 C 
ATOM     19  C   UNL A   1      40.998  33.664  30.830  1.00  0.00     0.029 A 
ATOM     20  N   UNL A   1      42.529  32.207  30.088  1.00  0.00    -0.354 N 
ATOM     21  C   UNL A   1      41.366  28.367  28.529  1.00  0.00     0.074 A 
ATOM     22  C   UNL A   1      39.931  28.256  28.468  1.00  0.00     0.031 C 
ATOM     23  C   UNL A   1      42.204  34.234  30.976  1.00  0.00     0.029 A 
ATOM     24  C   UNL A   1      43.234  33.300  30.520  1.00  0.00     0.049 A 
ATOM     25  H   UNL A   1      42.954  31.406  29.703  1.00  0.00     0.167 HD
ATOM     26  C   UNL A   1      42.234  27.385  28.179  1.00  0.00     0.031 A 
ATOM     27  C   UNL A   1      44.560  33.537  30.542  1.00  0.00     0.031 A 
ATOM     28  C   UNL A   1      43.664  27.543  28.204  1.00  0.00     0.049 A 
ATOM     29  C   UNL A   1      45.505  32.506  29.999  1.00  0.00     0.074 A 
ATOM     30  C   UNL A   1      44.635  26.620  27.851  1.00  0.00     0.029 A 
ATOM     31  N   UNL A   1      44.326  28.700  28.575  1.00  0.00    -0.354 N 
ATOM     32  N   UNL A   1      45.232  31.298  29.570  1.00  0.00    -0.248 NA
ATOM     33  C   UNL A   1      46.925  32.870  29.914  1.00  0.00     0.031 C 
ATOM     34  C   UNL A   1      45.885  27.198  28.065  1.00  0.00     0.029 A 
ATOM     35  C   UNL A   1      45.689  28.514  28.450  1.00  0.00     0.049 A 
ATOM     36  H   UNL A   1      43.892  29.529  28.881  1.00  0.00     0.167 HD
ATOM     37  C   UNL A   1      46.443  30.762  29.154  1.00  0.00     0.074 A 
ATOM     38  C   UNL A   1      47.449  31.780  29.363  1.00  0.00     0.031 C 
ATOM     39  C   UNL A   1      46.688  29.531  28.647  1.00  0.00     0.031 A 
BRANCH  26  40
ATOM     40  C   UNL A   1      41.718  26.018  27.788  1.00  0.00    -0.014 A 
ATOM     41  C   UNL A   1      41.810  24.973  28.733  1.00  0.00     0.010 A 
ATOM     42  C   UNL A   1      41.305  25.709  26.482  1.00  0.00     0.010 A 
ATOM     43  C   UNL A   1      41.533  23.651  28.377  1.00  0.00     0.020 A 
ATOM     44  C   UNL A   1      40.976  24.391  26.133  1.00  0.00     0.020 A 
ATOM     45  C   UNL A   1      41.107  23.370  27.077  1.00  0.00     0.054 A 
BRANCH  45  46
ATOM     46  S   UNL A   1      40.607  21.671  26.687  1.00  0.00     0.124 S 
ATOM     47  O   UNL A   1      40.625  21.031  27.997  1.00  0.00    -0.237 OA
ATOM     48  O   UNL A   1      39.284  21.866  26.094  1.00  0.00    -0.237 OA
ATOM     49  O   UNL A   1      41.631  21.218  25.749  1.00  0.00    -0.744 OA
ENDBRANCH  45  46
ENDBRANCH  26  40
BRANCH  27  50
ATOM     50  C   UNL A   1      45.020  34.866  31.014  1.00  0.00    -0.014 A 
ATOM     51  C   UNL A   1      45.194  35.926  30.104  1.00  0.00     0.010 A 
ATOM     52  C   UNL A   1      45.460  35.013  32.340  1.00  0.00     0.010 A 
ATOM     53  C   UNL A   1      45.868  37.084  30.497  1.00  0.00     0.020 A 
ATOM     54  C   UNL A   1      46.114  36.179  32.741  1.00  0.00     0.020 A 
ATOM     55  C   UNL A   1      46.348  37.189  31.806  1.00  0.00     0.054 A 
BRANCH  55  56
ATOM     56  S   UNL A   1      47.325  38.646  32.267  1.00  0.00     0.124 S 
ATOM     57  O   UNL A   1      48.680  38.210  31.936  1.00  0.00    -0.237 OA
ATOM     58  O   UNL A   1      46.772  39.689  31.407  1.00  0.00    -0.237 OA
ATOM     59  O   UNL A   1      47.049  38.805  33.692  1.00  0.00    -0.744 OA
ENDBRANCH  55  56
ENDBRANCH  27  50
BRANCH  39  60
ATOM     60  C   UNL A   1      48.092  29.160  28.259  1.00  0.00    -0.014 A 
ATOM     61  C   UNL A   1      48.478  29.255  26.908  1.00  0.00     0.010 A 
ATOM     62  C   UNL A   1      48.939  28.515  29.175  1.00  0.00     0.010 A 
ATOM     63  C   UNL A   1      49.665  28.666  26.468  1.00  0.00     0.020 A 
ATOM     64  C   UNL A   1      50.140  27.945  28.742  1.00  0.00     0.020 A 
ATOM     65  C   UNL A   1      50.479  27.999  27.386  1.00  0.00     0.054 A 
BRANCH  65  66
ATOM     66  S   UNL A   1      51.976  27.172  26.785  1.00  0.00     0.124 S 
ATOM     67  O   UNL A   1      51.834  25.831  27.343  1.00  0.00    -0.237 OA
ATOM     68  O   UNL A   1      51.836  27.269  25.334  1.00  0.00    -0.237 OA
ATOM     69  O   UNL A   1      53.060  27.972  27.351  1.00  0.00    -0.744 OA
ENDBRANCH  65  66
ENDBRANCH  39  60
ENDBRANCH  13  14
ENDBRANCH   6   8
ENDBRANCH   5   6
ENDBRANCH   4   5
ENDBRANCH   3   4
ENDBRANCH   2   3
ENDBRANCH   1   2
BRANCH   1  70
ATOM     70  C   UNL A   1      33.141  32.866  27.798  1.00  0.00     0.188 C 
BRANCH  70  71
ATOM     71  O   UNL A   1      34.219  31.951  27.596  1.00  0.00    -0.376 OA
BRANCH  71  72
ATOM     72  C   UNL A   1      33.980  30.596  27.981  1.00  0.00     0.202 C 
BRANCH  72  73
ATOM     73  C   UNL A   1      34.274  29.555  26.899  1.00  0.00     0.261 C 
BRANCH  73  74
ATOM     74  O   UNL A   1      33.815  28.244  27.250  1.00  0.00    -0.459 OA
BRANCH  74  75
ATOM     75  C   UNL A   1      32.549  27.909  26.862  1.00  0.00     0.348 C 
ATOM     76  O   UNL A   1      31.577  27.836  27.596  1.00  0.00    -0.245 OA
BRANCH  75  77
ATOM     77  C   UNL A   1      32.570  27.672  25.446  1.00  0.00     0.116 A 
ATOM     78  C   UNL A   1      33.223  26.650  24.798  1.00  0.00     0.074 A 
ATOM     79  S   UNL A   1      31.763  28.711  24.363  1.00  0.00    -0.133 S 
ATOM     80  C   UNL A   1      33.127  26.758  23.394  1.00  0.00     0.131 A 
ATOM     81  C   UNL A   1      32.342  27.825  23.015  1.00  0.00     0.112 A 
BRANCH  80  82
ATOM     82  O   UNL A   1      33.693  25.983  22.445  1.00  0.00    -0.489 OA
BRANCH  82  83
ATOM     83  C   UNL A   1      32.876  24.958  21.882  1.00  0.00     0.275 C 
BRANCH  83  84
ATOM     84  C   UNL A   1      33.306  23.505  22.195  1.00  0.00     0.215 C 
ATOM     85  C   UNL A   1      32.454  22.837  23.292  1.00  0.00     0.088 C 
ATOM     86  O   UNL A   1      34.711  23.372  22.534  1.00  0.00    -0.486 OA
ATOM     87  C   UNL A   1      33.481  22.603  24.330  1.00  0.00     0.001 A 
ATOM     88  C   UNL A   1      34.734  22.863  23.804  1.00  0.00     0.123 A 
ATOM     89  C   UNL A   1      33.337  22.128  25.622  1.00  0.00     0.047 A 
ATOM     90  C   UNL A   1      35.888  22.605  24.516  1.00  0.00     0.050 A 
ATOM     91  C   UNL A   1      34.494  21.900  26.364  1.00  0.00     0.123 A 
ATOM     92  C   UNL A   1      35.764  22.114  25.818  1.00  0.00     0.043 A 
ATOM     93  F   UNL A   1      34.389  21.445  27.621  1.00  0.00    -0.207 F 
ENDBRANCH  83  84
ENDBRANCH  82  83
ENDBRANCH  80  82
ENDBRANCH  75  77
ENDBRANCH  74  75
ENDBRANCH  73  74
ENDBRANCH  72  73
ENDBRANCH  71  72
ENDBRANCH  70  71
ENDBRANCH   1  70
TORSDOF 23
ENDMDL
MODEL 2
REMARK VINA RESULT:      -8.7      5.027     10.954
REMARK SMILES O=C(OCCOCCOCCOC(=O)c1cc(OC[C@@H]2Cc3cc(F)ccc3O2)cs1)c1ccc(-c2c3nc(c(-c4ccc(S(=O)(=O)[O-])cc4)c4ccc([nH]4)c(-c4ccc(S(=O)(=O)[O-])cc4)c4nc(c(-c5ccc(S(=O)(=O)[O-])cc5)c5ccc2[nH]5)C=C4)C=C3)cc1
REMARK SMILES IDX 7 1 6 2 5 3 4 4 3 5 2 6 1 7 32 8 33 9 91 10 34 11 90 12
REMARK SMILES IDX 35 13 36 14 37 15 84 16 38 17 89 18 83 19 85 20 39 21 88 22
REMARK SMILES IDX 82 23 81 24 40 26 70 27 51 28 69 29 52 30 55 31 68 32 86 33
REMARK SMILES IDX 53 34 54 35 67 37 87 38 56 39 41 40 42 41 50 42 43 43 49 44
REMARK SMILES IDX 44 45 45 46 46 47 47 48 48 49 71 50 72 51 80 52 73 53 79 54
REMARK SMILES IDX 74 55 75 56 76 57 77 58 78 59 57 60 58 61 66 62 59 63 65 64
REMARK SMILES IDX 60 65 61 66 62 67 63 68 64 69 8 70 9 71 10 72 11 73 12 74
REMARK SMILES IDX 13 75 14 76 15 77 16 78 31 79 17 80 30 81 18 82 19 83 20 84
REMARK SMILES IDX 21 85 29 86 22 87 28 88 23 89 27 90 24 91 26 92 25 93
REMARK H PARENT 85 25 55 36
REMARK Flexibility Score: inf
ROOT
ATOM      1  C   UNL A   1      40.825  21.524  27.614  1.00  0.00     0.188 C 
ENDROOT
BRANCH   1   2
ATOM      2  O   UNL A   1      42.128  21.945  27.185  1.00  0.00    -0.376 OA
BRANCH   2   3
ATOM      3  C   UNL A   1      42.188  23.337  26.876  1.00  0.00     0.202 C 
BRANCH   3   4
ATOM      4  C   UNL A   1      43.333  23.725  25.933  1.00  0.00     0.261 C 
BRANCH   4   5
ATOM      5  O   UNL A   1      43.397  25.129  25.638  1.00  0.00    -0.460 OA
BRANCH   5   6
ATOM      6  C   UNL A   1      42.513  26.123  25.898  1.00  0.00     0.338 C 
ATOM      7  O   UNL A   1      41.689  26.377  25.017  1.00  0.00    -0.246 OA
BRANCH   6   8
ATOM      8  C   UNL A   1      42.449  26.942  27.161  1.00  0.00     0.060 A 
ATOM      9  C   UNL A   1      43.057  28.217  27.114  1.00  0.00     0.016 A 
ATOM     10  C   UNL A   1      41.844  26.577  28.365  1.00  0.00     0.016 A 
ATOM     11  C   UNL A   1      43.040  29.094  28.210  1.00  0.00     0.010 A 
ATOM     12  C   UNL A   1      41.805  27.457  29.454  1.00  0.00     0.010 A 
ATOM     13  C   UNL A   1      42.401  28.719  29.391  1.00  0.00    -0.014 A 
BRANCH  13  14
ATOM     14  C   UNL A   1      42.218  29.653  30.526  1.00  0.00     0.031 A 
ATOM     15  C   UNL A   1      43.181  29.712  31.670  1.00  0.00     0.074 A 
ATOM     16  C   UNL A   1      41.100  30.400  30.553  1.00  0.00     0.049 A 
ATOM     17  N   UNL A   1      43.079  30.364  32.801  1.00  0.00    -0.248 NA
ATOM     18  C   UNL A   1      44.418  28.939  31.526  1.00  0.00     0.031 C 
ATOM     19  C   UNL A   1      40.103  30.451  29.484  1.00  0.00     0.029 A 
ATOM     20  N   UNL A   1      40.615  31.250  31.513  1.00  0.00    -0.354 N 
ATOM     21  C   UNL A   1      44.214  30.031  33.535  1.00  0.00     0.074 A 
ATOM     22  C   UNL A   1      45.013  29.185  32.686  1.00  0.00     0.031 C 
ATOM     23  C   UNL A   1      39.126  31.297  29.844  1.00  0.00     0.029 A 
ATOM     24  C   UNL A   1      39.416  31.824  31.178  1.00  0.00     0.049 A 
ATOM     25  H   UNL A   1      41.082  31.429  32.361  1.00  0.00     0.167 HD
ATOM     26  C   UNL A   1      44.532  30.370  34.810  1.00  0.00     0.031 A 
ATOM     27  C   UNL A   1      38.635  32.686  31.858  1.00  0.00     0.031 A 
ATOM     28  C   UNL A   1      43.737  31.259  35.617  1.00  0.00     0.049 A 
ATOM     29  C   UNL A   1      39.078  33.183  33.202  1.00  0.00     0.074 A 
ATOM     30  C   UNL A   1      43.976  31.684  36.913  1.00  0.00     0.029 A 
ATOM     31  N   UNL A   1      42.571  31.876  35.201  1.00  0.00    -0.354 N 
ATOM     32  N   UNL A   1      40.120  32.811  33.904  1.00  0.00    -0.248 NA
ATOM     33  C   UNL A   1      38.265  34.228  33.837  1.00  0.00     0.031 C 
ATOM     34  C   UNL A   1      42.925  32.512  37.301  1.00  0.00     0.029 A 
ATOM     35  C   UNL A   1      42.089  32.685  36.211  1.00  0.00     0.049 A 
ATOM     36  H   UNL A   1      42.150  31.758  34.318  1.00  0.00     0.167 HD
ATOM     37  C   UNL A   1      40.096  33.585  35.056  1.00  0.00     0.074 A 
ATOM     38  C   UNL A   1      38.947  34.459  34.954  1.00  0.00     0.031 C 
ATOM     39  C   UNL A   1      40.953  33.561  36.104  1.00  0.00     0.031 A 
BRANCH  26  40
ATOM     40  C   UNL A   1      45.745  29.763  35.478  1.00  0.00    -0.014 A 
ATOM     41  C   UNL A   1      45.563  28.615  36.280  1.00  0.00     0.010 A 
ATOM     42  C   UNL A   1      47.005  30.382  35.467  1.00  0.00     0.010 A 
ATOM     43  C   UNL A   1      46.598  28.119  37.076  1.00  0.00     0.020 A 
ATOM     44  C   UNL A   1      48.063  29.858  36.224  1.00  0.00     0.020 A 
ATOM     45  C   UNL A   1      47.847  28.740  37.035  1.00  0.00     0.054 A 
BRANCH  45  46
ATOM     46  S   UNL A   1      49.213  27.983  37.958  1.00  0.00     0.124 S 
ATOM     47  O   UNL A   1      48.764  28.109  39.340  1.00  0.00    -0.237 OA
ATOM     48  O   UNL A   1      49.234  26.623  37.419  1.00  0.00    -0.237 OA
ATOM     49  O   UNL A   1      50.368  28.799  37.593  1.00  0.00    -0.744 OA
ENDBRANCH  45  46
ENDBRANCH  26  40
BRANCH  27  50
ATOM     50  C   UNL A   1      37.410  33.188  31.189  1.00  0.00    -0.014 A 
ATOM     51  C   UNL A   1      36.146  32.674  31.532  1.00  0.00     0.010 A 
ATOM     52  C   UNL A   1      37.532  34.044  30.081  1.00  0.00     0.010 A 
ATOM     53  C   UNL A   1      35.035  32.949  30.732  1.00  0.00     0.020 A 
ATOM     54  C   UNL A   1      36.418  34.339  29.292  1.00  0.00     0.020 A 
ATOM     55  C   UNL A   1      35.186  33.758  29.602  1.00  0.00     0.054 A 
BRANCH  55  56
ATOM     56  S   UNL A   1      33.762  34.009  28.507  1.00  0.00     0.124 S 
ATOM     57  O   UNL A   1      33.540  32.658  27.997  1.00  0.00    -0.237 OA
ATOM     58  O   UNL A   1      32.740  34.513  29.420  1.00  0.00    -0.237 OA
ATOM     59  O   UNL A   1      34.251  34.975  27.528  1.00  0.00    -0.744 OA
ENDBRANCH  55  56
ENDBRANCH  27  50
BRANCH  39  60
ATOM     60  C   UNL A   1      40.731  34.498  37.258  1.00  0.00    -0.014 A 
ATOM     61  C   UNL A   1      39.742  34.190  38.212  1.00  0.00     0.010 A 
ATOM     62  C   UNL A   1      41.330  35.769  37.271  1.00  0.00     0.010 A 
ATOM     63  C   UNL A   1      39.319  35.154  39.129  1.00  0.00     0.020 A 
ATOM     64  C   UNL A   1      40.925  36.728  38.204  1.00  0.00     0.020 A 
ATOM     65  C   UNL A   1      39.902  36.423  39.107  1.00  0.00     0.054 A 
BRANCH  65  66
ATOM     66  S   UNL A   1      39.285  37.687  40.252  1.00  0.00     0.124 S 
ATOM     67  O   UNL A   1      40.446  38.558  40.404  1.00  0.00    -0.237 OA
ATOM     68  O   UNL A   1      38.158  38.260  39.521  1.00  0.00    -0.237 OA
ATOM     69  O   UNL A   1      38.920  36.921  41.442  1.00  0.00    -0.744 OA
ENDBRANCH  65  66
ENDBRANCH  39  60
ENDBRANCH  13  14
ENDBRANCH   6   8
ENDBRANCH   5   6
ENDBRANCH   4   5
ENDBRANCH   3   4
ENDBRANCH   2   3
ENDBRANCH   1   2
BRANCH   1  70
ATOM     70  C   UNL A   1      39.931  21.185  26.426  1.00  0.00     0.188 C 
BRANCH  70  71
ATOM     71  O   UNL A   1      39.136  22.276  25.957  1.00  0.00    -0.376 OA
BRANCH  71  72
ATOM     72  C   UNL A   1      37.724  22.065  25.936  1.00  0.00     0.202 C 
BRANCH  72  73
ATOM     73  C   UNL A   1      37.087  22.096  24.545  1.00  0.00     0.261 C 
BRANCH  73  74
ATOM     74  O   UNL A   1      35.686  22.394  24.582  1.00  0.00    -0.459 OA
BRANCH  74  75
ATOM     75  C   UNL A   1      34.841  21.357  24.856  1.00  0.00     0.348 C 
ATOM     76  O   UNL A   1      35.117  20.172  24.763  1.00  0.00    -0.245 OA
BRANCH  75  77
ATOM     77  C   UNL A   1      33.586  21.911  25.279  1.00  0.00     0.116 A 
ATOM     78  C   UNL A   1      33.401  23.094  25.955  1.00  0.00     0.074 A 
ATOM     79  S   UNL A   1      32.118  21.096  24.992  1.00  0.00    -0.133 S 
ATOM     80  C   UNL A   1      32.050  23.302  26.311  1.00  0.00     0.131 A 
ATOM     81  C   UNL A   1      31.235  22.300  25.831  1.00  0.00     0.112 A 
BRANCH  80  82
ATOM     82  O   UNL A   1      31.510  24.308  27.031  1.00  0.00    -0.489 OA
BRANCH  82  83
ATOM     83  C   UNL A   1      30.294  24.867  26.540  1.00  0.00     0.275 C 
BRANCH  83  84
ATOM     84  C   UNL A   1      30.444  26.065  25.573  1.00  0.00     0.215 C 
ATOM     85  C   UNL A   1      29.935  25.771  24.149  1.00  0.00     0.088 C 
ATOM     86  O   UNL A   1      31.795  26.590  25.498  1.00  0.00    -0.486 OA
ATOM     87  C   UNL A   1      31.187  25.914  23.377  1.00  0.00     0.001 A 
ATOM     88  C   UNL A   1      32.171  26.444  24.191  1.00  0.00     0.123 A 
ATOM     89  C   UNL A   1      31.430  25.665  22.037  1.00  0.00     0.047 A 
ATOM     90  C   UNL A   1      33.409  26.802  23.695  1.00  0.00     0.050 A 
ATOM     91  C   UNL A   1      32.689  25.986  21.533  1.00  0.00     0.123 A 
ATOM     92  C   UNL A   1      33.670  26.569  22.342  1.00  0.00     0.043 A 
ATOM     93  F   UNL A   1      32.960  25.751  20.241  1.00  0.00    -0.207 F 
ENDBRANCH  83  84
ENDBRANCH  82  83
ENDBRANCH  80  82
ENDBRANCH  75  77
ENDBRANCH  74  75
ENDBRANCH  73  74
ENDBRANCH  72  73
ENDBRANCH  71  72
ENDBRANCH  70  71
ENDBRANCH   1  70
TORSDOF 23
ENDMDL
MODEL 3
REMARK VINA RESULT:      -8.5      5.422     12.229
REMARK SMILES O=C(OCCOCCOCCOC(=O)c1cc(OC[C@@H]2Cc3cc(F)ccc3O2)cs1)c1ccc(-c2c3nc(c(-c4ccc(S(=O)(=O)[O-])cc4)c4ccc([nH]4)c(-c4ccc(S(=O)(=O)[O-])cc4)c4nc(c(-c5ccc(S(=O)(=O)[O-])cc5)c5ccc2[nH]5)C=C4)C=C3)cc1
REMARK SMILES IDX 7 1 6 2 5 3 4 4 3 5 2 6 1 7 32 8 33 9 91 10 34 11 90 12
REMARK SMILES IDX 35 13 36 14 37 15 84 16 38 17 89 18 83 19 85 20 39 21 88 22
REMARK SMILES IDX 82 23 81 24 40 26 70 27 51 28 69 29 52 30 55 31 68 32 86 33
REMARK SMILES IDX 53 34 54 35 67 37 87 38 56 39 41 40 42 41 50 42 43 43 49 44
REMARK SMILES IDX 44 45 45 46 46 47 47 48 48 49 71 50 72 51 80 52 73 53 79 54
REMARK SMILES IDX 74 55 75 56 76 57 77 58 78 59 57 60 58 61 66 62 59 63 65 64
REMARK SMILES IDX 60 65 61 66 62 67 63 68 64 69 8 70 9 71 10 72 11 73 12 74
REMARK SMILES IDX 13 75 14 76 15 77 16 78 31 79 17 80 30 81 18 82 19 83 20 84
REMARK SMILES IDX 21 85 29 86 22 87 28 88 23 89 27 90 24 91 26 92 25 93
REMARK H PARENT 85 25 55 36
REMARK Flexibility Score: inf
ROOT
ATOM      1  C   UNL A   1      39.156  20.944  25.751  1.00  0.00     0.188 C 
ENDROOT
BRANCH   1   2
ATOM      2  O   UNL A   1      37.895  21.599  25.949  1.00  0.00    -0.376 OA
BRANCH   2   3
ATOM      3  C   UNL A   1      37.752  22.778  25.158  1.00  0.00     0.202 C 
BRANCH   3   4
ATOM      4  C   UNL A   1      37.774  24.084  25.962  1.00  0.00     0.261 C 
BRANCH   4   5
ATOM      5  O   UNL A   1      38.998  24.308  26.679  1.00  0.00    -0.460 OA
BRANCH   5   6
ATOM      6  C   UNL A   1      39.757  25.425  26.795  1.00  0.00     0.338 C 
ATOM      7  O   UNL A   1      40.524  25.674  25.861  1.00  0.00    -0.246 OA
BRANCH   6   8
ATOM      8  C   UNL A   1      39.750  26.384  27.957  1.00  0.00     0.060 A 
ATOM      9  C   UNL A   1      39.071  25.956  29.120  1.00  0.00     0.016 A 
ATOM     10  C   UNL A   1      40.351  27.642  28.006  1.00  0.00     0.016 A 
ATOM     11  C   UNL A   1      39.017  26.738  30.284  1.00  0.00     0.010 A 
ATOM     12  C   UNL A   1      40.319  28.418  29.172  1.00  0.00     0.010 A 
ATOM     13  C   UNL A   1      39.653  27.978  30.319  1.00  0.00    -0.014 A 
BRANCH  13  14
ATOM     14  C   UNL A   1      39.761  28.780  31.559  1.00  0.00     0.031 A 
ATOM     15  C   UNL A   1      38.739  29.810  31.930  1.00  0.00     0.074 A 
ATOM     16  C   UNL A   1      40.862  28.627  32.316  1.00  0.00     0.049 A 
ATOM     17  N   UNL A   1      38.771  30.691  32.899  1.00  0.00    -0.248 NA
ATOM     18  C   UNL A   1      37.525  29.856  31.109  1.00  0.00     0.031 C 
ATOM     19  C   UNL A   1      41.911  27.637  32.073  1.00  0.00     0.029 A 
ATOM     20  N   UNL A   1      41.280  29.302  33.433  1.00  0.00    -0.354 N 
ATOM     21  C   UNL A   1      37.606  31.442  32.766  1.00  0.00     0.074 A 
ATOM     22  C   UNL A   1      36.868  30.859  31.676  1.00  0.00     0.031 C 
ATOM     23  C   UNL A   1      42.852  27.764  33.020  1.00  0.00     0.029 A 
ATOM     24  C   UNL A   1      42.484  28.859  33.918  1.00  0.00     0.049 A 
ATOM     25  H   UNL A   1      40.767  30.034  33.845  1.00  0.00     0.167 HD
ATOM     26  C   UNL A   1      37.218  32.538  33.466  1.00  0.00     0.031 A 
ATOM     27  C   UNL A   1      43.213  29.277  34.971  1.00  0.00     0.031 A 
ATOM     28  C   UNL A   1      37.953  33.069  34.584  1.00  0.00     0.049 A 
ATOM     29  C   UNL A   1      42.693  30.385  35.838  1.00  0.00     0.074 A 
ATOM     30  C   UNL A   1      37.640  34.162  35.374  1.00  0.00     0.029 A 
ATOM     31  N   UNL A   1      39.127  32.535  35.084  1.00  0.00    -0.354 N 
ATOM     32  N   UNL A   1      41.623  31.121  35.663  1.00  0.00    -0.248 NA
ATOM     33  C   UNL A   1      43.453  30.705  37.053  1.00  0.00     0.031 C 
ATOM     34  C   UNL A   1      38.654  34.324  36.316  1.00  0.00     0.029 A 
ATOM     35  C   UNL A   1      39.542  33.271  36.177  1.00  0.00     0.049 A 
ATOM     36  H   UNL A   1      39.595  31.749  34.718  1.00  0.00     0.167 HD
ATOM     37  C   UNL A   1      41.574  31.983  36.750  1.00  0.00     0.074 A 
ATOM     38  C   UNL A   1      42.710  31.668  37.589  1.00  0.00     0.031 C 
ATOM     39  C   UNL A   1      40.665  32.950  37.017  1.00  0.00     0.031 A 
BRANCH  26  40
ATOM     40  C   UNL A   1      35.984  33.307  33.050  1.00  0.00    -0.014 A 
ATOM     41  C   UNL A   1      36.099  34.240  31.997  1.00  0.00     0.010 A 
ATOM     42  C   UNL A   1      34.779  33.251  33.768  1.00  0.00     0.010 A 
ATOM     43  C   UNL A   1      35.056  35.117  31.691  1.00  0.00     0.020 A 
ATOM     44  C   UNL A   1      33.709  34.094  33.432  1.00  0.00     0.020 A 
ATOM     45  C   UNL A   1      33.861  35.031  32.407  1.00  0.00     0.054 A 
BRANCH  45  46
ATOM     46  S   UNL A   1      32.473  36.075  31.887  1.00  0.00     0.124 S 
ATOM     47  O   UNL A   1      31.317  35.285  32.295  1.00  0.00    -0.237 OA
ATOM     48  O   UNL A   1      32.704  37.302  32.650  1.00  0.00    -0.237 OA
ATOM     49  O   UNL A   1      32.666  36.212  30.446  1.00  0.00    -0.744 OA
ENDBRANCH  45  46
ENDBRANCH  26  40
BRANCH  27  50
ATOM     50  C   UNL A   1      44.461  28.540  35.287  1.00  0.00    -0.014 A 
ATOM     51  C   UNL A   1      45.685  28.924  34.707  1.00  0.00     0.010 A 
ATOM     52  C   UNL A   1      44.388  27.343  36.020  1.00  0.00     0.010 A 
ATOM     53  C   UNL A   1      46.796  28.084  34.794  1.00  0.00     0.020 A 
ATOM     54  C   UNL A   1      45.504  26.512  36.127  1.00  0.00     0.020 A 
ATOM     55  C   UNL A   1      46.689  26.871  35.481  1.00  0.00     0.054 A 
BRANCH  55  56
ATOM     56  S   UNL A   1      48.105  25.737  35.482  1.00  0.00     0.124 S 
ATOM     57  O   UNL A   1      49.196  26.626  35.873  1.00  0.00    -0.237 OA
ATOM     58  O   UNL A   1      47.718  24.741  36.477  1.00  0.00    -0.237 OA
ATOM     59  O   UNL A   1      48.155  25.253  34.106  1.00  0.00    -0.744 OA
ENDBRANCH  55  56
ENDBRANCH  27  50
BRANCH  39  60
ATOM     60  C   UNL A   1      40.810  33.772  38.267  1.00  0.00    -0.014 A 
ATOM     61  C   UNL A   1      40.083  33.407  39.417  1.00  0.00     0.010 A 
ATOM     62  C   UNL A   1      41.472  35.010  38.234  1.00  0.00     0.010 A 
ATOM     63  C   UNL A   1      39.974  34.287  40.495  1.00  0.00     0.020 A 
ATOM     64  C   UNL A   1      41.385  35.884  39.322  1.00  0.00     0.020 A 
ATOM     65  C   UNL A   1      40.612  35.529  40.432  1.00  0.00     0.054 A 
BRANCH  65  66
ATOM     66  S   UNL A   1      40.395  36.691  41.805  1.00  0.00     0.124 S 
ATOM     67  O   UNL A   1      41.685  37.373  41.840  1.00  0.00    -0.237 OA
ATOM     68  O   UNL A   1      39.265  37.504  41.363  1.00  0.00    -0.237 OA
ATOM     69  O   UNL A   1      40.117  35.823  42.948  1.00  0.00    -0.744 OA
ENDBRANCH  65  66
ENDBRANCH  39  60
ENDBRANCH  13  14
ENDBRANCH   6   8
ENDBRANCH   5   6
ENDBRANCH   4   5
ENDBRANCH   3   4
ENDBRANCH   2   3
ENDBRANCH   1   2
BRANCH   1  70
ATOM     70  C   UNL A   1      40.181  21.384  26.791  1.00  0.00     0.188 C 
BRANCH  70  71
ATOM     71  O   UNL A   1      41.538  21.128  26.425  1.00  0.00    -0.376 OA
BRANCH  71  72
ATOM     72  C   UNL A   1      42.499  22.099  26.841  1.00  0.00     0.202 C 
BRANCH  72  73
ATOM     73  C   UNL A   1      42.875  22.042  28.323  1.00  0.00     0.261 C 
BRANCH  73  74
ATOM     74  O   UNL A   1      42.765  23.314  28.973  1.00  0.00    -0.459 OA
BRANCH  74  75
ATOM     75  C   UNL A   1      43.743  23.635  29.871  1.00  0.00     0.348 C 
ATOM     76  O   UNL A   1      44.270  22.862  30.654  1.00  0.00    -0.245 OA
BRANCH  75  77
ATOM     77  C   UNL A   1      44.040  25.032  29.719  1.00  0.00     0.116 A 
ATOM     78  C   UNL A   1      43.529  25.876  28.761  1.00  0.00     0.074 A 
ATOM     79  S   UNL A   1      45.141  25.820  30.753  1.00  0.00    -0.133 S 
ATOM     80  C   UNL A   1      44.100  27.166  28.825  1.00  0.00     0.131 A 
ATOM     81  C   UNL A   1      44.981  27.284  29.878  1.00  0.00     0.112 A 
BRANCH  80  82
ATOM     82  O   UNL A   1      43.894  28.224  28.012  1.00  0.00    -0.489 OA
BRANCH  82  83
ATOM     83  C   UNL A   1      45.051  28.832  27.443  1.00  0.00     0.275 C 
BRANCH  83  84
ATOM     84  C   UNL A   1      45.557  28.212  26.119  1.00  0.00     0.215 C 
ATOM     85  C   UNL A   1      44.463  27.460  25.337  1.00  0.00     0.088 C 
ATOM     86  O   UNL A   1      46.709  27.345  26.283  1.00  0.00    -0.486 OA
ATOM     87  C   UNL A   1      45.012  26.087  25.354  1.00  0.00     0.001 A 
ATOM     88  C   UNL A   1      46.307  26.115  25.838  1.00  0.00     0.123 A 
ATOM     89  C   UNL A   1      44.445  24.905  24.909  1.00  0.00     0.047 A 
ATOM     90  C   UNL A   1      47.105  24.989  25.844  1.00  0.00     0.050 A 
ATOM     91  C   UNL A   1      45.227  23.754  24.946  1.00  0.00     0.123 A 
ATOM     92  C   UNL A   1      46.554  23.788  25.389  1.00  0.00     0.043 A 
ATOM     93  F   UNL A   1      44.706  22.590  24.528  1.00  0.00    -0.207 F 
ENDBRANCH  83  84
ENDBRANCH  82  83
ENDBRANCH  80  82
ENDBRANCH  75  77
ENDBRANCH  74  75
ENDBRANCH  73  74
ENDBRANCH  72  73
ENDBRANCH  71  72
ENDBRANCH  70  71
ENDBRANCH   1  70
TORSDOF 23
ENDMDL
