MODEL 1
REMARK VINA RESULT:      -9.7      0.000      0.000
REMARK SMILES O=C(OCCOCCOCCOC(=O)[C@H]1CS[C@@H](c2cccc(OCc3ccc(Cl)cc3Cl)c2)[NH2+]1)c1ccc(-c2c3nc(c(-c4ccc(S(=O)(=O)[O-])cc4)c4ccc([nH]4)c(-c4ccc(S(=O)(=O)[O-])cc4)c4nc(c(-c5ccc(S(=O)(=O)[O-])cc5)c5ccc2[nH]5)C=C4)C=C3)cc1
REMARK SMILES IDX 8 1 7 2 6 3 5 4 4 5 3 6 2 7 1 8 36 9 37 10 95 11 38 12 94 13
REMARK SMILES IDX 39 14 40 15 41 16 88 17 42 18 93 19 87 20 89 21 43 22 92 23
REMARK SMILES IDX 86 24 85 25 44 27 74 28 55 29 73 30 56 31 59 32 72 33 90 34
REMARK SMILES IDX 57 35 58 36 71 38 91 39 60 40 45 41 46 42 54 43 47 44 53 45
REMARK SMILES IDX 48 46 49 47 50 48 51 49 52 50 75 51 76 52 84 53 77 54 83 55
REMARK SMILES IDX 78 56 79 57 80 58 81 59 82 60 61 61 62 62 70 63 63 64 69 65
REMARK SMILES IDX 64 66 65 67 66 68 67 69 68 70 9 71 10 72 11 73 12 74 13 75
REMARK SMILES IDX 14 76 15 77 16 78 35 79 17 80 18 81 19 84 20 85 34 86 21 87
REMARK SMILES IDX 23 88 22 89 24 90 25 91 26 92 27 93 32 94 28 95 31 96 33 97
REMARK SMILES IDX 29 98 30 99
REMARK H PARENT 89 26 59 37 35 82 35 83
REMARK Flexibility Score: inf
ROOT
ATOM      1  C   UNL A   1      40.160  21.645  26.208  1.00  0.00     0.188 C 
ENDROOT
BRANCH   1   2
ATOM      2  C   UNL A   1      41.298  21.298  27.171  1.00  0.00     0.188 C 
BRANCH   2   3
ATOM      3  O   UNL A   1      42.448  22.139  26.996  1.00  0.00    -0.376 OA
BRANCH   3   4
ATOM      4  C   UNL A   1      42.874  22.242  25.632  1.00  0.00     0.202 C 
BRANCH   4   5
ATOM      5  C   UNL A   1      43.288  23.646  25.157  1.00  0.00     0.261 C 
BRANCH   5   6
ATOM      6  O   UNL A   1      43.290  24.630  26.202  1.00  0.00    -0.460 OA
BRANCH   6   7
ATOM      7  C   UNL A   1      42.735  25.867  26.213  1.00  0.00     0.338 C 
ATOM      8  O   UNL A   1      42.251  26.291  25.163  1.00  0.00    -0.246 OA
BRANCH   7   9
ATOM      9  C   UNL A   1      42.644  26.739  27.425  1.00  0.00     0.060 A 
ATOM     10  C   UNL A   1      42.254  26.321  28.695  1.00  0.00     0.016 A 
ATOM     11  C   UNL A   1      43.048  28.080  27.271  1.00  0.00     0.016 A 
ATOM     12  C   UNL A   1      42.164  27.229  29.753  1.00  0.00     0.010 A 
ATOM     13  C   UNL A   1      43.013  28.985  28.341  1.00  0.00     0.010 A 
ATOM     14  C   UNL A   1      42.537  28.568  29.583  1.00  0.00    -0.014 A 
BRANCH  14  15
ATOM     15  C   UNL A   1      42.225  29.522  30.674  1.00  0.00     0.031 A 
ATOM     16  C   UNL A   1      40.850  30.103  30.695  1.00  0.00     0.074 A 
ATOM     17  C   UNL A   1      43.112  29.787  31.652  1.00  0.00     0.049 A 
ATOM     18  N   UNL A   1      40.303  30.868  31.594  1.00  0.00    -0.248 NA
ATOM     19  C   UNL A   1      40.003  29.848  29.515  1.00  0.00     0.031 C 
ATOM     20  C   UNL A   1      44.510  29.399  31.610  1.00  0.00     0.029 A 
ATOM     21  N   UNL A   1      42.985  30.373  32.888  1.00  0.00    -0.354 N 
ATOM     22  C   UNL A   1      39.104  31.286  31.039  1.00  0.00     0.074 A 
ATOM     23  C   UNL A   1      38.965  30.633  29.758  1.00  0.00     0.031 C 
ATOM     24  C   UNL A   1      45.056  29.543  32.828  1.00  0.00     0.029 A 
ATOM     25  C   UNL A   1      44.075  30.142  33.717  1.00  0.00     0.049 A 
ATOM     26  H   UNL A   1      42.201  30.903  33.158  1.00  0.00     0.167 HD
ATOM     27  C   UNL A   1      38.245  32.202  31.540  1.00  0.00     0.031 A 
ATOM     28  C   UNL A   1      44.220  30.380  35.040  1.00  0.00     0.031 A 
ATOM     29  C   UNL A   1      38.459  32.846  32.807  1.00  0.00     0.049 A 
ATOM     30  C   UNL A   1      43.117  31.206  35.664  1.00  0.00     0.074 A 
ATOM     31  C   UNL A   1      37.732  33.858  33.402  1.00  0.00     0.029 A 
ATOM     32  N   UNL A   1      39.492  32.523  33.678  1.00  0.00    -0.354 N 
ATOM     33  N   UNL A   1      41.969  31.577  35.139  1.00  0.00    -0.248 NA
ATOM     34  C   UNL A   1      43.351  31.717  37.021  1.00  0.00     0.031 C 
ATOM     35  C   UNL A   1      38.345  34.165  34.623  1.00  0.00     0.029 A 
ATOM     36  C   UNL A   1      39.418  33.307  34.812  1.00  0.00     0.049 A 
ATOM     37  H   UNL A   1      40.177  31.835  33.512  1.00  0.00     0.167 HD
ATOM     38  C   UNL A   1      41.382  32.415  36.074  1.00  0.00     0.074 A 
ATOM     39  C   UNL A   1      42.230  32.386  37.249  1.00  0.00     0.031 C 
ATOM     40  C   UNL A   1      40.292  33.212  35.953  1.00  0.00     0.031 A 
BRANCH  27  41
ATOM     41  C   UNL A   1      37.109  32.623  30.653  1.00  0.00    -0.014 A 
ATOM     42  C   UNL A   1      37.240  33.679  29.734  1.00  0.00     0.010 A 
ATOM     43  C   UNL A   1      35.863  31.984  30.788  1.00  0.00     0.010 A 
ATOM     44  C   UNL A   1      36.134  34.114  28.997  1.00  0.00     0.020 A 
ATOM     45  C   UNL A   1      34.762  32.396  30.032  1.00  0.00     0.020 A 
ATOM     46  C   UNL A   1      34.901  33.473  29.154  1.00  0.00     0.054 A 
BRANCH  46  47
ATOM     47  S   UNL A   1      33.488  34.055  28.180  1.00  0.00     0.124 S 
ATOM     48  O   UNL A   1      34.128  34.967  27.235  1.00  0.00    -0.237 OA
ATOM     49  O   UNL A   1      32.965  32.819  27.603  1.00  0.00    -0.237 OA
ATOM     50  O   UNL A   1      32.622  34.691  29.171  1.00  0.00    -0.744 OA
ENDBRANCH  46  47
ENDBRANCH  27  41
BRANCH  28  51
ATOM     51  C   UNL A   1      45.385  29.907  35.872  1.00  0.00    -0.014 A 
ATOM     52  C   UNL A   1      46.564  30.686  35.939  1.00  0.00     0.010 A 
ATOM     53  C   UNL A   1      45.385  28.689  36.574  1.00  0.00     0.010 A 
ATOM     54  C   UNL A   1      47.702  30.254  36.636  1.00  0.00     0.020 A 
ATOM     55  C   UNL A   1      46.497  28.279  37.331  1.00  0.00     0.020 A 
ATOM     56  C   UNL A   1      47.660  29.052  37.336  1.00  0.00     0.054 A 
BRANCH  56  57
ATOM     57  S   UNL A   1      49.081  28.523  38.336  1.00  0.00     0.124 S 
ATOM     58  O   UNL A   1      48.570  27.326  38.994  1.00  0.00    -0.237 OA
ATOM     59  O   UNL A   1      50.135  28.300  37.348  1.00  0.00    -0.237 OA
ATOM     60  O   UNL A   1      49.308  29.676  39.206  1.00  0.00    -0.744 OA
ENDBRANCH  56  57
ENDBRANCH  28  51
BRANCH  40  61
ATOM     61  C   UNL A   1      40.003  34.110  37.119  1.00  0.00    -0.014 A 
ATOM     62  C   UNL A   1      39.141  33.688  38.147  1.00  0.00     0.010 A 
ATOM     63  C   UNL A   1      40.619  35.369  37.198  1.00  0.00     0.010 A 
ATOM     64  C   UNL A   1      38.861  34.534  39.217  1.00  0.00     0.020 A 
ATOM     65  C   UNL A   1      40.365  36.206  38.284  1.00  0.00     0.020 A 
ATOM     66  C   UNL A   1      39.474  35.788  39.277  1.00  0.00     0.054 A 
BRANCH  66  67
ATOM     67  S   UNL A   1      39.120  36.858  40.696  1.00  0.00     0.124 S 
ATOM     68  O   UNL A   1      38.394  35.954  41.583  1.00  0.00    -0.237 OA
ATOM     69  O   UNL A   1      40.455  37.245  41.146  1.00  0.00    -0.237 OA
ATOM     70  O   UNL A   1      38.325  37.940  40.121  1.00  0.00    -0.744 OA
ENDBRANCH  66  67
ENDBRANCH  40  61
ENDBRANCH  14  15
ENDBRANCH   7   9
ENDBRANCH   6   7
ENDBRANCH   5   6
ENDBRANCH   4   5
ENDBRANCH   3   4
ENDBRANCH   2   3
ENDBRANCH   1   2
BRANCH   1  71
ATOM     71  O   UNL A   1      39.064  22.379  26.750  1.00  0.00    -0.376 OA
BRANCH  71  72
ATOM     72  C   UNL A   1      38.088  22.868  25.839  1.00  0.00     0.202 C 
BRANCH  72  73
ATOM     73  C   UNL A   1      37.070  21.874  25.272  1.00  0.00     0.261 C 
BRANCH  73  74
ATOM     74  O   UNL A   1      35.986  21.553  26.145  1.00  0.00    -0.459 OA
BRANCH  74  75
ATOM     75  C   UNL A   1      34.957  22.455  26.165  1.00  0.00     0.365 C 
ATOM     76  O   UNL A   1      34.551  23.053  27.156  1.00  0.00    -0.245 OA
BRANCH  75  77
ATOM     77  C   UNL A   1      34.358  22.603  24.774  1.00  0.00     0.304 C 
ATOM     78  C   UNL A   1      33.757  21.292  24.281  1.00  0.00     0.153 C 
ATOM     79  N   UNL A   1      33.320  23.647  24.836  1.00  0.00    -0.319 N 
ATOM     80  S   UNL A   1      32.202  21.747  23.501  1.00  0.00    -0.087 SA
ATOM     81  C   UNL A   1      32.495  23.501  23.641  1.00  0.00     0.274 C 
ATOM     82  H   UNL A   1      33.752  24.571  24.852  1.00  0.00     0.348 HD
ATOM     83  H   UNL A   1      32.756  23.550  25.681  1.00  0.00     0.348 HD
BRANCH  81  84
ATOM     84  C   UNL A   1      31.337  24.461  23.774  1.00  0.00     0.024 A 
ATOM     85  C   UNL A   1      30.560  24.660  24.918  1.00  0.00     0.011 A 
ATOM     86  C   UNL A   1      31.223  25.390  22.733  1.00  0.00     0.057 A 
ATOM     87  C   UNL A   1      29.742  25.790  25.018  1.00  0.00     0.004 A 
ATOM     88  C   UNL A   1      30.581  26.605  22.902  1.00  0.00     0.120 A 
ATOM     89  C   UNL A   1      29.792  26.784  24.033  1.00  0.00     0.046 A 
BRANCH  88  90
ATOM     90  O   UNL A   1      30.723  27.665  22.046  1.00  0.00    -0.489 OA
BRANCH  90  91
ATOM     91  C   UNL A   1      30.731  29.000  22.622  1.00  0.00     0.267 C 
BRANCH  91  92
ATOM     92  C   UNL A   1      31.775  29.130  23.722  1.00  0.00     0.008 A 
ATOM     93  C   UNL A   1      31.351  29.668  24.951  1.00  0.00     0.010 A 
ATOM     94  C   UNL A   1      33.099  28.671  23.619  1.00  0.00     0.049 A 
ATOM     95  C   UNL A   1      32.185  29.647  26.068  1.00  0.00     0.021 A 
ATOM     96  C   UNL A   1      33.914  28.594  24.753  1.00  0.00     0.041 A 
ATOM     97  Cl  UNL A   1      33.831  28.208  22.120  1.00  0.00    -0.084 Cl
ATOM     98  C   UNL A   1      33.445  29.065  25.975  1.00  0.00     0.042 A 
ATOM     99  Cl  UNL A   1      34.431  28.931  27.379  1.00  0.00    -0.084 Cl
ENDBRANCH  91  92
ENDBRANCH  90  91
ENDBRANCH  88  90
ENDBRANCH  81  84
ENDBRANCH  75  77
ENDBRANCH  74  75
ENDBRANCH  73  74
ENDBRANCH  72  73
ENDBRANCH  71  72
ENDBRANCH   1  71
TORSDOF 24
ENDMDL
MODEL 2
REMARK VINA RESULT:      -9.3      0.658      7.870
REMARK SMILES O=C(OCCOCCOCCOC(=O)[C@H]1CS[C@@H](c2cccc(OCc3ccc(Cl)cc3Cl)c2)[NH2+]1)c1ccc(-c2c3nc(c(-c4ccc(S(=O)(=O)[O-])cc4)c4ccc([nH]4)c(-c4ccc(S(=O)(=O)[O-])cc4)c4nc(c(-c5ccc(S(=O)(=O)[O-])cc5)c5ccc2[nH]5)C=C4)C=C3)cc1
REMARK SMILES IDX 8 1 7 2 6 3 5 4 4 5 3 6 2 7 1 8 36 9 37 10 95 11 38 12 94 13
REMARK SMILES IDX 39 14 40 15 41 16 88 17 42 18 93 19 87 20 89 21 43 22 92 23
REMARK SMILES IDX 86 24 85 25 44 27 74 28 55 29 73 30 56 31 59 32 72 33 90 34
REMARK SMILES IDX 57 35 58 36 71 38 91 39 60 40 45 41 46 42 54 43 47 44 53 45
REMARK SMILES IDX 48 46 49 47 50 48 51 49 52 50 75 51 76 52 84 53 77 54 83 55
REMARK SMILES IDX 78 56 79 57 80 58 81 59 82 60 61 61 62 62 70 63 63 64 69 65
REMARK SMILES IDX 64 66 65 67 66 68 67 69 68 70 9 71 10 72 11 73 12 74 13 75
REMARK SMILES IDX 14 76 15 77 16 78 35 79 17 80 18 81 19 84 20 85 34 86 21 87
REMARK SMILES IDX 23 88 22 89 24 90 25 91 26 92 27 93 32 94 28 95 31 96 33 97
REMARK SMILES IDX 29 98 30 99
REMARK H PARENT 89 26 59 37 35 82 35 83
REMARK Flexibility Score: inf
ROOT
ATOM      1  C   UNL A   1      40.387  21.735  26.012  1.00  0.00     0.188 C 
ENDROOT
BRANCH   1   2
ATOM      2  C   UNL A   1      41.539  21.188  26.859  1.00  0.00     0.188 C 
BRANCH   2   3
ATOM      3  O   UNL A   1      42.714  22.010  26.793  1.00  0.00    -0.376 OA
BRANCH   3   4
ATOM      4  C   UNL A   1      43.190  22.214  25.456  1.00  0.00     0.202 C 
BRANCH   4   5
ATOM      5  C   UNL A   1      43.298  23.678  24.993  1.00  0.00     0.261 C 
BRANCH   5   6
ATOM      6  O   UNL A   1      43.326  24.623  26.074  1.00  0.00    -0.460 OA
BRANCH   6   7
ATOM      7  C   UNL A   1      42.789  25.865  26.137  1.00  0.00     0.338 C 
ATOM      8  O   UNL A   1      42.358  26.361  25.096  1.00  0.00    -0.246 OA
BRANCH   7   9
ATOM      9  C   UNL A   1      42.655  26.663  27.395  1.00  0.00     0.060 A 
ATOM     10  C   UNL A   1      42.451  26.136  28.670  1.00  0.00     0.016 A 
ATOM     11  C   UNL A   1      42.814  28.058  27.280  1.00  0.00     0.016 A 
ATOM     12  C   UNL A   1      42.300  26.975  29.776  1.00  0.00     0.010 A 
ATOM     13  C   UNL A   1      42.717  28.902  28.395  1.00  0.00     0.010 A 
ATOM     14  C   UNL A   1      42.426  28.363  29.648  1.00  0.00    -0.014 A 
BRANCH  14  15
ATOM     15  C   UNL A   1      42.052  29.208  30.807  1.00  0.00     0.031 A 
ATOM     16  C   UNL A   1      43.102  29.442  31.842  1.00  0.00     0.074 A 
ATOM     17  C   UNL A   1      40.849  29.808  30.882  1.00  0.00     0.049 A 
ATOM     18  N   UNL A   1      43.059  30.221  32.884  1.00  0.00    -0.248 NA
ATOM     19  C   UNL A   1      44.334  28.640  31.732  1.00  0.00     0.031 C 
ATOM     20  C   UNL A   1      39.729  29.499  30.012  1.00  0.00     0.029 A 
ATOM     21  N   UNL A   1      40.369  30.835  31.658  1.00  0.00    -0.354 N 
ATOM     22  C   UNL A   1      44.196  29.916  33.616  1.00  0.00     0.074 A 
ATOM     23  C   UNL A   1      44.948  28.937  32.867  1.00  0.00     0.031 C 
ATOM     24  C   UNL A   1      38.785  30.445  30.135  1.00  0.00     0.029 A 
ATOM     25  C   UNL A   1      39.182  31.374  31.179  1.00  0.00     0.049 A 
ATOM     26  H   UNL A   1      40.822  31.155  32.471  1.00  0.00     0.167 HD
ATOM     27  C   UNL A   1      44.523  30.370  34.846  1.00  0.00     0.031 A 
ATOM     28  C   UNL A   1      38.532  32.499  31.552  1.00  0.00     0.031 A 
ATOM     29  C   UNL A   1      43.710  31.319  35.558  1.00  0.00     0.049 A 
ATOM     30  C   UNL A   1      39.062  33.156  32.808  1.00  0.00     0.074 A 
ATOM     31  C   UNL A   1      43.859  31.800  36.844  1.00  0.00     0.029 A 
ATOM     32  N   UNL A   1      42.587  31.936  35.022  1.00  0.00    -0.354 N 
ATOM     33  N   UNL A   1      40.156  32.878  33.483  1.00  0.00    -0.248 NA
ATOM     34  C   UNL A   1      38.241  34.218  33.403  1.00  0.00     0.031 C 
ATOM     35  C   UNL A   1      42.806  32.688  37.094  1.00  0.00     0.029 A 
ATOM     36  C   UNL A   1      42.036  32.802  35.946  1.00  0.00     0.049 A 
ATOM     37  H   UNL A   1      42.234  31.779  34.116  1.00  0.00     0.167 HD
ATOM     38  C   UNL A   1      40.116  33.682  34.611  1.00  0.00     0.074 A 
ATOM     39  C   UNL A   1      38.967  34.553  34.460  1.00  0.00     0.031 C 
ATOM     40  C   UNL A   1      40.895  33.652  35.720  1.00  0.00     0.031 A 
BRANCH  27  41
ATOM     41  C   UNL A   1      45.715  29.741  35.507  1.00  0.00    -0.014 A 
ATOM     42  C   UNL A   1      47.007  30.279  35.371  1.00  0.00     0.010 A 
ATOM     43  C   UNL A   1      45.544  28.548  36.234  1.00  0.00     0.010 A 
ATOM     44  C   UNL A   1      48.109  29.613  35.913  1.00  0.00     0.020 A 
ATOM     45  C   UNL A   1      46.640  27.894  36.802  1.00  0.00     0.020 A 
ATOM     46  C   UNL A   1      47.919  28.422  36.622  1.00  0.00     0.054 A 
BRANCH  46  47
ATOM     47  S   UNL A   1      49.369  27.584  37.318  1.00  0.00     0.124 S 
ATOM     48  O   UNL A   1      48.921  26.194  37.363  1.00  0.00    -0.237 OA
ATOM     49  O   UNL A   1      50.410  27.877  36.336  1.00  0.00    -0.237 OA
ATOM     50  O   UNL A   1      49.547  28.223  38.620  1.00  0.00    -0.744 OA
ENDBRANCH  46  47
ENDBRANCH  27  41
BRANCH  28  51
ATOM     51  C   UNL A   1      37.348  33.084  30.825  1.00  0.00    -0.014 A 
ATOM     52  C   UNL A   1      36.174  33.412  31.542  1.00  0.00     0.010 A 
ATOM     53  C   UNL A   1      37.325  33.293  29.434  1.00  0.00     0.010 A 
ATOM     54  C   UNL A   1      35.019  33.887  30.901  1.00  0.00     0.020 A 
ATOM     55  C   UNL A   1      36.197  33.831  28.792  1.00  0.00     0.020 A 
ATOM     56  C   UNL A   1      35.040  34.101  29.526  1.00  0.00     0.054 A 
BRANCH  56  57
ATOM     57  S   UNL A   1      33.595  34.818  28.688  1.00  0.00     0.124 S 
ATOM     58  O   UNL A   1      32.577  34.771  29.731  1.00  0.00    -0.237 OA
ATOM     59  O   UNL A   1      34.046  36.154  28.305  1.00  0.00    -0.237 OA
ATOM     60  O   UNL A   1      33.393  33.906  27.564  1.00  0.00    -0.744 OA
ENDBRANCH  56  57
ENDBRANCH  28  51
BRANCH  40  61
ATOM     61  C   UNL A   1      40.492  34.574  36.831  1.00  0.00    -0.014 A 
ATOM     62  C   UNL A   1      39.531  34.171  37.777  1.00  0.00     0.010 A 
ATOM     63  C   UNL A   1      41.097  35.835  36.945  1.00  0.00     0.010 A 
ATOM     64  C   UNL A   1      39.145  35.039  38.796  1.00  0.00     0.020 A 
ATOM     65  C   UNL A   1      40.735  36.693  37.983  1.00  0.00     0.020 A 
ATOM     66  C   UNL A   1      39.750  36.295  38.890  1.00  0.00     0.054 A 
BRANCH  66  67
ATOM     67  S   UNL A   1      39.256  37.394  40.244  1.00  0.00     0.124 S 
ATOM     68  O   UNL A   1      38.402  38.357  39.556  1.00  0.00    -0.237 OA
ATOM     69  O   UNL A   1      38.570  36.485  41.160  1.00  0.00    -0.237 OA
ATOM     70  O   UNL A   1      40.525  37.925  40.737  1.00  0.00    -0.744 OA
ENDBRANCH  66  67
ENDBRANCH  40  61
ENDBRANCH  14  15
ENDBRANCH   7   9
ENDBRANCH   6   7
ENDBRANCH   5   6
ENDBRANCH   4   5
ENDBRANCH   3   4
ENDBRANCH   2   3
ENDBRANCH   1   2
BRANCH   1  71
ATOM     71  O   UNL A   1      39.223  22.163  26.715  1.00  0.00    -0.376 OA
BRANCH  71  72
ATOM     72  C   UNL A   1      38.169  22.735  25.951  1.00  0.00     0.202 C 
BRANCH  72  73
ATOM     73  C   UNL A   1      37.306  21.797  25.102  1.00  0.00     0.261 C 
BRANCH  73  74
ATOM     74  O   UNL A   1      36.199  21.207  25.786  1.00  0.00    -0.459 OA
BRANCH  74  75
ATOM     75  C   UNL A   1      35.096  22.006  25.924  1.00  0.00     0.365 C 
ATOM     76  O   UNL A   1      34.643  22.421  26.985  1.00  0.00    -0.245 OA
BRANCH  75  77
ATOM     77  C   UNL A   1      34.482  22.297  24.562  1.00  0.00     0.304 C 
ATOM     78  C   UNL A   1      33.851  21.049  23.954  1.00  0.00     0.153 C 
ATOM     79  N   UNL A   1      33.464  23.347  24.738  1.00  0.00    -0.319 N 
ATOM     80  S   UNL A   1      32.295  21.602  23.244  1.00  0.00    -0.087 SA
ATOM     81  C   UNL A   1      32.621  23.329  23.547  1.00  0.00     0.274 C 
ATOM     82  H   UNL A   1      33.912  24.258  24.836  1.00  0.00     0.348 HD
ATOM     83  H   UNL A   1      32.909  23.179  25.578  1.00  0.00     0.348 HD
BRANCH  81  84
ATOM     84  C   UNL A   1      31.482  24.291  23.788  1.00  0.00     0.024 A 
ATOM     85  C   UNL A   1      30.814  24.490  24.999  1.00  0.00     0.011 A 
ATOM     86  C   UNL A   1      31.274  25.223  22.763  1.00  0.00     0.057 A 
ATOM     87  C   UNL A   1      30.011  25.622  25.176  1.00  0.00     0.004 A 
ATOM     88  C   UNL A   1      30.653  26.438  22.992  1.00  0.00     0.120 A 
ATOM     89  C   UNL A   1      29.972  26.616  24.192  1.00  0.00     0.046 A 
BRANCH  88  90
ATOM     90  O   UNL A   1      30.717  27.499  22.129  1.00  0.00    -0.489 OA
BRANCH  90  91
ATOM     91  C   UNL A   1      30.666  28.836  22.698  1.00  0.00     0.267 C 
BRANCH  91  92
ATOM     92  C   UNL A   1      31.750  29.040  23.748  1.00  0.00     0.008 A 
ATOM     93  C   UNL A   1      31.361  29.616  24.970  1.00  0.00     0.010 A 
ATOM     94  C   UNL A   1      33.082  28.612  23.609  1.00  0.00     0.049 A 
ATOM     95  C   UNL A   1      32.240  29.664  26.052  1.00  0.00     0.021 A 
ATOM     96  C   UNL A   1      33.943  28.604  24.711  1.00  0.00     0.041 A 
ATOM     97  Cl  UNL A   1      33.765  28.106  22.101  1.00  0.00    -0.084 Cl
ATOM     98  C   UNL A   1      33.510  29.112  25.931  1.00  0.00     0.042 A 
ATOM     99  Cl  UNL A   1      34.556  29.063  27.297  1.00  0.00    -0.084 Cl
ENDBRANCH  91  92
ENDBRANCH  90  91
ENDBRANCH  88  90
ENDBRANCH  81  84
ENDBRANCH  75  77
ENDBRANCH  74  75
ENDBRANCH  73  74
ENDBRANCH  72  73
ENDBRANCH  71  72
ENDBRANCH   1  71
TORSDOF 24
ENDMDL
MODEL 3
REMARK VINA RESULT:      -9.2      4.776      7.771
REMARK SMILES O=C(OCCOCCOCCOC(=O)[C@H]1CS[C@@H](c2cccc(OCc3ccc(Cl)cc3Cl)c2)[NH2+]1)c1ccc(-c2c3nc(c(-c4ccc(S(=O)(=O)[O-])cc4)c4ccc([nH]4)c(-c4ccc(S(=O)(=O)[O-])cc4)c4nc(c(-c5ccc(S(=O)(=O)[O-])cc5)c5ccc2[nH]5)C=C4)C=C3)cc1
REMARK SMILES IDX 8 1 7 2 6 3 5 4 4 5 3 6 2 7 1 8 36 9 37 10 95 11 38 12 94 13
REMARK SMILES IDX 39 14 40 15 41 16 88 17 42 18 93 19 87 20 89 21 43 22 92 23
REMARK SMILES IDX 86 24 85 25 44 27 74 28 55 29 73 30 56 31 59 32 72 33 90 34
REMARK SMILES IDX 57 35 58 36 71 38 91 39 60 40 45 41 46 42 54 43 47 44 53 45
REMARK SMILES IDX 48 46 49 47 50 48 51 49 52 50 75 51 76 52 84 53 77 54 83 55
REMARK SMILES IDX 78 56 79 57 80 58 81 59 82 60 61 61 62 62 70 63 63 64 69 65
REMARK SMILES IDX 64 66 65 67 66 68 67 69 68 70 9 71 10 72 11 73 12 74 13 75
REMARK SMILES IDX 14 76 15 77 16 78 35 79 17 80 18 81 19 84 20 85 34 86 21 87
REMARK SMILES IDX 23 88 22 89 24 90 25 91 26 92 27 93 32 94 28 95 31 96 33 97
REMARK SMILES IDX 29 98 30 99
REMARK H PARENT 89 26 59 37 35 82 35 83
REMARK Flexibility Score: inf
ROOT
ATOM      1  C   UNL A   1      43.588  20.364  25.727  1.00  0.00     0.188 C 
ENDROOT
BRANCH   1   2
ATOM      2  C   UNL A   1      42.354  19.518  26.051  1.00  0.00     0.188 C 
BRANCH   2   3
ATOM      3  O   UNL A   1      41.151  20.299  26.127  1.00  0.00    -0.376 OA
BRANCH   3   4
ATOM      4  C   UNL A   1      41.030  21.038  27.348  1.00  0.00     0.202 C 
BRANCH   4   5
ATOM      5  C   UNL A   1      41.212  22.563  27.237  1.00  0.00     0.261 C 
BRANCH   5   6
ATOM      6  O   UNL A   1      39.975  23.282  27.123  1.00  0.00    -0.460 OA
BRANCH   6   7
ATOM      7  C   UNL A   1      39.767  24.573  26.765  1.00  0.00     0.338 C 
ATOM      8  O   UNL A   1      39.492  24.807  25.588  1.00  0.00    -0.246 OA
BRANCH   7   9
ATOM      9  C   UNL A   1      39.817  25.729  27.712  1.00  0.00     0.060 A 
ATOM     10  C   UNL A   1      40.340  26.989  27.425  1.00  0.00     0.016 A 
ATOM     11  C   UNL A   1      39.226  25.538  28.977  1.00  0.00     0.016 A 
ATOM     12  C   UNL A   1      40.374  27.990  28.398  1.00  0.00     0.010 A 
ATOM     13  C   UNL A   1      39.208  26.556  29.940  1.00  0.00     0.010 A 
ATOM     14  C   UNL A   1      39.815  27.781  29.664  1.00  0.00    -0.014 A 
BRANCH  14  15
ATOM     15  C   UNL A   1      40.064  28.797  30.713  1.00  0.00     0.031 A 
ATOM     16  C   UNL A   1      39.002  29.824  30.929  1.00  0.00     0.074 A 
ATOM     17  C   UNL A   1      41.158  28.747  31.496  1.00  0.00     0.049 A 
ATOM     18  N   UNL A   1      38.933  30.744  31.847  1.00  0.00    -0.248 NA
ATOM     19  C   UNL A   1      37.910  29.868  29.939  1.00  0.00     0.031 C 
ATOM     20  C   UNL A   1      42.303  27.892  31.241  1.00  0.00     0.029 A 
ATOM     21  N   UNL A   1      41.479  29.355  32.686  1.00  0.00    -0.354 N 
ATOM     22  C   UNL A   1      37.867  31.550  31.479  1.00  0.00     0.074 A 
ATOM     23  C   UNL A   1      37.270  30.970  30.298  1.00  0.00     0.031 C 
ATOM     24  C   UNL A   1      43.088  27.850  32.330  1.00  0.00     0.029 A 
ATOM     25  C   UNL A   1      42.561  28.767  33.327  1.00  0.00     0.049 A 
ATOM     26  H   UNL A   1      40.991  30.130  33.045  1.00  0.00     0.167 HD
ATOM     27  C   UNL A   1      37.486  32.715  32.048  1.00  0.00     0.031 A 
ATOM     28  C   UNL A   1      43.031  28.956  34.581  1.00  0.00     0.031 A 
ATOM     29  C   UNL A   1      38.147  33.259  33.203  1.00  0.00     0.049 A 
ATOM     30  C   UNL A   1      42.418  30.125  35.321  1.00  0.00     0.074 A 
ATOM     31  C   UNL A   1      37.939  34.469  33.835  1.00  0.00     0.029 A 
ATOM     32  N   UNL A   1      39.154  32.604  33.903  1.00  0.00    -0.354 N 
ATOM     33  N   UNL A   1      41.389  30.868  34.977  1.00  0.00    -0.248 NA
ATOM     34  C   UNL A   1      43.068  30.538  36.571  1.00  0.00     0.031 C 
ATOM     35  C   UNL A   1      38.842  34.557  34.901  1.00  0.00     0.029 A 
ATOM     36  C   UNL A   1      39.572  33.379  34.967  1.00  0.00     0.049 A 
ATOM     37  H   UNL A   1      39.516  31.718  33.674  1.00  0.00     0.167 HD
ATOM     38  C   UNL A   1      41.315  31.871  35.931  1.00  0.00     0.074 A 
ATOM     39  C   UNL A   1      42.310  31.560  36.938  1.00  0.00     0.031 C 
ATOM     40  C   UNL A   1      40.562  32.998  35.941  1.00  0.00     0.031 A 
BRANCH  27  41
ATOM     41  C   UNL A   1      36.416  33.497  31.344  1.00  0.00    -0.014 A 
ATOM     42  C   UNL A   1      35.208  33.837  31.981  1.00  0.00     0.010 A 
ATOM     43  C   UNL A   1      36.600  33.848  29.994  1.00  0.00     0.010 A 
ATOM     44  C   UNL A   1      34.190  34.476  31.266  1.00  0.00     0.020 A 
ATOM     45  C   UNL A   1      35.596  34.512  29.285  1.00  0.00     0.020 A 
ATOM     46  C   UNL A   1      34.389  34.805  29.921  1.00  0.00     0.054 A 
BRANCH  46  47
ATOM     47  S   UNL A   1      33.053  35.639  29.024  1.00  0.00     0.124 S 
ATOM     48  O   UNL A   1      32.467  34.537  28.265  1.00  0.00    -0.237 OA
ATOM     49  O   UNL A   1      32.223  36.167  30.104  1.00  0.00    -0.237 OA
ATOM     50  O   UNL A   1      33.747  36.647  28.225  1.00  0.00    -0.744 OA
ENDBRANCH  46  47
ENDBRANCH  27  41
BRANCH  28  51
ATOM     51  C   UNL A   1      44.100  28.115  35.230  1.00  0.00    -0.014 A 
ATOM     52  C   UNL A   1      45.463  28.403  34.990  1.00  0.00     0.010 A 
ATOM     53  C   UNL A   1      43.816  27.010  36.051  1.00  0.00     0.010 A 
ATOM     54  C   UNL A   1      46.494  27.604  35.509  1.00  0.00     0.020 A 
ATOM     55  C   UNL A   1      44.843  26.244  36.630  1.00  0.00     0.020 A 
ATOM     56  C   UNL A   1      46.177  26.530  36.335  1.00  0.00     0.054 A 
BRANCH  56  57
ATOM     57  S   UNL A   1      47.496  25.547  37.107  1.00  0.00     0.124 S 
ATOM     58  O   UNL A   1      47.551  26.105  38.453  1.00  0.00    -0.237 OA
ATOM     59  O   UNL A   1      47.004  24.174  37.011  1.00  0.00    -0.237 OA
ATOM     60  O   UNL A   1      48.649  25.833  36.255  1.00  0.00    -0.744 OA
ENDBRANCH  56  57
ENDBRANCH  28  51
BRANCH  40  61
ATOM     61  C   UNL A   1      40.828  33.955  37.064  1.00  0.00    -0.014 A 
ATOM     62  C   UNL A   1      41.829  34.937  36.941  1.00  0.00     0.010 A 
ATOM     63  C   UNL A   1      40.054  33.890  38.233  1.00  0.00     0.010 A 
ATOM     64  C   UNL A   1      42.085  35.811  37.995  1.00  0.00     0.020 A 
ATOM     65  C   UNL A   1      40.288  34.785  39.277  1.00  0.00     0.020 A 
ATOM     66  C   UNL A   1      41.313  35.727  39.157  1.00  0.00     0.054 A 
BRANCH  66  67
ATOM     67  S   UNL A   1      41.642  36.897  40.501  1.00  0.00     0.124 S 
ATOM     68  O   UNL A   1      40.785  38.022  40.140  1.00  0.00    -0.237 OA
ATOM     69  O   UNL A   1      41.233  36.147  41.686  1.00  0.00    -0.237 OA
ATOM     70  O   UNL A   1      43.078  37.148  40.395  1.00  0.00    -0.744 OA
ENDBRANCH  66  67
ENDBRANCH  40  61
ENDBRANCH  14  15
ENDBRANCH   7   9
ENDBRANCH   6   7
ENDBRANCH   5   6
ENDBRANCH   4   5
ENDBRANCH   3   4
ENDBRANCH   2   3
ENDBRANCH   1   2
BRANCH   1  71
ATOM     71  O   UNL A   1      44.206  20.138  24.462  1.00  0.00    -0.376 OA
BRANCH  71  72
ATOM     72  C   UNL A   1      44.865  21.238  23.848  1.00  0.00     0.202 C 
BRANCH  72  73
ATOM     73  C   UNL A   1      44.969  22.546  24.638  1.00  0.00     0.261 C 
BRANCH  73  74
ATOM     74  O   UNL A   1      44.017  23.548  24.278  1.00  0.00    -0.459 OA
BRANCH  74  75
ATOM     75  C   UNL A   1      43.974  24.643  25.099  1.00  0.00     0.365 C 
ATOM     76  O   UNL A   1      42.981  25.326  25.325  1.00  0.00    -0.245 OA
BRANCH  75  77
ATOM     77  C   UNL A   1      45.351  24.917  25.686  1.00  0.00     0.304 C 
ATOM     78  C   UNL A   1      46.054  26.055  24.956  1.00  0.00     0.153 C 
ATOM     79  N   UNL A   1      45.178  25.256  27.109  1.00  0.00    -0.319 N 
ATOM     80  S   UNL A   1      46.819  27.045  26.247  1.00  0.00    -0.087 SA
ATOM     81  C   UNL A   1      46.412  25.897  27.549  1.00  0.00     0.274 C 
ATOM     82  H   UNL A   1      45.009  24.409  27.654  1.00  0.00     0.348 HD
ATOM     83  H   UNL A   1      44.379  25.876  27.241  1.00  0.00     0.348 HD
BRANCH  81  84
ATOM     84  C   UNL A   1      46.186  26.388  28.959  1.00  0.00     0.024 A 
ATOM     85  C   UNL A   1      46.484  25.690  30.132  1.00  0.00     0.011 A 
ATOM     86  C   UNL A   1      45.890  27.753  29.065  1.00  0.00     0.057 A 
ATOM     87  C   UNL A   1      46.532  26.368  31.355  1.00  0.00     0.004 A 
ATOM     88  C   UNL A   1      46.132  28.468  30.225  1.00  0.00     0.120 A 
ATOM     89  C   UNL A   1      46.405  27.761  31.391  1.00  0.00     0.046 A 
BRANCH  88  90
ATOM     90  O   UNL A   1      46.174  29.836  30.279  1.00  0.00    -0.489 OA
BRANCH  90  91
ATOM     91  C   UNL A   1      44.910  30.552  30.249  1.00  0.00     0.267 C 
BRANCH  91  92
ATOM     92  C   UNL A   1      44.636  31.262  31.568  1.00  0.00     0.008 A 
ATOM     93  C   UNL A   1      45.612  31.148  32.575  1.00  0.00     0.010 A 
ATOM     94  C   UNL A   1      43.524  32.087  31.811  1.00  0.00     0.049 A 
ATOM     95  C   UNL A   1      45.536  31.915  33.737  1.00  0.00     0.021 A 
ATOM     96  C   UNL A   1      43.480  32.901  32.948  1.00  0.00     0.041 A 
ATOM     97  Cl  UNL A   1      42.137  32.142  30.776  1.00  0.00    -0.084 Cl
ATOM     98  C   UNL A   1      44.496  32.824  33.894  1.00  0.00     0.042 A 
ATOM     99  Cl  UNL A   1      44.462  33.856  35.271  1.00  0.00    -0.084 Cl
ENDBRANCH  91  92
ENDBRANCH  90  91
ENDBRANCH  88  90
ENDBRANCH  81  84
ENDBRANCH  75  77
ENDBRANCH  74  75
ENDBRANCH  73  74
ENDBRANCH  72  73
ENDBRANCH  71  72
ENDBRANCH   1  71
TORSDOF 24
ENDMDL
