MODEL 1
REMARK VINA RESULT:     -10.6      0.000      0.000
REMARK SMILES Cc1cccc(-n2nc(Br)c(C(=O)OCCOCCOCCOC(=O)c3ccc(-c4c5nc(c(-c6ccc(S(=O)(=O)[O-])cc6)c6ccc([nH]6)c(-c6ccc(S(=O)(=O)[O-])cc6)c6nc(c(-c7ccc(S(=O)(=O)[O-])cc7)c7ccc4[nH]7)C=C6)C=C5)cc3)n2)c1
REMARK SMILES IDX 19 1 18 2 17 3 16 4 15 5 14 6 12 7 13 8 11 9 7 10 8 11 86 12
REMARK SMILES IDX 9 13 10 14 6 15 1 16 2 17 3 18 87 19 4 20 5 21 20 22 21 23
REMARK SMILES IDX 22 24 23 25 24 26 25 27 26 28 27 29 85 30 28 31 84 32 29 33
REMARK SMILES IDX 30 34 31 35 78 36 32 37 83 38 77 39 79 40 33 41 82 42 76 43
REMARK SMILES IDX 75 44 34 46 64 47 45 48 63 49 46 50 49 51 62 52 80 53 47 54
REMARK SMILES IDX 48 55 61 57 81 58 50 59 35 60 36 61 44 62 37 63 43 64 38 65
REMARK SMILES IDX 39 66 40 67 41 68 42 69 65 70 66 71 74 72 67 73 73 74 68 75
REMARK SMILES IDX 69 76 70 77 71 78 72 79 51 80 52 81 60 82 53 83 59 84 54 85
REMARK SMILES IDX 55 86 56 87 57 88 58 89
REMARK H PARENT 79 45 49 56
REMARK Flexibility Score: inf
ROOT
ATOM      1  C   UNL A   1      32.332  27.800  26.180  1.00  0.00     0.188 C 
ENDROOT
BRANCH   1   2
ATOM      2  C   UNL A   1      31.856  28.233  24.794  1.00  0.00     0.188 C 
BRANCH   2   3
ATOM      3  O   UNL A   1      30.483  27.873  24.719  1.00  0.00    -0.376 OA
BRANCH   3   4
ATOM      4  C   UNL A   1      29.990  27.689  23.392  1.00  0.00     0.202 C 
BRANCH   4   5
ATOM      5  C   UNL A   1      30.961  27.516  22.114  1.00  0.00     0.261 C 
BRANCH   5   6
ATOM      6  O   UNL A   1      31.294  26.251  21.252  1.00  0.00    -0.458 OA
BRANCH   6   7
ATOM      7  C   UNL A   1      32.513  25.658  21.491  1.00  0.00     0.361 C 
ATOM      8  O   UNL A   1      33.167  25.675  20.433  1.00  0.00    -0.244 OA
BRANCH   7   9
ATOM      9  C   UNL A   1      33.028  24.851  22.838  1.00  0.00     0.205 A 
ATOM     10  N   UNL A   1      34.114  23.264  23.701  1.00  0.00    -0.150 N 
ATOM     11  N   UNL A   1      32.965  23.032  24.281  1.00  0.00    -0.140 NA
ATOM     12  N   UNL A   1      34.247  24.275  22.803  1.00  0.00    -0.140 NA
ATOM     13  C   UNL A   1      32.367  24.197  24.112  1.00  0.00     0.163 A 
ATOM     14  Br  UNL A   1      30.927  24.264  25.394  1.00  0.00    -0.024 Br
BRANCH  10  15
ATOM     15  C   UNL A   1      35.175  22.730  24.377  1.00  0.00     0.086 A 
ATOM     16  C   UNL A   1      38.086  24.142  26.189  1.00  0.00     0.044 C 
ATOM     17  C   UNL A   1      37.127  23.145  25.632  1.00  0.00    -0.049 A 
ATOM     18  C   UNL A   1      37.364  21.760  25.602  1.00  0.00     0.003 A 
ATOM     19  C   UNL A   1      35.998  23.633  25.023  1.00  0.00     0.033 A 
ATOM     20  C   UNL A   1      36.417  20.862  25.081  1.00  0.00     0.003 A 
ATOM     21  C   UNL A   1      35.270  21.350  24.498  1.00  0.00     0.030 A 
ENDBRANCH  10  15
ENDBRANCH   7   9
ENDBRANCH   6   7
ENDBRANCH   5   6
ENDBRANCH   4   5
ENDBRANCH   3   4
ENDBRANCH   2   3
ENDBRANCH   1   2
BRANCH   1  22
ATOM     22  O   UNL A   1      32.938  28.832  26.940  1.00  0.00    -0.376 OA
BRANCH  22  23
ATOM     23  C   UNL A   1      32.358  30.107  26.714  1.00  0.00     0.202 C 
BRANCH  23  24
ATOM     24  C   UNL A   1      32.895  31.326  27.558  1.00  0.00     0.261 C 
BRANCH  24  25
ATOM     25  O   UNL A   1      34.349  31.444  27.616  1.00  0.00    -0.460 OA
BRANCH  25  26
ATOM     26  C   UNL A   1      35.036  31.592  28.813  1.00  0.00     0.338 C 
ATOM     27  O   UNL A   1      34.561  32.206  29.755  1.00  0.00    -0.246 OA
BRANCH  26  28
ATOM     28  C   UNL A   1      36.063  30.488  28.981  1.00  0.00     0.060 A 
ATOM     29  C   UNL A   1      36.312  29.606  30.025  1.00  0.00     0.016 A 
ATOM     30  C   UNL A   1      36.794  30.151  27.899  1.00  0.00     0.016 A 
ATOM     31  C   UNL A   1      37.580  28.900  30.203  1.00  0.00     0.010 A 
ATOM     32  C   UNL A   1      37.994  29.430  28.087  1.00  0.00     0.010 A 
ATOM     33  C   UNL A   1      38.634  29.023  29.319  1.00  0.00    -0.014 A 
BRANCH  33  34
ATOM     34  C   UNL A   1      40.352  28.980  29.839  1.00  0.00     0.031 A 
ATOM     35  C   UNL A   1      41.823  28.162  29.317  1.00  0.00     0.074 A 
ATOM     36  C   UNL A   1      40.691  30.005  30.642  1.00  0.00     0.049 A 
ATOM     37  N   UNL A   1      42.507  27.167  29.869  1.00  0.00    -0.248 NA
ATOM     38  C   UNL A   1      42.527  28.359  28.022  1.00  0.00     0.031 C 
ATOM     39  C   UNL A   1      42.023  30.468  31.005  1.00  0.00     0.029 A 
ATOM     40  N   UNL A   1      39.844  30.812  31.377  1.00  0.00    -0.354 N 
ATOM     41  C   UNL A   1      43.512  26.783  28.901  1.00  0.00     0.074 A 
ATOM     42  C   UNL A   1      42.914  27.133  27.673  1.00  0.00     0.031 C 
ATOM     43  C   UNL A   1      41.914  31.268  32.080  1.00  0.00     0.029 A 
ATOM     44  C   UNL A   1      40.527  31.225  32.521  1.00  0.00     0.049 A 
ATOM     45  H   UNL A   1      38.921  31.053  31.134  1.00  0.00     0.167 HD
ATOM     46  C   UNL A   1      44.889  26.981  28.990  1.00  0.00     0.031 A 
ATOM     47  C   UNL A   1      40.089  30.670  33.693  1.00  0.00     0.031 A 
ATOM     48  C   UNL A   1      45.155  27.652  30.242  1.00  0.00     0.049 A 
ATOM     49  C   UNL A   1      41.009  29.523  34.139  1.00  0.00     0.074 A 
ATOM     50  C   UNL A   1      45.498  28.939  30.609  1.00  0.00     0.029 A 
ATOM     51  N   UNL A   1      44.641  27.047  31.360  1.00  0.00    -0.354 N 
ATOM     52  N   UNL A   1      42.043  29.101  33.444  1.00  0.00    -0.248 NA
ATOM     53  C   UNL A   1      40.916  28.809  35.411  1.00  0.00     0.031 C 
ATOM     54  C   UNL A   1      45.014  29.132  31.947  1.00  0.00     0.029 A 
ATOM     55  C   UNL A   1      44.426  27.952  32.375  1.00  0.00     0.049 A 
ATOM     56  H   UNL A   1      44.448  26.084  31.428  1.00  0.00     0.167 HD
ATOM     57  C   UNL A   1      42.696  28.090  34.088  1.00  0.00     0.074 A 
ATOM     58  C   UNL A   1      41.965  27.963  35.335  1.00  0.00     0.031 C 
ATOM     59  C   UNL A   1      43.771  27.422  33.567  1.00  0.00     0.031 A 
BRANCH  46  60
ATOM     60  C   UNL A   1      45.923  26.957  27.792  1.00  0.00    -0.014 A 
ATOM     61  C   UNL A   1      46.529  25.743  27.395  1.00  0.00     0.010 A 
ATOM     62  C   UNL A   1      46.321  28.070  26.997  1.00  0.00     0.010 A 
ATOM     63  C   UNL A   1      47.463  25.652  26.324  1.00  0.00     0.020 A 
ATOM     64  C   UNL A   1      47.299  28.012  25.975  1.00  0.00     0.020 A 
ATOM     65  C   UNL A   1      47.848  26.792  25.621  1.00  0.00     0.054 A 
BRANCH  65  66
ATOM     66  S   UNL A   1      48.986  26.665  24.202  1.00  0.00     0.124 S 
ATOM     67  O   UNL A   1      50.212  26.162  24.816  1.00  0.00    -0.237 OA
ATOM     68  O   UNL A   1      48.289  25.729  23.325  1.00  0.00    -0.237 OA
ATOM     69  O   UNL A   1      49.070  28.035  23.697  1.00  0.00    -0.744 OA
ENDBRANCH  65  66
ENDBRANCH  46  60
BRANCH  47  70
ATOM     70  C   UNL A   1      38.597  30.935  33.839  1.00  0.00    -0.014 A 
ATOM     71  C   UNL A   1      38.276  31.895  34.839  1.00  0.00     0.010 A 
ATOM     72  C   UNL A   1      37.631  30.744  32.833  1.00  0.00     0.010 A 
ATOM     73  C   UNL A   1      37.201  32.787  34.711  1.00  0.00     0.020 A 
ATOM     74  C   UNL A   1      36.496  31.610  32.734  1.00  0.00     0.020 A 
ATOM     75  C   UNL A   1      36.340  32.679  33.627  1.00  0.00     0.054 A 
BRANCH  75  76
ATOM     76  S   UNL A   1      35.188  34.086  33.348  1.00  0.00     0.124 S 
ATOM     77  O   UNL A   1      35.875  34.860  32.321  1.00  0.00    -0.237 OA
ATOM     78  O   UNL A   1      33.972  33.394  32.912  1.00  0.00    -0.237 OA
ATOM     79  O   UNL A   1      35.102  34.736  34.652  1.00  0.00    -0.744 OA
ENDBRANCH  75  76
ENDBRANCH  47  70
BRANCH  59  80
ATOM     80  C   UNL A   1      44.305  26.095  34.087  1.00  0.00    -0.014 A 
ATOM     81  C   UNL A   1      43.558  24.911  34.087  1.00  0.00     0.010 A 
ATOM     82  C   UNL A   1      45.689  25.977  34.400  1.00  0.00     0.010 A 
ATOM     83  C   UNL A   1      44.133  23.696  34.481  1.00  0.00     0.020 A 
ATOM     84  C   UNL A   1      46.294  24.756  34.687  1.00  0.00     0.020 A 
ATOM     85  C   UNL A   1      45.494  23.630  34.790  1.00  0.00     0.054 A 
BRANCH  85  86
ATOM     86  S   UNL A   1      46.213  22.074  35.355  1.00  0.00     0.124 S 
ATOM     87  O   UNL A   1      46.003  22.168  36.798  1.00  0.00    -0.237 OA
ATOM     88  O   UNL A   1      45.406  21.069  34.668  1.00  0.00    -0.237 OA
ATOM     89  O   UNL A   1      47.603  22.157  34.917  1.00  0.00    -0.744 OA
ENDBRANCH  85  86
ENDBRANCH  59  80
ENDBRANCH  33  34
ENDBRANCH  26  28
ENDBRANCH  25  26
ENDBRANCH  24  25
ENDBRANCH  23  24
ENDBRANCH  22  23
ENDBRANCH   1  22
TORSDOF 21
ENDMDL
MODEL 2
REMARK VINA RESULT:     -10.6      1.702      2.365
REMARK SMILES Cc1cccc(-n2nc(Br)c(C(=O)OCCOCCOCCOC(=O)c3ccc(-c4c5nc(c(-c6ccc(S(=O)(=O)[O-])cc6)c6ccc([nH]6)c(-c6ccc(S(=O)(=O)[O-])cc6)c6nc(c(-c7ccc(S(=O)(=O)[O-])cc7)c7ccc4[nH]7)C=C6)C=C5)cc3)n2)c1
REMARK SMILES IDX 19 1 18 2 17 3 16 4 15 5 14 6 12 7 13 8 11 9 7 10 8 11 86 12
REMARK SMILES IDX 9 13 10 14 6 15 1 16 2 17 3 18 87 19 4 20 5 21 20 22 21 23
REMARK SMILES IDX 22 24 23 25 24 26 25 27 26 28 27 29 85 30 28 31 84 32 29 33
REMARK SMILES IDX 30 34 31 35 78 36 32 37 83 38 77 39 79 40 33 41 82 42 76 43
REMARK SMILES IDX 75 44 34 46 64 47 45 48 63 49 46 50 49 51 62 52 80 53 47 54
REMARK SMILES IDX 48 55 61 57 81 58 50 59 35 60 36 61 44 62 37 63 43 64 38 65
REMARK SMILES IDX 39 66 40 67 41 68 42 69 65 70 66 71 74 72 67 73 73 74 68 75
REMARK SMILES IDX 69 76 70 77 71 78 72 79 51 80 52 81 60 82 53 83 59 84 54 85
REMARK SMILES IDX 55 86 56 87 57 88 58 89
REMARK H PARENT 79 45 49 56
REMARK Flexibility Score: inf
ROOT
ATOM      1  C   UNL A   1      31.586  28.037  26.456  1.00  0.00     0.188 C 
ENDROOT
BRANCH   1   2
ATOM      2  C   UNL A   1      32.207  28.188  25.067  1.00  0.00     0.188 C 
BRANCH   2   3
ATOM      3  O   UNL A   1      31.435  27.370  24.199  1.00  0.00    -0.376 OA
BRANCH   3   4
ATOM      4  C   UNL A   1      31.954  27.254  22.874  1.00  0.00     0.202 C 
BRANCH   4   5
ATOM      5  C   UNL A   1      33.402  26.617  22.555  1.00  0.00     0.261 C 
BRANCH   5   6
ATOM      6  O   UNL A   1      33.842  25.121  22.391  1.00  0.00    -0.458 OA
BRANCH   6   7
ATOM      7  C   UNL A   1      34.217  24.469  23.543  1.00  0.00     0.361 C 
ATOM      8  O   UNL A   1      34.414  25.323  24.426  1.00  0.00    -0.244 OA
BRANCH   7   9
ATOM      9  C   UNL A   1      34.573  22.869  23.762  1.00  0.00     0.205 A 
ATOM     10  N   UNL A   1      33.951  20.926  24.289  1.00  0.00    -0.150 N 
ATOM     11  N   UNL A   1      34.951  21.028  25.125  1.00  0.00    -0.140 NA
ATOM     12  N   UNL A   1      33.615  21.963  23.479  1.00  0.00    -0.140 NA
ATOM     13  C   UNL A   1      35.623  22.026  24.582  1.00  0.00     0.163 A 
ATOM     14  Br  UNL A   1      37.410  21.940  25.304  1.00  0.00    -0.024 Br
BRANCH  10  15
ATOM     15  C   UNL A   1      33.611  19.631  24.012  1.00  0.00     0.086 A 
ATOM     16  C   UNL A   1      34.942  16.317  25.010  1.00  0.00     0.044 C 
ATOM     17  C   UNL A   1      34.070  17.348  24.378  1.00  0.00    -0.049 A 
ATOM     18  C   UNL A   1      33.095  17.062  23.406  1.00  0.00     0.003 A 
ATOM     19  C   UNL A   1      34.314  18.660  24.699  1.00  0.00     0.033 A 
ATOM     20  C   UNL A   1      32.286  18.071  22.855  1.00  0.00     0.003 A 
ATOM     21  C   UNL A   1      32.512  19.383  23.200  1.00  0.00     0.030 A 
ENDBRANCH  10  15
ENDBRANCH   7   9
ENDBRANCH   6   7
ENDBRANCH   5   6
ENDBRANCH   4   5
ENDBRANCH   3   4
ENDBRANCH   2   3
ENDBRANCH   1   2
BRANCH   1  22
ATOM     22  O   UNL A   1      31.929  29.068  27.365  1.00  0.00    -0.376 OA
BRANCH  22  23
ATOM     23  C   UNL A   1      32.252  30.294  26.726  1.00  0.00     0.202 C 
BRANCH  23  24
ATOM     24  C   UNL A   1      33.048  31.374  27.553  1.00  0.00     0.261 C 
BRANCH  24  25
ATOM     25  O   UNL A   1      34.500  31.219  27.532  1.00  0.00    -0.460 OA
BRANCH  25  26
ATOM     26  C   UNL A   1      35.285  31.414  28.660  1.00  0.00     0.338 C 
ATOM     27  O   UNL A   1      34.887  32.060  29.617  1.00  0.00    -0.246 OA
BRANCH  26  28
ATOM     28  C   UNL A   1      36.333  30.323  28.779  1.00  0.00     0.060 A 
ATOM     29  C   UNL A   1      36.644  29.447  29.810  1.00  0.00     0.016 A 
ATOM     30  C   UNL A   1      37.013  29.993  27.662  1.00  0.00     0.016 A 
ATOM     31  C   UNL A   1      37.927  28.756  29.927  1.00  0.00     0.010 A 
ATOM     32  C   UNL A   1      38.230  29.287  27.792  1.00  0.00     0.010 A 
ATOM     33  C   UNL A   1      38.935  28.889  28.991  1.00  0.00    -0.014 A 
BRANCH  33  34
ATOM     34  C   UNL A   1      40.677  28.868  29.426  1.00  0.00     0.031 A 
ATOM     35  C   UNL A   1      42.134  28.089  28.816  1.00  0.00     0.074 A 
ATOM     36  C   UNL A   1      41.037  29.884  30.233  1.00  0.00     0.049 A 
ATOM     37  N   UNL A   1      42.862  27.095  29.314  1.00  0.00    -0.248 NA
ATOM     38  C   UNL A   1      42.770  28.324  27.493  1.00  0.00     0.031 C 
ATOM     39  C   UNL A   1      42.377  30.364  30.540  1.00  0.00     0.029 A 
ATOM     40  N   UNL A   1      40.213  30.660  31.024  1.00  0.00    -0.354 N 
ATOM     41  C   UNL A   1      43.825  26.749  28.291  1.00  0.00     0.074 A 
ATOM     42  C   UNL A   1      43.161  27.113  27.101  1.00  0.00     0.031 C 
ATOM     43  C   UNL A   1      42.306  31.140  31.636  1.00  0.00     0.029 A 
ATOM     44  C   UNL A   1      40.944  31.063  32.143  1.00  0.00     0.049 A 
ATOM     45  H   UNL A   1      39.275  30.889  30.832  1.00  0.00     0.167 HD
ATOM     46  C   UNL A   1      45.201  26.971  28.317  1.00  0.00     0.031 A 
ATOM     47  C   UNL A   1      40.573  30.476  33.323  1.00  0.00     0.031 A 
ATOM     48  C   UNL A   1      45.517  27.622  29.568  1.00  0.00     0.049 A 
ATOM     49  C   UNL A   1      41.534  29.338  33.699  1.00  0.00     0.074 A 
ATOM     50  C   UNL A   1      45.854  28.908  29.944  1.00  0.00     0.029 A 
ATOM     51  N   UNL A   1      45.068  26.985  30.697  1.00  0.00    -0.354 N 
ATOM     52  N   UNL A   1      42.540  28.950  32.946  1.00  0.00    -0.248 NA
ATOM     53  C   UNL A   1      41.516  28.597  34.959  1.00  0.00     0.031 C 
ATOM     54  C   UNL A   1      45.433  29.065  31.308  1.00  0.00     0.029 A 
ATOM     55  C   UNL A   1      44.888  27.866  31.739  1.00  0.00     0.049 A 
ATOM     56  H   UNL A   1      44.896  26.018  30.754  1.00  0.00     0.167 HD
ATOM     57  C   UNL A   1      43.242  27.938  33.537  1.00  0.00     0.074 A 
ATOM     58  C   UNL A   1      42.574  27.773  34.815  1.00  0.00     0.031 C 
ATOM     59  C   UNL A   1      44.302  27.301  32.950  1.00  0.00     0.031 A 
BRANCH  46  60
ATOM     60  C   UNL A   1      46.175  26.990  27.069  1.00  0.00    -0.014 A 
ATOM     61  C   UNL A   1      46.119  25.959  26.103  1.00  0.00     0.010 A 
ATOM     62  C   UNL A   1      47.139  27.993  26.764  1.00  0.00     0.010 A 
ATOM     63  C   UNL A   1      46.964  25.918  24.958  1.00  0.00     0.020 A 
ATOM     64  C   UNL A   1      48.033  27.935  25.668  1.00  0.00     0.020 A 
ATOM     65  C   UNL A   1      47.923  26.907  24.748  1.00  0.00     0.054 A 
BRANCH  65  66
ATOM     66  S   UNL A   1      48.952  26.897  23.243  1.00  0.00     0.124 S 
ATOM     67  O   UNL A   1      48.645  28.188  22.633  1.00  0.00    -0.237 OA
ATOM     68  O   UNL A   1      50.301  26.762  23.788  1.00  0.00    -0.237 OA
ATOM     69  O   UNL A   1      48.471  25.735  22.498  1.00  0.00    -0.744 OA
ENDBRANCH  65  66
ENDBRANCH  46  60
BRANCH  47  70
ATOM     70  C   UNL A   1      39.086  30.711  33.547  1.00  0.00    -0.014 A 
ATOM     71  C   UNL A   1      38.757  31.107  34.873  1.00  0.00     0.010 A 
ATOM     72  C   UNL A   1      38.154  31.056  32.549  1.00  0.00     0.010 A 
ATOM     73  C   UNL A   1      37.716  32.005  35.157  1.00  0.00     0.020 A 
ATOM     74  C   UNL A   1      37.051  31.919  32.845  1.00  0.00     0.020 A 
ATOM     75  C   UNL A   1      36.895  32.454  34.131  1.00  0.00     0.054 A 
BRANCH  75  76
ATOM     76  S   UNL A   1      35.799  33.880  34.520  1.00  0.00     0.124 S 
ATOM     77  O   UNL A   1      34.550  33.507  33.866  1.00  0.00    -0.237 OA
ATOM     78  O   UNL A   1      35.780  33.851  35.985  1.00  0.00    -0.237 OA
ATOM     79  O   UNL A   1      36.484  35.024  33.928  1.00  0.00    -0.744 OA
ENDBRANCH  75  76
ENDBRANCH  47  70
BRANCH  59  80
ATOM     80  C   UNL A   1      44.883  25.973  33.417  1.00  0.00    -0.014 A 
ATOM     81  C   UNL A   1      46.199  25.825  33.869  1.00  0.00     0.010 A 
ATOM     82  C   UNL A   1      44.012  24.863  33.610  1.00  0.00     0.010 A 
ATOM     83  C   UNL A   1      46.651  24.603  34.384  1.00  0.00     0.020 A 
ATOM     84  C   UNL A   1      44.424  23.682  34.221  1.00  0.00     0.020 A 
ATOM     85  C   UNL A   1      45.762  23.538  34.545  1.00  0.00     0.054 A 
BRANCH  85  86
ATOM     86  S   UNL A   1      46.366  21.949  35.153  1.00  0.00     0.124 S 
ATOM     87  O   UNL A   1      45.304  21.574  36.084  1.00  0.00    -0.237 OA
ATOM     88  O   UNL A   1      46.450  21.141  33.939  1.00  0.00    -0.237 OA
ATOM     89  O   UNL A   1      47.649  22.279  35.767  1.00  0.00    -0.744 OA
ENDBRANCH  85  86
ENDBRANCH  59  80
ENDBRANCH  33  34
ENDBRANCH  26  28
ENDBRANCH  25  26
ENDBRANCH  24  25
ENDBRANCH  23  24
ENDBRANCH  22  23
ENDBRANCH   1  22
TORSDOF 21
ENDMDL
MODEL 3
REMARK VINA RESULT:     -10.4      3.870     10.157
REMARK SMILES Cc1cccc(-n2nc(Br)c(C(=O)OCCOCCOCCOC(=O)c3ccc(-c4c5nc(c(-c6ccc(S(=O)(=O)[O-])cc6)c6ccc([nH]6)c(-c6ccc(S(=O)(=O)[O-])cc6)c6nc(c(-c7ccc(S(=O)(=O)[O-])cc7)c7ccc4[nH]7)C=C6)C=C5)cc3)n2)c1
REMARK SMILES IDX 19 1 18 2 17 3 16 4 15 5 14 6 12 7 13 8 11 9 7 10 8 11 86 12
REMARK SMILES IDX 9 13 10 14 6 15 1 16 2 17 3 18 87 19 4 20 5 21 20 22 21 23
REMARK SMILES IDX 22 24 23 25 24 26 25 27 26 28 27 29 85 30 28 31 84 32 29 33
REMARK SMILES IDX 30 34 31 35 78 36 32 37 83 38 77 39 79 40 33 41 82 42 76 43
REMARK SMILES IDX 75 44 34 46 64 47 45 48 63 49 46 50 49 51 62 52 80 53 47 54
REMARK SMILES IDX 48 55 61 57 81 58 50 59 35 60 36 61 44 62 37 63 43 64 38 65
REMARK SMILES IDX 39 66 40 67 41 68 42 69 65 70 66 71 74 72 67 73 73 74 68 75
REMARK SMILES IDX 69 76 70 77 71 78 72 79 51 80 52 81 60 82 53 83 59 84 54 85
REMARK SMILES IDX 55 86 56 87 57 88 58 89
REMARK H PARENT 79 45 49 56
REMARK Flexibility Score: inf
ROOT
ATOM      1  C   UNL A   1      33.584  20.454  24.651  1.00  0.00     0.188 C 
ENDROOT
BRANCH   1   2
ATOM      2  C   UNL A   1      32.321  21.095  25.227  1.00  0.00     0.188 C 
BRANCH   2   3
ATOM      3  O   UNL A   1      31.853  22.002  24.237  1.00  0.00    -0.376 OA
BRANCH   3   4
ATOM      4  C   UNL A   1      31.733  23.353  24.681  1.00  0.00     0.202 C 
BRANCH   4   5
ATOM      5  C   UNL A   1      31.438  23.746  26.218  1.00  0.00     0.261 C 
BRANCH   5   6
ATOM      6  O   UNL A   1      30.875  25.070  26.841  1.00  0.00    -0.458 OA
BRANCH   6   7
ATOM      7  C   UNL A   1      30.944  26.191  26.046  1.00  0.00     0.361 C 
ATOM      8  O   UNL A   1      29.953  26.196  25.294  1.00  0.00    -0.244 OA
BRANCH   7   9
ATOM      9  C   UNL A   1      32.179  27.279  25.891  1.00  0.00     0.205 A 
ATOM     10  N   UNL A   1      33.062  29.114  26.436  1.00  0.00    -0.150 N 
ATOM     11  N   UNL A   1      33.037  29.303  25.142  1.00  0.00    -0.140 NA
ATOM     12  N   UNL A   1      32.542  27.984  26.982  1.00  0.00    -0.140 NA
ATOM     13  C   UNL A   1      32.882  28.063  24.717  1.00  0.00     0.163 A 
ATOM     14  Br  UNL A   1      33.417  28.049  22.864  1.00  0.00    -0.024 Br
BRANCH  10  15
ATOM     15  C   UNL A   1      33.994  29.884  27.075  1.00  0.00     0.086 A 
ATOM     16  C   UNL A   1      34.059  33.357  28.372  1.00  0.00     0.044 C 
ATOM     17  C   UNL A   1      34.495  31.966  28.060  1.00  0.00    -0.049 A 
ATOM     18  C   UNL A   1      35.816  31.506  28.206  1.00  0.00     0.003 A 
ATOM     19  C   UNL A   1      33.564  31.126  27.501  1.00  0.00     0.033 A 
ATOM     20  C   UNL A   1      36.171  30.178  27.913  1.00  0.00     0.003 A 
ATOM     21  C   UNL A   1      35.229  29.327  27.382  1.00  0.00     0.030 A 
ENDBRANCH  10  15
ENDBRANCH   7   9
ENDBRANCH   6   7
ENDBRANCH   5   6
ENDBRANCH   4   5
ENDBRANCH   3   4
ENDBRANCH   2   3
ENDBRANCH   1   2
BRANCH   1  22
ATOM     22  O   UNL A   1      34.770  21.197  24.874  1.00  0.00    -0.376 OA
BRANCH  22  23
ATOM     23  C   UNL A   1      34.868  21.713  26.192  1.00  0.00     0.202 C 
BRANCH  23  24
ATOM     24  C   UNL A   1      35.116  23.261  26.366  1.00  0.00     0.261 C 
BRANCH  24  25
ATOM     25  O   UNL A   1      36.490  23.633  26.693  1.00  0.00    -0.460 OA
BRANCH  25  26
ATOM     26  C   UNL A   1      37.527  23.526  25.777  1.00  0.00     0.338 C 
ATOM     27  O   UNL A   1      37.323  23.513  24.573  1.00  0.00    -0.246 OA
BRANCH  26  28
ATOM     28  C   UNL A   1      38.832  24.001  26.388  1.00  0.00     0.060 A 
ATOM     29  C   UNL A   1      39.513  23.613  27.535  1.00  0.00     0.016 A 
ATOM     30  C   UNL A   1      39.591  24.840  25.654  1.00  0.00     0.016 A 
ATOM     31  C   UNL A   1      40.519  24.440  28.198  1.00  0.00     0.010 A 
ATOM     32  C   UNL A   1      40.588  25.600  26.305  1.00  0.00     0.010 A 
ATOM     33  C   UNL A   1      40.909  25.674  27.714  1.00  0.00    -0.014 A 
BRANCH  33  34
ATOM     34  C   UNL A   1      41.365  27.041  28.786  1.00  0.00     0.031 A 
ATOM     35  C   UNL A   1      40.644  28.571  29.279  1.00  0.00     0.074 A 
ATOM     36  C   UNL A   1      42.361  26.739  29.639  1.00  0.00     0.049 A 
ATOM     37  N   UNL A   1      40.953  29.822  28.956  1.00  0.00    -0.248 NA
ATOM     38  C   UNL A   1      39.404  28.741  30.082  1.00  0.00     0.031 C 
ATOM     39  C   UNL A   1      42.781  27.462  30.831  1.00  0.00     0.029 A 
ATOM     40  N   UNL A   1      43.271  25.706  29.536  1.00  0.00    -0.354 N 
ATOM     41  C   UNL A   1      39.901  30.650  29.503  1.00  0.00     0.074 A 
ATOM     42  C   UNL A   1      38.792  29.781  29.517  1.00  0.00     0.031 C 
ATOM     43  C   UNL A   1      44.005  27.027  31.179  1.00  0.00     0.029 A 
ATOM     44  C   UNL A   1      44.461  26.117  30.138  1.00  0.00     0.049 A 
ATOM     45  H   UNL A   1      43.109  24.832  29.111  1.00  0.00     0.167 HD
ATOM     46  C   UNL A   1      39.997  31.538  30.574  1.00  0.00     0.031 A 
ATOM     47  C   UNL A   1      45.497  26.359  29.277  1.00  0.00     0.031 A 
ATOM     48  C   UNL A   1      41.356  31.492  31.062  1.00  0.00     0.049 A 
ATOM     49  C   UNL A   1      45.664  27.865  29.023  1.00  0.00     0.074 A 
ATOM     50  C   UNL A   1      41.982  30.947  32.167  1.00  0.00     0.029 A 
ATOM     51  N   UNL A   1      42.331  31.702  30.121  1.00  0.00    -0.354 N 
ATOM     52  N   UNL A   1      44.869  28.784  29.525  1.00  0.00    -0.248 NA
ATOM     53  C   UNL A   1      46.755  28.480  28.270  1.00  0.00     0.031 C 
ATOM     54  C   UNL A   1      43.342  30.686  31.788  1.00  0.00     0.029 A 
ATOM     55  C   UNL A   1      43.521  31.111  30.480  1.00  0.00     0.049 A 
ATOM     56  H   UNL A   1      42.196  32.212  29.290  1.00  0.00     0.167 HD
ATOM     57  C   UNL A   1      45.266  30.039  29.157  1.00  0.00     0.074 A 
ATOM     58  C   UNL A   1      46.475  29.793  28.392  1.00  0.00     0.031 C 
ATOM     59  C   UNL A   1      44.587  31.181  29.487  1.00  0.00     0.031 A 
BRANCH  46  60
ATOM     60  C   UNL A   1      38.796  32.111  31.432  1.00  0.00    -0.014 A 
ATOM     61  C   UNL A   1      38.027  33.196  30.949  1.00  0.00     0.010 A 
ATOM     62  C   UNL A   1      38.348  31.622  32.693  1.00  0.00     0.010 A 
ATOM     63  C   UNL A   1      36.933  33.755  31.669  1.00  0.00     0.020 A 
ATOM     64  C   UNL A   1      37.308  32.209  33.453  1.00  0.00     0.020 A 
ATOM     65  C   UNL A   1      36.581  33.261  32.923  1.00  0.00     0.054 A 
BRANCH  65  66
ATOM     66  S   UNL A   1      35.135  33.927  33.811  1.00  0.00     0.124 S 
ATOM     67  O   UNL A   1      35.362  33.478  35.182  1.00  0.00    -0.237 OA
ATOM     68  O   UNL A   1      35.267  35.364  33.588  1.00  0.00    -0.237 OA
ATOM     69  O   UNL A   1      33.995  33.303  33.140  1.00  0.00    -0.744 OA
ENDBRANCH  65  66
ENDBRANCH  46  60
BRANCH  47  70
ATOM     70  C   UNL A   1      45.733  25.118  28.426  1.00  0.00    -0.014 A 
ATOM     71  C   UNL A   1      45.122  23.941  28.941  1.00  0.00     0.010 A 
ATOM     72  C   UNL A   1      46.019  25.116  27.047  1.00  0.00     0.010 A 
ATOM     73  C   UNL A   1      44.593  22.941  28.110  1.00  0.00     0.020 A 
ATOM     74  C   UNL A   1      45.539  24.065  26.203  1.00  0.00     0.020 A 
ATOM     75  C   UNL A   1      44.755  23.031  26.733  1.00  0.00     0.054 A 
BRANCH  75  76
ATOM     76  S   UNL A   1      43.741  21.886  25.709  1.00  0.00     0.124 S 
ATOM     77  O   UNL A   1      43.349  22.729  24.587  1.00  0.00    -0.237 OA
ATOM     78  O   UNL A   1      44.707  20.829  25.400  1.00  0.00    -0.237 OA
ATOM     79  O   UNL A   1      42.650  21.494  26.595  1.00  0.00    -0.744 OA
ENDBRANCH  75  76
ENDBRANCH  47  70
BRANCH  59  80
ATOM     80  C   UNL A   1      44.799  32.536  28.828  1.00  0.00    -0.014 A 
ATOM     81  C   UNL A   1      44.401  32.827  27.518  1.00  0.00     0.010 A 
ATOM     82  C   UNL A   1      45.226  33.637  29.624  1.00  0.00     0.010 A 
ATOM     83  C   UNL A   1      44.526  34.121  26.996  1.00  0.00     0.020 A 
ATOM     84  C   UNL A   1      45.250  34.945  29.149  1.00  0.00     0.020 A 
ATOM     85  C   UNL A   1      44.960  35.168  27.813  1.00  0.00     0.054 A 
BRANCH  85  86
ATOM     86  S   UNL A   1      45.176  36.820  27.118  1.00  0.00     0.124 S 
ATOM     87  O   UNL A   1      45.797  37.524  28.236  1.00  0.00    -0.237 OA
ATOM     88  O   UNL A   1      46.042  36.583  25.966  1.00  0.00    -0.237 OA
ATOM     89  O   UNL A   1      43.814  37.237  26.793  1.00  0.00    -0.744 OA
ENDBRANCH  85  86
ENDBRANCH  59  80
ENDBRANCH  33  34
ENDBRANCH  26  28
ENDBRANCH  25  26
ENDBRANCH  24  25
ENDBRANCH  23  24
ENDBRANCH  22  23
ENDBRANCH   1  22
TORSDOF 21
ENDMDL
