MODEL 1
REMARK VINA RESULT:      -9.8      0.000      0.000
REMARK SMILES Cc1ccc([C@H]2CC(c3cccs3)=NN2C(=O)CCC(=O)OCCOCCOCCOC(=O)c2ccc(-c3c4nc(c(-c5ccc(S(=O)(=O)[O-])cc5)c5ccc([nH]5)c(-c5ccc(S(=O)(=O)[O-])cc5)c5nc(c(-c6ccc(S(=O)(=O)[O-])cc6)c6ccc3[nH]6)C=C5)C=C4)cc2)o1
REMARK SMILES IDX 26 1 25 2 24 3 23 4 22 5 20 6 21 7 19 8 18 9 16 10 17 11
REMARK SMILES IDX 15 12 6 13 7 14 8 15 14 16 5 17 1 18 2 19 3 20 94 21 4 22
REMARK SMILES IDX 9 23 10 24 13 25 11 26 12 27 27 28 28 29 29 30 30 31 31 32
REMARK SMILES IDX 32 33 33 34 34 35 35 36 93 37 36 38 92 39 37 40 38 41 39 42
REMARK SMILES IDX 86 43 40 44 91 45 85 46 87 47 41 48 90 49 84 50 83 51 42 53
REMARK SMILES IDX 72 54 53 55 71 56 54 57 57 58 70 59 88 60 55 61 56 62 69 64
REMARK SMILES IDX 89 65 58 66 43 67 44 68 52 69 45 70 51 71 46 72 47 73 48 74
REMARK SMILES IDX 49 75 50 76 73 77 74 78 82 79 75 80 81 81 76 82 77 83 78 84
REMARK SMILES IDX 79 85 80 86 59 87 60 88 68 89 61 90 67 91 62 92 63 93 64 94
REMARK SMILES IDX 65 95 66 96
REMARK H PARENT 87 52 57 63
REMARK Flexibility Score: inf
ROOT
ATOM      1  C   UNL A   1      32.970  31.199  26.802  1.00  0.00     0.188 C 
ENDROOT
BRANCH   1   2
ATOM      2  O   UNL A   1      32.438  29.939  26.347  1.00  0.00    -0.376 OA
BRANCH   2   3
ATOM      3  C   UNL A   1      33.239  28.813  25.864  1.00  0.00     0.202 C 
BRANCH   3   4
ATOM      4  C   UNL A   1      33.492  28.556  24.125  1.00  0.00     0.261 C 
BRANCH   4   5
ATOM      5  O   UNL A   1      34.083  27.184  23.571  1.00  0.00    -0.463 OA
BRANCH   5   6
ATOM      6  C   UNL A   1      33.986  25.822  23.900  1.00  0.00     0.306 C 
ATOM      7  O   UNL A   1      33.635  24.994  23.058  1.00  0.00    -0.252 OA
BRANCH   6   8
ATOM      8  C   UNL A   1      34.743  25.271  25.310  1.00  0.00     0.132 C 
BRANCH   8   9
ATOM      9  C   UNL A   1      35.374  23.890  25.671  1.00  0.00     0.114 C 
BRANCH   9  10
ATOM     10  C   UNL A   1      34.493  23.227  26.646  1.00  0.00     0.243 C 
ATOM     11  O   UNL A   1      34.694  23.224  27.853  1.00  0.00    -0.273 OA
BRANCH  10  12
ATOM     12  N   UNL A   1      33.549  22.519  25.967  1.00  0.00    -0.222 N 
ATOM     13  C   UNL A   1      32.068  22.727  26.090  1.00  0.00     0.183 C 
ATOM     14  C   UNL A   1      31.637  21.356  25.449  1.00  0.00     0.095 C 
ATOM     15  C   UNL A   1      32.896  20.753  24.929  1.00  0.00     0.081 C 
ATOM     16  N   UNL A   1      33.964  21.370  25.297  1.00  0.00    -0.173 NA
BRANCH  13  17
ATOM     17  C   UNL A   1      31.315  24.348  25.782  1.00  0.00     0.129 A 
ATOM     18  C   UNL A   1      30.168  26.597  23.115  1.00  0.00     0.087 C 
ATOM     19  C   UNL A   1      30.473  25.964  24.407  1.00  0.00     0.101 A 
ATOM     20  C   UNL A   1      30.610  26.598  25.595  1.00  0.00     0.045 A 
ATOM     21  O   UNL A   1      30.770  24.613  24.505  1.00  0.00    -0.464 OA
ATOM     22  C   UNL A   1      31.110  25.608  26.438  1.00  0.00     0.048 A 
ENDBRANCH  13  17
BRANCH  15  23
ATOM     23  C   UNL A   1      32.852  19.578  24.077  1.00  0.00     0.050 A 
ATOM     24  C   UNL A   1      33.450  18.340  24.256  1.00  0.00     0.022 A 
ATOM     25  S   UNL A   1      32.066  19.670  22.561  1.00  0.00    -0.142 S 
ATOM     26  C   UNL A   1      33.268  17.470  23.134  1.00  0.00     0.012 A 
ATOM     27  C   UNL A   1      32.532  18.075  22.140  1.00  0.00     0.065 A 
ENDBRANCH  15  23
ENDBRANCH  10  12
ENDBRANCH   9  10
ENDBRANCH   8   9
ENDBRANCH   6   8
ENDBRANCH   5   6
ENDBRANCH   4   5
ENDBRANCH   3   4
ENDBRANCH   2   3
ENDBRANCH   1   2
BRANCH   1  28
ATOM     28  C   UNL A   1      31.918  32.366  26.914  1.00  0.00     0.188 C 
BRANCH  28  29
ATOM     29  O   UNL A   1      32.274  33.553  27.623  1.00  0.00    -0.376 OA
BRANCH  29  30
ATOM     30  C   UNL A   1      33.663  33.738  27.848  1.00  0.00     0.202 C 
BRANCH  30  31
ATOM     31  C   UNL A   1      34.139  33.483  29.286  1.00  0.00     0.261 C 
BRANCH  31  32
ATOM     32  O   UNL A   1      34.431  32.102  29.572  1.00  0.00    -0.460 OA
BRANCH  32  33
ATOM     33  C   UNL A   1      35.220  31.893  30.660  1.00  0.00     0.338 C 
ATOM     34  O   UNL A   1      34.953  32.181  31.826  1.00  0.00    -0.246 OA
BRANCH  33  35
ATOM     35  C   UNL A   1      36.398  31.075  30.291  1.00  0.00     0.060 A 
ATOM     36  C   UNL A   1      36.983  30.251  31.269  1.00  0.00     0.016 A 
ATOM     37  C   UNL A   1      36.939  31.129  29.006  1.00  0.00     0.016 A 
ATOM     38  C   UNL A   1      38.151  29.539  30.988  1.00  0.00     0.010 A 
ATOM     39  C   UNL A   1      38.124  30.439  28.734  1.00  0.00     0.010 A 
ATOM     40  C   UNL A   1      38.764  29.687  29.738  1.00  0.00    -0.014 A 
BRANCH  40  41
ATOM     41  C   UNL A   1      40.190  29.318  29.552  1.00  0.00     0.031 A 
ATOM     42  C   UNL A   1      41.212  30.409  29.717  1.00  0.00     0.074 A 
ATOM     43  C   UNL A   1      40.579  28.076  29.216  1.00  0.00     0.049 A 
ATOM     44  N   UNL A   1      42.490  30.395  29.452  1.00  0.00    -0.248 NA
ATOM     45  C   UNL A   1      40.715  31.697  30.235  1.00  0.00     0.031 C 
ATOM     46  C   UNL A   1      39.691  26.929  29.088  1.00  0.00     0.029 A 
ATOM     47  N   UNL A   1      41.816  27.574  28.902  1.00  0.00    -0.354 N 
ATOM     48  C   UNL A   1      42.946  31.674  29.746  1.00  0.00     0.074 A 
ATOM     49  C   UNL A   1      41.805  32.445  30.188  1.00  0.00     0.031 C 
ATOM     50  C   UNL A   1      40.401  25.854  28.711  1.00  0.00     0.029 A 
ATOM     51  C   UNL A   1      41.791  26.255  28.510  1.00  0.00     0.049 A 
ATOM     52  H   UNL A   1      42.643  28.106  28.952  1.00  0.00     0.167 HD
ATOM     53  C   UNL A   1      44.203  32.163  29.651  1.00  0.00     0.031 A 
ATOM     54  C   UNL A   1      42.769  25.476  28.006  1.00  0.00     0.031 A 
ATOM     55  C   UNL A   1      45.325  31.390  29.193  1.00  0.00     0.049 A 
ATOM     56  C   UNL A   1      44.144  26.064  27.829  1.00  0.00     0.074 A 
ATOM     57  C   UNL A   1      46.644  31.784  29.061  1.00  0.00     0.029 A 
ATOM     58  N   UNL A   1      45.258  30.066  28.784  1.00  0.00    -0.354 N 
ATOM     59  N   UNL A   1      44.564  27.275  28.110  1.00  0.00    -0.248 NA
ATOM     60  C   UNL A   1      45.179  25.182  27.271  1.00  0.00     0.031 C 
ATOM     61  C   UNL A   1      47.363  30.717  28.512  1.00  0.00     0.029 A 
ATOM     62  C   UNL A   1      46.506  29.634  28.373  1.00  0.00     0.049 A 
ATOM     63  H   UNL A   1      44.442  29.514  28.786  1.00  0.00     0.167 HD
ATOM     64  C   UNL A   1      45.920  27.291  27.795  1.00  0.00     0.074 A 
ATOM     65  C   UNL A   1      46.248  25.965  27.313  1.00  0.00     0.031 C 
ATOM     66  C   UNL A   1      46.812  28.307  27.898  1.00  0.00     0.031 A 
BRANCH  53  67
ATOM     67  C   UNL A   1      44.414  33.611  30.005  1.00  0.00    -0.014 A 
ATOM     68  C   UNL A   1      44.102  34.641  29.100  1.00  0.00     0.010 A 
ATOM     69  C   UNL A   1      44.915  33.946  31.276  1.00  0.00     0.010 A 
ATOM     70  C   UNL A   1      44.321  35.978  29.446  1.00  0.00     0.020 A 
ATOM     71  C   UNL A   1      45.106  35.283  31.638  1.00  0.00     0.020 A 
ATOM     72  C   UNL A   1      44.821  36.289  30.714  1.00  0.00     0.054 A 
BRANCH  72  73
ATOM     73  S   UNL A   1      45.066  38.033  31.146  1.00  0.00     0.124 S 
ATOM     74  O   UNL A   1      43.855  38.650  30.611  1.00  0.00    -0.237 OA
ATOM     75  O   UNL A   1      45.157  37.991  32.604  1.00  0.00    -0.237 OA
ATOM     76  O   UNL A   1      46.303  38.391  30.457  1.00  0.00    -0.744 OA
ENDBRANCH  72  73
ENDBRANCH  53  67
BRANCH  54  77
ATOM     77  C   UNL A   1      42.476  24.071  27.600  1.00  0.00    -0.014 A 
ATOM     78  C   UNL A   1      42.690  23.006  28.491  1.00  0.00     0.010 A 
ATOM     79  C   UNL A   1      41.979  23.792  26.312  1.00  0.00     0.010 A 
ATOM     80  C   UNL A   1      42.425  21.689  28.101  1.00  0.00     0.020 A 
ATOM     81  C   UNL A   1      41.684  22.480  25.929  1.00  0.00     0.020 A 
ATOM     82  C   UNL A   1      41.918  21.435  26.824  1.00  0.00     0.054 A 
BRANCH  82  83
ATOM     83  S   UNL A   1      41.525  19.725  26.361  1.00  0.00     0.124 S 
ATOM     84  O   UNL A   1      41.786  19.005  27.603  1.00  0.00    -0.237 OA
ATOM     85  O   UNL A   1      40.121  19.823  25.967  1.00  0.00    -0.237 OA
ATOM     86  O   UNL A   1      42.452  19.447  25.266  1.00  0.00    -0.744 OA
ENDBRANCH  82  83
ENDBRANCH  54  77
BRANCH  66  87
ATOM     87  C   UNL A   1      48.243  28.016  27.528  1.00  0.00    -0.014 A 
ATOM     88  C   UNL A   1      49.109  27.351  28.412  1.00  0.00     0.010 A 
ATOM     89  C   UNL A   1      48.705  28.363  26.245  1.00  0.00     0.010 A 
ATOM     90  C   UNL A   1      50.423  27.068  28.031  1.00  0.00     0.020 A 
ATOM     91  C   UNL A   1      50.007  28.051  25.848  1.00  0.00     0.020 A 
ATOM     92  C   UNL A   1      50.862  27.417  26.750  1.00  0.00     0.054 A 
BRANCH  92  93
ATOM     93  S   UNL A   1      52.558  26.996  26.265  1.00  0.00     0.124 S 
ATOM     94  O   UNL A   1      53.323  27.429  27.431  1.00  0.00    -0.237 OA
ATOM     95  O   UNL A   1      52.483  25.551  26.063  1.00  0.00    -0.237 OA
ATOM     96  O   UNL A   1      52.777  27.780  25.051  1.00  0.00    -0.744 OA
ENDBRANCH  92  93
ENDBRANCH  66  87
ENDBRANCH  40  41
ENDBRANCH  33  35
ENDBRANCH  32  33
ENDBRANCH  31  32
ENDBRANCH  30  31
ENDBRANCH  29  30
ENDBRANCH  28  29
ENDBRANCH   1  28
TORSDOF 25
ENDMDL
MODEL 2
REMARK VINA RESULT:      -9.0      7.979     11.685
REMARK SMILES Cc1ccc([C@H]2CC(c3cccs3)=NN2C(=O)CCC(=O)OCCOCCOCCOC(=O)c2ccc(-c3c4nc(c(-c5ccc(S(=O)(=O)[O-])cc5)c5ccc([nH]5)c(-c5ccc(S(=O)(=O)[O-])cc5)c5nc(c(-c6ccc(S(=O)(=O)[O-])cc6)c6ccc3[nH]6)C=C5)C=C4)cc2)o1
REMARK SMILES IDX 26 1 25 2 24 3 23 4 22 5 20 6 21 7 19 8 18 9 16 10 17 11
REMARK SMILES IDX 15 12 6 13 7 14 8 15 14 16 5 17 1 18 2 19 3 20 94 21 4 22
REMARK SMILES IDX 9 23 10 24 13 25 11 26 12 27 27 28 28 29 29 30 30 31 31 32
REMARK SMILES IDX 32 33 33 34 34 35 35 36 93 37 36 38 92 39 37 40 38 41 39 42
REMARK SMILES IDX 86 43 40 44 91 45 85 46 87 47 41 48 90 49 84 50 83 51 42 53
REMARK SMILES IDX 72 54 53 55 71 56 54 57 57 58 70 59 88 60 55 61 56 62 69 64
REMARK SMILES IDX 89 65 58 66 43 67 44 68 52 69 45 70 51 71 46 72 47 73 48 74
REMARK SMILES IDX 49 75 50 76 73 77 74 78 82 79 75 80 81 81 76 82 77 83 78 84
REMARK SMILES IDX 79 85 80 86 59 87 60 88 68 89 61 90 67 91 62 92 63 93 64 94
REMARK SMILES IDX 65 95 66 96
REMARK H PARENT 87 52 57 63
REMARK Flexibility Score: inf
ROOT
ATOM      1  C   UNL A   1      33.966  32.269  27.946  1.00  0.00     0.188 C 
ENDROOT
BRANCH   1   2
ATOM      2  O   UNL A   1      33.769  31.041  27.215  1.00  0.00    -0.376 OA
BRANCH   2   3
ATOM      3  C   UNL A   1      32.469  30.493  26.828  1.00  0.00     0.202 C 
BRANCH   3   4
ATOM      4  C   UNL A   1      32.226  28.740  26.684  1.00  0.00     0.261 C 
BRANCH   4   5
ATOM      5  O   UNL A   1      32.700  27.945  25.388  1.00  0.00    -0.463 OA
BRANCH   5   6
ATOM      6  C   UNL A   1      33.619  26.923  25.093  1.00  0.00     0.306 C 
ATOM      7  O   UNL A   1      34.127  26.254  25.993  1.00  0.00    -0.252 OA
BRANCH   6   8
ATOM      8  C   UNL A   1      33.706  26.343  23.505  1.00  0.00     0.132 C 
BRANCH   8   9
ATOM      9  C   UNL A   1      33.232  26.962  22.153  1.00  0.00     0.114 C 
BRANCH   9  10
ATOM     10  C   UNL A   1      31.974  26.304  21.766  1.00  0.00     0.243 C 
ATOM     11  O   UNL A   1      31.873  25.525  20.827  1.00  0.00    -0.273 OA
BRANCH  10  12
ATOM     12  N   UNL A   1      30.963  26.825  22.514  1.00  0.00    -0.222 N 
ATOM     13  C   UNL A   1      30.031  26.023  23.373  1.00  0.00     0.183 C 
ATOM     14  C   UNL A   1      28.927  27.133  23.531  1.00  0.00     0.095 C 
ATOM     15  C   UNL A   1      29.514  28.360  22.923  1.00  0.00     0.081 C 
ATOM     16  N   UNL A   1      30.614  28.154  22.286  1.00  0.00    -0.173 NA
BRANCH  13  17
ATOM     17  C   UNL A   1      30.659  24.930  24.679  1.00  0.00     0.129 A 
ATOM     18  C   UNL A   1      31.887  21.531  25.330  1.00  0.00     0.087 C 
ATOM     19  C   UNL A   1      31.498  22.946  25.433  1.00  0.00     0.101 A 
ATOM     20  C   UNL A   1      31.168  23.603  26.569  1.00  0.00     0.045 A 
ATOM     21  O   UNL A   1      31.319  23.737  24.308  1.00  0.00    -0.464 OA
ATOM     22  C   UNL A   1      30.671  24.821  26.110  1.00  0.00     0.048 A 
ENDBRANCH  13  17
BRANCH  15  23
ATOM     23  C   UNL A   1      28.859  29.645  23.082  1.00  0.00     0.050 A 
ATOM     24  C   UNL A   1      27.553  29.927  23.456  1.00  0.00     0.022 A 
ATOM     25  S   UNL A   1      29.702  31.074  22.667  1.00  0.00    -0.142 S 
ATOM     26  C   UNL A   1      27.247  31.322  23.389  1.00  0.00     0.012 A 
ATOM     27  C   UNL A   1      28.332  32.059  22.969  1.00  0.00     0.065 A 
ENDBRANCH  15  23
ENDBRANCH  10  12
ENDBRANCH   9  10
ENDBRANCH   8   9
ENDBRANCH   6   8
ENDBRANCH   5   6
ENDBRANCH   4   5
ENDBRANCH   3   4
ENDBRANCH   2   3
ENDBRANCH   1   2
BRANCH   1  28
ATOM     28  C   UNL A   1      32.851  33.360  27.728  1.00  0.00     0.188 C 
BRANCH  28  29
ATOM     29  O   UNL A   1      32.894  34.558  28.504  1.00  0.00    -0.376 OA
BRANCH  29  30
ATOM     30  C   UNL A   1      34.122  34.814  29.167  1.00  0.00     0.202 C 
BRANCH  30  31
ATOM     31  C   UNL A   1      34.085  34.693  30.698  1.00  0.00     0.261 C 
BRANCH  31  32
ATOM     32  O   UNL A   1      34.650  33.469  31.205  1.00  0.00    -0.460 OA
BRANCH  32  33
ATOM     33  C   UNL A   1      34.454  33.250  32.533  1.00  0.00     0.338 C 
ATOM     34  O   UNL A   1      33.392  32.950  33.078  1.00  0.00    -0.246 OA
BRANCH  33  35
ATOM     35  C   UNL A   1      35.751  33.225  33.247  1.00  0.00     0.060 A 
ATOM     36  C   UNL A   1      36.378  31.985  33.466  1.00  0.00     0.016 A 
ATOM     37  C   UNL A   1      36.339  34.400  33.714  1.00  0.00     0.016 A 
ATOM     38  C   UNL A   1      37.553  31.910  34.219  1.00  0.00     0.010 A 
ATOM     39  C   UNL A   1      37.498  34.321  34.491  1.00  0.00     0.010 A 
ATOM     40  C   UNL A   1      38.077  33.073  34.793  1.00  0.00    -0.014 A 
BRANCH  40  41
ATOM     41  C   UNL A   1      39.034  32.987  35.926  1.00  0.00     0.031 A 
ATOM     42  C   UNL A   1      40.492  32.841  35.588  1.00  0.00     0.074 A 
ATOM     43  C   UNL A   1      38.638  33.002  37.210  1.00  0.00     0.049 A 
ATOM     44  N   UNL A   1      41.503  32.583  36.372  1.00  0.00    -0.248 NA
ATOM     45  C   UNL A   1      40.851  32.990  34.166  1.00  0.00     0.031 C 
ATOM     46  C   UNL A   1      37.267  33.198  37.659  1.00  0.00     0.029 A 
ATOM     47  N   UNL A   1      39.346  32.830  38.373  1.00  0.00    -0.354 N 
ATOM     48  C   UNL A   1      42.612  32.513  35.539  1.00  0.00     0.074 A 
ATOM     49  C   UNL A   1      42.149  32.733  34.187  1.00  0.00     0.031 C 
ATOM     50  C   UNL A   1      37.221  33.125  38.999  1.00  0.00     0.029 A 
ATOM     51  C   UNL A   1      38.556  32.814  39.500  1.00  0.00     0.049 A 
ATOM     52  H   UNL A   1      40.325  32.728  38.398  1.00  0.00     0.167 HD
ATOM     53  C   UNL A   1      43.903  32.281  35.872  1.00  0.00     0.031 A 
ATOM     54  C   UNL A   1      38.872  32.536  40.781  1.00  0.00     0.031 A 
ATOM     55  C   UNL A   1      44.347  32.046  37.219  1.00  0.00     0.049 A 
ATOM     56  C   UNL A   1      40.300  32.197  41.119  1.00  0.00     0.074 A 
ATOM     57  C   UNL A   1      45.632  31.803  37.670  1.00  0.00     0.029 A 
ATOM     58  N   UNL A   1      43.517  32.015  38.330  1.00  0.00    -0.354 N 
ATOM     59  N   UNL A   1      41.341  32.134  40.323  1.00  0.00    -0.248 NA
ATOM     60  C   UNL A   1      40.598  31.896  42.526  1.00  0.00     0.031 C 
ATOM     61  C   UNL A   1      45.570  31.563  39.046  1.00  0.00     0.029 A 
ATOM     62  C   UNL A   1      44.257  31.730  39.464  1.00  0.00     0.049 A 
ATOM     63  H   UNL A   1      42.545  32.173  38.314  1.00  0.00     0.167 HD
ATOM     64  C   UNL A   1      42.424  31.819  41.138  1.00  0.00     0.074 A 
ATOM     65  C   UNL A   1      41.910  31.716  42.488  1.00  0.00     0.031 C 
ATOM     66  C   UNL A   1      43.725  31.635  40.801  1.00  0.00     0.031 A 
BRANCH  53  67
ATOM     67  C   UNL A   1      44.909  32.224  34.754  1.00  0.00    -0.014 A 
ATOM     68  C   UNL A   1      45.180  31.026  34.069  1.00  0.00     0.010 A 
ATOM     69  C   UNL A   1      45.581  33.398  34.368  1.00  0.00     0.010 A 
ATOM     70  C   UNL A   1      46.130  30.994  33.045  1.00  0.00     0.020 A 
ATOM     71  C   UNL A   1      46.509  33.378  33.323  1.00  0.00     0.020 A 
ATOM     72  C   UNL A   1      46.787  32.173  32.678  1.00  0.00     0.054 A 
BRANCH  72  73
ATOM     73  S   UNL A   1      47.992  32.108  31.324  1.00  0.00     0.124 S 
ATOM     74  O   UNL A   1      47.730  30.791  30.749  1.00  0.00    -0.237 OA
ATOM     75  O   UNL A   1      47.601  33.245  30.494  1.00  0.00    -0.237 OA
ATOM     76  O   UNL A   1      49.280  32.247  31.999  1.00  0.00    -0.744 OA
ENDBRANCH  72  73
ENDBRANCH  53  67
BRANCH  54  77
ATOM     77  C   UNL A   1      37.812  32.532  41.831  1.00  0.00    -0.014 A 
ATOM     78  C   UNL A   1      37.468  33.713  42.510  1.00  0.00     0.010 A 
ATOM     79  C   UNL A   1      37.138  31.339  42.156  1.00  0.00     0.010 A 
ATOM     80  C   UNL A   1      36.482  33.701  43.503  1.00  0.00     0.020 A 
ATOM     81  C   UNL A   1      36.130  31.329  43.126  1.00  0.00     0.020 A 
ATOM     82  C   UNL A   1      35.815  32.510  43.800  1.00  0.00     0.054 A 
BRANCH  82  83
ATOM     83  S   UNL A   1      34.498  32.530  45.048  1.00  0.00     0.124 S 
ATOM     84  O   UNL A   1      34.645  31.217  45.667  1.00  0.00    -0.237 OA
ATOM     85  O   UNL A   1      34.875  33.670  45.880  1.00  0.00    -0.237 OA
ATOM     86  O   UNL A   1      33.284  32.720  44.259  1.00  0.00    -0.744 OA
ENDBRANCH  82  83
ENDBRANCH  54  77
BRANCH  66  87
ATOM     87  C   UNL A   1      44.698  31.350  41.915  1.00  0.00    -0.014 A 
ATOM     88  C   UNL A   1      45.348  32.388  42.606  1.00  0.00     0.010 A 
ATOM     89  C   UNL A   1      44.915  30.019  42.315  1.00  0.00     0.010 A 
ATOM     90  C   UNL A   1      46.222  32.095  43.655  1.00  0.00     0.020 A 
ATOM     91  C   UNL A   1      45.762  29.725  43.386  1.00  0.00     0.020 A 
ATOM     92  C   UNL A   1      46.422  30.766  44.040  1.00  0.00     0.054 A 
BRANCH  92  93
ATOM     93  S   UNL A   1      47.527  30.418  45.434  1.00  0.00     0.124 S 
ATOM     94  O   UNL A   1      47.904  31.762  45.865  1.00  0.00    -0.237 OA
ATOM     95  O   UNL A   1      46.660  29.683  46.353  1.00  0.00    -0.237 OA
ATOM     96  O   UNL A   1      48.603  29.631  44.837  1.00  0.00    -0.744 OA
ENDBRANCH  92  93
ENDBRANCH  66  87
ENDBRANCH  40  41
ENDBRANCH  33  35
ENDBRANCH  32  33
ENDBRANCH  31  32
ENDBRANCH  30  31
ENDBRANCH  29  30
ENDBRANCH  28  29
ENDBRANCH   1  28
TORSDOF 25
ENDMDL
MODEL 3
REMARK VINA RESULT:      -9.0      7.586     12.715
REMARK SMILES Cc1ccc([C@H]2CC(c3cccs3)=NN2C(=O)CCC(=O)OCCOCCOCCOC(=O)c2ccc(-c3c4nc(c(-c5ccc(S(=O)(=O)[O-])cc5)c5ccc([nH]5)c(-c5ccc(S(=O)(=O)[O-])cc5)c5nc(c(-c6ccc(S(=O)(=O)[O-])cc6)c6ccc3[nH]6)C=C5)C=C4)cc2)o1
REMARK SMILES IDX 26 1 25 2 24 3 23 4 22 5 20 6 21 7 19 8 18 9 16 10 17 11
REMARK SMILES IDX 15 12 6 13 7 14 8 15 14 16 5 17 1 18 2 19 3 20 94 21 4 22
REMARK SMILES IDX 9 23 10 24 13 25 11 26 12 27 27 28 28 29 29 30 30 31 31 32
REMARK SMILES IDX 32 33 33 34 34 35 35 36 93 37 36 38 92 39 37 40 38 41 39 42
REMARK SMILES IDX 86 43 40 44 91 45 85 46 87 47 41 48 90 49 84 50 83 51 42 53
REMARK SMILES IDX 72 54 53 55 71 56 54 57 57 58 70 59 88 60 55 61 56 62 69 64
REMARK SMILES IDX 89 65 58 66 43 67 44 68 52 69 45 70 51 71 46 72 47 73 48 74
REMARK SMILES IDX 49 75 50 76 73 77 74 78 82 79 75 80 81 81 76 82 77 83 78 84
REMARK SMILES IDX 79 85 80 86 59 87 60 88 68 89 61 90 67 91 62 92 63 93 64 94
REMARK SMILES IDX 65 95 66 96
REMARK H PARENT 87 52 57 63
REMARK Flexibility Score: inf
ROOT
ATOM      1  C   UNL A   1      34.398  30.563  27.384  1.00  0.00     0.188 C 
ENDROOT
BRANCH   1   2
ATOM      2  O   UNL A   1      33.321  30.059  26.567  1.00  0.00    -0.376 OA
BRANCH   2   3
ATOM      3  C   UNL A   1      32.066  29.508  27.079  1.00  0.00     0.202 C 
BRANCH   3   4
ATOM      4  C   UNL A   1      31.801  27.753  27.143  1.00  0.00     0.261 C 
BRANCH   4   5
ATOM      5  O   UNL A   1      31.353  26.939  25.849  1.00  0.00    -0.463 OA
BRANCH   5   6
ATOM      6  C   UNL A   1      30.943  25.627  25.557  1.00  0.00     0.306 C 
ATOM      7  O   UNL A   1      30.509  25.336  24.442  1.00  0.00    -0.252 OA
BRANCH   6   8
ATOM      8  C   UNL A   1      31.432  24.375  26.587  1.00  0.00     0.132 C 
BRANCH   8   9
ATOM      9  C   UNL A   1      32.829  23.724  26.830  1.00  0.00     0.114 C 
BRANCH   9  10
ATOM     10  C   UNL A   1      33.070  22.747  25.756  1.00  0.00     0.243 C 
ATOM     11  O   UNL A   1      32.315  21.819  25.499  1.00  0.00    -0.273 OA
BRANCH  10  12
ATOM     12  N   UNL A   1      34.308  22.969  25.235  1.00  0.00    -0.222 N 
ATOM     13  C   UNL A   1      34.596  23.216  23.784  1.00  0.00     0.183 C 
ATOM     14  C   UNL A   1      36.141  22.925  23.852  1.00  0.00     0.095 C 
ATOM     15  C   UNL A   1      36.448  22.771  25.302  1.00  0.00     0.081 C 
ATOM     16  N   UNL A   1      35.405  22.715  26.055  1.00  0.00    -0.173 NA
BRANCH  13  17
ATOM     17  C   UNL A   1      33.791  24.568  22.881  1.00  0.00     0.129 A 
ATOM     18  C   UNL A   1      32.452  25.521  19.597  1.00  0.00     0.087 C 
ATOM     19  C   UNL A   1      32.839  25.476  21.015  1.00  0.00     0.101 A 
ATOM     20  C   UNL A   1      33.024  26.542  21.828  1.00  0.00     0.045 A 
ATOM     21  O   UNL A   1      33.173  24.284  21.641  1.00  0.00    -0.464 OA
ATOM     22  C   UNL A   1      33.590  25.986  22.973  1.00  0.00     0.048 A 
ENDBRANCH  13  17
BRANCH  15  23
ATOM     23  C   UNL A   1      37.824  22.707  25.760  1.00  0.00     0.050 A 
ATOM     24  C   UNL A   1      38.709  21.640  25.739  1.00  0.00     0.022 A 
ATOM     25  S   UNL A   1      38.507  24.058  26.555  1.00  0.00    -0.142 S 
ATOM     26  C   UNL A   1      39.948  21.936  26.390  1.00  0.00     0.012 A 
ATOM     27  C   UNL A   1      39.967  23.222  26.881  1.00  0.00     0.065 A 
ENDBRANCH  15  23
ENDBRANCH  10  12
ENDBRANCH   9  10
ENDBRANCH   8   9
ENDBRANCH   6   8
ENDBRANCH   5   6
ENDBRANCH   4   5
ENDBRANCH   3   4
ENDBRANCH   2   3
ENDBRANCH   1   2
BRANCH   1  28
ATOM     28  C   UNL A   1      34.176  32.013  27.959  1.00  0.00     0.188 C 
BRANCH  28  29
ATOM     29  O   UNL A   1      35.287  32.906  28.035  1.00  0.00    -0.376 OA
BRANCH  29  30
ATOM     30  C   UNL A   1      36.251  32.600  29.031  1.00  0.00     0.202 C 
BRANCH  30  31
ATOM     31  C   UNL A   1      36.460  33.681  30.101  1.00  0.00     0.261 C 
BRANCH  31  32
ATOM     32  O   UNL A   1      35.275  33.999  30.856  1.00  0.00    -0.460 OA
BRANCH  32  33
ATOM     33  C   UNL A   1      34.879  33.042  31.738  1.00  0.00     0.338 C 
ATOM     34  O   UNL A   1      34.106  32.112  31.512  1.00  0.00    -0.246 OA
BRANCH  33  35
ATOM     35  C   UNL A   1      35.663  33.141  32.990  1.00  0.00     0.060 A 
ATOM     36  C   UNL A   1      35.484  34.268  33.812  1.00  0.00     0.016 A 
ATOM     37  C   UNL A   1      36.579  32.151  33.347  1.00  0.00     0.016 A 
ATOM     38  C   UNL A   1      36.273  34.445  34.951  1.00  0.00     0.010 A 
ATOM     39  C   UNL A   1      37.388  32.343  34.470  1.00  0.00     0.010 A 
ATOM     40  C   UNL A   1      37.277  33.515  35.244  1.00  0.00    -0.014 A 
BRANCH  40  41
ATOM     41  C   UNL A   1      38.394  33.876  36.154  1.00  0.00     0.031 A 
ATOM     42  C   UNL A   1      38.207  33.592  37.619  1.00  0.00     0.074 A 
ATOM     43  C   UNL A   1      39.521  34.464  35.720  1.00  0.00     0.049 A 
ATOM     44  N   UNL A   1      38.945  33.953  38.634  1.00  0.00    -0.248 NA
ATOM     45  C   UNL A   1      37.014  32.810  37.987  1.00  0.00     0.031 C 
ATOM     46  C   UNL A   1      39.839  34.732  34.324  1.00  0.00     0.029 A 
ATOM     47  N   UNL A   1      40.600  34.960  36.407  1.00  0.00    -0.354 N 
ATOM     48  C   UNL A   1      38.295  33.465  39.760  1.00  0.00     0.074 A 
ATOM     49  C   UNL A   1      37.092  32.802  39.308  1.00  0.00     0.031 C 
ATOM     50  C   UNL A   1      41.026  35.354  34.248  1.00  0.00     0.029 A 
ATOM     51  C   UNL A   1      41.524  35.585  35.601  1.00  0.00     0.049 A 
ATOM     52  H   UNL A   1      40.704  34.877  37.382  1.00  0.00     0.167 HD
ATOM     53  C   UNL A   1      38.666  33.565  41.057  1.00  0.00     0.031 A 
ATOM     54  C   UNL A   1      42.622  36.298  35.924  1.00  0.00     0.031 A 
ATOM     55  C   UNL A   1      39.855  34.243  41.495  1.00  0.00     0.049 A 
ATOM     56  C   UNL A   1      42.972  36.470  37.378  1.00  0.00     0.074 A 
ATOM     57  C   UNL A   1      40.329  34.403  42.784  1.00  0.00     0.029 A 
ATOM     58  N   UNL A   1      40.754  34.883  40.654  1.00  0.00    -0.354 N 
ATOM     59  N   UNL A   1      42.350  36.004  38.436  1.00  0.00    -0.248 NA
ATOM     60  C   UNL A   1      44.173  37.259  37.686  1.00  0.00     0.031 C 
ATOM     61  C   UNL A   1      41.482  35.192  42.728  1.00  0.00     0.029 A 
ATOM     62  C   UNL A   1      41.767  35.462  41.397  1.00  0.00     0.049 A 
ATOM     63  H   UNL A   1      40.683  34.919  39.672  1.00  0.00     0.167 HD
ATOM     64  C   UNL A   1      43.102  36.415  39.532  1.00  0.00     0.074 A 
ATOM     65  C   UNL A   1      44.230  37.156  39.006  1.00  0.00     0.031 C 
ATOM     66  C   UNL A   1      42.883  36.195  40.852  1.00  0.00     0.031 A 
BRANCH  53  67
ATOM     67  C   UNL A   1      37.748  32.968  42.090  1.00  0.00    -0.014 A 
ATOM     68  C   UNL A   1      36.721  33.723  42.686  1.00  0.00     0.010 A 
ATOM     69  C   UNL A   1      37.903  31.619  42.456  1.00  0.00     0.010 A 
ATOM     70  C   UNL A   1      35.891  33.152  43.654  1.00  0.00     0.020 A 
ATOM     71  C   UNL A   1      37.055  31.034  43.401  1.00  0.00     0.020 A 
ATOM     72  C   UNL A   1      36.064  31.808  44.004  1.00  0.00     0.054 A 
BRANCH  72  73
ATOM     73  S   UNL A   1      34.953  31.084  45.240  1.00  0.00     0.124 S 
ATOM     74  O   UNL A   1      35.851  30.190  45.966  1.00  0.00    -0.237 OA
ATOM     75  O   UNL A   1      34.496  32.256  45.984  1.00  0.00    -0.237 OA
ATOM     76  O   UNL A   1      33.928  30.421  44.439  1.00  0.00    -0.744 OA
ENDBRANCH  72  73
ENDBRANCH  53  67
BRANCH  54  77
ATOM     77  C   UNL A   1      43.447  36.932  34.855  1.00  0.00    -0.014 A 
ATOM     78  C   UNL A   1      43.077  38.170  34.300  1.00  0.00     0.010 A 
ATOM     79  C   UNL A   1      44.613  36.298  34.386  1.00  0.00     0.010 A 
ATOM     80  C   UNL A   1      43.847  38.755  33.289  1.00  0.00     0.020 A 
ATOM     81  C   UNL A   1      45.403  36.894  33.397  1.00  0.00     0.020 A 
ATOM     82  C   UNL A   1      45.009  38.115  32.848  1.00  0.00     0.054 A 
BRANCH  82  83
ATOM     83  S   UNL A   1      46.025  38.921  31.579  1.00  0.00     0.124 S 
ATOM     84  O   UNL A   1      45.353  40.207  31.421  1.00  0.00    -0.237 OA
ATOM     85  O   UNL A   1      47.340  38.966  32.214  1.00  0.00    -0.237 OA
ATOM     86  O   UNL A   1      45.925  38.016  30.437  1.00  0.00    -0.744 OA
ENDBRANCH  82  83
ENDBRANCH  54  77
BRANCH  66  87
ATOM     87  C   UNL A   1      43.906  36.723  41.824  1.00  0.00    -0.014 A 
ATOM     88  C   UNL A   1      43.775  37.993  42.411  1.00  0.00     0.010 A 
ATOM     89  C   UNL A   1      44.984  35.901  42.200  1.00  0.00     0.010 A 
ATOM     90  C   UNL A   1      44.724  38.444  43.332  1.00  0.00     0.020 A 
ATOM     91  C   UNL A   1      45.916  36.334  43.146  1.00  0.00     0.020 A 
ATOM     92  C   UNL A   1      45.786  37.610  43.696  1.00  0.00     0.054 A 
BRANCH  92  93
ATOM     93  S   UNL A   1      46.977  38.203  44.928  1.00  0.00     0.124 S 
ATOM     94  O   UNL A   1      47.394  39.481  44.357  1.00  0.00    -0.237 OA
ATOM     95  O   UNL A   1      46.166  38.291  46.140  1.00  0.00    -0.237 OA
ATOM     96  O   UNL A   1      48.005  37.165  44.945  1.00  0.00    -0.744 OA
ENDBRANCH  92  93
ENDBRANCH  66  87
ENDBRANCH  40  41
ENDBRANCH  33  35
ENDBRANCH  32  33
ENDBRANCH  31  32
ENDBRANCH  30  31
ENDBRANCH  29  30
ENDBRANCH  28  29
ENDBRANCH   1  28
TORSDOF 25
ENDMDL
