MODEL 1
REMARK VINA RESULT:     -10.9      0.000      0.000
REMARK SMILES O=C(OCCOCCOCCOC(=O)c1ccc(-c2c3nc(c(-c4ccc(S(=O)(=O)[O-])cc4)c4ccc([nH]4)c(-c4ccc(S(=O)(=O)[O-])cc4)c4nc(c(-c5ccc(S(=O)(=O)[O-])cc5)c5ccc2[nH]5)C=C4)C=C3)cc1)C1=Cc2cc(S(F)(F)(F)(F)F)ccc2O[C@@H]1C(F)(F)F
REMARK SMILES IDX 8 1 7 2 6 3 5 4 4 5 3 6 2 7 1 8 75 9 76 10 90 11 77 12 89 13
REMARK SMILES IDX 78 14 88 15 79 16 87 17 86 18 91 19 92 20 93 21 94 22 80 23
REMARK SMILES IDX 81 24 82 25 83 26 84 27 85 28 9 29 10 30 11 31 12 32 13 33
REMARK SMILES IDX 14 34 15 35 16 36 74 37 17 38 73 39 18 40 19 41 20 42 67 43
REMARK SMILES IDX 21 44 72 45 66 46 68 47 22 48 71 49 65 50 64 51 23 53 53 54
REMARK SMILES IDX 34 55 52 56 35 57 38 58 51 59 69 60 36 61 37 62 50 64 70 65
REMARK SMILES IDX 39 66 24 67 25 68 33 69 26 70 32 71 27 72 28 73 29 74 30 75
REMARK SMILES IDX 31 76 54 77 55 78 63 79 56 80 62 81 57 82 58 83 59 84 60 85
REMARK SMILES IDX 61 86 40 87 41 88 49 89 42 90 48 91 43 92 44 93 45 94 46 95
REMARK SMILES IDX 47 96
REMARK H PARENT 68 52 38 63
REMARK Flexibility Score: inf
ROOT
ATOM      1  C   UNL A   1      31.572  26.648  25.802  1.00  0.00     0.188 C 
ENDROOT
BRANCH   1   2
ATOM      2  C   UNL A   1      30.210  25.976  25.785  1.00  0.00     0.188 C 
BRANCH   2   3
ATOM      3  O   UNL A   1      30.270  24.766  26.525  1.00  0.00    -0.376 OA
BRANCH   3   4
ATOM      4  C   UNL A   1      31.606  24.535  26.948  1.00  0.00     0.202 C 
BRANCH   4   5
ATOM      5  C   UNL A   1      31.854  23.038  27.052  1.00  0.00     0.261 C 
BRANCH   5   6
ATOM      6  O   UNL A   1      32.213  22.528  25.777  1.00  0.00    -0.460 OA
BRANCH   6   7
ATOM      7  C   UNL A   1      33.380  23.006  25.124  1.00  0.00     0.338 C 
ATOM      8  O   UNL A   1      33.288  23.923  24.249  1.00  0.00    -0.246 OA
BRANCH   7   9
ATOM      9  C   UNL A   1      34.740  22.422  25.472  1.00  0.00     0.087 C 
ATOM     10  C   UNL A   1      34.999  21.109  25.230  1.00  0.00     0.027 C 
ATOM     11  C   UNL A   1      35.810  23.306  26.092  1.00  0.00     0.316 C 
ATOM     12  C   UNL A   1      33.928  20.225  24.609  1.00  0.00     0.019 A 
ATOM     13  O   UNL A   1      33.363  22.014  23.151  1.00  0.00    -0.475 OA
ATOM     14  C   UNL A   1      33.707  18.967  25.146  1.00  0.00     0.036 A 
ATOM     15  C   UNL A   1      33.224  20.665  23.574  1.00  0.00     0.128 A 
ATOM     16  C   UNL A   1      32.911  18.129  24.332  1.00  0.00     0.107 A 
ATOM     17  C   UNL A   1      32.363  19.829  22.907  1.00  0.00     0.048 A 
ATOM     18  C   UNL A   1      32.140  18.553  23.346  1.00  0.00     0.028 A 
BRANCH  11  19
ATOM     19  C   UNL A   1      37.031  23.333  25.187  1.00  0.00     0.430 C 
ATOM     20  F   UNL A   1      36.650  23.587  23.937  1.00  0.00    -0.167 F 
ATOM     21  F   UNL A   1      37.867  24.283  25.597  1.00  0.00    -0.167 F 
ATOM     22  F   UNL A   1      37.644  22.153  25.232  1.00  0.00    -0.167 F 
ENDBRANCH  11  19
BRANCH  16  23
ATOM     23  S   UNL A   1      32.952  16.349  24.660  1.00  0.00     0.310 S 
ATOM     24  F   UNL A   1      34.276  16.476  25.524  1.00  0.00    -0.094 F 
ATOM     25  F   UNL A   1      33.876  16.166  23.398  1.00  0.00    -0.094 F 
ATOM     26  F   UNL A   1      32.987  14.820  24.943  1.00  0.00    -0.094 F 
ATOM     27  F   UNL A   1      32.144  16.569  26.000  1.00  0.00    -0.094 F 
ATOM     28  F   UNL A   1      33.002  17.915  24.450  1.00  0.00    -0.094 F 
ENDBRANCH  16  23
ENDBRANCH   7   9
ENDBRANCH   6   7
ENDBRANCH   5   6
ENDBRANCH   4   5
ENDBRANCH   3   4
ENDBRANCH   2   3
ENDBRANCH   1   2
BRANCH   1  29
ATOM     29  O   UNL A   1      31.473  27.905  26.456  1.00  0.00    -0.376 OA
BRANCH  29  30
ATOM     30  C   UNL A   1      31.806  28.940  25.542  1.00  0.00     0.202 C 
BRANCH  30  31
ATOM     31  C   UNL A   1      33.230  29.407  25.802  1.00  0.00     0.261 C 
BRANCH  31  32
ATOM     32  O   UNL A   1      33.513  29.311  27.191  1.00  0.00    -0.460 OA
BRANCH  32  33
ATOM     33  C   UNL A   1      34.323  30.293  27.819  1.00  0.00     0.338 C 
ATOM     34  O   UNL A   1      33.840  31.436  28.093  1.00  0.00    -0.246 OA
BRANCH  33  35
ATOM     35  C   UNL A   1      35.769  29.977  28.166  1.00  0.00     0.060 A 
ATOM     36  C   UNL A   1      36.730  30.104  27.176  1.00  0.00     0.016 A 
ATOM     37  C   UNL A   1      36.092  29.593  29.395  1.00  0.00     0.016 A 
ATOM     38  C   UNL A   1      37.976  29.522  27.509  1.00  0.00     0.010 A 
ATOM     39  C   UNL A   1      37.366  29.165  29.682  1.00  0.00     0.010 A 
ATOM     40  C   UNL A   1      38.352  29.207  28.737  1.00  0.00    -0.014 A 
BRANCH  40  41
ATOM     41  C   UNL A   1      39.802  28.909  29.077  1.00  0.00     0.031 A 
ATOM     42  C   UNL A   1      40.548  29.913  29.698  1.00  0.00     0.074 A 
ATOM     43  C   UNL A   1      40.303  27.660  28.753  1.00  0.00     0.049 A 
ATOM     44  N   UNL A   1      41.816  29.848  30.109  1.00  0.00    -0.248 NA
ATOM     45  C   UNL A   1      40.028  31.252  30.012  1.00  0.00     0.031 C 
ATOM     46  C   UNL A   1      39.555  26.639  28.135  1.00  0.00     0.029 A 
ATOM     47  N   UNL A   1      41.578  27.181  28.960  1.00  0.00    -0.354 N 
ATOM     48  C   UNL A   1      42.176  31.001  30.675  1.00  0.00     0.074 A 
ATOM     49  C   UNL A   1      41.033  31.923  30.615  1.00  0.00     0.031 C 
ATOM     50  C   UNL A   1      40.370  25.566  27.961  1.00  0.00     0.029 A 
ATOM     51  C   UNL A   1      41.641  25.897  28.468  1.00  0.00     0.049 A 
ATOM     52  H   UNL A   1      42.317  27.673  29.386  1.00  0.00     0.167 HD
ATOM     53  C   UNL A   1      43.411  31.320  31.240  1.00  0.00     0.031 A 
ATOM     54  C   UNL A   1      42.736  25.046  28.451  1.00  0.00     0.031 A 
ATOM     55  C   UNL A   1      44.493  30.454  31.262  1.00  0.00     0.049 A 
ATOM     56  C   UNL A   1      43.990  25.386  28.964  1.00  0.00     0.074 A 
ATOM     57  C   UNL A   1      45.744  30.757  31.835  1.00  0.00     0.029 A 
ATOM     58  N   UNL A   1      44.563  29.179  30.747  1.00  0.00    -0.354 N 
ATOM     59  N   UNL A   1      44.337  26.525  29.565  1.00  0.00    -0.248 NA
ATOM     60  C   UNL A   1      45.164  24.506  28.922  1.00  0.00     0.031 C 
ATOM     61  C   UNL A   1      46.559  29.683  31.660  1.00  0.00     0.029 A 
ATOM     62  C   UNL A   1      45.831  28.692  30.975  1.00  0.00     0.049 A 
ATOM     63  H   UNL A   1      43.832  28.698  30.296  1.00  0.00     0.167 HD
ATOM     64  C   UNL A   1      45.618  26.475  29.938  1.00  0.00     0.074 A 
ATOM     65  C   UNL A   1      46.170  25.178  29.523  1.00  0.00     0.031 C 
ATOM     66  C   UNL A   1      46.346  27.457  30.611  1.00  0.00     0.031 A 
BRANCH  53  67
ATOM     67  C   UNL A   1      43.581  32.695  31.867  1.00  0.00    -0.014 A 
ATOM     68  C   UNL A   1      43.473  32.832  33.241  1.00  0.00     0.010 A 
ATOM     69  C   UNL A   1      43.813  33.744  31.086  1.00  0.00     0.010 A 
ATOM     70  C   UNL A   1      43.337  34.172  33.674  1.00  0.00     0.020 A 
ATOM     71  C   UNL A   1      43.800  35.016  31.602  1.00  0.00     0.020 A 
ATOM     72  C   UNL A   1      43.639  35.231  32.944  1.00  0.00     0.054 A 
BRANCH  72  73
ATOM     73  S   UNL A   1      43.829  36.874  33.677  1.00  0.00     0.124 S 
ATOM     74  O   UNL A   1      44.210  37.878  32.585  1.00  0.00    -0.237 OA
ATOM     75  O   UNL A   1      42.509  37.300  34.324  1.00  0.00    -0.237 OA
ATOM     76  O   UNL A   1      45.058  36.830  34.864  1.00  0.00    -0.744 OA
ENDBRANCH  72  73
ENDBRANCH  53  67
BRANCH  54  77
ATOM     77  C   UNL A   1      42.562  23.666  27.839  1.00  0.00    -0.014 A 
ATOM     78  C   UNL A   1      42.017  22.649  28.605  1.00  0.00     0.010 A 
ATOM     79  C   UNL A   1      42.918  23.461  26.576  1.00  0.00     0.010 A 
ATOM     80  C   UNL A   1      42.156  21.362  28.033  1.00  0.00     0.020 A 
ATOM     81  C   UNL A   1      42.900  22.195  26.041  1.00  0.00     0.020 A 
ATOM     82  C   UNL A   1      42.432  21.134  26.763  1.00  0.00     0.054 A 
BRANCH  82  83
ATOM     83  S   UNL A   1      42.198  19.501  26.015  1.00  0.00     0.124 S 
ATOM     84  O   UNL A   1      40.712  19.283  25.722  1.00  0.00    -0.237 OA
ATOM     85  O   UNL A   1      42.993  19.418  24.710  1.00  0.00    -0.237 OA
ATOM     86  O   UNL A   1      42.748  18.296  27.096  1.00  0.00    -0.744 OA
ENDBRANCH  82  83
ENDBRANCH  54  77
BRANCH  66  87
ATOM     87  C   UNL A   1      47.793  27.154  30.968  1.00  0.00    -0.014 A 
ATOM     88  C   UNL A   1      48.054  26.449  32.131  1.00  0.00     0.010 A 
ATOM     89  C   UNL A   1      48.776  27.556  30.170  1.00  0.00     0.010 A 
ATOM     90  C   UNL A   1      49.415  26.469  32.519  1.00  0.00     0.020 A 
ATOM     91  C   UNL A   1      50.088  27.420  30.554  1.00  0.00     0.020 A 
ATOM     92  C   UNL A   1      50.417  26.786  31.720  1.00  0.00     0.054 A 
BRANCH  92  93
ATOM     93  S   UNL A   1      52.134  26.405  32.146  1.00  0.00     0.124 S 
ATOM     94  O   UNL A   1      52.609  27.354  33.250  1.00  0.00    -0.237 OA
ATOM     95  O   UNL A   1      52.228  24.960  32.641  1.00  0.00    -0.237 OA
ATOM     96  O   UNL A   1      53.121  26.600  30.764  1.00  0.00    -0.744 OA
ENDBRANCH  92  93
ENDBRANCH  66  87
ENDBRANCH  40  41
ENDBRANCH  33  35
ENDBRANCH  32  33
ENDBRANCH  31  32
ENDBRANCH  30  31
ENDBRANCH  29  30
ENDBRANCH   1  29
TORSDOF 22
ENDMDL
MODEL 2
REMARK VINA RESULT:     -10.4      2.366      7.982
REMARK SMILES O=C(OCCOCCOCCOC(=O)c1ccc(-c2c3nc(c(-c4ccc(S(=O)(=O)[O-])cc4)c4ccc([nH]4)c(-c4ccc(S(=O)(=O)[O-])cc4)c4nc(c(-c5ccc(S(=O)(=O)[O-])cc5)c5ccc2[nH]5)C=C4)C=C3)cc1)C1=Cc2cc(S(F)(F)(F)(F)F)ccc2O[C@@H]1C(F)(F)F
REMARK SMILES IDX 8 1 7 2 6 3 5 4 4 5 3 6 2 7 1 8 75 9 76 10 90 11 77 12 89 13
REMARK SMILES IDX 78 14 88 15 79 16 87 17 86 18 91 19 92 20 93 21 94 22 80 23
REMARK SMILES IDX 81 24 82 25 83 26 84 27 85 28 9 29 10 30 11 31 12 32 13 33
REMARK SMILES IDX 14 34 15 35 16 36 74 37 17 38 73 39 18 40 19 41 20 42 67 43
REMARK SMILES IDX 21 44 72 45 66 46 68 47 22 48 71 49 65 50 64 51 23 53 53 54
REMARK SMILES IDX 34 55 52 56 35 57 38 58 51 59 69 60 36 61 37 62 50 64 70 65
REMARK SMILES IDX 39 66 24 67 25 68 33 69 26 70 32 71 27 72 28 73 29 74 30 75
REMARK SMILES IDX 31 76 54 77 55 78 63 79 56 80 62 81 57 82 58 83 59 84 60 85
REMARK SMILES IDX 61 86 40 87 41 88 49 89 42 90 48 91 43 92 44 93 45 94 46 95
REMARK SMILES IDX 47 96
REMARK H PARENT 68 52 38 63
REMARK Flexibility Score: inf
ROOT
ATOM      1  C   UNL A   1      32.503  27.326  26.013  1.00  0.00     0.188 C 
ENDROOT
BRANCH   1   2
ATOM      2  C   UNL A   1      31.020  27.002  26.083  1.00  0.00     0.188 C 
BRANCH   2   3
ATOM      3  O   UNL A   1      30.472  27.008  24.773  1.00  0.00    -0.376 OA
BRANCH   3   4
ATOM      4  C   UNL A   1      31.194  26.100  23.953  1.00  0.00     0.202 C 
BRANCH   4   5
ATOM      5  C   UNL A   1      30.483  24.756  23.936  1.00  0.00     0.261 C 
BRANCH   5   6
ATOM      6  O   UNL A   1      31.443  23.713  23.849  1.00  0.00    -0.460 OA
BRANCH   6   7
ATOM      7  C   UNL A   1      31.719  22.905  24.984  1.00  0.00     0.338 C 
ATOM      8  O   UNL A   1      30.789  22.225  25.520  1.00  0.00    -0.246 OA
BRANCH   7   9
ATOM      9  C   UNL A   1      33.126  22.853  25.556  1.00  0.00     0.087 C 
ATOM     10  C   UNL A   1      33.859  21.711  25.457  1.00  0.00     0.027 C 
ATOM     11  C   UNL A   1      33.715  24.077  26.238  1.00  0.00     0.316 C 
ATOM     12  C   UNL A   1      33.270  20.487  24.774  1.00  0.00     0.019 A 
ATOM     13  O   UNL A   1      32.349  21.914  23.113  1.00  0.00    -0.475 OA
ATOM     14  C   UNL A   1      33.419  19.249  25.377  1.00  0.00     0.036 A 
ATOM     15  C   UNL A   1      32.624  20.618  23.622  1.00  0.00     0.128 A 
ATOM     16  C   UNL A   1      33.099  18.158  24.535  1.00  0.00     0.107 A 
ATOM     17  C   UNL A   1      32.220  19.511  22.917  1.00  0.00     0.048 A 
ATOM     18  C   UNL A   1      32.390  18.252  23.425  1.00  0.00     0.028 A 
BRANCH  11  19
ATOM     19  C   UNL A   1      34.973  24.510  25.504  1.00  0.00     0.430 C 
ATOM     20  F   UNL A   1      36.028  23.897  26.033  1.00  0.00    -0.167 F 
ATOM     21  F   UNL A   1      34.871  24.186  24.218  1.00  0.00    -0.167 F 
ATOM     22  F   UNL A   1      35.123  25.827  25.618  1.00  0.00    -0.167 F 
ENDBRANCH  11  19
BRANCH  16  23
ATOM     23  S   UNL A   1      33.705  16.520  25.010  1.00  0.00     0.310 S 
ATOM     24  F   UNL A   1      33.508  15.953  23.543  1.00  0.00    -0.094 F 
ATOM     25  F   UNL A   1      32.219  16.087  25.304  1.00  0.00    -0.094 F 
ATOM     26  F   UNL A   1      34.226  15.113  25.419  1.00  0.00    -0.094 F 
ATOM     27  F   UNL A   1      35.169  16.927  24.578  1.00  0.00    -0.094 F 
ATOM     28  F   UNL A   1      33.178  17.915  24.486  1.00  0.00    -0.094 F 
ENDBRANCH  16  23
ENDBRANCH   7   9
ENDBRANCH   6   7
ENDBRANCH   5   6
ENDBRANCH   4   5
ENDBRANCH   3   4
ENDBRANCH   2   3
ENDBRANCH   1   2
BRANCH   1  29
ATOM     29  O   UNL A   1      32.866  28.129  27.126  1.00  0.00    -0.376 OA
BRANCH  29  30
ATOM     30  C   UNL A   1      31.894  29.148  27.311  1.00  0.00     0.202 C 
BRANCH  30  31
ATOM     31  C   UNL A   1      32.405  30.451  26.717  1.00  0.00     0.261 C 
BRANCH  31  32
ATOM     32  O   UNL A   1      33.821  30.494  26.820  1.00  0.00    -0.460 OA
BRANCH  32  33
ATOM     33  C   UNL A   1      34.437  31.331  27.787  1.00  0.00     0.338 C 
ATOM     34  O   UNL A   1      33.912  32.447  28.090  1.00  0.00    -0.246 OA
BRANCH  33  35
ATOM     35  C   UNL A   1      35.726  30.890  28.461  1.00  0.00     0.060 A 
ATOM     36  C   UNL A   1      36.889  31.591  28.189  1.00  0.00     0.016 A 
ATOM     37  C   UNL A   1      35.723  29.857  29.296  1.00  0.00     0.016 A 
ATOM     38  C   UNL A   1      38.067  30.941  28.629  1.00  0.00     0.010 A 
ATOM     39  C   UNL A   1      36.902  29.359  29.796  1.00  0.00     0.010 A 
ATOM     40  C   UNL A   1      38.095  29.965  29.520  1.00  0.00    -0.014 A 
BRANCH  40  41
ATOM     41  C   UNL A   1      39.386  29.542  30.202  1.00  0.00     0.031 A 
ATOM     42  C   UNL A   1      40.095  28.471  29.653  1.00  0.00     0.074 A 
ATOM     43  C   UNL A   1      39.787  30.240  31.327  1.00  0.00     0.049 A 
ATOM     44  N   UNL A   1      41.257  27.966  30.071  1.00  0.00    -0.248 NA
ATOM     45  C   UNL A   1      39.653  27.707  28.477  1.00  0.00     0.031 C 
ATOM     46  C   UNL A   1      39.083  31.326  31.882  1.00  0.00     0.029 A 
ATOM     47  N   UNL A   1      40.907  30.026  32.101  1.00  0.00    -0.354 N 
ATOM     48  C   UNL A   1      41.631  26.958  29.280  1.00  0.00     0.074 A 
ATOM     49  C   UNL A   1      40.602  26.772  28.247  1.00  0.00     0.031 C 
ATOM     50  C   UNL A   1      39.761  31.753  32.980  1.00  0.00     0.029 A 
ATOM     51  C   UNL A   1      40.901  30.940  33.130  1.00  0.00     0.049 A 
ATOM     52  H   UNL A   1      41.593  29.337  31.945  1.00  0.00     0.167 HD
ATOM     53  C   UNL A   1      42.791  26.188  29.378  1.00  0.00     0.031 A 
ATOM     54  C   UNL A   1      41.827  31.074  34.153  1.00  0.00     0.031 A 
ATOM     55  C   UNL A   1      43.739  26.350  30.376  1.00  0.00     0.049 A 
ATOM     56  C   UNL A   1      42.958  30.265  34.285  1.00  0.00     0.074 A 
ATOM     57  C   UNL A   1      44.918  25.587  30.485  1.00  0.00     0.029 A 
ATOM     58  N   UNL A   1      43.720  27.248  31.419  1.00  0.00    -0.354 N 
ATOM     59  N   UNL A   1      43.352  29.284  33.471  1.00  0.00    -0.248 NA
ATOM     60  C   UNL A   1      43.928  30.377  35.381  1.00  0.00     0.031 C 
ATOM     61  C   UNL A   1      45.596  26.013  31.584  1.00  0.00     0.029 A 
ATOM     62  C   UNL A   1      44.851  27.049  32.179  1.00  0.00     0.049 A 
ATOM     63  H   UNL A   1      43.020  27.918  31.591  1.00  0.00     0.167 HD
ATOM     64  C   UNL A   1      44.493  28.751  33.914  1.00  0.00     0.074 A 
ATOM     65  C   UNL A   1      44.876  29.441  35.153  1.00  0.00     0.031 C 
ATOM     66  C   UNL A   1      45.231  27.719  33.332  1.00  0.00     0.031 A 
BRANCH  53  67
ATOM     67  C   UNL A   1      43.027  25.109  28.333  1.00  0.00    -0.014 A 
ATOM     68  C   UNL A   1      42.754  23.788  28.647  1.00  0.00     0.010 A 
ATOM     69  C   UNL A   1      43.508  25.450  27.143  1.00  0.00     0.010 A 
ATOM     70  C   UNL A   1      43.297  22.858  27.730  1.00  0.00     0.020 A 
ATOM     71  C   UNL A   1      43.893  24.486  26.243  1.00  0.00     0.020 A 
ATOM     72  C   UNL A   1      43.706  23.158  26.511  1.00  0.00     0.054 A 
BRANCH  72  73
ATOM     73  S   UNL A   1      44.005  21.882  25.263  1.00  0.00     0.124 S 
ATOM     74  O   UNL A   1      43.942  22.508  23.868  1.00  0.00    -0.237 OA
ATOM     75  O   UNL A   1      45.389  21.266  25.484  1.00  0.00    -0.237 OA
ATOM     76  O   UNL A   1      42.812  20.664  25.395  1.00  0.00    -0.744 OA
ENDBRANCH  72  73
ENDBRANCH  53  67
BRANCH  54  77
ATOM     77  C   UNL A   1      41.599  32.163  35.189  1.00  0.00    -0.014 A 
ATOM     78  C   UNL A   1      40.845  31.878  36.315  1.00  0.00     0.010 A 
ATOM     79  C   UNL A   1      42.139  33.362  35.007  1.00  0.00     0.010 A 
ATOM     80  C   UNL A   1      40.472  33.022  37.060  1.00  0.00     0.020 A 
ATOM     81  C   UNL A   1      41.836  34.401  35.854  1.00  0.00     0.020 A 
ATOM     82  C   UNL A   1      41.048  34.205  36.953  1.00  0.00     0.054 A 
BRANCH  82  83
ATOM     83  S   UNL A   1      40.808  35.498  38.198  1.00  0.00     0.124 S 
ATOM     84  O   UNL A   1      40.171  34.888  39.449  1.00  0.00    -0.237 OA
ATOM     85  O   UNL A   1      42.160  36.114  38.562  1.00  0.00    -0.237 OA
ATOM     86  O   UNL A   1      39.779  36.710  37.569  1.00  0.00    -0.744 OA
ENDBRANCH  82  83
ENDBRANCH  54  77
BRANCH  66  87
ATOM     87  C   UNL A   1      46.531  27.305  34.003  1.00  0.00    -0.014 A 
ATOM     88  C   UNL A   1      46.493  26.302  34.957  1.00  0.00     0.010 A 
ATOM     89  C   UNL A   1      47.673  27.896  33.668  1.00  0.00     0.010 A 
ATOM     90  C   UNL A   1      47.681  26.191  35.718  1.00  0.00     0.020 A 
ATOM     91  C   UNL A   1      48.826  27.637  34.370  1.00  0.00     0.020 A 
ATOM     92  C   UNL A   1      48.847  26.700  35.366  1.00  0.00     0.054 A 
BRANCH  92  93
ATOM     93  S   UNL A   1      50.391  26.188  36.158  1.00  0.00     0.124 S 
ATOM     94  O   UNL A   1      50.591  26.985  37.450  1.00  0.00    -0.237 OA
ATOM     95  O   UNL A   1      50.324  24.694  36.487  1.00  0.00    -0.237 OA
ATOM     96  O   UNL A   1      51.701  26.480  35.099  1.00  0.00    -0.744 OA
ENDBRANCH  92  93
ENDBRANCH  66  87
ENDBRANCH  40  41
ENDBRANCH  33  35
ENDBRANCH  32  33
ENDBRANCH  31  32
ENDBRANCH  30  31
ENDBRANCH  29  30
ENDBRANCH   1  29
TORSDOF 22
ENDMDL
MODEL 3
REMARK VINA RESULT:     -10.3      3.289      8.753
REMARK SMILES O=C(OCCOCCOCCOC(=O)c1ccc(-c2c3nc(c(-c4ccc(S(=O)(=O)[O-])cc4)c4ccc([nH]4)c(-c4ccc(S(=O)(=O)[O-])cc4)c4nc(c(-c5ccc(S(=O)(=O)[O-])cc5)c5ccc2[nH]5)C=C4)C=C3)cc1)C1=Cc2cc(S(F)(F)(F)(F)F)ccc2O[C@@H]1C(F)(F)F
REMARK SMILES IDX 8 1 7 2 6 3 5 4 4 5 3 6 2 7 1 8 75 9 76 10 90 11 77 12 89 13
REMARK SMILES IDX 78 14 88 15 79 16 87 17 86 18 91 19 92 20 93 21 94 22 80 23
REMARK SMILES IDX 81 24 82 25 83 26 84 27 85 28 9 29 10 30 11 31 12 32 13 33
REMARK SMILES IDX 14 34 15 35 16 36 74 37 17 38 73 39 18 40 19 41 20 42 67 43
REMARK SMILES IDX 21 44 72 45 66 46 68 47 22 48 71 49 65 50 64 51 23 53 53 54
REMARK SMILES IDX 34 55 52 56 35 57 38 58 51 59 69 60 36 61 37 62 50 64 70 65
REMARK SMILES IDX 39 66 24 67 25 68 33 69 26 70 32 71 27 72 28 73 29 74 30 75
REMARK SMILES IDX 31 76 54 77 55 78 63 79 56 80 62 81 57 82 58 83 59 84 60 85
REMARK SMILES IDX 61 86 40 87 41 88 49 89 42 90 48 91 43 92 44 93 45 94 46 95
REMARK SMILES IDX 47 96
REMARK H PARENT 68 52 38 63
REMARK Flexibility Score: inf
ROOT
ATOM      1  C   UNL A   1      33.664  27.762  25.868  1.00  0.00     0.188 C 
ENDROOT
BRANCH   1   2
ATOM      2  C   UNL A   1      33.709  27.485  24.375  1.00  0.00     0.188 C 
BRANCH   2   3
ATOM      3  O   UNL A   1      32.538  26.780  23.990  1.00  0.00    -0.376 OA
BRANCH   3   4
ATOM      4  C   UNL A   1      31.885  26.279  25.147  1.00  0.00     0.202 C 
BRANCH   4   5
ATOM      5  C   UNL A   1      31.468  24.836  24.909  1.00  0.00     0.261 C 
BRANCH   5   6
ATOM      6  O   UNL A   1      32.624  24.037  24.705  1.00  0.00    -0.460 OA
BRANCH   6   7
ATOM      7  C   UNL A   1      32.820  22.861  25.477  1.00  0.00     0.338 C 
ATOM      8  O   UNL A   1      31.818  22.186  25.871  1.00  0.00    -0.246 OA
BRANCH   7   9
ATOM      9  C   UNL A   1      34.228  22.410  25.832  1.00  0.00     0.087 C 
ATOM     10  C   UNL A   1      34.637  21.151  25.521  1.00  0.00     0.027 C 
ATOM     11  C   UNL A   1      35.178  23.366  26.533  1.00  0.00     0.316 C 
ATOM     12  C   UNL A   1      33.686  20.193  24.820  1.00  0.00     0.019 A 
ATOM     13  O   UNL A   1      32.959  21.995  23.451  1.00  0.00    -0.475 OA
ATOM     14  C   UNL A   1      33.593  18.889  25.276  1.00  0.00     0.036 A 
ATOM     15  C   UNL A   1      32.961  20.616  23.791  1.00  0.00     0.128 A 
ATOM     16  C   UNL A   1      32.915  18.019  24.391  1.00  0.00     0.107 A 
ATOM     17  C   UNL A   1      32.214  19.732  23.051  1.00  0.00     0.048 A 
ATOM     18  C   UNL A   1      32.125  18.415  23.409  1.00  0.00     0.028 A 
BRANCH  11  19
ATOM     19  C   UNL A   1      36.409  23.582  25.668  1.00  0.00     0.430 C 
ATOM     20  F   UNL A   1      36.032  23.911  24.435  1.00  0.00    -0.167 F 
ATOM     21  F   UNL A   1      37.147  24.563  26.181  1.00  0.00    -0.167 F 
ATOM     22  F   UNL A   1      37.126  22.463  25.627  1.00  0.00    -0.167 F 
ENDBRANCH  11  19
BRANCH  16  23
ATOM     23  S   UNL A   1      33.146  16.238  24.617  1.00  0.00     0.310 S 
ATOM     24  F   UNL A   1      34.436  16.456  25.514  1.00  0.00    -0.094 F 
ATOM     25  F   UNL A   1      34.102  16.231  23.365  1.00  0.00    -0.094 F 
ATOM     26  F   UNL A   1      33.345  14.708  24.812  1.00  0.00    -0.094 F 
ATOM     27  F   UNL A   1      32.300  16.289  25.951  1.00  0.00    -0.094 F 
ATOM     28  F   UNL A   1      33.027  17.809  24.498  1.00  0.00    -0.094 F 
ENDBRANCH  16  23
ENDBRANCH   7   9
ENDBRANCH   6   7
ENDBRANCH   5   6
ENDBRANCH   4   5
ENDBRANCH   3   4
ENDBRANCH   2   3
ENDBRANCH   1   2
BRANCH   1  29
ATOM     29  O   UNL A   1      33.297  29.116  26.089  1.00  0.00    -0.376 OA
BRANCH  29  30
ATOM     30  C   UNL A   1      33.862  29.566  27.312  1.00  0.00     0.202 C 
BRANCH  30  31
ATOM     31  C   UNL A   1      35.367  29.712  27.152  1.00  0.00     0.261 C 
BRANCH  31  32
ATOM     32  O   UNL A   1      36.025  28.956  28.158  1.00  0.00    -0.460 OA
BRANCH  32  33
ATOM     33  C   UNL A   1      37.008  29.569  28.978  1.00  0.00     0.338 C 
ATOM     34  O   UNL A   1      36.655  30.274  29.975  1.00  0.00    -0.246 OA
BRANCH  33  35
ATOM     35  C   UNL A   1      38.483  29.383  28.664  1.00  0.00     0.060 A 
ATOM     36  C   UNL A   1      38.909  29.556  27.357  1.00  0.00     0.016 A 
ATOM     37  C   UNL A   1      39.337  29.067  29.630  1.00  0.00     0.016 A 
ATOM     38  C   UNL A   1      40.222  29.088  27.115  1.00  0.00     0.010 A 
ATOM     39  C   UNL A   1      40.642  28.753  29.335  1.00  0.00     0.010 A 
ATOM     40  C   UNL A   1      41.116  28.845  28.057  1.00  0.00    -0.014 A 
BRANCH  40  41
ATOM     41  C   UNL A   1      42.592  28.677  27.736  1.00  0.00     0.031 A 
ATOM     42  C   UNL A   1      43.022  27.432  27.269  1.00  0.00     0.074 A 
ATOM     43  C   UNL A   1      43.427  29.764  27.923  1.00  0.00     0.049 A 
ATOM     44  N   UNL A   1      44.256  27.085  26.900  1.00  0.00    -0.248 NA
ATOM     45  C   UNL A   1      42.142  26.266  27.102  1.00  0.00     0.031 C 
ATOM     46  C   UNL A   1      43.000  31.024  28.385  1.00  0.00     0.029 A 
ATOM     47  N   UNL A   1      44.786  29.834  27.706  1.00  0.00    -0.354 N 
ATOM     48  C   UNL A   1      44.274  25.814  26.492  1.00  0.00     0.074 A 
ATOM     49  C   UNL A   1      42.915  25.267  26.622  1.00  0.00     0.031 C 
ATOM     50  C   UNL A   1      44.086  31.837  28.457  1.00  0.00     0.029 A 
ATOM     51  C   UNL A   1      45.211  31.100  28.041  1.00  0.00     0.049 A 
ATOM     52  H   UNL A   1      45.355  29.104  27.370  1.00  0.00     0.167 HD
ATOM     53  C   UNL A   1      45.367  25.091  26.015  1.00  0.00     0.031 A 
ATOM     54  C   UNL A   1      46.502  31.602  27.994  1.00  0.00     0.031 A 
ATOM     55  C   UNL A   1      46.651  25.607  25.927  1.00  0.00     0.049 A 
ATOM     56  C   UNL A   1      47.608  30.860  27.572  1.00  0.00     0.074 A 
ATOM     57  C   UNL A   1      47.764  24.893  25.441  1.00  0.00     0.029 A 
ATOM     58  N   UNL A   1      47.080  26.865  26.285  1.00  0.00    -0.354 N 
ATOM     59  N   UNL A   1      47.617  29.603  27.126  1.00  0.00    -0.248 NA
ATOM     60  C   UNL A   1      48.984  31.372  27.549  1.00  0.00     0.031 C 
ATOM     61  C   UNL A   1      48.851  25.708  25.514  1.00  0.00     0.029 A 
ATOM     62  C   UNL A   1      48.434  26.942  26.046  1.00  0.00     0.049 A 
ATOM     63  H   UNL A   1      46.516  27.586  26.647  1.00  0.00     0.167 HD
ATOM     64  C   UNL A   1      48.860  29.242  26.797  1.00  0.00     0.074 A 
ATOM     65  C   UNL A   1      49.758  30.372  27.071  1.00  0.00     0.031 C 
ATOM     66  C   UNL A   1      49.279  28.017  26.275  1.00  0.00     0.031 A 
BRANCH  53  67
ATOM     67  C   UNL A   1      45.139  23.656  25.566  1.00  0.00    -0.014 A 
ATOM     68  C   UNL A   1      45.314  22.626  26.475  1.00  0.00     0.010 A 
ATOM     69  C   UNL A   1      44.794  23.414  24.307  1.00  0.00     0.010 A 
ATOM     70  C   UNL A   1      45.382  21.343  25.881  1.00  0.00     0.020 A 
ATOM     71  C   UNL A   1      44.749  22.126  23.830  1.00  0.00     0.020 A 
ATOM     72  C   UNL A   1      44.969  21.060  24.659  1.00  0.00     0.054 A 
BRANCH  72  73
ATOM     73  S   UNL A   1      44.708  19.356  24.110  1.00  0.00     0.124 S 
ATOM     74  O   UNL A   1      44.567  19.327  22.586  1.00  0.00    -0.237 OA
ATOM     75  O   UNL A   1      45.904  18.497  24.528  1.00  0.00    -0.237 OA
ATOM     76  O   UNL A   1      43.284  18.738  24.825  1.00  0.00    -0.744 OA
ENDBRANCH  72  73
ENDBRANCH  53  67
BRANCH  54  77
ATOM     77  C   UNL A   1      46.727  33.041  28.427  1.00  0.00    -0.014 A 
ATOM     78  C   UNL A   1      46.664  34.051  27.481  1.00  0.00     0.010 A 
ATOM     79  C   UNL A   1      46.964  33.310  29.705  1.00  0.00     0.010 A 
ATOM     80  C   UNL A   1      47.155  35.297  27.938  1.00  0.00     0.020 A 
ATOM     81  C   UNL A   1      47.307  34.581  30.101  1.00  0.00     0.020 A 
ATOM     82  C   UNL A   1      47.323  35.615  29.208  1.00  0.00     0.054 A 
BRANCH  82  83
ATOM     83  S   UNL A   1      47.561  37.330  29.738  1.00  0.00     0.124 S 
ATOM     84  O   UNL A   1      46.762  38.261  28.824  1.00  0.00    -0.237 OA
ATOM     85  O   UNL A   1      47.076  37.490  31.181  1.00  0.00    -0.237 OA
ATOM     86  O   UNL A   1      49.221  37.729  29.646  1.00  0.00    -0.744 OA
ENDBRANCH  82  83
ENDBRANCH  54  77
BRANCH  66  87
ATOM     87  C   UNL A   1      50.752  27.852  25.937  1.00  0.00    -0.014 A 
ATOM     88  C   UNL A   1      51.180  28.187  24.663  1.00  0.00     0.010 A 
ATOM     89  C   UNL A   1      51.601  27.402  26.854  1.00  0.00     0.010 A 
ATOM     90  C   UNL A   1      52.486  27.734  24.360  1.00  0.00     0.020 A 
ATOM     91  C   UNL A   1      52.901  27.109  26.518  1.00  0.00     0.020 A 
ATOM     92  C   UNL A   1      53.376  27.358  25.261  1.00  0.00     0.054 A 
BRANCH  92  93
ATOM     93  S   UNL A   1      55.130  27.182  24.852  1.00  0.00     0.124 S 
ATOM     94  O   UNL A   1      55.739  26.056  25.691  1.00  0.00    -0.237 OA
ATOM     95  O   UNL A   1      55.277  26.847  23.366  1.00  0.00    -0.237 OA
ATOM     96  O   UNL A   1      55.944  28.648  25.190  1.00  0.00    -0.744 OA
ENDBRANCH  92  93
ENDBRANCH  66  87
ENDBRANCH  40  41
ENDBRANCH  33  35
ENDBRANCH  32  33
ENDBRANCH  31  32
ENDBRANCH  30  31
ENDBRANCH  29  30
ENDBRANCH   1  29
TORSDOF 22
ENDMDL
