MODEL 1
REMARK VINA RESULT:      -9.7      0.000      0.000
REMARK SMILES COc1cc(Cl)c2c(c1)C=C(C(=O)OCCOCCOCCOC(=O)c1ccc(-c3c4nc(c(-c5ccc(S(=O)(=O)[O-])cc5)c5ccc([nH]5)c(-c5ccc(S(=O)(=O)[O-])cc5)c5nc(c(-c6ccc(S(=O)(=O)[O-])cc6)c6ccc3[nH]6)C=C5)C=C4)cc1)[C@@H](C(F)(F)F)O2
REMARK SMILES IDX 19 1 18 2 17 3 16 4 15 5 14 6 12 7 13 8 11 9 3 10 4 11 9 12
REMARK SMILES IDX 5 13 8 14 6 15 7 16 10 17 91 18 86 19 2 20 1 21 87 22 88 23
REMARK SMILES IDX 89 24 90 25 20 26 21 27 22 28 23 29 24 30 25 31 26 32 27 33
REMARK SMILES IDX 85 34 28 35 84 36 29 37 30 38 31 39 78 40 32 41 83 42 77 43
REMARK SMILES IDX 79 44 33 45 82 46 76 47 75 48 34 50 64 51 45 52 63 53 46 54
REMARK SMILES IDX 49 55 62 56 80 57 47 58 48 59 61 61 81 62 50 63 35 64 36 65
REMARK SMILES IDX 44 66 37 67 43 68 38 69 39 70 40 71 41 72 42 73 65 74 66 75
REMARK SMILES IDX 74 76 67 77 73 78 68 79 69 80 70 81 71 82 72 83 51 84 52 85
REMARK SMILES IDX 60 86 53 87 59 88 54 89 55 90 56 91 57 92 58 93
REMARK H PARENT 79 49 49 60
REMARK Flexibility Score: inf
ROOT
ATOM      1  C   UNL A   1      34.887  31.090  28.601  1.00  0.00     0.188 C 
ENDROOT
BRANCH   1   2
ATOM      2  C   UNL A   1      34.198  30.786  27.251  1.00  0.00     0.188 C 
BRANCH   2   3
ATOM      3  O   UNL A   1      32.844  31.177  27.235  1.00  0.00    -0.376 OA
BRANCH   3   4
ATOM      4  C   UNL A   1      31.876  30.310  26.676  1.00  0.00     0.202 C 
BRANCH   4   5
ATOM      5  C   UNL A   1      31.943  28.777  26.827  1.00  0.00     0.261 C 
BRANCH   5   6
ATOM      6  O   UNL A   1      31.357  27.986  25.788  1.00  0.00    -0.460 OA
BRANCH   6   7
ATOM      7  C   UNL A   1      32.187  27.550  24.813  1.00  0.00     0.338 C 
ATOM      8  O   UNL A   1      32.724  28.230  23.957  1.00  0.00    -0.246 OA
BRANCH   7   9
ATOM      9  C   UNL A   1      32.442  26.106  25.011  1.00  0.00     0.087 C 
ATOM     10  C   UNL A   1      35.573  22.529  25.743  1.00  0.00     0.121 A 
ATOM     11  C   UNL A   1      34.569  21.586  25.547  1.00  0.00     0.070 A 
ATOM     12  C   UNL A   1      35.275  23.892  25.739  1.00  0.00     0.058 A 
ATOM     13  C   UNL A   1      33.260  22.015  25.326  1.00  0.00     0.087 A 
ATOM     14  C   UNL A   1      33.971  24.325  25.474  1.00  0.00     0.022 A 
ATOM     15  Cl  UNL A   1      32.041  20.816  25.071  1.00  0.00    -0.080 Cl
ATOM     16  C   UNL A   1      32.952  23.385  25.287  1.00  0.00     0.146 A 
ATOM     17  C   UNL A   1      33.689  25.745  25.338  1.00  0.00     0.027 C 
ATOM     18  O   UNL A   1      31.648  23.739  25.076  1.00  0.00    -0.474 OA
ATOM     19  C   UNL A   1      31.304  25.131  24.856  1.00  0.00     0.316 C 
BRANCH  10  20
ATOM     20  O   UNL A   1      36.867  22.173  26.002  1.00  0.00    -0.497 OA
ATOM     21  C   UNL A   1      37.797  22.940  25.238  1.00  0.00     0.278 C 
ENDBRANCH  10  20
BRANCH  19  22
ATOM     22  C   UNL A   1      30.621  25.247  23.486  1.00  0.00     0.430 C 
ATOM     23  F   UNL A   1      31.507  25.600  22.522  1.00  0.00    -0.167 F 
ATOM     24  F   UNL A   1      30.075  24.072  23.094  1.00  0.00    -0.167 F 
ATOM     25  F   UNL A   1      29.635  26.172  23.488  1.00  0.00    -0.167 F 
ENDBRANCH  19  22
ENDBRANCH   7   9
ENDBRANCH   6   7
ENDBRANCH   5   6
ENDBRANCH   4   5
ENDBRANCH   3   4
ENDBRANCH   2   3
ENDBRANCH   1   2
BRANCH   1  26
ATOM     26  O   UNL A   1      35.139  32.440  28.973  1.00  0.00    -0.376 OA
BRANCH  26  27
ATOM     27  C   UNL A   1      34.886  32.831  30.320  1.00  0.00     0.202 C 
BRANCH  27  28
ATOM     28  C   UNL A   1      35.454  32.001  31.486  1.00  0.00     0.261 C 
BRANCH  28  29
ATOM     29  O   UNL A   1      36.848  31.659  31.389  1.00  0.00    -0.460 OA
BRANCH  29  30
ATOM     30  C   UNL A   1      37.137  30.332  31.381  1.00  0.00     0.338 C 
ATOM     31  O   UNL A   1      36.389  29.409  31.659  1.00  0.00    -0.246 OA
BRANCH  30  32
ATOM     32  C   UNL A   1      38.484  30.140  30.810  1.00  0.00     0.060 A 
ATOM     33  C   UNL A   1      38.644  30.153  29.417  1.00  0.00     0.016 A 
ATOM     34  C   UNL A   1      39.579  29.926  31.646  1.00  0.00     0.016 A 
ATOM     35  C   UNL A   1      39.911  29.987  28.858  1.00  0.00     0.010 A 
ATOM     36  C   UNL A   1      40.840  29.718  31.082  1.00  0.00     0.010 A 
ATOM     37  C   UNL A   1      41.011  29.742  29.687  1.00  0.00    -0.014 A 
BRANCH  37  38
ATOM     38  C   UNL A   1      42.310  29.366  29.086  1.00  0.00     0.031 A 
ATOM     39  C   UNL A   1      42.498  27.956  28.600  1.00  0.00     0.074 A 
ATOM     40  C   UNL A   1      43.300  30.269  28.955  1.00  0.00     0.049 A 
ATOM     41  N   UNL A   1      43.548  27.411  28.048  1.00  0.00    -0.248 NA
ATOM     42  C   UNL A   1      41.351  27.044  28.753  1.00  0.00     0.031 C 
ATOM     43  C   UNL A   1      43.220  31.675  29.348  1.00  0.00     0.029 A 
ATOM     44  N   UNL A   1      44.570  30.132  28.452  1.00  0.00    -0.354 N 
ATOM     45  C   UNL A   1      43.190  26.096  27.781  1.00  0.00     0.074 A 
ATOM     46  C   UNL A   1      41.835  25.916  28.251  1.00  0.00     0.031 C 
ATOM     47  C   UNL A   1      44.396  32.270  29.077  1.00  0.00     0.029 A 
ATOM     48  C   UNL A   1      45.318  31.284  28.515  1.00  0.00     0.049 A 
ATOM     49  H   UNL A   1      44.915  29.287  28.081  1.00  0.00     0.167 HD
ATOM     50  C   UNL A   1      43.925  25.127  27.191  1.00  0.00     0.031 A 
ATOM     51  C   UNL A   1      46.601  31.514  28.169  1.00  0.00     0.031 A 
ATOM     52  C   UNL A   1      45.277  25.302  26.739  1.00  0.00     0.049 A 
ATOM     53  C   UNL A   1      47.426  30.397  27.587  1.00  0.00     0.074 A 
ATOM     54  C   UNL A   1      46.094  24.376  26.118  1.00  0.00     0.029 A 
ATOM     55  N   UNL A   1      46.010  26.470  26.864  1.00  0.00    -0.354 N 
ATOM     56  N   UNL A   1      47.066  29.163  27.323  1.00  0.00    -0.248 NA
ATOM     57  C   UNL A   1      48.827  30.696  27.251  1.00  0.00     0.031 C 
ATOM     58  C   UNL A   1      47.341  24.968  25.913  1.00  0.00     0.029 A 
ATOM     59  C   UNL A   1      47.280  26.281  26.354  1.00  0.00     0.049 A 
ATOM     60  H   UNL A   1      45.677  27.308  27.259  1.00  0.00     0.167 HD
ATOM     61  C   UNL A   1      48.183  28.551  26.765  1.00  0.00     0.074 A 
ATOM     62  C   UNL A   1      49.235  29.544  26.731  1.00  0.00     0.031 C 
ATOM     63  C   UNL A   1      48.316  27.281  26.313  1.00  0.00     0.031 A 
BRANCH  50  64
ATOM     64  C   UNL A   1      43.295  23.777  27.004  1.00  0.00    -0.014 A 
ATOM     65  C   UNL A   1      43.224  22.865  28.070  1.00  0.00     0.010 A 
ATOM     66  C   UNL A   1      42.674  23.464  25.781  1.00  0.00     0.010 A 
ATOM     67  C   UNL A   1      42.539  21.658  27.916  1.00  0.00     0.020 A 
ATOM     68  C   UNL A   1      41.972  22.265  25.631  1.00  0.00     0.020 A 
ATOM     69  C   UNL A   1      41.908  21.371  26.702  1.00  0.00     0.054 A 
BRANCH  69  70
ATOM     70  S   UNL A   1      40.980  19.820  26.558  1.00  0.00     0.124 S 
ATOM     71  O   UNL A   1      41.834  19.034  25.670  1.00  0.00    -0.237 OA
ATOM     72  O   UNL A   1      40.920  19.360  27.942  1.00  0.00    -0.237 OA
ATOM     73  O   UNL A   1      39.702  20.231  25.979  1.00  0.00    -0.744 OA
ENDBRANCH  69  70
ENDBRANCH  50  64
BRANCH  51  74
ATOM     74  C   UNL A   1      47.184  32.869  28.370  1.00  0.00    -0.014 A 
ATOM     75  C   UNL A   1      47.099  33.841  27.359  1.00  0.00     0.010 A 
ATOM     76  C   UNL A   1      47.799  33.203  29.591  1.00  0.00     0.010 A 
ATOM     77  C   UNL A   1      47.614  35.124  27.566  1.00  0.00     0.020 A 
ATOM     78  C   UNL A   1      48.297  34.490  29.810  1.00  0.00     0.020 A 
ATOM     79  C   UNL A   1      48.199  35.445  28.796  1.00  0.00     0.054 A 
BRANCH  79  80
ATOM     80  S   UNL A   1      48.810  37.134  29.054  1.00  0.00     0.124 S 
ATOM     81  O   UNL A   1      49.438  37.038  30.368  1.00  0.00    -0.237 OA
ATOM     82  O   UNL A   1      49.724  37.304  27.927  1.00  0.00    -0.237 OA
ATOM     83  O   UNL A   1      47.600  37.950  28.998  1.00  0.00    -0.744 OA
ENDBRANCH  79  80
ENDBRANCH  51  74
BRANCH  63  84
ATOM     84  C   UNL A   1      49.625  26.862  25.702  1.00  0.00    -0.014 A 
ATOM     85  C   UNL A   1      49.918  27.150  24.360  1.00  0.00     0.010 A 
ATOM     86  C   UNL A   1      50.636  26.344  26.535  1.00  0.00     0.010 A 
ATOM     87  C   UNL A   1      51.211  26.949  23.865  1.00  0.00     0.020 A 
ATOM     88  C   UNL A   1      51.932  26.160  26.049  1.00  0.00     0.020 A 
ATOM     89  C   UNL A   1      52.213  26.474  24.718  1.00  0.00     0.054 A 
BRANCH  89  90
ATOM     90  S   UNL A   1      53.903  26.327  24.074  1.00  0.00     0.124 S 
ATOM     91  O   UNL A   1      53.675  26.178  22.638  1.00  0.00    -0.237 OA
ATOM     92  O   UNL A   1      54.506  27.591  24.485  1.00  0.00    -0.237 OA
ATOM     93  O   UNL A   1      54.431  25.140  24.744  1.00  0.00    -0.744 OA
ENDBRANCH  89  90
ENDBRANCH  63  84
ENDBRANCH  37  38
ENDBRANCH  30  32
ENDBRANCH  29  30
ENDBRANCH  28  29
ENDBRANCH  27  28
ENDBRANCH  26  27
ENDBRANCH   1  26
TORSDOF 22
ENDMDL
MODEL 2
REMARK VINA RESULT:      -9.5      2.242      9.540
REMARK SMILES COc1cc(Cl)c2c(c1)C=C(C(=O)OCCOCCOCCOC(=O)c1ccc(-c3c4nc(c(-c5ccc(S(=O)(=O)[O-])cc5)c5ccc([nH]5)c(-c5ccc(S(=O)(=O)[O-])cc5)c5nc(c(-c6ccc(S(=O)(=O)[O-])cc6)c6ccc3[nH]6)C=C5)C=C4)cc1)[C@@H](C(F)(F)F)O2
REMARK SMILES IDX 19 1 18 2 17 3 16 4 15 5 14 6 12 7 13 8 11 9 3 10 4 11 9 12
REMARK SMILES IDX 5 13 8 14 6 15 7 16 10 17 91 18 86 19 2 20 1 21 87 22 88 23
REMARK SMILES IDX 89 24 90 25 20 26 21 27 22 28 23 29 24 30 25 31 26 32 27 33
REMARK SMILES IDX 85 34 28 35 84 36 29 37 30 38 31 39 78 40 32 41 83 42 77 43
REMARK SMILES IDX 79 44 33 45 82 46 76 47 75 48 34 50 64 51 45 52 63 53 46 54
REMARK SMILES IDX 49 55 62 56 80 57 47 58 48 59 61 61 81 62 50 63 35 64 36 65
REMARK SMILES IDX 44 66 37 67 43 68 38 69 39 70 40 71 41 72 42 73 65 74 66 75
REMARK SMILES IDX 74 76 67 77 73 78 68 79 69 80 70 81 71 82 72 83 51 84 52 85
REMARK SMILES IDX 60 86 53 87 59 88 54 89 55 90 56 91 57 92 58 93
REMARK H PARENT 79 49 49 60
REMARK Flexibility Score: inf
ROOT
ATOM      1  C   UNL A   1      39.993  22.522  27.232  1.00  0.00     0.188 C 
ENDROOT
BRANCH   1   2
ATOM      2  C   UNL A   1      38.922  22.657  26.125  1.00  0.00     0.188 C 
BRANCH   2   3
ATOM      3  O   UNL A   1      38.674  21.439  25.460  1.00  0.00    -0.376 OA
BRANCH   3   4
ATOM      4  C   UNL A   1      37.514  21.306  24.661  1.00  0.00     0.202 C 
BRANCH   4   5
ATOM      5  C   UNL A   1      36.204  20.690  25.190  1.00  0.00     0.261 C 
BRANCH   5   6
ATOM      6  O   UNL A   1      35.564  21.347  26.289  1.00  0.00    -0.460 OA
BRANCH   6   7
ATOM      7  C   UNL A   1      34.247  21.622  26.151  1.00  0.00     0.338 C 
ATOM      8  O   UNL A   1      33.320  21.020  26.663  1.00  0.00    -0.246 OA
BRANCH   7   9
ATOM      9  C   UNL A   1      34.097  22.861  25.355  1.00  0.00     0.087 C 
ATOM     10  C   UNL A   1      33.553  27.637  25.217  1.00  0.00     0.121 A 
ATOM     11  C   UNL A   1      33.332  27.591  23.844  1.00  0.00     0.070 A 
ATOM     12  C   UNL A   1      33.879  26.479  25.922  1.00  0.00     0.058 A 
ATOM     13  C   UNL A   1      33.422  26.368  23.178  1.00  0.00     0.087 A 
ATOM     14  C   UNL A   1      33.926  25.246  25.262  1.00  0.00     0.022 A 
ATOM     15  Cl  UNL A   1      33.127  26.345  21.474  1.00  0.00    -0.080 Cl
ATOM     16  C   UNL A   1      33.718  25.189  23.880  1.00  0.00     0.146 A 
ATOM     17  C   UNL A   1      34.134  24.022  26.021  1.00  0.00     0.027 C 
ATOM     18  O   UNL A   1      33.801  24.025  23.166  1.00  0.00    -0.474 OA
ATOM     19  C   UNL A   1      33.932  22.758  23.862  1.00  0.00     0.316 C 
BRANCH  10  20
ATOM     20  O   UNL A   1      33.517  28.808  25.921  1.00  0.00    -0.497 OA
ATOM     21  C   UNL A   1      32.674  29.780  25.302  1.00  0.00     0.278 C 
ENDBRANCH  10  20
BRANCH  19  22
ATOM     22  C   UNL A   1      32.746  21.868  23.467  1.00  0.00     0.430 C 
ATOM     23  F   UNL A   1      33.052  20.553  23.598  1.00  0.00    -0.167 F 
ATOM     24  F   UNL A   1      31.665  22.089  24.252  1.00  0.00    -0.167 F 
ATOM     25  F   UNL A   1      32.365  22.070  22.186  1.00  0.00    -0.167 F 
ENDBRANCH  19  22
ENDBRANCH   7   9
ENDBRANCH   6   7
ENDBRANCH   5   6
ENDBRANCH   4   5
ENDBRANCH   3   4
ENDBRANCH   2   3
ENDBRANCH   1   2
BRANCH   1  26
ATOM     26  O   UNL A   1      40.458  21.230  27.605  1.00  0.00    -0.376 OA
BRANCH  26  27
ATOM     27  C   UNL A   1      41.791  20.864  27.263  1.00  0.00     0.202 C 
BRANCH  27  28
ATOM     28  C   UNL A   1      42.054  19.929  26.067  1.00  0.00     0.261 C 
BRANCH  28  29
ATOM     29  O   UNL A   1      43.417  19.507  25.892  1.00  0.00    -0.460 OA
BRANCH  29  30
ATOM     30  C   UNL A   1      44.081  20.058  24.843  1.00  0.00     0.338 C 
ATOM     31  O   UNL A   1      44.262  19.567  23.740  1.00  0.00    -0.246 OA
BRANCH  30  32
ATOM     32  C   UNL A   1      44.427  21.454  25.175  1.00  0.00     0.060 A 
ATOM     33  C   UNL A   1      45.102  21.724  26.374  1.00  0.00     0.016 A 
ATOM     34  C   UNL A   1      44.067  22.492  24.316  1.00  0.00     0.016 A 
ATOM     35  C   UNL A   1      45.450  23.034  26.700  1.00  0.00     0.010 A 
ATOM     36  C   UNL A   1      44.380  23.808  24.666  1.00  0.00     0.010 A 
ATOM     37  C   UNL A   1      45.068  24.086  25.859  1.00  0.00    -0.014 A 
BRANCH  37  38
ATOM     38  C   UNL A   1      45.259  25.484  26.305  1.00  0.00     0.031 A 
ATOM     39  C   UNL A   1      46.633  26.087  26.214  1.00  0.00     0.074 A 
ATOM     40  C   UNL A   1      44.224  26.213  26.763  1.00  0.00     0.049 A 
ATOM     41  N   UNL A   1      47.027  27.286  26.550  1.00  0.00    -0.248 NA
ATOM     42  C   UNL A   1      47.699  25.229  25.670  1.00  0.00     0.031 C 
ATOM     43  C   UNL A   1      42.840  25.751  26.856  1.00  0.00     0.029 A 
ATOM     44  N   UNL A   1      44.182  27.501  27.237  1.00  0.00    -0.354 N 
ATOM     45  C   UNL A   1      48.383  27.330  26.254  1.00  0.00     0.074 A 
ATOM     46  C   UNL A   1      48.752  26.033  25.732  1.00  0.00     0.031 C 
ATOM     47  C   UNL A   1      42.084  26.741  27.364  1.00  0.00     0.029 A 
ATOM     48  C   UNL A   1      42.934  27.896  27.655  1.00  0.00     0.049 A 
ATOM     49  H   UNL A   1      44.972  28.087  27.276  1.00  0.00     0.167 HD
ATOM     50  C   UNL A   1      49.242  28.363  26.399  1.00  0.00     0.031 A 
ATOM     51  C   UNL A   1      42.524  29.052  28.217  1.00  0.00     0.031 A 
ATOM     52  C   UNL A   1      48.879  29.646  26.932  1.00  0.00     0.049 A 
ATOM     53  C   UNL A   1      43.518  30.161  28.442  1.00  0.00     0.074 A 
ATOM     54  C   UNL A   1      49.685  30.757  27.104  1.00  0.00     0.029 A 
ATOM     55  N   UNL A   1      47.617  29.988  27.385  1.00  0.00    -0.354 N 
ATOM     56  N   UNL A   1      44.793  30.194  28.139  1.00  0.00    -0.248 NA
ATOM     57  C   UNL A   1      43.023  31.391  29.082  1.00  0.00     0.031 C 
ATOM     58  C   UNL A   1      48.922  31.756  27.709  1.00  0.00     0.029 A 
ATOM     59  C   UNL A   1      47.626  31.286  27.859  1.00  0.00     0.049 A 
ATOM     60  H   UNL A   1      46.830  29.395  27.372  1.00  0.00     0.167 HD
ATOM     61  C   UNL A   1      45.244  31.453  28.521  1.00  0.00     0.074 A 
ATOM     62  C   UNL A   1      44.110  32.154  29.084  1.00  0.00     0.031 C 
ATOM     63  C   UNL A   1      46.487  31.979  28.405  1.00  0.00     0.031 A 
BRANCH  50  64
ATOM     64  C   UNL A   1      50.671  28.157  25.987  1.00  0.00    -0.014 A 
ATOM     65  C   UNL A   1      51.627  27.707  26.913  1.00  0.00     0.010 A 
ATOM     66  C   UNL A   1      51.035  28.312  24.637  1.00  0.00     0.010 A 
ATOM     67  C   UNL A   1      52.926  27.414  26.495  1.00  0.00     0.020 A 
ATOM     68  C   UNL A   1      52.329  28.001  24.212  1.00  0.00     0.020 A 
ATOM     69  C   UNL A   1      53.265  27.551  25.145  1.00  0.00     0.054 A 
BRANCH  69  70
ATOM     70  S   UNL A   1      54.946  27.106  24.628  1.00  0.00     0.124 S 
ATOM     71  O   UNL A   1      55.063  27.794  23.345  1.00  0.00    -0.237 OA
ATOM     72  O   UNL A   1      55.761  27.650  25.710  1.00  0.00    -0.237 OA
ATOM     73  O   UNL A   1      54.910  25.647  24.546  1.00  0.00    -0.744 OA
ENDBRANCH  69  70
ENDBRANCH  50  64
BRANCH  51  74
ATOM     74  C   UNL A   1      41.097  29.214  28.607  1.00  0.00    -0.014 A 
ATOM     75  C   UNL A   1      40.711  29.136  29.956  1.00  0.00     0.010 A 
ATOM     76  C   UNL A   1      40.121  29.481  27.629  1.00  0.00     0.010 A 
ATOM     77  C   UNL A   1      39.374  29.326  30.321  1.00  0.00     0.020 A 
ATOM     78  C   UNL A   1      38.788  29.692  27.992  1.00  0.00     0.020 A 
ATOM     79  C   UNL A   1      38.423  29.616  29.337  1.00  0.00     0.054 A 
BRANCH  79  80
ATOM     80  S   UNL A   1      36.707  29.911  29.848  1.00  0.00     0.124 S 
ATOM     81  O   UNL A   1      36.670  31.364  29.982  1.00  0.00    -0.237 OA
ATOM     82  O   UNL A   1      35.954  29.360  28.724  1.00  0.00    -0.237 OA
ATOM     83  O   UNL A   1      36.586  29.166  31.099  1.00  0.00    -0.744 OA
ENDBRANCH  79  80
ENDBRANCH  51  74
BRANCH  63  84
ATOM     84  C   UNL A   1      46.720  33.396  28.854  1.00  0.00    -0.014 A 
ATOM     85  C   UNL A   1      47.233  33.670  30.132  1.00  0.00     0.010 A 
ATOM     86  C   UNL A   1      46.601  34.440  27.918  1.00  0.00     0.010 A 
ATOM     87  C   UNL A   1      47.645  34.966  30.459  1.00  0.00     0.020 A 
ATOM     88  C   UNL A   1      47.030  35.731  28.235  1.00  0.00     0.020 A 
ATOM     89  C   UNL A   1      47.559  35.983  29.502  1.00  0.00     0.054 A 
BRANCH  89  90
ATOM     90  S   UNL A   1      48.202  37.626  29.922  1.00  0.00     0.124 S 
ATOM     91  O   UNL A   1      46.980  38.371  30.217  1.00  0.00    -0.237 OA
ATOM     92  O   UNL A   1      49.057  37.344  31.071  1.00  0.00    -0.237 OA
ATOM     93  O   UNL A   1      48.906  38.047  28.712  1.00  0.00    -0.744 OA
ENDBRANCH  89  90
ENDBRANCH  63  84
ENDBRANCH  37  38
ENDBRANCH  30  32
ENDBRANCH  29  30
ENDBRANCH  28  29
ENDBRANCH  27  28
ENDBRANCH  26  27
ENDBRANCH   1  26
TORSDOF 22
ENDMDL
MODEL 3
REMARK VINA RESULT:      -9.3      6.515     11.706
REMARK SMILES COc1cc(Cl)c2c(c1)C=C(C(=O)OCCOCCOCCOC(=O)c1ccc(-c3c4nc(c(-c5ccc(S(=O)(=O)[O-])cc5)c5ccc([nH]5)c(-c5ccc(S(=O)(=O)[O-])cc5)c5nc(c(-c6ccc(S(=O)(=O)[O-])cc6)c6ccc3[nH]6)C=C5)C=C4)cc1)[C@@H](C(F)(F)F)O2
REMARK SMILES IDX 19 1 18 2 17 3 16 4 15 5 14 6 12 7 13 8 11 9 3 10 4 11 9 12
REMARK SMILES IDX 5 13 8 14 6 15 7 16 10 17 91 18 86 19 2 20 1 21 87 22 88 23
REMARK SMILES IDX 89 24 90 25 20 26 21 27 22 28 23 29 24 30 25 31 26 32 27 33
REMARK SMILES IDX 85 34 28 35 84 36 29 37 30 38 31 39 78 40 32 41 83 42 77 43
REMARK SMILES IDX 79 44 33 45 82 46 76 47 75 48 34 50 64 51 45 52 63 53 46 54
REMARK SMILES IDX 49 55 62 56 80 57 47 58 48 59 61 61 81 62 50 63 35 64 36 65
REMARK SMILES IDX 44 66 37 67 43 68 38 69 39 70 40 71 41 72 42 73 65 74 66 75
REMARK SMILES IDX 74 76 67 77 73 78 68 79 69 80 70 81 71 82 72 83 51 84 52 85
REMARK SMILES IDX 60 86 53 87 59 88 54 89 55 90 56 91 57 92 58 93
REMARK H PARENT 79 49 49 60
REMARK Flexibility Score: inf
ROOT
ATOM      1  C   UNL A   1      36.546  21.555  25.454  1.00  0.00     0.188 C 
ENDROOT
BRANCH   1   2
ATOM      2  C   UNL A   1      35.283  21.819  24.602  1.00  0.00     0.188 C 
BRANCH   2   3
ATOM      3  O   UNL A   1      34.313  20.806  24.742  1.00  0.00    -0.376 OA
BRANCH   3   4
ATOM      4  C   UNL A   1      33.141  21.064  25.490  1.00  0.00     0.202 C 
BRANCH   4   5
ATOM      5  C   UNL A   1      32.746  22.478  25.962  1.00  0.00     0.261 C 
BRANCH   5   6
ATOM      6  O   UNL A   1      31.750  23.172  25.204  1.00  0.00    -0.460 OA
BRANCH   6   7
ATOM      7  C   UNL A   1      32.178  23.858  24.119  1.00  0.00     0.338 C 
ATOM      8  O   UNL A   1      32.710  23.392  23.127  1.00  0.00    -0.246 OA
BRANCH   7   9
ATOM      9  C   UNL A   1      31.796  25.279  24.269  1.00  0.00     0.087 C 
ATOM     10  C   UNL A   1      29.562  29.161  22.515  1.00  0.00     0.121 A 
ATOM     11  C   UNL A   1      30.107  29.951  23.523  1.00  0.00     0.070 A 
ATOM     12  C   UNL A   1      29.783  27.784  22.499  1.00  0.00     0.058 A 
ATOM     13  C   UNL A   1      30.894  29.357  24.509  1.00  0.00     0.087 A 
ATOM     14  C   UNL A   1      30.607  27.193  23.463  1.00  0.00     0.022 A 
ATOM     15  Cl  UNL A   1      31.567  30.372  25.737  1.00  0.00    -0.080 Cl
ATOM     16  C   UNL A   1      31.150  27.976  24.487  1.00  0.00     0.146 A 
ATOM     17  C   UNL A   1      30.944  25.781  23.367  1.00  0.00     0.027 C 
ATOM     18  O   UNL A   1      31.922  27.454  25.489  1.00  0.00    -0.474 OA
ATOM     19  C   UNL A   1      32.359  26.073  25.419  1.00  0.00     0.316 C 
BRANCH  10  20
ATOM     20  O   UNL A   1      28.752  29.676  21.543  1.00  0.00    -0.497 OA
ATOM     21  C   UNL A   1      28.671  31.100  21.612  1.00  0.00     0.278 C 
ENDBRANCH  10  20
BRANCH  19  22
ATOM     22  C   UNL A   1      33.893  26.052  25.444  1.00  0.00     0.430 C 
ATOM     23  F   UNL A   1      34.391  27.150  26.064  1.00  0.00    -0.167 F 
ATOM     24  F   UNL A   1      34.372  24.980  26.120  1.00  0.00    -0.167 F 
ATOM     25  F   UNL A   1      34.420  26.015  24.200  1.00  0.00    -0.167 F 
ENDBRANCH  19  22
ENDBRANCH   7   9
ENDBRANCH   6   7
ENDBRANCH   5   6
ENDBRANCH   4   5
ENDBRANCH   3   4
ENDBRANCH   2   3
ENDBRANCH   1   2
BRANCH   1  26
ATOM     26  O   UNL A   1      37.536  22.569  25.576  1.00  0.00    -0.376 OA
BRANCH  26  27
ATOM     27  C   UNL A   1      38.832  22.201  26.039  1.00  0.00     0.202 C 
BRANCH  27  28
ATOM     28  C   UNL A   1      39.816  23.281  26.526  1.00  0.00     0.261 C 
BRANCH  28  29
ATOM     29  O   UNL A   1      39.306  24.626  26.547  1.00  0.00    -0.460 OA
BRANCH  29  30
ATOM     30  C   UNL A   1      40.229  25.614  26.419  1.00  0.00     0.338 C 
ATOM     31  O   UNL A   1      40.960  25.827  25.465  1.00  0.00    -0.246 OA
BRANCH  30  32
ATOM     32  C   UNL A   1      40.109  26.532  27.568  1.00  0.00     0.060 A 
ATOM     33  C   UNL A   1      40.799  27.752  27.544  1.00  0.00     0.016 A 
ATOM     34  C   UNL A   1      39.335  26.178  28.673  1.00  0.00     0.016 A 
ATOM     35  C   UNL A   1      40.688  28.639  28.614  1.00  0.00     0.010 A 
ATOM     36  C   UNL A   1      39.260  27.050  29.763  1.00  0.00     0.010 A 
ATOM     37  C   UNL A   1      39.938  28.281  29.740  1.00  0.00    -0.014 A 
BRANCH  37  38
ATOM     38  C   UNL A   1      39.987  29.130  30.951  1.00  0.00     0.031 A 
ATOM     39  C   UNL A   1      41.062  28.872  31.969  1.00  0.00     0.074 A 
ATOM     40  C   UNL A   1      39.102  30.128  31.134  1.00  0.00     0.049 A 
ATOM     41  N   UNL A   1      41.288  29.487  33.099  1.00  0.00    -0.248 NA
ATOM     42  C   UNL A   1      42.007  27.781  31.673  1.00  0.00     0.031 C 
ATOM     43  C   UNL A   1      38.044  30.501  30.197  1.00  0.00     0.029 A 
ATOM     44  N   UNL A   1      38.957  31.011  32.175  1.00  0.00    -0.354 N 
ATOM     45  C   UNL A   1      42.403  28.865  33.647  1.00  0.00     0.074 A 
ATOM     46  C   UNL A   1      42.796  27.811  32.739  1.00  0.00     0.031 C 
ATOM     47  C   UNL A   1      37.352  31.534  30.711  1.00  0.00     0.029 A 
ATOM     48  C   UNL A   1      37.902  31.879  32.022  1.00  0.00     0.049 A 
ATOM     49  H   UNL A   1      39.551  31.021  32.960  1.00  0.00     0.167 HD
ATOM     50  C   UNL A   1      43.045  29.154  34.800  1.00  0.00     0.031 A 
ATOM     51  C   UNL A   1      37.428  32.834  32.847  1.00  0.00     0.031 A 
ATOM     52  C   UNL A   1      42.645  30.192  35.709  1.00  0.00     0.049 A 
ATOM     53  C   UNL A   1      38.112  33.085  34.165  1.00  0.00     0.074 A 
ATOM     54  C   UNL A   1      43.246  30.562  36.898  1.00  0.00     0.029 A 
ATOM     55  N   UNL A   1      41.546  31.016  35.537  1.00  0.00    -0.354 N 
ATOM     56  N   UNL A   1      39.178  32.501  34.660  1.00  0.00    -0.248 NA
ATOM     57  C   UNL A   1      37.538  34.121  35.038  1.00  0.00     0.031 C 
ATOM     58  C   UNL A   1      42.480  31.577  37.472  1.00  0.00     0.029 A 
ATOM     59  C   UNL A   1      41.436  31.878  36.611  1.00  0.00     0.049 A 
ATOM     60  H   UNL A   1      40.934  30.990  34.766  1.00  0.00     0.167 HD
ATOM     61  C   UNL A   1      39.418  33.117  35.883  1.00  0.00     0.074 A 
ATOM     62  C   UNL A   1      38.386  34.117  36.060  1.00  0.00     0.031 C 
ATOM     63  C   UNL A   1      40.412  32.879  36.771  1.00  0.00     0.031 A 
BRANCH  50  64
ATOM     64  C   UNL A   1      44.248  28.333  35.165  1.00  0.00    -0.014 A 
ATOM     65  C   UNL A   1      44.124  27.215  36.007  1.00  0.00     0.010 A 
ATOM     66  C   UNL A   1      45.491  28.619  34.572  1.00  0.00     0.010 A 
ATOM     67  C   UNL A   1      45.228  26.394  36.250  1.00  0.00     0.020 A 
ATOM     68  C   UNL A   1      46.591  27.789  34.799  1.00  0.00     0.020 A 
ATOM     69  C   UNL A   1      46.451  26.680  35.635  1.00  0.00     0.054 A 
BRANCH  69  70
ATOM     70  S   UNL A   1      47.846  25.560  35.930  1.00  0.00     0.124 S 
ATOM     71  O   UNL A   1      47.988  25.623  37.382  1.00  0.00    -0.237 OA
ATOM     72  O   UNL A   1      47.349  24.293  35.401  1.00  0.00    -0.237 OA
ATOM     73  O   UNL A   1      48.943  26.164  35.175  1.00  0.00    -0.744 OA
ENDBRANCH  69  70
ENDBRANCH  50  64
BRANCH  51  74
ATOM     74  C   UNL A   1      36.234  33.627  32.444  1.00  0.00    -0.014 A 
ATOM     75  C   UNL A   1      36.026  34.918  32.957  1.00  0.00     0.010 A 
ATOM     76  C   UNL A   1      35.316  33.103  31.515  1.00  0.00     0.010 A 
ATOM     77  C   UNL A   1      34.924  35.674  32.546  1.00  0.00     0.020 A 
ATOM     78  C   UNL A   1      34.224  33.863  31.086  1.00  0.00     0.020 A 
ATOM     79  C   UNL A   1      34.036  35.146  31.604  1.00  0.00     0.054 A 
BRANCH  79  80
ATOM     80  S   UNL A   1      32.645  36.171  31.050  1.00  0.00     0.124 S 
ATOM     81  O   UNL A   1      32.474  35.740  29.666  1.00  0.00    -0.237 OA
ATOM     82  O   UNL A   1      31.585  35.772  31.972  1.00  0.00    -0.237 OA
ATOM     83  O   UNL A   1      33.134  37.537  31.222  1.00  0.00    -0.744 OA
ENDBRANCH  79  80
ENDBRANCH  51  74
BRANCH  63  84
ATOM     84  C   UNL A   1      40.489  33.718  38.017  1.00  0.00    -0.014 A 
ATOM     85  C   UNL A   1      39.908  33.279  39.218  1.00  0.00     0.010 A 
ATOM     86  C   UNL A   1      41.310  34.862  38.024  1.00  0.00     0.010 A 
ATOM     87  C   UNL A   1      40.168  33.959  40.412  1.00  0.00     0.020 A 
ATOM     88  C   UNL A   1      41.586  35.532  39.218  1.00  0.00     0.020 A 
ATOM     89  C   UNL A   1      41.021  35.069  40.407  1.00  0.00     0.054 A 
BRANCH  89  90
ATOM     90  S   UNL A   1      41.422  35.861  41.988  1.00  0.00     0.124 S 
ATOM     91  O   UNL A   1      41.679  37.242  41.587  1.00  0.00    -0.237 OA
ATOM     92  O   UNL A   1      40.202  35.650  42.763  1.00  0.00    -0.237 OA
ATOM     93  O   UNL A   1      42.593  35.126  42.461  1.00  0.00    -0.744 OA
ENDBRANCH  89  90
ENDBRANCH  63  84
ENDBRANCH  37  38
ENDBRANCH  30  32
ENDBRANCH  29  30
ENDBRANCH  28  29
ENDBRANCH  27  28
ENDBRANCH  26  27
ENDBRANCH   1  26
TORSDOF 22
ENDMDL
