MODEL 1
REMARK VINA RESULT:      -9.9      0.000      0.000
REMARK SMILES O=C(Nc1cccc(F)c1C(=O)OCCOCCOCCOC(=O)c1ccc(-c2c3nc(c(-c4ccc(S(=O)(=O)[O-])cc4)c4ccc([nH]4)c(-c4ccc(S(=O)(=O)[O-])cc4)c4nc(c(-c5ccc(S(=O)(=O)[O-])cc5)c5ccc2[nH]5)C=C4)C=C3)cc1)c1ccc(Cl)nc1
REMARK SMILES IDX 18 1 17 2 16 3 15 4 14 5 13 6 11 7 12 8 10 9 4 10 5 11 6 12
REMARK SMILES IDX 8 13 7 14 9 15 3 16 1 17 2 18 85 20 86 21 91 22 87 23 90 24
REMARK SMILES IDX 88 25 89 26 19 27 20 28 21 29 22 30 23 31 24 32 25 33 26 34
REMARK SMILES IDX 84 35 27 36 83 37 28 38 29 39 30 40 77 41 31 42 82 43 76 44
REMARK SMILES IDX 78 45 32 46 81 47 75 48 74 49 33 51 63 52 44 53 62 54 45 55
REMARK SMILES IDX 48 56 61 57 79 58 46 59 47 60 60 62 80 63 49 64 34 65 35 66
REMARK SMILES IDX 43 67 36 68 42 69 37 70 38 71 39 72 40 73 41 74 64 75 65 76
REMARK SMILES IDX 73 77 66 78 72 79 67 80 68 81 69 82 70 83 71 84 50 85 51 86
REMARK SMILES IDX 59 87 52 88 58 89 53 90 54 91 55 92 56 93 57 94
REMARK H PARENT 3 19 78 50 48 61
REMARK Flexibility Score: inf
ROOT
ATOM      1  C   UNL A   1      33.241  22.169  25.898  1.00  0.00     0.188 C 
ENDROOT
BRANCH   1   2
ATOM      2  C   UNL A   1      32.987  22.980  27.187  1.00  0.00     0.188 C 
BRANCH   2   3
ATOM      3  O   UNL A   1      31.640  23.234  27.500  1.00  0.00    -0.376 OA
BRANCH   3   4
ATOM      4  C   UNL A   1      30.740  23.750  26.534  1.00  0.00     0.202 C 
BRANCH   4   5
ATOM      5  C   UNL A   1      30.729  25.189  25.987  1.00  0.00     0.261 C 
BRANCH   5   6
ATOM      6  O   UNL A   1      31.321  25.406  24.706  1.00  0.00    -0.460 OA
BRANCH   6   7
ATOM      7  C   UNL A   1      30.493  25.262  23.643  1.00  0.00     0.343 C 
ATOM      8  O   UNL A   1      30.091  24.214  23.165  1.00  0.00    -0.246 OA
BRANCH   7   9
ATOM      9  C   UNL A   1      29.949  26.572  23.264  1.00  0.00     0.119 A 
ATOM     10  C   UNL A   1      30.723  27.475  22.514  1.00  0.00     0.059 A 
ATOM     11  C   UNL A   1      30.170  28.718  22.169  1.00  0.00     0.027 A 
ATOM     12  C   UNL A   1      28.888  29.072  22.599  1.00  0.00     0.005 A 
ATOM     13  C   UNL A   1      28.677  26.941  23.701  1.00  0.00     0.139 A 
ATOM     14  C   UNL A   1      28.144  28.185  23.372  1.00  0.00     0.040 A 
ATOM     15  F   UNL A   1      27.946  26.114  24.462  1.00  0.00    -0.206 F 
BRANCH  10  16
ATOM     16  N   UNL A   1      32.018  27.124  22.069  1.00  0.00    -0.321 N 
ATOM     17  O   UNL A   1      34.221  27.557  21.773  1.00  0.00    -0.269 OA
ATOM     18  C   UNL A   1      33.230  27.626  22.491  1.00  0.00     0.257 C 
ATOM     19  H   UNL A   1      32.060  26.432  21.370  1.00  0.00     0.170 HD
BRANCH  18  20
ATOM     20  C   UNL A   1      33.348  28.136  23.873  1.00  0.00     0.058 A 
ATOM     21  C   UNL A   1      34.013  27.407  24.855  1.00  0.00     0.018 A 
ATOM     22  C   UNL A   1      32.767  29.351  24.230  1.00  0.00     0.126 A 
ATOM     23  C   UNL A   1      34.143  27.963  26.127  1.00  0.00     0.042 A 
ATOM     24  N   UNL A   1      32.904  29.929  25.445  1.00  0.00    -0.244 NA
ATOM     25  C   UNL A   1      33.592  29.215  26.360  1.00  0.00     0.129 A 
ATOM     26  Cl  UNL A   1      33.782  30.004  27.870  1.00  0.00    -0.062 Cl
ENDBRANCH  18  20
ENDBRANCH  10  16
ENDBRANCH   7   9
ENDBRANCH   6   7
ENDBRANCH   5   6
ENDBRANCH   4   5
ENDBRANCH   3   4
ENDBRANCH   2   3
ENDBRANCH   1   2
BRANCH   1  27
ATOM     27  O   UNL A   1      33.782  22.793  24.744  1.00  0.00    -0.376 OA
BRANCH  27  28
ATOM     28  C   UNL A   1      35.143  22.566  24.411  1.00  0.00     0.202 C 
BRANCH  28  29
ATOM     29  C   UNL A   1      36.215  23.612  24.758  1.00  0.00     0.261 C 
BRANCH  29  30
ATOM     30  O   UNL A   1      36.806  23.490  26.061  1.00  0.00    -0.460 OA
BRANCH  30  31
ATOM     31  C   UNL A   1      38.133  23.199  26.069  1.00  0.00     0.338 C 
ATOM     32  O   UNL A   1      38.693  22.296  25.473  1.00  0.00    -0.246 OA
BRANCH  31  33
ATOM     33  C   UNL A   1      38.868  24.266  26.778  1.00  0.00     0.060 A 
ATOM     34  C   UNL A   1      38.564  24.504  28.125  1.00  0.00     0.016 A 
ATOM     35  C   UNL A   1      39.796  25.064  26.110  1.00  0.00     0.016 A 
ATOM     36  C   UNL A   1      39.174  25.557  28.806  1.00  0.00     0.010 A 
ATOM     37  C   UNL A   1      40.387  26.136  26.786  1.00  0.00     0.010 A 
ATOM     38  C   UNL A   1      40.057  26.406  28.127  1.00  0.00    -0.014 A 
BRANCH  38  39
ATOM     39  C   UNL A   1      40.503  27.669  28.764  1.00  0.00     0.031 A 
ATOM     40  C   UNL A   1      41.889  27.737  29.343  1.00  0.00     0.074 A 
ATOM     41  C   UNL A   1      39.695  28.742  28.823  1.00  0.00     0.049 A 
ATOM     42  N   UNL A   1      42.472  28.716  29.985  1.00  0.00    -0.248 NA
ATOM     43  C   UNL A   1      42.728  26.541  29.174  1.00  0.00     0.031 C 
ATOM     44  C   UNL A   1      38.353  28.821  28.254  1.00  0.00     0.029 A 
ATOM     45  N   UNL A   1      39.891  29.971  29.403  1.00  0.00    -0.354 N 
ATOM     46  C   UNL A   1      43.741  28.251  30.309  1.00  0.00     0.074 A 
ATOM     47  C   UNL A   1      43.832  26.894  29.814  1.00  0.00     0.031 C 
ATOM     48  C   UNL A   1      37.836  30.031  28.528  1.00  0.00     0.029 A 
ATOM     49  C   UNL A   1      38.796  30.797  29.321  1.00  0.00     0.049 A 
ATOM     50  H   UNL A   1      40.735  30.236  29.835  1.00  0.00     0.167 HD
ATOM     51  C   UNL A   1      44.741  28.895  30.956  1.00  0.00     0.031 A 
ATOM     52  C   UNL A   1      38.581  32.020  29.846  1.00  0.00     0.031 A 
ATOM     53  C   UNL A   1      44.637  30.234  31.475  1.00  0.00     0.049 A 
ATOM     54  C   UNL A   1      39.676  32.688  30.636  1.00  0.00     0.074 A 
ATOM     55  C   UNL A   1      45.598  30.977  32.137  1.00  0.00     0.029 A 
ATOM     56  N   UNL A   1      43.499  31.023  31.406  1.00  0.00    -0.354 N 
ATOM     57  N   UNL A   1      40.883  32.250  30.909  1.00  0.00    -0.248 NA
ATOM     58  C   UNL A   1      39.384  34.022  31.181  1.00  0.00     0.031 C 
ATOM     59  C   UNL A   1      45.021  32.191  32.523  1.00  0.00     0.029 A 
ATOM     60  C   UNL A   1      43.721  32.234  32.041  1.00  0.00     0.049 A 
ATOM     61  H   UNL A   1      42.656  30.761  30.969  1.00  0.00     0.167 HD
ATOM     62  C   UNL A   1      41.501  33.263  31.636  1.00  0.00     0.074 A 
ATOM     63  C   UNL A   1      40.539  34.340  31.750  1.00  0.00     0.031 C 
ATOM     64  C   UNL A   1      42.753  33.297  32.156  1.00  0.00     0.031 A 
BRANCH  51  65
ATOM     65  C   UNL A   1      46.017  28.125  31.185  1.00  0.00    -0.014 A 
ATOM     66  C   UNL A   1      46.201  27.337  32.336  1.00  0.00     0.010 A 
ATOM     67  C   UNL A   1      47.051  28.197  30.234  1.00  0.00     0.010 A 
ATOM     68  C   UNL A   1      47.417  26.684  32.560  1.00  0.00     0.020 A 
ATOM     69  C   UNL A   1      48.257  27.521  30.438  1.00  0.00     0.020 A 
ATOM     70  C   UNL A   1      48.440  26.789  31.613  1.00  0.00     0.054 A 
BRANCH  70  71
ATOM     71  S   UNL A   1      50.014  25.948  31.937  1.00  0.00     0.124 S 
ATOM     72  O   UNL A   1      50.960  27.061  31.912  1.00  0.00    -0.237 OA
ATOM     73  O   UNL A   1      49.791  25.342  33.247  1.00  0.00    -0.237 OA
ATOM     74  O   UNL A   1      50.137  25.002  30.829  1.00  0.00    -0.744 OA
ENDBRANCH  70  71
ENDBRANCH  51  65
BRANCH  52  75
ATOM     75  C   UNL A   1      37.263  32.682  29.649  1.00  0.00    -0.014 A 
ATOM     76  C   UNL A   1      36.305  32.697  30.678  1.00  0.00     0.010 A 
ATOM     77  C   UNL A   1      36.973  33.334  28.435  1.00  0.00     0.010 A 
ATOM     78  C   UNL A   1      35.083  33.353  30.496  1.00  0.00     0.020 A 
ATOM     79  C   UNL A   1      35.763  34.013  28.260  1.00  0.00     0.020 A 
ATOM     80  C   UNL A   1      34.823  34.014  29.292  1.00  0.00     0.054 A 
BRANCH  80  81
ATOM     81  S   UNL A   1      33.264  34.925  29.114  1.00  0.00     0.124 S 
ATOM     82  O   UNL A   1      32.716  34.859  30.464  1.00  0.00    -0.237 OA
ATOM     83  O   UNL A   1      33.718  36.243  28.680  1.00  0.00    -0.237 OA
ATOM     84  O   UNL A   1      32.534  34.162  28.105  1.00  0.00    -0.744 OA
ENDBRANCH  80  81
ENDBRANCH  52  75
BRANCH  64  85
ATOM     85  C   UNL A   1      43.177  34.555  32.874  1.00  0.00    -0.014 A 
ATOM     86  C   UNL A   1      43.658  35.674  32.172  1.00  0.00     0.010 A 
ATOM     87  C   UNL A   1      43.033  34.636  34.272  1.00  0.00     0.010 A 
ATOM     88  C   UNL A   1      44.015  36.840  32.856  1.00  0.00     0.020 A 
ATOM     89  C   UNL A   1      43.361  35.809  34.957  1.00  0.00     0.020 A 
ATOM     90  C   UNL A   1      43.864  36.900  34.246  1.00  0.00     0.054 A 
BRANCH  90  91
ATOM     91  S   UNL A   1      44.292  38.439  35.107  1.00  0.00     0.124 S 
ATOM     92  O   UNL A   1      45.736  38.509  34.904  1.00  0.00    -0.237 OA
ATOM     93  O   UNL A   1      43.505  39.438  34.387  1.00  0.00    -0.237 OA
ATOM     94  O   UNL A   1      43.868  38.195  36.484  1.00  0.00    -0.744 OA
ENDBRANCH  90  91
ENDBRANCH  64  85
ENDBRANCH  38  39
ENDBRANCH  31  33
ENDBRANCH  30  31
ENDBRANCH  29  30
ENDBRANCH  28  29
ENDBRANCH  27  28
ENDBRANCH   1  27
TORSDOF 22
ENDMDL
MODEL 2
REMARK VINA RESULT:      -9.7      4.526      6.354
REMARK SMILES O=C(Nc1cccc(F)c1C(=O)OCCOCCOCCOC(=O)c1ccc(-c2c3nc(c(-c4ccc(S(=O)(=O)[O-])cc4)c4ccc([nH]4)c(-c4ccc(S(=O)(=O)[O-])cc4)c4nc(c(-c5ccc(S(=O)(=O)[O-])cc5)c5ccc2[nH]5)C=C4)C=C3)cc1)c1ccc(Cl)nc1
REMARK SMILES IDX 18 1 17 2 16 3 15 4 14 5 13 6 11 7 12 8 10 9 4 10 5 11 6 12
REMARK SMILES IDX 8 13 7 14 9 15 3 16 1 17 2 18 85 20 86 21 91 22 87 23 90 24
REMARK SMILES IDX 88 25 89 26 19 27 20 28 21 29 22 30 23 31 24 32 25 33 26 34
REMARK SMILES IDX 84 35 27 36 83 37 28 38 29 39 30 40 77 41 31 42 82 43 76 44
REMARK SMILES IDX 78 45 32 46 81 47 75 48 74 49 33 51 63 52 44 53 62 54 45 55
REMARK SMILES IDX 48 56 61 57 79 58 46 59 47 60 60 62 80 63 49 64 34 65 35 66
REMARK SMILES IDX 43 67 36 68 42 69 37 70 38 71 39 72 40 73 41 74 64 75 65 76
REMARK SMILES IDX 73 77 66 78 72 79 67 80 68 81 69 82 70 83 71 84 50 85 51 86
REMARK SMILES IDX 59 87 52 88 58 89 53 90 54 91 55 92 56 93 57 94
REMARK H PARENT 3 19 78 50 48 61
REMARK Flexibility Score: inf
ROOT
ATOM      1  C   UNL A   1      41.164  21.789  26.441  1.00  0.00     0.188 C 
ENDROOT
BRANCH   1   2
ATOM      2  C   UNL A   1      40.371  22.555  27.521  1.00  0.00     0.188 C 
BRANCH   2   3
ATOM      3  O   UNL A   1      39.635  23.667  27.074  1.00  0.00    -0.376 OA
BRANCH   3   4
ATOM      4  C   UNL A   1      38.713  23.561  26.003  1.00  0.00     0.202 C 
BRANCH   4   5
ATOM      5  C   UNL A   1      37.179  23.576  26.126  1.00  0.00     0.261 C 
BRANCH   5   6
ATOM      6  O   UNL A   1      36.432  23.885  24.950  1.00  0.00    -0.460 OA
BRANCH   6   7
ATOM      7  C   UNL A   1      36.192  22.846  24.113  1.00  0.00     0.343 C 
ATOM      8  O   UNL A   1      37.019  22.202  23.490  1.00  0.00    -0.246 OA
BRANCH   7   9
ATOM      9  C   UNL A   1      34.786  22.439  24.229  1.00  0.00     0.119 A 
ATOM     10  C   UNL A   1      33.784  23.130  23.526  1.00  0.00     0.059 A 
ATOM     11  C   UNL A   1      32.450  22.713  23.660  1.00  0.00     0.027 A 
ATOM     12  C   UNL A   1      32.117  21.655  24.509  1.00  0.00     0.005 A 
ATOM     13  C   UNL A   1      34.441  21.393  25.085  1.00  0.00     0.139 A 
ATOM     14  C   UNL A   1      33.113  20.999  25.229  1.00  0.00     0.040 A 
ATOM     15  F   UNL A   1      35.377  20.757  25.805  1.00  0.00    -0.206 F 
BRANCH  10  16
ATOM     16  N   UNL A   1      34.112  24.198  22.660  1.00  0.00    -0.321 N 
ATOM     17  O   UNL A   1      33.653  26.173  21.650  1.00  0.00    -0.269 OA
ATOM     18  C   UNL A   1      33.612  25.483  22.661  1.00  0.00     0.257 C 
ATOM     19  H   UNL A   1      34.783  24.000  21.968  1.00  0.00     0.170 HD
BRANCH  18  20
ATOM     20  C   UNL A   1      33.140  26.062  23.937  1.00  0.00     0.058 A 
ATOM     21  C   UNL A   1      34.028  26.347  24.970  1.00  0.00     0.018 A 
ATOM     22  C   UNL A   1      31.784  26.309  24.142  1.00  0.00     0.126 A 
ATOM     23  C   UNL A   1      33.535  26.945  26.130  1.00  0.00     0.042 A 
ATOM     24  N   UNL A   1      31.283  26.917  25.241  1.00  0.00    -0.244 NA
ATOM     25  C   UNL A   1      32.177  27.219  26.204  1.00  0.00     0.129 A 
ATOM     26  Cl  UNL A   1      31.506  28.031  27.557  1.00  0.00    -0.062 Cl
ENDBRANCH  18  20
ENDBRANCH  10  16
ENDBRANCH   7   9
ENDBRANCH   6   7
ENDBRANCH   5   6
ENDBRANCH   4   5
ENDBRANCH   3   4
ENDBRANCH   2   3
ENDBRANCH   1   2
BRANCH   1  27
ATOM     27  O   UNL A   1      42.026  20.719  26.796  1.00  0.00    -0.376 OA
BRANCH  27  28
ATOM     28  C   UNL A   1      41.952  19.502  26.069  1.00  0.00     0.202 C 
BRANCH  28  29
ATOM     29  C   UNL A   1      43.233  18.814  25.571  1.00  0.00     0.261 C 
BRANCH  29  30
ATOM     30  O   UNL A   1      43.789  19.335  24.354  1.00  0.00    -0.460 OA
BRANCH  30  31
ATOM     31  C   UNL A   1      45.020  19.895  24.474  1.00  0.00     0.338 C 
ATOM     32  O   UNL A   1      46.080  19.437  24.084  1.00  0.00    -0.246 OA
BRANCH  31  33
ATOM     33  C   UNL A   1      44.889  21.270  24.999  1.00  0.00     0.060 A 
ATOM     34  C   UNL A   1      44.412  22.269  24.139  1.00  0.00     0.016 A 
ATOM     35  C   UNL A   1      45.292  21.585  26.296  1.00  0.00     0.016 A 
ATOM     36  C   UNL A   1      44.355  23.594  24.569  1.00  0.00     0.010 A 
ATOM     37  C   UNL A   1      45.259  22.918  26.717  1.00  0.00     0.010 A 
ATOM     38  C   UNL A   1      44.818  23.932  25.846  1.00  0.00    -0.014 A 
BRANCH  38  39
ATOM     39  C   UNL A   1      45.003  25.358  26.210  1.00  0.00     0.031 A 
ATOM     40  C   UNL A   1      46.385  25.948  26.144  1.00  0.00     0.074 A 
ATOM     41  C   UNL A   1      43.964  26.122  26.588  1.00  0.00     0.049 A 
ATOM     42  N   UNL A   1      46.789  27.151  26.459  1.00  0.00    -0.248 NA
ATOM     43  C   UNL A   1      47.452  25.060  25.656  1.00  0.00     0.031 C 
ATOM     44  C   UNL A   1      42.571  25.686  26.642  1.00  0.00     0.029 A 
ATOM     45  N   UNL A   1      43.926  27.429  27.008  1.00  0.00    -0.354 N 
ATOM     46  C   UNL A   1      48.159  27.163  26.221  1.00  0.00     0.074 A 
ATOM     47  C   UNL A   1      48.518  25.838  25.759  1.00  0.00     0.031 C 
ATOM     48  C   UNL A   1      41.815  26.704  27.088  1.00  0.00     0.029 A 
ATOM     49  C   UNL A   1      42.673  27.849  27.383  1.00  0.00     0.049 A 
ATOM     50  H   UNL A   1      44.721  28.010  27.035  1.00  0.00     0.167 HD
ATOM     51  C   UNL A   1      49.038  28.182  26.370  1.00  0.00     0.031 A 
ATOM     52  C   UNL A   1      42.268  29.014  27.927  1.00  0.00     0.031 A 
ATOM     53  C   UNL A   1      48.683  29.489  26.860  1.00  0.00     0.049 A 
ATOM     54  C   UNL A   1      43.274  30.109  28.165  1.00  0.00     0.074 A 
ATOM     55  C   UNL A   1      49.499  30.592  27.037  1.00  0.00     0.029 A 
ATOM     56  N   UNL A   1      47.411  29.863  27.267  1.00  0.00    -0.354 N 
ATOM     57  N   UNL A   1      44.561  30.118  27.907  1.00  0.00    -0.248 NA
ATOM     58  C   UNL A   1      42.772  31.356  28.759  1.00  0.00     0.031 C 
ATOM     59  C   UNL A   1      48.734  31.613  27.610  1.00  0.00     0.029 A 
ATOM     60  C   UNL A   1      47.425  31.170  27.724  1.00  0.00     0.049 A 
ATOM     61  H   UNL A   1      46.615  29.285  27.234  1.00  0.00     0.167 HD
ATOM     62  C   UNL A   1      45.017  31.378  28.284  1.00  0.00     0.074 A 
ATOM     63  C   UNL A   1      43.866  32.107  28.776  1.00  0.00     0.031 C 
ATOM     64  C   UNL A   1      46.274  31.885  28.222  1.00  0.00     0.031 A 
BRANCH  51  65
ATOM     65  C   UNL A   1      50.482  27.895  26.048  1.00  0.00    -0.014 A 
ATOM     66  C   UNL A   1      51.003  28.117  24.760  1.00  0.00     0.010 A 
ATOM     67  C   UNL A   1      51.329  27.390  27.050  1.00  0.00     0.010 A 
ATOM     68  C   UNL A   1      52.328  27.782  24.465  1.00  0.00     0.020 A 
ATOM     69  C   UNL A   1      52.663  27.083  26.768  1.00  0.00     0.020 A 
ATOM     70  C   UNL A   1      53.146  27.258  25.470  1.00  0.00     0.054 A 
BRANCH  70  71
ATOM     71  S   UNL A   1      54.856  26.815  25.057  1.00  0.00     0.124 S 
ATOM     72  O   UNL A   1      54.711  25.427  24.625  1.00  0.00    -0.237 OA
ATOM     73  O   UNL A   1      55.189  27.769  24.002  1.00  0.00    -0.237 OA
ATOM     74  O   UNL A   1      55.577  27.004  26.314  1.00  0.00    -0.744 OA
ENDBRANCH  70  71
ENDBRANCH  51  65
BRANCH  52  75
ATOM     75  C   UNL A   1      40.837  29.192  28.298  1.00  0.00    -0.014 A 
ATOM     76  C   UNL A   1      40.447  29.258  29.647  1.00  0.00     0.010 A 
ATOM     77  C   UNL A   1      39.859  29.332  27.295  1.00  0.00     0.010 A 
ATOM     78  C   UNL A   1      39.105  29.462  29.985  1.00  0.00     0.020 A 
ATOM     79  C   UNL A   1      38.521  29.562  27.630  1.00  0.00     0.020 A 
ATOM     80  C   UNL A   1      38.152  29.621  28.974  1.00  0.00     0.054 A 
BRANCH  80  81
ATOM     81  S   UNL A   1      36.432  29.965  29.441  1.00  0.00     0.124 S 
ATOM     82  O   UNL A   1      36.405  31.423  29.452  1.00  0.00    -0.237 OA
ATOM     83  O   UNL A   1      35.681  29.327  28.362  1.00  0.00    -0.237 OA
ATOM     84  O   UNL A   1      36.296  29.326  30.747  1.00  0.00    -0.744 OA
ENDBRANCH  80  81
ENDBRANCH  52  75
BRANCH  64  85
ATOM     85  C   UNL A   1      46.475  33.311  28.668  1.00  0.00    -0.014 A 
ATOM     86  C   UNL A   1      46.847  33.622  29.987  1.00  0.00     0.010 A 
ATOM     87  C   UNL A   1      46.348  34.354  27.730  1.00  0.00     0.010 A 
ATOM     88  C   UNL A   1      47.060  34.951  30.369  1.00  0.00     0.020 A 
ATOM     89  C   UNL A   1      46.587  35.681  28.100  1.00  0.00     0.020 A 
ATOM     90  C   UNL A   1      46.929  35.972  29.422  1.00  0.00     0.054 A 
BRANCH  90  91
ATOM     91  S   UNL A   1      47.252  37.683  29.930  1.00  0.00     0.124 S 
ATOM     92  O   UNL A   1      47.778  38.271  28.701  1.00  0.00    -0.237 OA
ATOM     93  O   UNL A   1      45.930  38.152  30.337  1.00  0.00    -0.237 OA
ATOM     94  O   UNL A   1      48.219  37.546  31.018  1.00  0.00    -0.744 OA
ENDBRANCH  90  91
ENDBRANCH  64  85
ENDBRANCH  38  39
ENDBRANCH  31  33
ENDBRANCH  30  31
ENDBRANCH  29  30
ENDBRANCH  28  29
ENDBRANCH  27  28
ENDBRANCH   1  27
TORSDOF 22
ENDMDL
MODEL 3
REMARK VINA RESULT:      -9.6      1.735      2.296
REMARK SMILES O=C(Nc1cccc(F)c1C(=O)OCCOCCOCCOC(=O)c1ccc(-c2c3nc(c(-c4ccc(S(=O)(=O)[O-])cc4)c4ccc([nH]4)c(-c4ccc(S(=O)(=O)[O-])cc4)c4nc(c(-c5ccc(S(=O)(=O)[O-])cc5)c5ccc2[nH]5)C=C4)C=C3)cc1)c1ccc(Cl)nc1
REMARK SMILES IDX 18 1 17 2 16 3 15 4 14 5 13 6 11 7 12 8 10 9 4 10 5 11 6 12
REMARK SMILES IDX 8 13 7 14 9 15 3 16 1 17 2 18 85 20 86 21 91 22 87 23 90 24
REMARK SMILES IDX 88 25 89 26 19 27 20 28 21 29 22 30 23 31 24 32 25 33 26 34
REMARK SMILES IDX 84 35 27 36 83 37 28 38 29 39 30 40 77 41 31 42 82 43 76 44
REMARK SMILES IDX 78 45 32 46 81 47 75 48 74 49 33 51 63 52 44 53 62 54 45 55
REMARK SMILES IDX 48 56 61 57 79 58 46 59 47 60 60 62 80 63 49 64 34 65 35 66
REMARK SMILES IDX 43 67 36 68 42 69 37 70 38 71 39 72 40 73 41 74 64 75 65 76
REMARK SMILES IDX 73 77 66 78 72 79 67 80 68 81 69 82 70 83 71 84 50 85 51 86
REMARK SMILES IDX 59 87 52 88 58 89 53 90 54 91 55 92 56 93 57 94
REMARK H PARENT 3 19 78 50 48 61
REMARK Flexibility Score: inf
ROOT
ATOM      1  C   UNL A   1      33.436  22.214  25.912  1.00  0.00     0.188 C 
ENDROOT
BRANCH   1   2
ATOM      2  C   UNL A   1      33.110  23.001  27.200  1.00  0.00     0.188 C 
BRANCH   2   3
ATOM      3  O   UNL A   1      31.745  23.145  27.505  1.00  0.00    -0.376 OA
BRANCH   3   4
ATOM      4  C   UNL A   1      30.796  23.483  26.509  1.00  0.00     0.202 C 
BRANCH   4   5
ATOM      5  C   UNL A   1      30.489  24.902  25.995  1.00  0.00     0.261 C 
BRANCH   5   6
ATOM      6  O   UNL A   1      31.127  25.312  24.787  1.00  0.00    -0.460 OA
BRANCH   6   7
ATOM      7  C   UNL A   1      30.384  25.197  23.660  1.00  0.00     0.343 C 
ATOM      8  O   UNL A   1      30.018  24.163  23.126  1.00  0.00    -0.246 OA
BRANCH   7   9
ATOM      9  C   UNL A   1      29.872  26.518  23.272  1.00  0.00     0.119 A 
ATOM     10  C   UNL A   1      30.640  27.369  22.458  1.00  0.00     0.059 A 
ATOM     11  C   UNL A   1      30.119  28.624  22.108  1.00  0.00     0.027 A 
ATOM     12  C   UNL A   1      28.877  29.040  22.593  1.00  0.00     0.005 A 
ATOM     13  C   UNL A   1      28.640  26.949  23.764  1.00  0.00     0.139 A 
ATOM     14  C   UNL A   1      28.140  28.205  23.429  1.00  0.00     0.040 A 
ATOM     15  F   UNL A   1      27.919  26.173  24.585  1.00  0.00    -0.206 F 
BRANCH  10  16
ATOM     16  N   UNL A   1      31.895  26.954  21.957  1.00  0.00    -0.321 N 
ATOM     17  O   UNL A   1      34.103  27.275  21.568  1.00  0.00    -0.269 OA
ATOM     18  C   UNL A   1      33.149  27.391  22.328  1.00  0.00     0.257 C 
ATOM     19  H   UNL A   1      31.871  26.265  21.255  1.00  0.00     0.170 HD
BRANCH  18  20
ATOM     20  C   UNL A   1      33.351  27.887  23.705  1.00  0.00     0.058 A 
ATOM     21  C   UNL A   1      33.083  29.211  24.040  1.00  0.00     0.018 A 
ATOM     22  C   UNL A   1      33.845  27.040  24.696  1.00  0.00     0.126 A 
ATOM     23  C   UNL A   1      33.237  29.609  25.368  1.00  0.00     0.042 A 
ATOM     24  N   UNL A   1      33.974  27.389  25.996  1.00  0.00    -0.244 NA
ATOM     25  C   UNL A   1      33.663  28.667  26.294  1.00  0.00     0.129 A 
ATOM     26  Cl  UNL A   1      33.796  29.053  27.959  1.00  0.00    -0.062 Cl
ENDBRANCH  18  20
ENDBRANCH  10  16
ENDBRANCH   7   9
ENDBRANCH   6   7
ENDBRANCH   5   6
ENDBRANCH   4   5
ENDBRANCH   3   4
ENDBRANCH   2   3
ENDBRANCH   1   2
BRANCH   1  27
ATOM     27  O   UNL A   1      33.908  22.883  24.754  1.00  0.00    -0.376 OA
BRANCH  27  28
ATOM     28  C   UNL A   1      35.260  22.711  24.359  1.00  0.00     0.202 C 
BRANCH  28  29
ATOM     29  C   UNL A   1      36.326  23.745  24.760  1.00  0.00     0.261 C 
BRANCH  29  30
ATOM     30  O   UNL A   1      36.869  23.601  26.081  1.00  0.00    -0.460 OA
BRANCH  30  31
ATOM     31  C   UNL A   1      38.143  23.133  26.133  1.00  0.00     0.338 C 
ATOM     32  O   UNL A   1      38.560  22.078  25.688  1.00  0.00    -0.246 OA
BRANCH  31  33
ATOM     33  C   UNL A   1      39.035  24.185  26.662  1.00  0.00     0.060 A 
ATOM     34  C   UNL A   1      38.992  24.467  28.035  1.00  0.00     0.016 A 
ATOM     35  C   UNL A   1      39.853  24.927  25.812  1.00  0.00     0.016 A 
ATOM     36  C   UNL A   1      39.754  25.510  28.560  1.00  0.00     0.010 A 
ATOM     37  C   UNL A   1      40.596  25.990  26.336  1.00  0.00     0.010 A 
ATOM     38  C   UNL A   1      40.528  26.304  27.706  1.00  0.00    -0.014 A 
BRANCH  38  39
ATOM     39  C   UNL A   1      41.129  27.563  28.212  1.00  0.00     0.031 A 
ATOM     40  C   UNL A   1      42.627  27.689  28.240  1.00  0.00     0.074 A 
ATOM     41  C   UNL A   1      40.360  28.582  28.633  1.00  0.00     0.049 A 
ATOM     42  N   UNL A   1      43.368  28.672  28.682  1.00  0.00    -0.248 NA
ATOM     43  C   UNL A   1      43.389  26.553  27.697  1.00  0.00     0.031 C 
ATOM     44  C   UNL A   1      38.900  28.605  28.606  1.00  0.00     0.029 A 
ATOM     45  N   UNL A   1      40.709  29.794  29.176  1.00  0.00    -0.354 N 
ATOM     46  C   UNL A   1      44.684  28.270  28.483  1.00  0.00     0.074 A 
ATOM     47  C   UNL A   1      44.637  26.943  27.905  1.00  0.00     0.031 C 
ATOM     48  C   UNL A   1      38.475  29.769  29.128  1.00  0.00     0.029 A 
ATOM     49  C   UNL A   1      39.630  30.555  29.557  1.00  0.00     0.049 A 
ATOM     50  H   UNL A   1      41.642  30.089  29.281  1.00  0.00     0.167 HD
ATOM     51  C   UNL A   1      45.827  28.943  28.754  1.00  0.00     0.031 A 
ATOM     52  C   UNL A   1      39.579  31.739  30.200  1.00  0.00     0.031 A 
ATOM     53  C   UNL A   1      45.871  30.249  29.359  1.00  0.00     0.049 A 
ATOM     54  C   UNL A   1      40.862  32.436  30.570  1.00  0.00     0.074 A 
ATOM     55  C   UNL A   1      46.979  31.019  29.664  1.00  0.00     0.029 A 
ATOM     56  N   UNL A   1      44.758  30.971  29.765  1.00  0.00    -0.354 N 
ATOM     57  N   UNL A   1      42.100  32.059  30.349  1.00  0.00    -0.248 NA
ATOM     58  C   UNL A   1      40.741  33.724  31.268  1.00  0.00     0.031 C 
ATOM     59  C   UNL A   1      46.540  32.178  30.312  1.00  0.00     0.029 A 
ATOM     60  C   UNL A   1      45.154  32.164  30.348  1.00  0.00     0.049 A 
ATOM     61  H   UNL A   1      43.825  30.679  29.655  1.00  0.00     0.167 HD
ATOM     62  C   UNL A   1      42.904  33.075  30.859  1.00  0.00     0.074 A 
ATOM     63  C   UNL A   1      42.012  34.086  31.388  1.00  0.00     0.031 C 
ATOM     64  C   UNL A   1      44.257  33.161  30.880  1.00  0.00     0.031 A 
BRANCH  51  65
ATOM     65  C   UNL A   1      47.125  28.242  28.446  1.00  0.00    -0.014 A 
ATOM     66  C   UNL A   1      47.773  28.413  27.208  1.00  0.00     0.010 A 
ATOM     67  C   UNL A   1      47.703  27.395  29.408  1.00  0.00     0.010 A 
ATOM     68  C   UNL A   1      48.941  27.702  26.917  1.00  0.00     0.020 A 
ATOM     69  C   UNL A   1      48.888  26.707  29.134  1.00  0.00     0.020 A 
ATOM     70  C   UNL A   1      49.485  26.847  27.879  1.00  0.00     0.054 A 
BRANCH  70  71
ATOM     71  S   UNL A   1      50.992  25.922  27.470  1.00  0.00     0.124 S 
ATOM     72  O   UNL A   1      51.862  26.254  28.595  1.00  0.00    -0.237 OA
ATOM     73  O   UNL A   1      50.519  24.541  27.428  1.00  0.00    -0.237 OA
ATOM     74  O   UNL A   1      51.401  26.477  26.182  1.00  0.00    -0.744 OA
ENDBRANCH  70  71
ENDBRANCH  51  65
BRANCH  52  75
ATOM     75  C   UNL A   1      38.257  32.328  30.547  1.00  0.00    -0.014 A 
ATOM     76  C   UNL A   1      37.664  32.079  31.797  1.00  0.00     0.010 A 
ATOM     77  C   UNL A   1      37.599  33.176  29.635  1.00  0.00     0.010 A 
ATOM     78  C   UNL A   1      36.438  32.666  32.128  1.00  0.00     0.020 A 
ATOM     79  C   UNL A   1      36.387  33.785  29.973  1.00  0.00     0.020 A 
ATOM     80  C   UNL A   1      35.812  33.523  31.217  1.00  0.00     0.054 A 
BRANCH  80  81
ATOM     81  S   UNL A   1      34.264  34.335  31.704  1.00  0.00     0.124 S 
ATOM     82  O   UNL A   1      34.747  35.565  32.323  1.00  0.00    -0.237 OA
ATOM     83  O   UNL A   1      33.579  34.499  30.424  1.00  0.00    -0.237 OA
ATOM     84  O   UNL A   1      33.645  33.377  32.616  1.00  0.00    -0.744 OA
ENDBRANCH  80  81
ENDBRANCH  52  75
BRANCH  64  85
ATOM     85  C   UNL A   1      44.868  34.409  31.468  1.00  0.00    -0.014 A 
ATOM     86  C   UNL A   1      45.222  34.483  32.826  1.00  0.00     0.010 A 
ATOM     87  C   UNL A   1      45.149  35.504  30.628  1.00  0.00     0.010 A 
ATOM     88  C   UNL A   1      45.817  35.639  33.341  1.00  0.00     0.020 A 
ATOM     89  C   UNL A   1      45.770  36.650  31.132  1.00  0.00     0.020 A 
ATOM     90  C   UNL A   1      46.088  36.715  32.491  1.00  0.00     0.054 A 
BRANCH  90  91
ATOM     91  S   UNL A   1      46.901  38.187  33.173  1.00  0.00     0.124 S 
ATOM     92  O   UNL A   1      45.776  39.102  33.349  1.00  0.00    -0.237 OA
ATOM     93  O   UNL A   1      47.500  37.680  34.405  1.00  0.00    -0.237 OA
ATOM     94  O   UNL A   1      47.856  38.569  32.134  1.00  0.00    -0.744 OA
ENDBRANCH  90  91
ENDBRANCH  64  85
ENDBRANCH  38  39
ENDBRANCH  31  33
ENDBRANCH  30  31
ENDBRANCH  29  30
ENDBRANCH  28  29
ENDBRANCH  27  28
ENDBRANCH   1  27
TORSDOF 22
ENDMDL
