MODEL 1
REMARK VINA RESULT:     -11.2      0.000      0.000
REMARK SMILES O=C(OCCOCCOCCOC(=O)[C@@H]1[C@H](C(=O)Nc2ccc(Cn3cncn3)cc2)[C@@H]2C=C[C@H]1CC2)c1ccc(-c2c3nc(c(-c4ccc(S(=O)(=O)[O-])cc4)c4ccc([nH]4)c(-c4ccc(S(=O)(=O)[O-])cc4)c4nc(c(-c5ccc(S(=O)(=O)[O-])cc5)c5ccc2[nH]5)C=C4)C=C3)cc1
REMARK SMILES IDX 8 1 7 2 6 3 5 4 4 5 3 6 2 7 1 8 38 9 39 10 97 11 40 12 96 13
REMARK SMILES IDX 41 14 42 15 43 16 90 17 44 18 95 19 89 20 91 21 45 22 94 23
REMARK SMILES IDX 88 24 87 25 46 27 76 28 57 29 75 30 58 31 61 32 74 33 92 34
REMARK SMILES IDX 59 35 60 36 73 38 93 39 62 40 47 41 48 42 56 43 49 44 55 45
REMARK SMILES IDX 50 46 51 47 52 48 53 49 54 50 77 51 78 52 86 53 79 54 85 55
REMARK SMILES IDX 80 56 81 57 82 58 83 59 84 60 63 61 64 62 72 63 65 64 71 65
REMARK SMILES IDX 66 66 67 67 68 68 69 69 70 70 9 71 10 72 11 73 12 74 13 75
REMARK SMILES IDX 14 76 15 77 16 78 35 79 32 80 34 81 36 82 33 83 37 84 17 85
REMARK SMILES IDX 18 86 19 87 20 89 21 90 31 91 22 92 30 93 23 94 24 95 25 96
REMARK SMILES IDX 26 97 29 98 27 99 28 100
REMARK H PARENT 91 26 61 37 19 88
REMARK Flexibility Score: inf
ROOT
ATOM      1  C   UNL A   1      40.006  21.251  26.296  1.00  0.00     0.188 C 
ENDROOT
BRANCH   1   2
ATOM      2  C   UNL A   1      40.370  19.759  26.390  1.00  0.00     0.188 C 
BRANCH   2   3
ATOM      3  O   UNL A   1      41.457  19.215  25.656  1.00  0.00    -0.376 OA
BRANCH   3   4
ATOM      4  C   UNL A   1      42.626  18.716  26.277  1.00  0.00     0.202 C 
BRANCH   4   5
ATOM      5  C   UNL A   1      43.932  18.444  25.523  1.00  0.00     0.261 C 
BRANCH   5   6
ATOM      6  O   UNL A   1      44.822  19.542  25.330  1.00  0.00    -0.460 OA
BRANCH   6   7
ATOM      7  C   UNL A   1      44.699  20.645  24.565  1.00  0.00     0.338 C 
ATOM      8  O   UNL A   1      44.512  20.490  23.358  1.00  0.00    -0.246 OA
BRANCH   7   9
ATOM      9  C   UNL A   1      44.914  22.034  25.068  1.00  0.00     0.060 A 
ATOM     10  C   UNL A   1      45.595  22.385  26.234  1.00  0.00     0.016 A 
ATOM     11  C   UNL A   1      44.343  23.059  24.285  1.00  0.00     0.016 A 
ATOM     12  C   UNL A   1      45.559  23.689  26.697  1.00  0.00     0.010 A 
ATOM     13  C   UNL A   1      44.319  24.370  24.735  1.00  0.00     0.010 A 
ATOM     14  C   UNL A   1      44.846  24.652  25.989  1.00  0.00    -0.014 A 
BRANCH  14  15
ATOM     15  C   UNL A   1      44.545  25.878  26.705  1.00  0.00     0.031 A 
ATOM     16  C   UNL A   1      45.535  26.979  26.625  1.00  0.00     0.074 A 
ATOM     17  C   UNL A   1      43.438  25.969  27.466  1.00  0.00     0.049 A 
ATOM     18  N   UNL A   1      46.263  27.474  27.574  1.00  0.00    -0.248 NA
ATOM     19  C   UNL A   1      45.796  27.551  25.299  1.00  0.00     0.031 C 
ATOM     20  C   UNL A   1      42.269  25.082  27.475  1.00  0.00     0.029 A 
ATOM     21  N   UNL A   1      43.091  26.952  28.337  1.00  0.00    -0.354 N 
ATOM     22  C   UNL A   1      46.957  28.539  27.009  1.00  0.00     0.074 A 
ATOM     23  C   UNL A   1      46.715  28.474  25.588  1.00  0.00     0.031 C 
ATOM     24  C   UNL A   1      41.258  25.693  28.127  1.00  0.00     0.029 A 
ATOM     25  C   UNL A   1      41.756  26.928  28.705  1.00  0.00     0.049 A 
ATOM     26  H   UNL A   1      43.730  27.619  28.677  1.00  0.00     0.167 HD
ATOM     27  C   UNL A   1      47.550  29.514  27.753  1.00  0.00     0.031 A 
ATOM     28  C   UNL A   1      41.088  27.899  29.368  1.00  0.00     0.031 A 
ATOM     29  C   UNL A   1      47.740  29.128  29.123  1.00  0.00     0.049 A 
ATOM     30  C   UNL A   1      42.089  28.718  30.091  1.00  0.00     0.074 A 
ATOM     31  C   UNL A   1      48.478  28.152  29.763  1.00  0.00     0.029 A 
ATOM     32  N   UNL A   1      46.833  29.582  30.051  1.00  0.00    -0.354 N 
ATOM     33  N   UNL A   1      42.805  28.269  31.084  1.00  0.00    -0.248 NA
ATOM     34  C   UNL A   1      42.605  29.918  29.450  1.00  0.00     0.031 C 
ATOM     35  C   UNL A   1      47.675  27.743  30.868  1.00  0.00     0.029 A 
ATOM     36  C   UNL A   1      46.512  28.517  30.858  1.00  0.00     0.049 A 
ATOM     37  H   UNL A   1      46.479  30.497  30.124  1.00  0.00     0.167 HD
ATOM     38  C   UNL A   1      44.048  28.866  30.934  1.00  0.00     0.074 A 
ATOM     39  C   UNL A   1      43.830  29.951  29.983  1.00  0.00     0.031 C 
ATOM     40  C   UNL A   1      45.187  28.261  31.389  1.00  0.00     0.031 A 
BRANCH  27  41
ATOM     41  C   UNL A   1      47.689  30.938  27.282  1.00  0.00    -0.014 A 
ATOM     42  C   UNL A   1      48.963  31.527  27.177  1.00  0.00     0.010 A 
ATOM     43  C   UNL A   1      46.573  31.797  27.174  1.00  0.00     0.010 A 
ATOM     44  C   UNL A   1      49.110  32.913  27.001  1.00  0.00     0.020 A 
ATOM     45  C   UNL A   1      46.707  33.168  26.957  1.00  0.00     0.020 A 
ATOM     46  C   UNL A   1      47.977  33.724  26.902  1.00  0.00     0.054 A 
BRANCH  46  47
ATOM     47  S   UNL A   1      48.171  35.519  26.776  1.00  0.00     0.124 S 
ATOM     48  O   UNL A   1      47.534  35.979  28.006  1.00  0.00    -0.237 OA
ATOM     49  O   UNL A   1      49.622  35.673  26.717  1.00  0.00    -0.237 OA
ATOM     50  O   UNL A   1      47.465  35.854  25.541  1.00  0.00    -0.744 OA
ENDBRANCH  46  47
ENDBRANCH  27  41
BRANCH  28  51
ATOM     51  C   UNL A   1      39.706  28.346  29.083  1.00  0.00    -0.014 A 
ATOM     52  C   UNL A   1      38.710  28.307  30.072  1.00  0.00     0.010 A 
ATOM     53  C   UNL A   1      39.432  29.065  27.899  1.00  0.00     0.010 A 
ATOM     54  C   UNL A   1      37.504  29.008  29.904  1.00  0.00     0.020 A 
ATOM     55  C   UNL A   1      38.232  29.756  27.720  1.00  0.00     0.020 A 
ATOM     56  C   UNL A   1      37.283  29.744  28.735  1.00  0.00     0.054 A 
BRANCH  56  57
ATOM     57  S   UNL A   1      35.804  30.790  28.604  1.00  0.00     0.124 S 
ATOM     58  O   UNL A   1      35.573  31.174  29.994  1.00  0.00    -0.237 OA
ATOM     59  O   UNL A   1      36.253  31.861  27.718  1.00  0.00    -0.237 OA
ATOM     60  O   UNL A   1      34.799  29.898  28.030  1.00  0.00    -0.744 OA
ENDBRANCH  56  57
ENDBRANCH  28  51
BRANCH  40  61
ATOM     61  C   UNL A   1      45.043  27.053  32.292  1.00  0.00    -0.014 A 
ATOM     62  C   UNL A   1      45.030  27.142  33.699  1.00  0.00     0.010 A 
ATOM     63  C   UNL A   1      44.759  25.809  31.702  1.00  0.00     0.010 A 
ATOM     64  C   UNL A   1      44.769  26.013  34.491  1.00  0.00     0.020 A 
ATOM     65  C   UNL A   1      44.480  24.683  32.485  1.00  0.00     0.020 A 
ATOM     66  C   UNL A   1      44.494  24.788  33.877  1.00  0.00     0.054 A 
BRANCH  66  67
ATOM     67  S   UNL A   1      44.095  23.348  34.906  1.00  0.00     0.124 S 
ATOM     68  O   UNL A   1      44.572  23.757  36.224  1.00  0.00    -0.237 OA
ATOM     69  O   UNL A   1      42.644  23.240  34.767  1.00  0.00    -0.237 OA
ATOM     70  O   UNL A   1      44.847  22.257  34.287  1.00  0.00    -0.744 OA
ENDBRANCH  66  67
ENDBRANCH  40  61
ENDBRANCH  14  15
ENDBRANCH   7   9
ENDBRANCH   6   7
ENDBRANCH   5   6
ENDBRANCH   4   5
ENDBRANCH   3   4
ENDBRANCH   2   3
ENDBRANCH   1   2
BRANCH   1  71
ATOM     71  O   UNL A   1      39.013  21.690  25.372  1.00  0.00    -0.376 OA
BRANCH  71  72
ATOM     72  C   UNL A   1      37.660  21.395  25.643  1.00  0.00     0.202 C 
BRANCH  72  73
ATOM     73  C   UNL A   1      36.742  21.285  24.408  1.00  0.00     0.261 C 
BRANCH  73  74
ATOM     74  O   UNL A   1      36.563  22.446  23.559  1.00  0.00    -0.463 OA
BRANCH  74  75
ATOM     75  C   UNL A   1      35.336  23.008  23.672  1.00  0.00     0.310 C 
ATOM     76  O   UNL A   1      34.846  23.692  22.791  1.00  0.00    -0.252 OA
BRANCH  75  77
ATOM     77  C   UNL A   1      34.579  22.720  24.952  1.00  0.00     0.119 C 
ATOM     78  C   UNL A   1      33.099  22.290  24.665  1.00  0.00     0.100 C 
ATOM     79  C   UNL A   1      34.572  23.785  26.103  1.00  0.00     0.026 C 
ATOM     80  C   UNL A   1      32.154  22.862  25.752  1.00  0.00     0.025 C 
ATOM     81  C   UNL A   1      33.492  24.842  25.920  1.00  0.00    -0.027 C 
ATOM     82  C   UNL A   1      34.101  23.053  27.387  1.00  0.00     0.009 C 
ATOM     83  C   UNL A   1      32.250  24.364  25.727  1.00  0.00    -0.027 C 
ATOM     84  C   UNL A   1      32.695  22.432  27.142  1.00  0.00     0.009 C 
BRANCH  78  85
ATOM     85  C   UNL A   1      32.427  22.327  23.266  1.00  0.00     0.228 C 
ATOM     86  O   UNL A   1      32.455  21.265  22.613  1.00  0.00    -0.274 OA
ATOM     87  N   UNL A   1      31.683  23.317  22.688  1.00  0.00    -0.326 N 
ATOM     88  H   UNL A   1      31.144  22.964  21.944  1.00  0.00     0.169 HD
BRANCH  87  89
ATOM     89  C   UNL A   1      31.466  24.701  22.857  1.00  0.00     0.041 A 
ATOM     90  C   UNL A   1      30.266  25.132  23.423  1.00  0.00     0.026 A 
ATOM     91  C   UNL A   1      32.328  25.699  22.446  1.00  0.00     0.026 A 
ATOM     92  C   UNL A   1      30.036  26.500  23.678  1.00  0.00     0.008 A 
ATOM     93  C   UNL A   1      32.109  27.054  22.636  1.00  0.00     0.008 A 
ATOM     94  C   UNL A   1      30.986  27.470  23.322  1.00  0.00    -0.026 A 
BRANCH  94  95
ATOM     95  C   UNL A   1      30.882  28.926  23.666  1.00  0.00     0.181 C 
BRANCH  95  96
ATOM     96  N   UNL A   1      29.835  29.593  22.925  1.00  0.00    -0.249 N 
ATOM     97  C   UNL A   1      28.735  30.211  23.433  1.00  0.00     0.220 A 
ATOM     98  N   UNL A   1      29.930  29.792  21.593  1.00  0.00    -0.160 NA
ATOM     99  N   UNL A   1      28.086  30.818  22.467  1.00  0.00    -0.224 NA
ATOM    100  C   UNL A   1      28.839  30.527  21.364  1.00  0.00     0.246 A 
ENDBRANCH  95  96
ENDBRANCH  94  95
ENDBRANCH  87  89
ENDBRANCH  78  85
ENDBRANCH  75  77
ENDBRANCH  74  75
ENDBRANCH  73  74
ENDBRANCH  72  73
ENDBRANCH  71  72
ENDBRANCH   1  71
TORSDOF 24
ENDMDL
MODEL 2
REMARK VINA RESULT:     -10.4      2.129      4.349
REMARK SMILES O=C(OCCOCCOCCOC(=O)[C@@H]1[C@H](C(=O)Nc2ccc(Cn3cncn3)cc2)[C@@H]2C=C[C@H]1CC2)c1ccc(-c2c3nc(c(-c4ccc(S(=O)(=O)[O-])cc4)c4ccc([nH]4)c(-c4ccc(S(=O)(=O)[O-])cc4)c4nc(c(-c5ccc(S(=O)(=O)[O-])cc5)c5ccc2[nH]5)C=C4)C=C3)cc1
REMARK SMILES IDX 8 1 7 2 6 3 5 4 4 5 3 6 2 7 1 8 38 9 39 10 97 11 40 12 96 13
REMARK SMILES IDX 41 14 42 15 43 16 90 17 44 18 95 19 89 20 91 21 45 22 94 23
REMARK SMILES IDX 88 24 87 25 46 27 76 28 57 29 75 30 58 31 61 32 74 33 92 34
REMARK SMILES IDX 59 35 60 36 73 38 93 39 62 40 47 41 48 42 56 43 49 44 55 45
REMARK SMILES IDX 50 46 51 47 52 48 53 49 54 50 77 51 78 52 86 53 79 54 85 55
REMARK SMILES IDX 80 56 81 57 82 58 83 59 84 60 63 61 64 62 72 63 65 64 71 65
REMARK SMILES IDX 66 66 67 67 68 68 69 69 70 70 9 71 10 72 11 73 12 74 13 75
REMARK SMILES IDX 14 76 15 77 16 78 35 79 32 80 34 81 36 82 33 83 37 84 17 85
REMARK SMILES IDX 18 86 19 87 20 89 21 90 31 91 22 92 30 93 23 94 24 95 25 96
REMARK SMILES IDX 26 97 29 98 27 99 28 100
REMARK H PARENT 91 26 61 37 19 88
REMARK Flexibility Score: inf
ROOT
ATOM      1  C   UNL A   1      40.201  23.110  26.303  1.00  0.00     0.188 C 
ENDROOT
BRANCH   1   2
ATOM      2  C   UNL A   1      39.925  21.673  26.774  1.00  0.00     0.188 C 
BRANCH   2   3
ATOM      3  O   UNL A   1      39.986  20.575  25.876  1.00  0.00    -0.376 OA
BRANCH   3   4
ATOM      4  C   UNL A   1      40.615  19.351  26.203  1.00  0.00     0.202 C 
BRANCH   4   5
ATOM      5  C   UNL A   1      42.100  19.070  25.952  1.00  0.00     0.261 C 
BRANCH   5   6
ATOM      6  O   UNL A   1      43.032  20.094  26.296  1.00  0.00    -0.460 OA
BRANCH   6   7
ATOM      7  C   UNL A   1      43.639  21.019  25.526  1.00  0.00     0.338 C 
ATOM      8  O   UNL A   1      44.117  20.650  24.453  1.00  0.00    -0.246 OA
BRANCH   7   9
ATOM      9  C   UNL A   1      43.889  22.425  25.959  1.00  0.00     0.060 A 
ATOM     10  C   UNL A   1      44.496  22.819  27.152  1.00  0.00     0.016 A 
ATOM     11  C   UNL A   1      43.435  23.424  25.071  1.00  0.00     0.016 A 
ATOM     12  C   UNL A   1      44.494  24.151  27.530  1.00  0.00     0.010 A 
ATOM     13  C   UNL A   1      43.447  24.761  25.435  1.00  0.00     0.010 A 
ATOM     14  C   UNL A   1      43.891  25.098  26.708  1.00  0.00    -0.014 A 
BRANCH  14  15
ATOM     15  C   UNL A   1      43.602  26.382  27.321  1.00  0.00     0.031 A 
ATOM     16  C   UNL A   1      44.616  27.454  27.179  1.00  0.00     0.074 A 
ATOM     17  C   UNL A   1      42.481  26.553  28.048  1.00  0.00     0.049 A 
ATOM     18  N   UNL A   1      45.334  28.006  28.103  1.00  0.00    -0.248 NA
ATOM     19  C   UNL A   1      44.916  27.917  25.819  1.00  0.00     0.031 C 
ATOM     20  C   UNL A   1      41.293  25.693  28.100  1.00  0.00     0.029 A 
ATOM     21  N   UNL A   1      42.137  27.607  28.834  1.00  0.00    -0.354 N 
ATOM     22  C   UNL A   1      46.062  29.010  27.473  1.00  0.00     0.074 A 
ATOM     23  C   UNL A   1      45.849  28.840  26.056  1.00  0.00     0.031 C 
ATOM     24  C   UNL A   1      40.282  26.373  28.681  1.00  0.00     0.029 A 
ATOM     25  C   UNL A   1      40.795  27.639  29.173  1.00  0.00     0.049 A 
ATOM     26  H   UNL A   1      42.784  28.286  29.135  1.00  0.00     0.167 HD
ATOM     27  C   UNL A   1      46.662  30.028  28.153  1.00  0.00     0.031 A 
ATOM     28  C   UNL A   1      40.134  28.671  29.744  1.00  0.00     0.031 A 
ATOM     29  C   UNL A   1      46.815  29.746  29.552  1.00  0.00     0.049 A 
ATOM     30  C   UNL A   1      41.138  29.524  30.423  1.00  0.00     0.074 A 
ATOM     31  C   UNL A   1      47.518  28.808  30.281  1.00  0.00     0.029 A 
ATOM     32  N   UNL A   1      45.899  30.287  30.422  1.00  0.00    -0.354 N 
ATOM     33  N   UNL A   1      41.823  29.138  31.464  1.00  0.00    -0.248 NA
ATOM     34  C   UNL A   1      41.693  30.659  29.704  1.00  0.00     0.031 C 
ATOM     35  C   UNL A   1      46.685  28.501  31.396  1.00  0.00     0.029 A 
ATOM     36  C   UNL A   1      45.539  29.295  31.302  1.00  0.00     0.049 A 
ATOM     37  H   UNL A   1      45.563  31.212  30.416  1.00  0.00     0.167 HD
ATOM     38  C   UNL A   1      43.082  29.697  31.296  1.00  0.00     0.074 A 
ATOM     39  C   UNL A   1      42.906  30.710  30.260  1.00  0.00     0.031 C 
ATOM     40  C   UNL A   1      44.198  29.107  31.821  1.00  0.00     0.031 A 
BRANCH  27  41
ATOM     41  C   UNL A   1      46.840  31.408  27.576  1.00  0.00    -0.014 A 
ATOM     42  C   UNL A   1      48.123  31.864  27.216  1.00  0.00     0.010 A 
ATOM     43  C   UNL A   1      45.804  32.367  27.610  1.00  0.00     0.010 A 
ATOM     44  C   UNL A   1      48.359  33.219  26.931  1.00  0.00     0.020 A 
ATOM     45  C   UNL A   1      46.019  33.707  27.288  1.00  0.00     0.020 A 
ATOM     46  C   UNL A   1      47.304  34.132  26.979  1.00  0.00     0.054 A 
BRANCH  46  47
ATOM     47  S   UNL A   1      47.631  35.892  26.709  1.00  0.00     0.124 S 
ATOM     48  O   UNL A   1      46.283  36.453  26.711  1.00  0.00    -0.237 OA
ATOM     49  O   UNL A   1      48.463  36.235  27.859  1.00  0.00    -0.237 OA
ATOM     50  O   UNL A   1      48.318  35.918  25.420  1.00  0.00    -0.744 OA
ENDBRANCH  46  47
ENDBRANCH  27  41
BRANCH  28  51
ATOM     51  C   UNL A   1      38.768  29.122  29.395  1.00  0.00    -0.014 A 
ATOM     52  C   UNL A   1      37.805  29.360  30.388  1.00  0.00     0.010 A 
ATOM     53  C   UNL A   1      38.493  29.574  28.086  1.00  0.00     0.010 A 
ATOM     54  C   UNL A   1      36.631  30.074  30.092  1.00  0.00     0.020 A 
ATOM     55  C   UNL A   1      37.324  30.277  27.782  1.00  0.00     0.020 A 
ATOM     56  C   UNL A   1      36.409  30.544  28.794  1.00  0.00     0.054 A 
BRANCH  56  57
ATOM     57  S   UNL A   1      34.983  31.618  28.463  1.00  0.00     0.124 S 
ATOM     58  O   UNL A   1      34.658  32.119  29.795  1.00  0.00    -0.237 OA
ATOM     59  O   UNL A   1      35.536  32.601  27.535  1.00  0.00    -0.237 OA
ATOM     60  O   UNL A   1      33.995  30.711  27.882  1.00  0.00    -0.744 OA
ENDBRANCH  56  57
ENDBRANCH  28  51
BRANCH  40  61
ATOM     61  C   UNL A   1      44.010  27.976  32.811  1.00  0.00    -0.014 A 
ATOM     62  C   UNL A   1      43.677  28.186  34.165  1.00  0.00     0.010 A 
ATOM     63  C   UNL A   1      44.019  26.656  32.325  1.00  0.00     0.010 A 
ATOM     64  C   UNL A   1      43.389  27.105  35.013  1.00  0.00     0.020 A 
ATOM     65  C   UNL A   1      43.716  25.576  33.161  1.00  0.00     0.020 A 
ATOM     66  C   UNL A   1      43.411  25.804  34.504  1.00  0.00     0.054 A 
BRANCH  66  67
ATOM     67  S   UNL A   1      42.976  24.417  35.592  1.00  0.00     0.124 S 
ATOM     68  O   UNL A   1      43.727  23.309  35.009  1.00  0.00    -0.237 OA
ATOM     69  O   UNL A   1      43.440  24.872  36.901  1.00  0.00    -0.237 OA
ATOM     70  O   UNL A   1      41.523  24.316  35.464  1.00  0.00    -0.744 OA
ENDBRANCH  66  67
ENDBRANCH  40  61
ENDBRANCH  14  15
ENDBRANCH   7   9
ENDBRANCH   6   7
ENDBRANCH   5   6
ENDBRANCH   4   5
ENDBRANCH   3   4
ENDBRANCH   2   3
ENDBRANCH   1   2
BRANCH   1  71
ATOM     71  O   UNL A   1      39.123  23.954  25.903  1.00  0.00    -0.376 OA
BRANCH  71  72
ATOM     72  C   UNL A   1      37.811  23.601  26.283  1.00  0.00     0.202 C 
BRANCH  72  73
ATOM     73  C   UNL A   1      36.838  23.309  25.123  1.00  0.00     0.261 C 
BRANCH  73  74
ATOM     74  O   UNL A   1      35.617  24.083  25.017  1.00  0.00    -0.463 OA
BRANCH  74  75
ATOM     75  C   UNL A   1      34.987  23.929  23.828  1.00  0.00     0.310 C 
ATOM     76  O   UNL A   1      35.130  22.937  23.135  1.00  0.00    -0.252 OA
BRANCH  75  77
ATOM     77  C   UNL A   1      34.063  25.053  23.405  1.00  0.00     0.119 C 
ATOM     78  C   UNL A   1      33.053  25.431  24.543  1.00  0.00     0.100 C 
ATOM     79  C   UNL A   1      33.272  24.937  22.056  1.00  0.00     0.026 C 
ATOM     80  C   UNL A   1      31.675  25.797  23.937  1.00  0.00     0.025 C 
ATOM     81  C   UNL A   1      31.966  24.168  22.205  1.00  0.00    -0.027 C 
ATOM     82  C   UNL A   1      32.773  26.365  21.707  1.00  0.00     0.009 C 
ATOM     83  C   UNL A   1      31.152  24.605  23.181  1.00  0.00    -0.027 C 
ATOM     84  C   UNL A   1      31.892  26.905  22.870  1.00  0.00     0.009 C 
BRANCH  78  85
ATOM     85  C   UNL A   1      32.886  24.641  25.870  1.00  0.00     0.228 C 
ATOM     86  O   UNL A   1      32.872  25.318  26.916  1.00  0.00    -0.274 OA
ATOM     87  N   UNL A   1      32.615  23.315  26.061  1.00  0.00    -0.326 N 
ATOM     88  H   UNL A   1      32.273  23.153  26.969  1.00  0.00     0.169 HD
BRANCH  87  89
ATOM     89  C   UNL A   1      32.684  22.113  25.324  1.00  0.00     0.041 A 
ATOM     90  C   UNL A   1      33.531  21.098  25.768  1.00  0.00     0.026 A 
ATOM     91  C   UNL A   1      32.021  21.867  24.138  1.00  0.00     0.026 A 
ATOM     92  C   UNL A   1      33.577  19.853  25.105  1.00  0.00     0.008 A 
ATOM     93  C   UNL A   1      32.084  20.674  23.436  1.00  0.00     0.008 A 
ATOM     94  C   UNL A   1      32.812  19.621  23.952  1.00  0.00    -0.026 A 
BRANCH  94  95
ATOM     95  C   UNL A   1      32.703  18.296  23.258  1.00  0.00     0.181 C 
BRANCH  95  96
ATOM     96  N   UNL A   1      33.134  17.199  24.096  1.00  0.00    -0.249 N 
ATOM     97  C   UNL A   1      34.322  16.539  24.039  1.00  0.00     0.220 A 
ATOM     98  N   UNL A   1      32.409  16.799  25.162  1.00  0.00    -0.160 NA
ATOM     99  N   UNL A   1      34.407  15.698  25.044  1.00  0.00    -0.224 NA
ATOM    100  C   UNL A   1      33.218  15.879  25.693  1.00  0.00     0.246 A 
ENDBRANCH  95  96
ENDBRANCH  94  95
ENDBRANCH  87  89
ENDBRANCH  78  85
ENDBRANCH  75  77
ENDBRANCH  74  75
ENDBRANCH  73  74
ENDBRANCH  72  73
ENDBRANCH  71  72
ENDBRANCH   1  71
TORSDOF 24
ENDMDL
MODEL 3
REMARK VINA RESULT:     -10.2      4.062      9.960
REMARK SMILES O=C(OCCOCCOCCOC(=O)[C@@H]1[C@H](C(=O)Nc2ccc(Cn3cncn3)cc2)[C@@H]2C=C[C@H]1CC2)c1ccc(-c2c3nc(c(-c4ccc(S(=O)(=O)[O-])cc4)c4ccc([nH]4)c(-c4ccc(S(=O)(=O)[O-])cc4)c4nc(c(-c5ccc(S(=O)(=O)[O-])cc5)c5ccc2[nH]5)C=C4)C=C3)cc1
REMARK SMILES IDX 8 1 7 2 6 3 5 4 4 5 3 6 2 7 1 8 38 9 39 10 97 11 40 12 96 13
REMARK SMILES IDX 41 14 42 15 43 16 90 17 44 18 95 19 89 20 91 21 45 22 94 23
REMARK SMILES IDX 88 24 87 25 46 27 76 28 57 29 75 30 58 31 61 32 74 33 92 34
REMARK SMILES IDX 59 35 60 36 73 38 93 39 62 40 47 41 48 42 56 43 49 44 55 45
REMARK SMILES IDX 50 46 51 47 52 48 53 49 54 50 77 51 78 52 86 53 79 54 85 55
REMARK SMILES IDX 80 56 81 57 82 58 83 59 84 60 63 61 64 62 72 63 65 64 71 65
REMARK SMILES IDX 66 66 67 67 68 68 69 69 70 70 9 71 10 72 11 73 12 74 13 75
REMARK SMILES IDX 14 76 15 77 16 78 35 79 32 80 34 81 36 82 33 83 37 84 17 85
REMARK SMILES IDX 18 86 19 87 20 89 21 90 31 91 22 92 30 93 23 94 24 95 25 96
REMARK SMILES IDX 26 97 29 98 27 99 28 100
REMARK H PARENT 91 26 61 37 19 88
REMARK Flexibility Score: inf
ROOT
ATOM      1  C   UNL A   1      33.649  30.834  27.065  1.00  0.00     0.188 C 
ENDROOT
BRANCH   1   2
ATOM      2  C   UNL A   1      34.620  31.589  27.988  1.00  0.00     0.188 C 
BRANCH   2   3
ATOM      3  O   UNL A   1      34.744  33.002  27.934  1.00  0.00    -0.376 OA
BRANCH   3   4
ATOM      4  C   UNL A   1      34.808  33.810  29.094  1.00  0.00     0.202 C 
BRANCH   4   5
ATOM      5  C   UNL A   1      33.717  34.810  29.489  1.00  0.00     0.261 C 
BRANCH   5   6
ATOM      6  O   UNL A   1      33.166  34.700  30.801  1.00  0.00    -0.460 OA
BRANCH   6   7
ATOM      7  C   UNL A   1      33.735  34.888  32.008  1.00  0.00     0.338 C 
ATOM      8  O   UNL A   1      33.222  35.712  32.764  1.00  0.00    -0.246 OA
BRANCH   7   9
ATOM      9  C   UNL A   1      35.025  34.262  32.425  1.00  0.00     0.060 A 
ATOM     10  C   UNL A   1      36.234  34.930  32.620  1.00  0.00     0.016 A 
ATOM     11  C   UNL A   1      34.990  32.863  32.605  1.00  0.00     0.016 A 
ATOM     12  C   UNL A   1      37.403  34.215  32.813  1.00  0.00     0.010 A 
ATOM     13  C   UNL A   1      36.155  32.142  32.818  1.00  0.00     0.010 A 
ATOM     14  C   UNL A   1      37.366  32.824  32.823  1.00  0.00    -0.014 A 
BRANCH  14  15
ATOM     15  C   UNL A   1      38.642  32.151  32.660  1.00  0.00     0.031 A 
ATOM     16  C   UNL A   1      39.517  32.044  33.852  1.00  0.00     0.074 A 
ATOM     17  C   UNL A   1      39.030  31.709  31.449  1.00  0.00     0.049 A 
ATOM     18  N   UNL A   1      40.670  32.596  34.053  1.00  0.00    -0.248 NA
ATOM     19  C   UNL A   1      39.003  31.279  34.995  1.00  0.00     0.031 C 
ATOM     20  C   UNL A   1      38.213  31.534  30.243  1.00  0.00     0.029 A 
ATOM     21  N   UNL A   1      40.245  31.228  31.075  1.00  0.00    -0.354 N 
ATOM     22  C   UNL A   1      41.116  32.116  35.280  1.00  0.00     0.074 A 
ATOM     23  C   UNL A   1      40.008  31.399  35.864  1.00  0.00     0.031 C 
ATOM     24  C   UNL A   1      38.891  30.774  29.358  1.00  0.00     0.029 A 
ATOM     25  C   UNL A   1      40.230  30.547  29.870  1.00  0.00     0.049 A 
ATOM     26  H   UNL A   1      41.060  31.354  31.612  1.00  0.00     0.167 HD
ATOM     27  C   UNL A   1      42.419  32.188  35.674  1.00  0.00     0.031 A 
ATOM     28  C   UNL A   1      41.225  29.780  29.368  1.00  0.00     0.031 A 
ATOM     29  C   UNL A   1      43.178  33.139  34.911  1.00  0.00     0.049 A 
ATOM     30  C   UNL A   1      42.487  30.202  30.019  1.00  0.00     0.074 A 
ATOM     31  C   UNL A   1      43.125  34.508  34.741  1.00  0.00     0.029 A 
ATOM     32  N   UNL A   1      43.968  32.664  33.892  1.00  0.00    -0.354 N 
ATOM     33  N   UNL A   1      43.037  31.371  29.833  1.00  0.00    -0.248 NA
ATOM     34  C   UNL A   1      42.935  29.491  31.206  1.00  0.00     0.031 C 
ATOM     35  C   UNL A   1      43.484  34.728  33.379  1.00  0.00     0.029 A 
ATOM     36  C   UNL A   1      43.769  33.484  32.808  1.00  0.00     0.049 A 
ATOM     37  H   UNL A   1      44.564  31.882  33.931  1.00  0.00     0.167 HD
ATOM     38  C   UNL A   1      43.574  31.719  31.064  1.00  0.00     0.074 A 
ATOM     39  C   UNL A   1      43.579  30.479  31.834  1.00  0.00     0.031 C 
ATOM     40  C   UNL A   1      43.717  33.027  31.433  1.00  0.00     0.031 A 
BRANCH  27  41
ATOM     41  C   UNL A   1      43.064  31.164  36.570  1.00  0.00    -0.014 A 
ATOM     42  C   UNL A   1      43.774  31.572  37.715  1.00  0.00     0.010 A 
ATOM     43  C   UNL A   1      43.199  29.814  36.178  1.00  0.00     0.010 A 
ATOM     44  C   UNL A   1      44.602  30.679  38.414  1.00  0.00     0.020 A 
ATOM     45  C   UNL A   1      43.984  28.907  36.890  1.00  0.00     0.020 A 
ATOM     46  C   UNL A   1      44.706  29.352  37.988  1.00  0.00     0.054 A 
BRANCH  46  47
ATOM     47  S   UNL A   1      45.849  28.230  38.832  1.00  0.00     0.124 S 
ATOM     48  O   UNL A   1      46.172  27.278  37.774  1.00  0.00    -0.237 OA
ATOM     49  O   UNL A   1      46.930  29.127  39.231  1.00  0.00    -0.237 OA
ATOM     50  O   UNL A   1      45.053  27.695  39.935  1.00  0.00    -0.744 OA
ENDBRANCH  46  47
ENDBRANCH  27  41
BRANCH  28  51
ATOM     51  C   UNL A   1      41.050  28.489  28.666  1.00  0.00    -0.014 A 
ATOM     52  C   UNL A   1      42.050  27.978  27.822  1.00  0.00     0.010 A 
ATOM     53  C   UNL A   1      39.996  27.626  29.038  1.00  0.00     0.010 A 
ATOM     54  C   UNL A   1      42.024  26.635  27.410  1.00  0.00     0.020 A 
ATOM     55  C   UNL A   1      39.958  26.292  28.624  1.00  0.00     0.020 A 
ATOM     56  C   UNL A   1      40.986  25.797  27.831  1.00  0.00     0.054 A 
BRANCH  56  57
ATOM     57  S   UNL A   1      41.057  24.024  27.444  1.00  0.00     0.124 S 
ATOM     58  O   UNL A   1      39.654  23.630  27.543  1.00  0.00    -0.237 OA
ATOM     59  O   UNL A   1      41.623  24.017  26.098  1.00  0.00    -0.237 OA
ATOM     60  O   UNL A   1      41.930  23.479  28.482  1.00  0.00    -0.744 OA
ENDBRANCH  56  57
ENDBRANCH  28  51
BRANCH  40  61
ATOM     61  C   UNL A   1      43.524  34.094  30.374  1.00  0.00    -0.014 A 
ATOM     62  C   UNL A   1      42.255  34.561  29.974  1.00  0.00     0.010 A 
ATOM     63  C   UNL A   1      44.662  34.752  29.875  1.00  0.00     0.010 A 
ATOM     64  C   UNL A   1      42.131  35.637  29.081  1.00  0.00     0.020 A 
ATOM     65  C   UNL A   1      44.545  35.837  28.999  1.00  0.00     0.020 A 
ATOM     66  C   UNL A   1      43.279  36.269  28.599  1.00  0.00     0.054 A 
BRANCH  66  67
ATOM     67  S   UNL A   1      43.109  37.700  27.495  1.00  0.00     0.124 S 
ATOM     68  O   UNL A   1      42.719  38.766  28.414  1.00  0.00    -0.237 OA
ATOM     69  O   UNL A   1      44.445  37.825  26.915  1.00  0.00    -0.237 OA
ATOM     70  O   UNL A   1      42.072  37.288  26.549  1.00  0.00    -0.744 OA
ENDBRANCH  66  67
ENDBRANCH  40  61
ENDBRANCH  14  15
ENDBRANCH   7   9
ENDBRANCH   6   7
ENDBRANCH   5   6
ENDBRANCH   4   5
ENDBRANCH   3   4
ENDBRANCH   2   3
ENDBRANCH   1   2
BRANCH   1  71
ATOM     71  O   UNL A   1      32.526  30.146  27.613  1.00  0.00    -0.376 OA
BRANCH  71  72
ATOM     72  C   UNL A   1      31.953  29.090  26.874  1.00  0.00     0.202 C 
BRANCH  72  73
ATOM     73  C   UNL A   1      32.787  27.794  26.807  1.00  0.00     0.261 C 
BRANCH  73  74
ATOM     74  O   UNL A   1      32.257  26.652  26.088  1.00  0.00    -0.463 OA
BRANCH  74  75
ATOM     75  C   UNL A   1      33.202  25.740  25.759  1.00  0.00     0.310 C 
ATOM     76  O   UNL A   1      34.377  26.036  25.625  1.00  0.00    -0.252 OA
BRANCH  75  77
ATOM     77  C   UNL A   1      32.730  24.311  25.589  1.00  0.00     0.119 C 
ATOM     78  C   UNL A   1      33.218  23.698  24.232  1.00  0.00     0.100 C 
ATOM     79  C   UNL A   1      31.210  23.973  25.770  1.00  0.00     0.026 C 
ATOM     80  C   UNL A   1      32.128  22.770  23.639  1.00  0.00     0.025 C 
ATOM     81  C   UNL A   1      30.403  24.195  24.498  1.00  0.00    -0.027 C 
ATOM     82  C   UNL A   1      31.113  22.435  25.955  1.00  0.00     0.009 C 
ATOM     83  C   UNL A   1      30.884  23.585  23.401  1.00  0.00    -0.027 C 
ATOM     84  C   UNL A   1      31.740  21.724  24.720  1.00  0.00     0.009 C 
BRANCH  78  85
ATOM     85  C   UNL A   1      33.938  24.498  23.113  1.00  0.00     0.228 C 
ATOM     86  O   UNL A   1      34.955  23.970  22.623  1.00  0.00    -0.274 OA
ATOM     87  N   UNL A   1      33.547  25.644  22.479  1.00  0.00    -0.326 N 
ATOM     88  H   UNL A   1      34.029  25.759  21.629  1.00  0.00     0.169 HD
BRANCH  87  89
ATOM     89  C   UNL A   1      32.646  26.709  22.697  1.00  0.00     0.041 A 
ATOM     90  C   UNL A   1      31.288  26.505  22.453  1.00  0.00     0.026 A 
ATOM     91  C   UNL A   1      33.002  27.987  23.080  1.00  0.00     0.026 A 
ATOM     92  C   UNL A   1      30.344  27.517  22.726  1.00  0.00     0.008 A 
ATOM     93  C   UNL A   1      32.103  29.017  23.308  1.00  0.00     0.008 A 
ATOM     94  C   UNL A   1      30.749  28.773  23.201  1.00  0.00    -0.026 A 
BRANCH  94  95
ATOM     95  C   UNL A   1      29.811  29.860  23.635  1.00  0.00     0.181 C 
BRANCH  95  96
ATOM     96  N   UNL A   1      29.073  30.424  22.527  1.00  0.00    -0.249 N 
ATOM     97  C   UNL A   1      29.193  31.678  22.014  1.00  0.00     0.220 A 
ATOM     98  N   UNL A   1      28.248  29.669  21.772  1.00  0.00    -0.160 NA
ATOM     99  N   UNL A   1      28.460  31.781  20.930  1.00  0.00    -0.224 NA
ATOM    100  C   UNL A   1      27.893  30.543  20.826  1.00  0.00     0.246 A 
ENDBRANCH  95  96
ENDBRANCH  94  95
ENDBRANCH  87  89
ENDBRANCH  78  85
ENDBRANCH  75  77
ENDBRANCH  74  75
ENDBRANCH  73  74
ENDBRANCH  72  73
ENDBRANCH  71  72
ENDBRANCH   1  71
TORSDOF 24
ENDMDL
