MODEL 1
REMARK VINA RESULT:     -11.5      0.000      0.000
REMARK SMILES O=C(OCCOCCOCCOC(=O)[C@H]1CCCN(c2cc(-c3ccccn3)nc(-c3ccccc3F)n2)C1)c1ccc(-c2c3nc(c(-c4ccc(S(=O)(=O)[O-])cc4)c4ccc([nH]4)c(-c4ccc(S(=O)(=O)[O-])cc4)c4nc(c(-c5ccc(S(=O)(=O)[O-])cc5)c5ccc2[nH]5)C=C4)C=C3)cc1
REMARK SMILES IDX 7 1 6 2 5 3 4 4 3 5 2 6 1 7 40 8 41 9 99 10 42 11 98 12
REMARK SMILES IDX 43 13 44 14 45 15 92 16 46 17 97 18 91 19 93 20 47 21 96 22
REMARK SMILES IDX 90 23 89 24 48 26 78 27 59 28 77 29 60 30 63 31 76 32 94 33
REMARK SMILES IDX 61 34 62 35 75 37 95 38 64 39 49 40 50 41 58 42 51 43 57 44
REMARK SMILES IDX 52 45 53 46 54 47 55 48 56 49 79 50 80 51 88 52 81 53 87 54
REMARK SMILES IDX 82 55 83 56 84 57 85 58 86 59 65 60 66 61 74 62 67 63 73 64
REMARK SMILES IDX 68 65 69 66 70 67 71 68 72 69 8 70 9 71 10 72 11 73 12 74
REMARK SMILES IDX 13 75 14 76 15 77 16 78 39 79 17 80 19 81 18 82 20 83 21 84
REMARK SMILES IDX 38 85 22 86 30 87 29 88 23 89 24 90 28 91 25 92 27 93 26 94
REMARK SMILES IDX 31 95 32 96 36 97 33 98 35 99 37 100 34 101
REMARK H PARENT 93 25 63 36
REMARK Flexibility Score: inf
ROOT
ATOM      1  C   UNL A   1      32.396  30.652  26.882  1.00  0.00     0.188 C 
ENDROOT
BRANCH   1   2
ATOM      2  O   UNL A   1      33.780  30.987  26.761  1.00  0.00    -0.376 OA
BRANCH   2   3
ATOM      3  C   UNL A   1      34.629  30.363  27.732  1.00  0.00     0.202 C 
BRANCH   3   4
ATOM      4  C   UNL A   1      35.557  31.288  28.548  1.00  0.00     0.261 C 
BRANCH   4   5
ATOM      5  O   UNL A   1      35.723  30.902  29.923  1.00  0.00    -0.460 OA
BRANCH   5   6
ATOM      6  C   UNL A   1      36.590  29.998  30.450  1.00  0.00     0.338 C 
ATOM      7  O   UNL A   1      36.213  29.309  31.396  1.00  0.00    -0.246 OA
BRANCH   6   8
ATOM      8  C   UNL A   1      37.989  29.815  29.957  1.00  0.00     0.060 A 
ATOM      9  C   UNL A   1      38.356  29.802  28.614  1.00  0.00     0.016 A 
ATOM     10  C   UNL A   1      39.013  29.713  30.914  1.00  0.00     0.016 A 
ATOM     11  C   UNL A   1      39.660  29.580  28.212  1.00  0.00     0.010 A 
ATOM     12  C   UNL A   1      40.347  29.548  30.521  1.00  0.00     0.010 A 
ATOM     13  C   UNL A   1      40.663  29.445  29.163  1.00  0.00    -0.014 A 
BRANCH  13  14
ATOM     14  C   UNL A   1      41.997  29.051  28.680  1.00  0.00     0.031 A 
ATOM     15  C   UNL A   1      43.088  30.071  28.730  1.00  0.00     0.074 A 
ATOM     16  C   UNL A   1      42.250  27.762  28.389  1.00  0.00     0.049 A 
ATOM     17  N   UNL A   1      44.333  29.956  28.365  1.00  0.00    -0.248 NA
ATOM     18  C   UNL A   1      42.737  31.389  29.290  1.00  0.00     0.031 C 
ATOM     19  C   UNL A   1      41.275  26.677  28.496  1.00  0.00     0.029 A 
ATOM     20  N   UNL A   1      43.399  27.134  27.993  1.00  0.00    -0.354 N 
ATOM     21  C   UNL A   1      44.910  31.191  28.628  1.00  0.00     0.074 A 
ATOM     22  C   UNL A   1      43.880  32.046  29.170  1.00  0.00     0.031 C 
ATOM     23  C   UNL A   1      41.876  25.514  28.206  1.00  0.00     0.029 A 
ATOM     24  C   UNL A   1      43.238  25.784  27.783  1.00  0.00     0.049 A 
ATOM     25  H   UNL A   1      44.257  27.601  27.871  1.00  0.00     0.167 HD
ATOM     26  C   UNL A   1      46.191  31.567  28.423  1.00  0.00     0.031 A 
ATOM     27  C   UNL A   1      44.082  24.877  27.259  1.00  0.00     0.031 A 
ATOM     28  C   UNL A   1      47.179  30.690  27.858  1.00  0.00     0.049 A 
ATOM     29  C   UNL A   1      45.452  25.359  26.884  1.00  0.00     0.074 A 
ATOM     30  C   UNL A   1      48.491  30.964  27.527  1.00  0.00     0.029 A 
ATOM     31  N   UNL A   1      46.948  29.358  27.533  1.00  0.00    -0.354 N 
ATOM     32  N   UNL A   1      45.971  26.552  27.061  1.00  0.00    -0.248 NA
ATOM     33  C   UNL A   1      46.349  24.391  26.248  1.00  0.00     0.031 C 
ATOM     34  C   UNL A   1      49.034  29.815  26.944  1.00  0.00     0.029 A 
ATOM     35  C   UNL A   1      48.085  28.802  26.980  1.00  0.00     0.049 A 
ATOM     36  H   UNL A   1      46.099  28.880  27.678  1.00  0.00     0.167 HD
ATOM     37  C   UNL A   1      47.270  26.473  26.584  1.00  0.00     0.074 A 
ATOM     38  C   UNL A   1      47.457  25.109  26.124  1.00  0.00     0.031 C 
ATOM     39  C   UNL A   1      48.224  27.436  26.535  1.00  0.00     0.031 A 
BRANCH  26  40
ATOM     40  C   UNL A   1      46.537  32.998  28.724  1.00  0.00    -0.014 A 
ATOM     41  C   UNL A   1      46.926  33.412  30.011  1.00  0.00     0.010 A 
ATOM     42  C   UNL A   1      46.426  33.957  27.702  1.00  0.00     0.010 A 
ATOM     43  C   UNL A   1      47.156  34.765  30.280  1.00  0.00     0.020 A 
ATOM     44  C   UNL A   1      46.682  35.307  27.959  1.00  0.00     0.020 A 
ATOM     45  C   UNL A   1      47.028  35.704  29.252  1.00  0.00     0.054 A 
BRANCH  45  46
ATOM     46  S   UNL A   1      47.336  37.451  29.626  1.00  0.00     0.124 S 
ATOM     47  O   UNL A   1      48.757  37.441  29.964  1.00  0.00    -0.237 OA
ATOM     48  O   UNL A   1      46.995  38.110  28.367  1.00  0.00    -0.237 OA
ATOM     49  O   UNL A   1      46.433  37.734  30.738  1.00  0.00    -0.744 OA
ENDBRANCH  45  46
ENDBRANCH  26  40
BRANCH  27  50
ATOM     50  C   UNL A   1      43.628  23.480  26.994  1.00  0.00    -0.014 A 
ATOM     51  C   UNL A   1      43.558  22.966  25.689  1.00  0.00     0.010 A 
ATOM     52  C   UNL A   1      43.260  22.645  28.070  1.00  0.00     0.010 A 
ATOM     53  C   UNL A   1      43.115  21.657  25.463  1.00  0.00     0.020 A 
ATOM     54  C   UNL A   1      42.846  21.328  27.852  1.00  0.00     0.020 A 
ATOM     55  C   UNL A   1      42.764  20.845  26.546  1.00  0.00     0.054 A 
BRANCH  55  56
ATOM     56  S   UNL A   1      42.227  19.141  26.231  1.00  0.00     0.124 S 
ATOM     57  O   UNL A   1      40.819  19.322  25.894  1.00  0.00    -0.237 OA
ATOM     58  O   UNL A   1      43.097  18.739  25.128  1.00  0.00    -0.237 OA
ATOM     59  O   UNL A   1      42.488  18.461  27.498  1.00  0.00    -0.744 OA
ENDBRANCH  55  56
ENDBRANCH  27  50
BRANCH  39  60
ATOM     60  C   UNL A   1      49.565  27.025  26.005  1.00  0.00    -0.014 A 
ATOM     61  C   UNL A   1      50.504  26.375  26.822  1.00  0.00     0.010 A 
ATOM     62  C   UNL A   1      49.857  27.242  24.646  1.00  0.00     0.010 A 
ATOM     63  C   UNL A   1      51.731  25.972  26.293  1.00  0.00     0.020 A 
ATOM     64  C   UNL A   1      51.066  26.810  24.106  1.00  0.00     0.020 A 
ATOM     65  C   UNL A   1      52.001  26.189  24.937  1.00  0.00     0.054 A 
BRANCH  65  66
ATOM     66  S   UNL A   1      53.575  25.603  24.261  1.00  0.00     0.124 S 
ATOM     67  O   UNL A   1      54.541  26.408  25.004  1.00  0.00    -0.237 OA
ATOM     68  O   UNL A   1      53.555  24.181  24.592  1.00  0.00    -0.237 OA
ATOM     69  O   UNL A   1      53.475  25.907  22.836  1.00  0.00    -0.744 OA
ENDBRANCH  65  66
ENDBRANCH  39  60
ENDBRANCH  13  14
ENDBRANCH   6   8
ENDBRANCH   5   6
ENDBRANCH   4   5
ENDBRANCH   3   4
ENDBRANCH   2   3
ENDBRANCH   1   2
BRANCH   1  70
ATOM     70  C   UNL A   1      32.070  29.215  26.476  1.00  0.00     0.188 C 
BRANCH  70  71
ATOM     71  O   UNL A   1      31.924  28.931  25.087  1.00  0.00    -0.376 OA
BRANCH  71  72
ATOM     72  C   UNL A   1      33.045  29.164  24.245  1.00  0.00     0.202 C 
BRANCH  72  73
ATOM     73  C   UNL A   1      32.882  29.021  22.721  1.00  0.00     0.261 C 
BRANCH  73  74
ATOM     74  O   UNL A   1      32.133  27.879  22.286  1.00  0.00    -0.463 OA
BRANCH  74  75
ATOM     75  C   UNL A   1      32.859  26.736  22.152  1.00  0.00     0.310 C 
ATOM     76  O   UNL A   1      33.687  26.541  21.262  1.00  0.00    -0.252 OA
BRANCH  75  77
ATOM     77  C   UNL A   1      32.554  25.757  23.269  1.00  0.00     0.118 C 
ATOM     78  C   UNL A   1      31.041  25.631  23.490  1.00  0.00     0.019 C 
ATOM     79  C   UNL A   1      33.237  24.430  22.921  1.00  0.00     0.133 C 
ATOM     80  C   UNL A   1      30.653  24.392  24.306  1.00  0.00     0.022 C 
ATOM     81  N   UNL A   1      32.729  23.369  23.771  1.00  0.00    -0.356 N 
ATOM     82  C   UNL A   1      31.300  23.131  23.752  1.00  0.00     0.118 C 
BRANCH  81  83
ATOM     83  C   UNL A   1      33.601  22.401  24.192  1.00  0.00     0.133 A 
ATOM     84  C   UNL A   1      33.243  21.074  24.226  1.00  0.00     0.077 A 
ATOM     85  N   UNL A   1      34.822  22.813  24.557  1.00  0.00    -0.211 NA
ATOM     86  C   UNL A   1      34.209  20.173  24.635  1.00  0.00     0.095 A 
ATOM     87  C   UNL A   1      35.688  21.878  24.976  1.00  0.00     0.165 A 
ATOM     88  N   UNL A   1      35.445  20.561  25.017  1.00  0.00    -0.226 NA
BRANCH  86  89
ATOM     89  C   UNL A   1      33.936  18.731  24.653  1.00  0.00     0.089 A 
ATOM     90  C   UNL A   1      32.630  18.238  24.675  1.00  0.00     0.030 A 
ATOM     91  N   UNL A   1      35.017  17.909  24.689  1.00  0.00    -0.255 NA
ATOM     92  C   UNL A   1      32.425  16.862  24.736  1.00  0.00     0.004 A 
ATOM     93  C   UNL A   1      34.788  16.581  24.754  1.00  0.00     0.112 A 
ATOM     94  C   UNL A   1      33.525  16.015  24.782  1.00  0.00     0.020 A 
ENDBRANCH  86  89
BRANCH  87  95
ATOM     95  C   UNL A   1      36.957  22.356  25.512  1.00  0.00     0.055 A 
ATOM     96  C   UNL A   1      37.058  23.641  26.083  1.00  0.00     0.015 A 
ATOM     97  C   UNL A   1      38.110  21.568  25.476  1.00  0.00     0.134 A 
ATOM     98  C   UNL A   1      38.266  24.103  26.614  1.00  0.00     0.001 A 
ATOM     99  C   UNL A   1      39.321  22.026  25.996  1.00  0.00     0.040 A 
ATOM    100  F   UNL A   1      38.089  20.353  24.908  1.00  0.00    -0.206 F 
ATOM    101  C   UNL A   1      39.399  23.293  26.572  1.00  0.00     0.003 A 
ENDBRANCH  87  95
ENDBRANCH  81  83
ENDBRANCH  75  77
ENDBRANCH  74  75
ENDBRANCH  73  74
ENDBRANCH  72  73
ENDBRANCH  71  72
ENDBRANCH  70  71
ENDBRANCH   1  70
TORSDOF 23
ENDMDL
MODEL 2
REMARK VINA RESULT:     -11.1      5.843      7.883
REMARK SMILES O=C(OCCOCCOCCOC(=O)[C@H]1CCCN(c2cc(-c3ccccn3)nc(-c3ccccc3F)n2)C1)c1ccc(-c2c3nc(c(-c4ccc(S(=O)(=O)[O-])cc4)c4ccc([nH]4)c(-c4ccc(S(=O)(=O)[O-])cc4)c4nc(c(-c5ccc(S(=O)(=O)[O-])cc5)c5ccc2[nH]5)C=C4)C=C3)cc1
REMARK SMILES IDX 7 1 6 2 5 3 4 4 3 5 2 6 1 7 40 8 41 9 99 10 42 11 98 12
REMARK SMILES IDX 43 13 44 14 45 15 92 16 46 17 97 18 91 19 93 20 47 21 96 22
REMARK SMILES IDX 90 23 89 24 48 26 78 27 59 28 77 29 60 30 63 31 76 32 94 33
REMARK SMILES IDX 61 34 62 35 75 37 95 38 64 39 49 40 50 41 58 42 51 43 57 44
REMARK SMILES IDX 52 45 53 46 54 47 55 48 56 49 79 50 80 51 88 52 81 53 87 54
REMARK SMILES IDX 82 55 83 56 84 57 85 58 86 59 65 60 66 61 74 62 67 63 73 64
REMARK SMILES IDX 68 65 69 66 70 67 71 68 72 69 8 70 9 71 10 72 11 73 12 74
REMARK SMILES IDX 13 75 14 76 15 77 16 78 39 79 17 80 19 81 18 82 20 83 21 84
REMARK SMILES IDX 38 85 22 86 30 87 29 88 23 89 24 90 28 91 25 92 27 93 26 94
REMARK SMILES IDX 31 95 32 96 36 97 33 98 35 99 37 100 34 101
REMARK H PARENT 93 25 63 36
REMARK Flexibility Score: inf
ROOT
ATOM      1  C   UNL A   1      32.689  30.504  26.948  1.00  0.00     0.188 C 
ENDROOT
BRANCH   1   2
ATOM      2  O   UNL A   1      33.956  31.132  27.159  1.00  0.00    -0.376 OA
BRANCH   2   3
ATOM      3  C   UNL A   1      34.011  31.986  28.308  1.00  0.00     0.202 C 
BRANCH   3   4
ATOM      4  C   UNL A   1      33.734  33.487  28.078  1.00  0.00     0.261 C 
BRANCH   4   5
ATOM      5  O   UNL A   1      32.937  34.109  29.101  1.00  0.00    -0.460 OA
BRANCH   5   6
ATOM      6  C   UNL A   1      33.309  34.487  30.352  1.00  0.00     0.338 C 
ATOM      7  O   UNL A   1      32.581  35.261  30.970  1.00  0.00    -0.246 OA
BRANCH   6   8
ATOM      8  C   UNL A   1      34.572  34.031  31.008  1.00  0.00     0.060 A 
ATOM      9  C   UNL A   1      35.780  34.722  30.958  1.00  0.00     0.016 A 
ATOM     10  C   UNL A   1      34.523  32.859  31.781  1.00  0.00     0.016 A 
ATOM     11  C   UNL A   1      36.931  34.230  31.543  1.00  0.00     0.010 A 
ATOM     12  C   UNL A   1      35.668  32.380  32.430  1.00  0.00     0.010 A 
ATOM     13  C   UNL A   1      36.885  33.052  32.278  1.00  0.00    -0.014 A 
BRANCH  13  14
ATOM     14  C   UNL A   1      38.168  32.496  32.737  1.00  0.00     0.031 A 
ATOM     15  C   UNL A   1      38.558  32.724  34.162  1.00  0.00     0.074 A 
ATOM     16  C   UNL A   1      38.858  31.657  31.944  1.00  0.00     0.049 A 
ATOM     17  N   UNL A   1      39.630  32.333  34.790  1.00  0.00    -0.248 NA
ATOM     18  C   UNL A   1      37.600  33.469  34.999  1.00  0.00     0.031 C 
ATOM     19  C   UNL A   1      38.438  31.244  30.604  1.00  0.00     0.029 A 
ATOM     20  N   UNL A   1      40.019  30.965  32.152  1.00  0.00    -0.354 N 
ATOM     21  C   UNL A   1      39.490  32.803  36.088  1.00  0.00     0.074 A 
ATOM     22  C   UNL A   1      38.238  33.519  36.158  1.00  0.00     0.031 C 
ATOM     23  C   UNL A   1      39.312  30.346  30.126  1.00  0.00     0.029 A 
ATOM     24  C   UNL A   1      40.406  30.209  31.071  1.00  0.00     0.049 A 
ATOM     25  H   UNL A   1      40.528  31.003  32.994  1.00  0.00     0.167 HD
ATOM     26  C   UNL A   1      40.345  32.647  37.122  1.00  0.00     0.031 A 
ATOM     27  C   UNL A   1      41.542  29.524  30.848  1.00  0.00     0.031 A 
ATOM     28  C   UNL A   1      41.593  31.947  37.001  1.00  0.00     0.049 A 
ATOM     29  C   UNL A   1      42.553  29.504  31.955  1.00  0.00     0.074 A 
ATOM     30  C   UNL A   1      42.586  31.780  37.946  1.00  0.00     0.029 A 
ATOM     31  N   UNL A   1      42.018  31.299  35.847  1.00  0.00    -0.354 N 
ATOM     32  N   UNL A   1      42.451  30.019  33.159  1.00  0.00    -0.248 NA
ATOM     33  C   UNL A   1      43.820  28.818  31.690  1.00  0.00     0.031 C 
ATOM     34  C   UNL A   1      43.639  31.086  37.342  1.00  0.00     0.029 A 
ATOM     35  C   UNL A   1      43.272  30.754  36.044  1.00  0.00     0.049 A 
ATOM     36  H   UNL A   1      41.501  31.237  35.011  1.00  0.00     0.167 HD
ATOM     37  C   UNL A   1      43.631  29.695  33.810  1.00  0.00     0.074 A 
ATOM     38  C   UNL A   1      44.424  28.928  32.866  1.00  0.00     0.031 C 
ATOM     39  C   UNL A   1      44.024  29.998  35.072  1.00  0.00     0.031 A 
BRANCH  26  40
ATOM     40  C   UNL A   1      39.985  33.330  38.412  1.00  0.00    -0.014 A 
ATOM     41  C   UNL A   1      40.357  34.661  38.675  1.00  0.00     0.010 A 
ATOM     42  C   UNL A   1      39.295  32.604  39.400  1.00  0.00     0.010 A 
ATOM     43  C   UNL A   1      40.084  35.239  39.919  1.00  0.00     0.020 A 
ATOM     44  C   UNL A   1      38.995  33.186  40.634  1.00  0.00     0.020 A 
ATOM     45  C   UNL A   1      39.408  34.495  40.892  1.00  0.00     0.054 A 
BRANCH  45  46
ATOM     46  S   UNL A   1      39.062  35.269  42.494  1.00  0.00     0.124 S 
ATOM     47  O   UNL A   1      39.948  36.430  42.466  1.00  0.00    -0.237 OA
ATOM     48  O   UNL A   1      37.634  35.567  42.403  1.00  0.00    -0.237 OA
ATOM     49  O   UNL A   1      39.419  34.237  43.464  1.00  0.00    -0.744 OA
ENDBRANCH  45  46
ENDBRANCH  26  40
BRANCH  27  50
ATOM     50  C   UNL A   1      41.799  28.890  29.522  1.00  0.00    -0.014 A 
ATOM     51  C   UNL A   1      42.478  29.575  28.500  1.00  0.00     0.010 A 
ATOM     52  C   UNL A   1      41.360  27.572  29.276  1.00  0.00     0.010 A 
ATOM     53  C   UNL A   1      42.696  28.966  27.258  1.00  0.00     0.020 A 
ATOM     54  C   UNL A   1      41.602  26.949  28.047  1.00  0.00     0.020 A 
ATOM     55  C   UNL A   1      42.259  27.655  27.040  1.00  0.00     0.054 A 
BRANCH  55  56
ATOM     56  S   UNL A   1      42.584  26.874  25.435  1.00  0.00     0.124 S 
ATOM     57  O   UNL A   1      43.905  26.290  25.642  1.00  0.00    -0.237 OA
ATOM     58  O   UNL A   1      41.480  25.924  25.322  1.00  0.00    -0.237 OA
ATOM     59  O   UNL A   1      42.532  27.992  24.495  1.00  0.00    -0.744 OA
ENDBRANCH  55  56
ENDBRANCH  27  50
BRANCH  39  60
ATOM     60  C   UNL A   1      45.352  29.454  35.510  1.00  0.00    -0.014 A 
ATOM     61  C   UNL A   1      45.465  28.171  36.071  1.00  0.00     0.010 A 
ATOM     62  C   UNL A   1      46.508  30.225  35.295  1.00  0.00     0.010 A 
ATOM     63  C   UNL A   1      46.718  27.678  36.437  1.00  0.00     0.020 A 
ATOM     64  C   UNL A   1      47.764  29.721  35.626  1.00  0.00     0.020 A 
ATOM     65  C   UNL A   1      47.859  28.455  36.208  1.00  0.00     0.054 A 
BRANCH  65  66
ATOM     66  S   UNL A   1      49.478  27.768  36.636  1.00  0.00     0.124 S 
ATOM     67  O   UNL A   1      49.150  26.904  37.767  1.00  0.00    -0.237 OA
ATOM     68  O   UNL A   1      49.866  27.078  35.409  1.00  0.00    -0.237 OA
ATOM     69  O   UNL A   1      50.279  28.945  36.963  1.00  0.00    -0.744 OA
ENDBRANCH  65  66
ENDBRANCH  39  60
ENDBRANCH  13  14
ENDBRANCH   6   8
ENDBRANCH   5   6
ENDBRANCH   4   5
ENDBRANCH   3   4
ENDBRANCH   2   3
ENDBRANCH   1   2
BRANCH   1  70
ATOM     70  C   UNL A   1      32.753  28.977  26.919  1.00  0.00     0.188 C 
BRANCH  70  71
ATOM     71  O   UNL A   1      32.825  28.337  25.648  1.00  0.00    -0.376 OA
BRANCH  71  72
ATOM     72  C   UNL A   1      33.825  28.782  24.740  1.00  0.00     0.202 C 
BRANCH  72  73
ATOM     73  C   UNL A   1      33.473  28.929  23.249  1.00  0.00     0.261 C 
BRANCH  73  74
ATOM     74  O   UNL A   1      32.487  28.014  22.755  1.00  0.00    -0.463 OA
BRANCH  74  75
ATOM     75  C   UNL A   1      32.981  26.821  22.322  1.00  0.00     0.310 C 
ATOM     76  O   UNL A   1      33.758  26.694  21.377  1.00  0.00    -0.252 OA
BRANCH  75  77
ATOM     77  C   UNL A   1      32.491  25.677  23.189  1.00  0.00     0.118 C 
ATOM     78  C   UNL A   1      30.998  25.410  22.952  1.00  0.00     0.019 C 
ATOM     79  C   UNL A   1      33.385  24.465  22.904  1.00  0.00     0.133 C 
ATOM     80  C   UNL A   1      30.540  24.045  23.479  1.00  0.00     0.022 C 
ATOM     81  N   UNL A   1      32.782  23.261  23.448  1.00  0.00    -0.356 N 
ATOM     82  C   UNL A   1      31.449  22.924  22.995  1.00  0.00     0.118 C 
BRANCH  81  83
ATOM     83  C   UNL A   1      33.606  22.312  23.990  1.00  0.00     0.133 A 
ATOM     84  C   UNL A   1      33.215  20.999  24.106  1.00  0.00     0.077 A 
ATOM     85  N   UNL A   1      34.817  22.725  24.389  1.00  0.00    -0.211 NA
ATOM     86  C   UNL A   1      34.135  20.113  24.635  1.00  0.00     0.095 A 
ATOM     87  C   UNL A   1      35.635  21.809  24.926  1.00  0.00     0.165 A 
ATOM     88  N   UNL A   1      35.357  20.504  25.054  1.00  0.00    -0.226 NA
BRANCH  86  89
ATOM     89  C   UNL A   1      33.825  18.682  24.750  1.00  0.00     0.089 A 
ATOM     90  C   UNL A   1      34.558  17.722  24.050  1.00  0.00     0.030 A 
ATOM     91  N   UNL A   1      32.768  18.351  25.536  1.00  0.00    -0.255 NA
ATOM     92  C   UNL A   1      34.196  16.382  24.158  1.00  0.00     0.004 A 
ATOM     93  C   UNL A   1      32.438  17.046  25.618  1.00  0.00     0.112 A 
ATOM     94  C   UNL A   1      33.112  16.035  24.953  1.00  0.00     0.020 A 
ENDBRANCH  86  89
BRANCH  87  95
ATOM     95  C   UNL A   1      36.885  22.301  25.493  1.00  0.00     0.055 A 
ATOM     96  C   UNL A   1      36.978  23.614  25.997  1.00  0.00     0.015 A 
ATOM     97  C   UNL A   1      38.028  21.500  25.552  1.00  0.00     0.134 A 
ATOM     98  C   UNL A   1      38.167  24.090  26.558  1.00  0.00     0.001 A 
ATOM     99  C   UNL A   1      39.221  21.971  26.101  1.00  0.00     0.040 A 
ATOM    100  F   UNL A   1      38.016  20.255  25.050  1.00  0.00    -0.206 F 
ATOM    101  C   UNL A   1      39.290  23.267  26.611  1.00  0.00     0.003 A 
ENDBRANCH  87  95
ENDBRANCH  81  83
ENDBRANCH  75  77
ENDBRANCH  74  75
ENDBRANCH  73  74
ENDBRANCH  72  73
ENDBRANCH  71  72
ENDBRANCH  70  71
ENDBRANCH   1  70
TORSDOF 23
ENDMDL
MODEL 3
REMARK VINA RESULT:     -10.9      2.885      9.455
REMARK SMILES O=C(OCCOCCOCCOC(=O)[C@H]1CCCN(c2cc(-c3ccccn3)nc(-c3ccccc3F)n2)C1)c1ccc(-c2c3nc(c(-c4ccc(S(=O)(=O)[O-])cc4)c4ccc([nH]4)c(-c4ccc(S(=O)(=O)[O-])cc4)c4nc(c(-c5ccc(S(=O)(=O)[O-])cc5)c5ccc2[nH]5)C=C4)C=C3)cc1
REMARK SMILES IDX 7 1 6 2 5 3 4 4 3 5 2 6 1 7 40 8 41 9 99 10 42 11 98 12
REMARK SMILES IDX 43 13 44 14 45 15 92 16 46 17 97 18 91 19 93 20 47 21 96 22
REMARK SMILES IDX 90 23 89 24 48 26 78 27 59 28 77 29 60 30 63 31 76 32 94 33
REMARK SMILES IDX 61 34 62 35 75 37 95 38 64 39 49 40 50 41 58 42 51 43 57 44
REMARK SMILES IDX 52 45 53 46 54 47 55 48 56 49 79 50 80 51 88 52 81 53 87 54
REMARK SMILES IDX 82 55 83 56 84 57 85 58 86 59 65 60 66 61 74 62 67 63 73 64
REMARK SMILES IDX 68 65 69 66 70 67 71 68 72 69 8 70 9 71 10 72 11 73 12 74
REMARK SMILES IDX 13 75 14 76 15 77 16 78 39 79 17 80 19 81 18 82 20 83 21 84
REMARK SMILES IDX 38 85 22 86 30 87 29 88 23 89 24 90 28 91 25 92 27 93 26 94
REMARK SMILES IDX 31 95 32 96 36 97 33 98 35 99 37 100 34 101
REMARK H PARENT 93 25 63 36
REMARK Flexibility Score: inf
ROOT
ATOM      1  C   UNL A   1      37.948  23.226  26.283  1.00  0.00     0.188 C 
ENDROOT
BRANCH   1   2
ATOM      2  O   UNL A   1      38.544  22.071  25.688  1.00  0.00    -0.376 OA
BRANCH   2   3
ATOM      3  C   UNL A   1      39.772  21.656  26.297  1.00  0.00     0.202 C 
BRANCH   3   4
ATOM      4  C   UNL A   1      40.231  20.207  26.032  1.00  0.00     0.261 C 
BRANCH   4   5
ATOM      5  O   UNL A   1      41.615  19.956  26.332  1.00  0.00    -0.460 OA
BRANCH   5   6
ATOM      6  C   UNL A   1      42.718  20.413  25.686  1.00  0.00     0.338 C 
ATOM      7  O   UNL A   1      43.230  19.701  24.824  1.00  0.00    -0.246 OA
BRANCH   6   8
ATOM      8  C   UNL A   1      43.361  21.730  25.984  1.00  0.00     0.060 A 
ATOM      9  C   UNL A   1      44.136  21.990  27.112  1.00  0.00     0.016 A 
ATOM     10  C   UNL A   1      43.229  22.755  25.034  1.00  0.00     0.016 A 
ATOM     11  C   UNL A   1      44.668  23.241  27.363  1.00  0.00     0.010 A 
ATOM     12  C   UNL A   1      43.813  24.010  25.246  1.00  0.00     0.010 A 
ATOM     13  C   UNL A   1      44.504  24.261  26.435  1.00  0.00    -0.014 A 
BRANCH  13  14
ATOM     14  C   UNL A   1      44.950  25.607  26.832  1.00  0.00     0.031 A 
ATOM     15  C   UNL A   1      44.026  26.432  27.667  1.00  0.00     0.074 A 
ATOM     16  C   UNL A   1      46.220  25.987  26.602  1.00  0.00     0.049 A 
ATOM     17  N   UNL A   1      44.199  27.635  28.135  1.00  0.00    -0.248 NA
ATOM     18  C   UNL A   1      42.745  25.809  28.049  1.00  0.00     0.031 C 
ATOM     19  C   UNL A   1      47.233  25.155  25.952  1.00  0.00     0.029 A 
ATOM     20  N   UNL A   1      46.893  27.133  26.923  1.00  0.00    -0.354 N 
ATOM     21  C   UNL A   1      43.043  27.925  28.847  1.00  0.00     0.074 A 
ATOM     22  C   UNL A   1      42.169  26.780  28.740  1.00  0.00     0.031 C 
ATOM     23  C   UNL A   1      48.405  25.807  25.953  1.00  0.00     0.029 A 
ATOM     24  C   UNL A   1      48.200  27.138  26.496  1.00  0.00     0.049 A 
ATOM     25  H   UNL A   1      46.483  27.882  27.414  1.00  0.00     0.167 HD
ATOM     26  C   UNL A   1      42.748  29.057  29.522  1.00  0.00     0.031 A 
ATOM     27  C   UNL A   1      49.114  28.125  26.495  1.00  0.00     0.031 A 
ATOM     28  C   UNL A   1      43.638  30.182  29.582  1.00  0.00     0.049 A 
ATOM     29  C   UNL A   1      48.704  29.432  27.105  1.00  0.00     0.074 A 
ATOM     30  C   UNL A   1      43.434  31.416  30.165  1.00  0.00     0.029 A 
ATOM     31  N   UNL A   1      44.912  30.203  29.023  1.00  0.00    -0.354 N 
ATOM     32  N   UNL A   1      47.576  29.729  27.709  1.00  0.00    -0.248 NA
ATOM     33  C   UNL A   1      49.671  30.530  27.043  1.00  0.00     0.031 C 
ATOM     34  C   UNL A   1      44.559  32.205  29.904  1.00  0.00     0.029 A 
ATOM     35  C   UNL A   1      45.496  31.438  29.224  1.00  0.00     0.049 A 
ATOM     36  H   UNL A   1      45.335  29.447  28.555  1.00  0.00     0.167 HD
ATOM     37  C   UNL A   1      47.707  31.044  28.127  1.00  0.00     0.074 A 
ATOM     38  C   UNL A   1      49.030  31.477  27.717  1.00  0.00     0.031 C 
ATOM     39  C   UNL A   1      46.819  31.823  28.794  1.00  0.00     0.031 A 
BRANCH  26  40
ATOM     40  C   UNL A   1      41.382  29.141  30.145  1.00  0.00    -0.014 A 
ATOM     41  C   UNL A   1      40.287  29.695  29.458  1.00  0.00     0.010 A 
ATOM     42  C   UNL A   1      41.206  28.694  31.467  1.00  0.00     0.010 A 
ATOM     43  C   UNL A   1      39.051  29.840  30.097  1.00  0.00     0.020 A 
ATOM     44  C   UNL A   1      39.966  28.811  32.100  1.00  0.00     0.020 A 
ATOM     45  C   UNL A   1      38.901  29.400  31.415  1.00  0.00     0.054 A 
BRANCH  45  46
ATOM     46  S   UNL A   1      37.287  29.595  32.219  1.00  0.00     0.124 S 
ATOM     47  O   UNL A   1      36.369  29.445  31.092  1.00  0.00    -0.237 OA
ATOM     48  O   UNL A   1      37.279  28.499  33.186  1.00  0.00    -0.237 OA
ATOM     49  O   UNL A   1      37.346  30.934  32.799  1.00  0.00    -0.744 OA
ENDBRANCH  45  46
ENDBRANCH  26  40
BRANCH  27  50
ATOM     50  C   UNL A   1      50.439  27.933  25.837  1.00  0.00    -0.014 A 
ATOM     51  C   UNL A   1      51.597  27.661  26.585  1.00  0.00     0.010 A 
ATOM     52  C   UNL A   1      50.546  28.021  24.433  1.00  0.00     0.010 A 
ATOM     53  C   UNL A   1      52.834  27.500  25.948  1.00  0.00     0.020 A 
ATOM     54  C   UNL A   1      51.773  27.830  23.790  1.00  0.00     0.020 A 
ATOM     55  C   UNL A   1      52.914  27.583  24.554  1.00  0.00     0.054 A 
BRANCH  55  56
ATOM     56  S   UNL A   1      54.520  27.335  23.748  1.00  0.00     0.124 S 
ATOM     57  O   UNL A   1      54.759  25.913  23.974  1.00  0.00    -0.237 OA
ATOM     58  O   UNL A   1      54.239  27.720  22.368  1.00  0.00    -0.237 OA
ATOM     59  O   UNL A   1      55.408  28.243  24.471  1.00  0.00    -0.744 OA
ENDBRANCH  55  56
ENDBRANCH  27  50
BRANCH  39  60
ATOM     60  C   UNL A   1      47.278  33.204  29.157  1.00  0.00    -0.014 A 
ATOM     61  C   UNL A   1      47.066  34.293  28.295  1.00  0.00     0.010 A 
ATOM     62  C   UNL A   1      47.877  33.415  30.412  1.00  0.00     0.010 A 
ATOM     63  C   UNL A   1      47.473  35.572  28.674  1.00  0.00     0.020 A 
ATOM     64  C   UNL A   1      48.252  34.697  30.808  1.00  0.00     0.020 A 
ATOM     65  C   UNL A   1      48.060  35.766  29.930  1.00  0.00     0.054 A 
BRANCH  65  66
ATOM     66  S   UNL A   1      48.524  37.445  30.421  1.00  0.00     0.124 S 
ATOM     67  O   UNL A   1      48.343  37.398  31.870  1.00  0.00    -0.237 OA
ATOM     68  O   UNL A   1      49.908  37.540  29.963  1.00  0.00    -0.237 OA
ATOM     69  O   UNL A   1      47.576  38.292  29.702  1.00  0.00    -0.744 OA
ENDBRANCH  65  66
ENDBRANCH  39  60
ENDBRANCH  13  14
ENDBRANCH   6   8
ENDBRANCH   5   6
ENDBRANCH   4   5
ENDBRANCH   3   4
ENDBRANCH   2   3
ENDBRANCH   1   2
BRANCH   1  70
ATOM     70  C   UNL A   1      36.583  23.589  25.699  1.00  0.00     0.188 C 
BRANCH  70  71
ATOM     71  O   UNL A   1      35.422  23.234  26.445  1.00  0.00    -0.376 OA
BRANCH  71  72
ATOM     72  C   UNL A   1      34.803  21.989  26.149  1.00  0.00     0.202 C 
BRANCH  72  73
ATOM     73  C   UNL A   1      34.921  21.411  24.727  1.00  0.00     0.261 C 
BRANCH  73  74
ATOM     74  O   UNL A   1      33.816  21.685  23.857  1.00  0.00    -0.463 OA
BRANCH  74  75
ATOM     75  C   UNL A   1      33.827  22.922  23.289  1.00  0.00     0.310 C 
ATOM     76  O   UNL A   1      34.728  23.345  22.566  1.00  0.00    -0.252 OA
BRANCH  75  77
ATOM     77  C   UNL A   1      32.562  23.690  23.621  1.00  0.00     0.118 C 
ATOM     78  C   UNL A   1      31.600  22.829  24.450  1.00  0.00     0.019 C 
ATOM     79  C   UNL A   1      32.979  24.990  24.317  1.00  0.00     0.133 C 
ATOM     80  C   UNL A   1      30.507  23.649  25.147  1.00  0.00     0.022 C 
ATOM     81  N   UNL A   1      31.827  25.614  24.943  1.00  0.00    -0.356 N 
ATOM     82  C   UNL A   1      31.093  24.827  25.912  1.00  0.00     0.118 C 
BRANCH  81  83
ATOM     83  C   UNL A   1      31.743  26.979  24.931  1.00  0.00     0.133 A 
ATOM     84  C   UNL A   1      30.863  27.641  24.106  1.00  0.00     0.077 A 
ATOM     85  N   UNL A   1      32.553  27.638  25.772  1.00  0.00    -0.211 NA
ATOM     86  C   UNL A   1      30.833  29.020  24.196  1.00  0.00     0.095 A 
ATOM     87  C   UNL A   1      32.487  28.977  25.769  1.00  0.00     0.165 A 
ATOM     88  N   UNL A   1      31.644  29.709  25.027  1.00  0.00    -0.226 NA
BRANCH  86  89
ATOM     89  C   UNL A   1      29.889  29.808  23.393  1.00  0.00     0.089 A 
ATOM     90  C   UNL A   1      29.257  30.938  23.915  1.00  0.00     0.030 A 
ATOM     91  N   UNL A   1      29.636  29.355  22.138  1.00  0.00    -0.255 NA
ATOM     92  C   UNL A   1      28.337  31.624  23.127  1.00  0.00     0.004 A 
ATOM     93  C   UNL A   1      28.736  30.037  21.399  1.00  0.00     0.112 A 
ATOM     94  C   UNL A   1      28.066  31.164  21.845  1.00  0.00     0.020 A 
ENDBRANCH  86  89
BRANCH  87  95
ATOM     95  C   UNL A   1      33.477  29.682  26.575  1.00  0.00     0.055 A 
ATOM     96  C   UNL A   1      34.746  29.117  26.810  1.00  0.00     0.015 A 
ATOM     97  C   UNL A   1      33.205  30.929  27.143  1.00  0.00     0.134 A 
ATOM     98  C   UNL A   1      35.709  29.791  27.567  1.00  0.00     0.001 A 
ATOM     99  C   UNL A   1      34.157  31.604  27.908  1.00  0.00     0.040 A 
ATOM    100  F   UNL A   1      32.000  31.501  26.991  1.00  0.00    -0.206 F 
ATOM    101  C   UNL A   1      35.414  31.037  28.116  1.00  0.00     0.003 A 
ENDBRANCH  87  95
ENDBRANCH  81  83
ENDBRANCH  75  77
ENDBRANCH  74  75
ENDBRANCH  73  74
ENDBRANCH  72  73
ENDBRANCH  71  72
ENDBRANCH  70  71
ENDBRANCH   1  70
TORSDOF 23
ENDMDL
