MODEL 1
REMARK VINA RESULT:     -10.5      0.000      0.000
REMARK SMILES O=C1CC[C@@H](CC(=O)N2CCC(Oc3ccccc3)(C(=O)OCCOCCOCCOC(=O)c3ccc(-c4c5nc(c(-c6ccc(S(=O)(=O)[O-])cc6)c6ccc([nH]6)c(-c6ccc(S(=O)(=O)[O-])cc6)c6nc(c(-c7ccc(S(=O)(=O)[O-])cc7)c7ccc4[nH]7)C=C6)C=C5)cc3)CC2)N1
REMARK SMILES IDX 27 1 26 2 25 3 24 4 23 5 22 6 20 7 21 8 12 9 7 10 8 11 9 12
REMARK SMILES IDX 10 13 95 14 11 15 94 16 6 17 5 18 1 19 2 20 3 21 96 22 4 23
REMARK SMILES IDX 13 25 14 26 15 27 19 28 16 29 18 30 17 31 28 32 29 33 30 34
REMARK SMILES IDX 31 35 32 36 33 37 34 38 35 39 93 40 36 41 92 42 37 43 38 44
REMARK SMILES IDX 39 45 86 46 40 47 91 48 85 49 87 50 41 51 90 52 84 53 83 54
REMARK SMILES IDX 42 56 72 57 53 58 71 59 54 60 57 61 70 62 88 63 55 64 56 65
REMARK SMILES IDX 69 67 89 68 58 69 43 70 44 71 52 72 45 73 51 74 46 75 47 76
REMARK SMILES IDX 48 77 49 78 50 79 73 80 74 81 82 82 75 83 81 84 76 85 77 86
REMARK SMILES IDX 78 87 79 88 80 89 59 90 60 91 68 92 61 93 67 94 62 95 63 96
REMARK SMILES IDX 64 97 65 98 66 99
REMARK H PARENT 96 24 87 55 57 66
REMARK Flexibility Score: inf
ROOT
ATOM      1  C   UNL A   1      41.481  21.570  26.273  1.00  0.00     0.188 C 
ENDROOT
BRANCH   1   2
ATOM      2  C   UNL A   1      40.455  20.433  26.279  1.00  0.00     0.188 C 
BRANCH   2   3
ATOM      3  O   UNL A   1      39.180  20.672  25.704  1.00  0.00    -0.376 OA
BRANCH   3   4
ATOM      4  C   UNL A   1      38.524  21.913  25.945  1.00  0.00     0.202 C 
BRANCH   4   5
ATOM      5  C   UNL A   1      37.138  22.187  25.329  1.00  0.00     0.261 C 
BRANCH   5   6
ATOM      6  O   UNL A   1      36.105  21.190  25.555  1.00  0.00    -0.460 OA
BRANCH   6   7
ATOM      7  C   UNL A   1      34.958  21.648  26.132  1.00  0.00     0.350 C 
ATOM      8  O   UNL A   1      34.888  21.907  27.333  1.00  0.00    -0.247 OA
BRANCH   7   9
ATOM      9  C   UNL A   1      33.729  21.813  25.175  1.00  0.00     0.209 C 
ATOM     10  C   UNL A   1      33.621  25.496  22.843  1.00  0.00     0.224 C 
ATOM     11  O   UNL A   1      33.625  25.412  21.603  1.00  0.00    -0.275 OA
ATOM     12  N   UNL A   1      33.850  24.345  23.575  1.00  0.00    -0.342 N 
ATOM     13  C   UNL A   1      34.124  23.095  22.862  1.00  0.00     0.124 C 
ATOM     14  C   UNL A   1      33.915  24.283  25.001  1.00  0.00     0.124 C 
ATOM     15  C   UNL A   1      34.020  21.763  23.653  1.00  0.00     0.082 C 
ATOM     16  C   UNL A   1      33.095  23.160  25.543  1.00  0.00     0.082 C 
BRANCH  10  17
ATOM     17  C   UNL A   1      33.336  26.908  23.413  1.00  0.00     0.125 C 
BRANCH  17  18
ATOM     18  C   UNL A   1      32.321  27.421  24.446  1.00  0.00     0.091 C 
ATOM     19  O   UNL A   1      29.917  25.743  26.383  1.00  0.00    -0.275 OA
ATOM     20  C   UNL A   1      30.830  26.438  25.989  1.00  0.00     0.220 C 
ATOM     21  C   UNL A   1      31.776  27.251  26.835  1.00  0.00     0.102 C 
ATOM     22  N   UNL A   1      31.209  26.546  24.669  1.00  0.00    -0.353 N 
ATOM     23  C   UNL A   1      32.791  27.821  25.839  1.00  0.00     0.035 C 
ATOM     24  H   UNL A   1      30.756  26.062  23.941  1.00  0.00     0.163 HD
ENDBRANCH  17  18
ENDBRANCH  10  17
BRANCH   9  25
ATOM     25  O   UNL A   1      32.910  20.657  25.564  1.00  0.00    -0.475 OA
BRANCH  25  26
ATOM     26  C   UNL A   1      32.992  19.595  24.700  1.00  0.00     0.121 A 
ATOM     27  C   UNL A   1      32.187  19.562  23.556  1.00  0.00     0.046 A 
ATOM     28  C   UNL A   1      33.916  18.580  24.935  1.00  0.00     0.046 A 
ATOM     29  C   UNL A   1      32.410  18.585  22.586  1.00  0.00     0.004 A 
ATOM     30  C   UNL A   1      34.133  17.602  23.966  1.00  0.00     0.004 A 
ATOM     31  C   UNL A   1      33.395  17.617  22.782  1.00  0.00     0.000 A 
ENDBRANCH  25  26
ENDBRANCH   9  25
ENDBRANCH   7   9
ENDBRANCH   6   7
ENDBRANCH   5   6
ENDBRANCH   4   5
ENDBRANCH   3   4
ENDBRANCH   2   3
ENDBRANCH   1   2
BRANCH   1  32
ATOM     32  O   UNL A   1      42.601  21.355  25.451  1.00  0.00    -0.376 OA
BRANCH  32  33
ATOM     33  C   UNL A   1      43.704  22.232  25.535  1.00  0.00     0.202 C 
BRANCH  33  34
ATOM     34  C   UNL A   1      43.586  23.739  25.235  1.00  0.00     0.261 C 
BRANCH  34  35
ATOM     35  O   UNL A   1      43.086  24.598  26.275  1.00  0.00    -0.460 OA
BRANCH  35  36
ATOM     36  C   UNL A   1      42.699  25.847  25.911  1.00  0.00     0.338 C 
ATOM     37  O   UNL A   1      42.505  26.241  24.778  1.00  0.00    -0.246 OA
BRANCH  36  38
ATOM     38  C   UNL A   1      42.350  26.608  27.139  1.00  0.00     0.060 A 
ATOM     39  C   UNL A   1      42.870  27.892  27.282  1.00  0.00     0.016 A 
ATOM     40  C   UNL A   1      41.556  26.069  28.160  1.00  0.00     0.016 A 
ATOM     41  C   UNL A   1      42.571  28.632  28.428  1.00  0.00     0.010 A 
ATOM     42  C   UNL A   1      41.270  26.829  29.319  1.00  0.00     0.010 A 
ATOM     43  C   UNL A   1      41.765  28.131  29.460  1.00  0.00    -0.014 A 
BRANCH  43  44
ATOM     44  C   UNL A   1      41.584  28.979  30.683  1.00  0.00     0.031 A 
ATOM     45  C   UNL A   1      40.330  29.804  30.826  1.00  0.00     0.074 A 
ATOM     46  C   UNL A   1      42.404  28.886  31.752  1.00  0.00     0.049 A 
ATOM     47  N   UNL A   1      39.972  30.594  31.807  1.00  0.00    -0.248 NA
ATOM     48  C   UNL A   1      39.357  29.724  29.728  1.00  0.00     0.031 C 
ATOM     49  C   UNL A   1      43.582  28.025  31.837  1.00  0.00     0.029 A 
ATOM     50  N   UNL A   1      42.307  29.433  33.018  1.00  0.00    -0.354 N 
ATOM     51  C   UNL A   1      38.778  31.178  31.403  1.00  0.00     0.074 A 
ATOM     52  C   UNL A   1      38.433  30.585  30.128  1.00  0.00     0.031 C 
ATOM     53  C   UNL A   1      44.016  28.005  33.111  1.00  0.00     0.029 A 
ATOM     54  C   UNL A   1      43.231  28.942  33.918  1.00  0.00     0.049 A 
ATOM     55  H   UNL A   1      41.638  30.115  33.256  1.00  0.00     0.167 HD
ATOM     56  C   UNL A   1      38.070  32.165  32.005  1.00  0.00     0.031 A 
ATOM     57  C   UNL A   1      43.444  29.226  35.225  1.00  0.00     0.031 A 
ATOM     58  C   UNL A   1      38.412  32.770  33.267  1.00  0.00     0.049 A 
ATOM     59  C   UNL A   1      42.667  30.355  35.869  1.00  0.00     0.074 A 
ATOM     60  C   UNL A   1      37.806  33.845  33.896  1.00  0.00     0.029 A 
ATOM     61  N   UNL A   1      39.439  32.356  34.097  1.00  0.00    -0.354 N 
ATOM     62  N   UNL A   1      41.628  31.011  35.410  1.00  0.00    -0.248 NA
ATOM     63  C   UNL A   1      43.145  30.835  37.178  1.00  0.00     0.031 C 
ATOM     64  C   UNL A   1      38.507  34.121  35.075  1.00  0.00     0.029 A 
ATOM     65  C   UNL A   1      39.502  33.169  35.218  1.00  0.00     0.049 A 
ATOM     66  H   UNL A   1      40.039  31.595  33.918  1.00  0.00     0.167 HD
ATOM     67  C   UNL A   1      41.362  32.007  36.350  1.00  0.00     0.074 A 
ATOM     68  C   UNL A   1      42.298  31.823  37.437  1.00  0.00     0.031 C 
ATOM     69  C   UNL A   1      40.448  33.008  36.294  1.00  0.00     0.031 A 
BRANCH  56  70
ATOM     70  C   UNL A   1      36.934  32.765  31.222  1.00  0.00    -0.014 A 
ATOM     71  C   UNL A   1      35.592  32.434  31.467  1.00  0.00     0.010 A 
ATOM     72  C   UNL A   1      37.240  33.705  30.216  1.00  0.00     0.010 A 
ATOM     73  C   UNL A   1      34.576  33.004  30.691  1.00  0.00     0.020 A 
ATOM     74  C   UNL A   1      36.228  34.300  29.464  1.00  0.00     0.020 A 
ATOM     75  C   UNL A   1      34.902  33.932  29.694  1.00  0.00     0.054 A 
BRANCH  75  76
ATOM     76  S   UNL A   1      33.567  34.662  28.710  1.00  0.00     0.124 S 
ATOM     77  O   UNL A   1      33.238  33.571  27.794  1.00  0.00    -0.237 OA
ATOM     78  O   UNL A   1      32.555  34.962  29.718  1.00  0.00    -0.237 OA
ATOM     79  O   UNL A   1      34.190  35.828  28.089  1.00  0.00    -0.744 OA
ENDBRANCH  75  76
ENDBRANCH  56  70
BRANCH  57  80
ATOM     80  C   UNL A   1      44.526  28.541  36.007  1.00  0.00    -0.014 A 
ATOM     81  C   UNL A   1      44.257  27.414  36.811  1.00  0.00     0.010 A 
ATOM     82  C   UNL A   1      45.836  29.054  35.999  1.00  0.00     0.010 A 
ATOM     83  C   UNL A   1      45.269  26.825  37.583  1.00  0.00     0.020 A 
ATOM     84  C   UNL A   1      46.859  28.441  36.726  1.00  0.00     0.020 A 
ATOM     85  C   UNL A   1      46.568  27.338  37.527  1.00  0.00     0.054 A 
BRANCH  85  86
ATOM     86  S   UNL A   1      47.892  26.536  38.476  1.00  0.00     0.124 S 
ATOM     87  O   UNL A   1      48.854  27.622  38.632  1.00  0.00    -0.237 OA
ATOM     88  O   UNL A   1      47.205  26.119  39.695  1.00  0.00    -0.237 OA
ATOM     89  O   UNL A   1      48.318  25.443  37.605  1.00  0.00    -0.744 OA
ENDBRANCH  85  86
ENDBRANCH  57  80
BRANCH  69  90
ATOM     90  C   UNL A   1      40.420  34.011  37.423  1.00  0.00    -0.014 A 
ATOM     91  C   UNL A   1      41.247  35.150  37.402  1.00  0.00     0.010 A 
ATOM     92  C   UNL A   1      39.509  33.856  38.484  1.00  0.00     0.010 A 
ATOM     93  C   UNL A   1      41.180  36.099  38.428  1.00  0.00     0.020 A 
ATOM     94  C   UNL A   1      39.419  34.817  39.498  1.00  0.00     0.020 A 
ATOM     95  C   UNL A   1      40.264  35.927  39.469  1.00  0.00     0.054 A 
BRANCH  95  96
ATOM     96  S   UNL A   1      40.164  37.198  40.762  1.00  0.00     0.124 S 
ATOM     97  O   UNL A   1      40.899  38.307  40.160  1.00  0.00    -0.237 OA
ATOM     98  O   UNL A   1      38.723  37.401  40.900  1.00  0.00    -0.237 OA
ATOM     99  O   UNL A   1      40.812  36.575  41.914  1.00  0.00    -0.744 OA
ENDBRANCH  95  96
ENDBRANCH  69  90
ENDBRANCH  43  44
ENDBRANCH  36  38
ENDBRANCH  35  36
ENDBRANCH  34  35
ENDBRANCH  33  34
ENDBRANCH  32  33
ENDBRANCH   1  32
TORSDOF 24
ENDMDL
MODEL 2
REMARK VINA RESULT:     -10.1      2.778      8.244
REMARK SMILES O=C1CC[C@@H](CC(=O)N2CCC(Oc3ccccc3)(C(=O)OCCOCCOCCOC(=O)c3ccc(-c4c5nc(c(-c6ccc(S(=O)(=O)[O-])cc6)c6ccc([nH]6)c(-c6ccc(S(=O)(=O)[O-])cc6)c6nc(c(-c7ccc(S(=O)(=O)[O-])cc7)c7ccc4[nH]7)C=C6)C=C5)cc3)CC2)N1
REMARK SMILES IDX 27 1 26 2 25 3 24 4 23 5 22 6 20 7 21 8 12 9 7 10 8 11 9 12
REMARK SMILES IDX 10 13 95 14 11 15 94 16 6 17 5 18 1 19 2 20 3 21 96 22 4 23
REMARK SMILES IDX 13 25 14 26 15 27 19 28 16 29 18 30 17 31 28 32 29 33 30 34
REMARK SMILES IDX 31 35 32 36 33 37 34 38 35 39 93 40 36 41 92 42 37 43 38 44
REMARK SMILES IDX 39 45 86 46 40 47 91 48 85 49 87 50 41 51 90 52 84 53 83 54
REMARK SMILES IDX 42 56 72 57 53 58 71 59 54 60 57 61 70 62 88 63 55 64 56 65
REMARK SMILES IDX 69 67 89 68 58 69 43 70 44 71 52 72 45 73 51 74 46 75 47 76
REMARK SMILES IDX 48 77 49 78 50 79 73 80 74 81 82 82 75 83 81 84 76 85 77 86
REMARK SMILES IDX 78 87 79 88 80 89 59 90 60 91 68 92 61 93 67 94 62 95 63 96
REMARK SMILES IDX 64 97 65 98 66 99
REMARK H PARENT 96 24 87 55 57 66
REMARK Flexibility Score: inf
ROOT
ATOM      1  C   UNL A   1      33.474  26.354  25.895  1.00  0.00     0.188 C 
ENDROOT
BRANCH   1   2
ATOM      2  C   UNL A   1      34.773  25.812  25.290  1.00  0.00     0.188 C 
BRANCH   2   3
ATOM      3  O   UNL A   1      35.057  24.429  25.430  1.00  0.00    -0.376 OA
BRANCH   3   4
ATOM      4  C   UNL A   1      34.803  23.784  26.675  1.00  0.00     0.202 C 
BRANCH   4   5
ATOM      5  C   UNL A   1      34.860  22.247  26.775  1.00  0.00     0.261 C 
BRANCH   5   6
ATOM      6  O   UNL A   1      33.600  21.551  26.969  1.00  0.00    -0.460 OA
BRANCH   6   7
ATOM      7  C   UNL A   1      32.515  22.112  26.362  1.00  0.00     0.350 C 
ATOM      8  O   UNL A   1      31.779  22.908  26.943  1.00  0.00    -0.247 OA
BRANCH   7   9
ATOM      9  C   UNL A   1      32.256  21.671  24.882  1.00  0.00     0.209 C 
ATOM     10  C   UNL A   1      32.518  24.828  21.887  1.00  0.00     0.224 C 
ATOM     11  O   UNL A   1      33.362  24.718  20.982  1.00  0.00    -0.275 OA
ATOM     12  N   UNL A   1      32.566  23.931  22.938  1.00  0.00    -0.342 N 
ATOM     13  C   UNL A   1      33.627  22.921  22.958  1.00  0.00     0.124 C 
ATOM     14  C   UNL A   1      31.693  23.949  24.069  1.00  0.00     0.124 C 
ATOM     15  C   UNL A   1      33.470  21.712  23.919  1.00  0.00     0.082 C 
ATOM     16  C   UNL A   1      31.144  22.592  24.364  1.00  0.00     0.082 C 
BRANCH  10  17
ATOM     17  C   UNL A   1      31.490  25.973  21.701  1.00  0.00     0.125 C 
BRANCH  17  18
ATOM     18  C   UNL A   1      31.091  27.160  22.591  1.00  0.00     0.091 C 
ATOM     19  O   UNL A   1      29.835  30.345  21.802  1.00  0.00    -0.275 OA
ATOM     20  C   UNL A   1      30.024  29.240  22.264  1.00  0.00     0.220 C 
ATOM     21  C   UNL A   1      29.130  28.498  23.224  1.00  0.00     0.102 C 
ATOM     22  N   UNL A   1      31.081  28.426  21.920  1.00  0.00    -0.353 N 
ATOM     23  C   UNL A   1      29.782  27.119  23.370  1.00  0.00     0.035 C 
ATOM     24  H   UNL A   1      31.771  28.691  21.270  1.00  0.00     0.163 HD
ENDBRANCH  17  18
ENDBRANCH  10  17
BRANCH   9  25
ATOM     25  O   UNL A   1      31.819  20.281  25.073  1.00  0.00    -0.475 OA
BRANCH  25  26
ATOM     26  C   UNL A   1      32.539  19.362  24.353  1.00  0.00     0.121 A 
ATOM     27  C   UNL A   1      33.693  18.794  24.903  1.00  0.00     0.046 A 
ATOM     28  C   UNL A   1      32.087  18.955  23.102  1.00  0.00     0.046 A 
ATOM     29  C   UNL A   1      34.309  17.723  24.254  1.00  0.00     0.004 A 
ATOM     30  C   UNL A   1      32.706  17.888  22.453  1.00  0.00     0.004 A 
ATOM     31  C   UNL A   1      33.805  17.259  23.040  1.00  0.00     0.000 A 
ENDBRANCH  25  26
ENDBRANCH   9  25
ENDBRANCH   7   9
ENDBRANCH   6   7
ENDBRANCH   5   6
ENDBRANCH   4   5
ENDBRANCH   3   4
ENDBRANCH   2   3
ENDBRANCH   1   2
BRANCH   1  32
ATOM     32  O   UNL A   1      32.971  27.513  25.278  1.00  0.00    -0.376 OA
BRANCH  32  33
ATOM     33  C   UNL A   1      33.359  28.782  25.760  1.00  0.00     0.202 C 
BRANCH  33  34
ATOM     34  C   UNL A   1      32.536  29.553  26.811  1.00  0.00     0.261 C 
BRANCH  34  35
ATOM     35  O   UNL A   1      33.242  30.178  27.898  1.00  0.00    -0.460 OA
BRANCH  35  36
ATOM     36  C   UNL A   1      34.048  31.224  27.589  1.00  0.00     0.338 C 
ATOM     37  O   UNL A   1      33.700  32.291  27.122  1.00  0.00    -0.246 OA
BRANCH  36  38
ATOM     38  C   UNL A   1      35.411  30.936  28.107  1.00  0.00     0.060 A 
ATOM     39  C   UNL A   1      35.687  29.641  28.538  1.00  0.00     0.016 A 
ATOM     40  C   UNL A   1      36.402  31.921  28.209  1.00  0.00     0.016 A 
ATOM     41  C   UNL A   1      36.954  29.338  29.041  1.00  0.00     0.010 A 
ATOM     42  C   UNL A   1      37.679  31.600  28.728  1.00  0.00     0.010 A 
ATOM     43  C   UNL A   1      37.975  30.294  29.139  1.00  0.00    -0.014 A 
BRANCH  43  44
ATOM     44  C   UNL A   1      39.267  29.878  29.775  1.00  0.00     0.031 A 
ATOM     45  C   UNL A   1      39.596  30.372  31.160  1.00  0.00     0.074 A 
ATOM     46  C   UNL A   1      40.058  28.922  29.241  1.00  0.00     0.049 A 
ATOM     47  N   UNL A   1      40.651  30.123  31.895  1.00  0.00    -0.248 NA
ATOM     48  C   UNL A   1      38.610  31.254  31.800  1.00  0.00     0.031 C 
ATOM     49  C   UNL A   1      39.809  28.233  27.976  1.00  0.00     0.029 A 
ATOM     50  N   UNL A   1      41.171  28.280  29.750  1.00  0.00    -0.354 N 
ATOM     51  C   UNL A   1      40.502  30.890  33.043  1.00  0.00     0.074 A 
ATOM     52  C   UNL A   1      39.214  31.546  32.943  1.00  0.00     0.031 C 
ATOM     53  C   UNL A   1      40.656  27.193  27.873  1.00  0.00     0.029 A 
ATOM     54  C   UNL A   1      41.595  27.202  28.998  1.00  0.00     0.049 A 
ATOM     55  H   UNL A   1      41.623  28.567  30.576  1.00  0.00     0.167 HD
ATOM     56  C   UNL A   1      41.383  31.085  34.054  1.00  0.00     0.031 A 
ATOM     57  C   UNL A   1      42.625  26.341  29.172  1.00  0.00     0.031 A 
ATOM     58  C   UNL A   1      42.671  30.448  34.157  1.00  0.00     0.049 A 
ATOM     59  C   UNL A   1      43.617  26.595  30.287  1.00  0.00     0.074 A 
ATOM     60  C   UNL A   1      43.666  30.669  35.095  1.00  0.00     0.029 A 
ATOM     61  N   UNL A   1      43.144  29.465  33.304  1.00  0.00    -0.354 N 
ATOM     62  N   UNL A   1      43.538  27.440  31.288  1.00  0.00    -0.248 NA
ATOM     63  C   UNL A   1      44.878  25.834  30.247  1.00  0.00     0.031 C 
ATOM     64  C   UNL A   1      44.765  29.864  34.772  1.00  0.00     0.029 A 
ATOM     65  C   UNL A   1      44.425  29.087  33.678  1.00  0.00     0.049 A 
ATOM     66  H   UNL A   1      42.644  29.088  32.544  1.00  0.00     0.167 HD
ATOM     67  C   UNL A   1      44.754  27.342  31.965  1.00  0.00     0.074 A 
ATOM     68  C   UNL A   1      45.522  26.308  31.307  1.00  0.00     0.031 C 
ATOM     69  C   UNL A   1      45.207  28.075  33.012  1.00  0.00     0.031 A 
BRANCH  56  70
ATOM     70  C   UNL A   1      41.046  32.155  35.057  1.00  0.00    -0.014 A 
ATOM     71  C   UNL A   1      40.594  31.859  36.352  1.00  0.00     0.010 A 
ATOM     72  C   UNL A   1      41.206  33.502  34.675  1.00  0.00     0.010 A 
ATOM     73  C   UNL A   1      40.271  32.893  37.237  1.00  0.00     0.020 A 
ATOM     74  C   UNL A   1      40.917  34.536  35.565  1.00  0.00     0.020 A 
ATOM     75  C   UNL A   1      40.433  34.226  36.835  1.00  0.00     0.054 A 
BRANCH  75  76
ATOM     76  S   UNL A   1      40.016  35.547  38.003  1.00  0.00     0.124 S 
ATOM     77  O   UNL A   1      39.850  36.694  37.111  1.00  0.00    -0.237 OA
ATOM     78  O   UNL A   1      38.790  35.051  38.621  1.00  0.00    -0.237 OA
ATOM     79  O   UNL A   1      41.176  35.610  38.887  1.00  0.00    -0.744 OA
ENDBRANCH  75  76
ENDBRANCH  56  70
BRANCH  57  80
ATOM     80  C   UNL A   1      42.880  25.223  28.204  1.00  0.00    -0.014 A 
ATOM     81  C   UNL A   1      42.432  23.910  28.455  1.00  0.00     0.010 A 
ATOM     82  C   UNL A   1      43.635  25.457  27.040  1.00  0.00     0.010 A 
ATOM     83  C   UNL A   1      42.734  22.866  27.567  1.00  0.00     0.020 A 
ATOM     84  C   UNL A   1      43.896  24.432  26.127  1.00  0.00     0.020 A 
ATOM     85  C   UNL A   1      43.457  23.137  26.403  1.00  0.00     0.054 A 
BRANCH  85  86
ATOM     86  S   UNL A   1      43.793  21.799  25.223  1.00  0.00     0.124 S 
ATOM     87  O   UNL A   1      43.672  22.487  23.941  1.00  0.00    -0.237 OA
ATOM     88  O   UNL A   1      45.141  21.377  25.592  1.00  0.00    -0.237 OA
ATOM     89  O   UNL A   1      42.743  20.824  25.510  1.00  0.00    -0.744 OA
ENDBRANCH  85  86
ENDBRANCH  57  80
BRANCH  69  90
ATOM     90  C   UNL A   1      46.609  27.816  33.510  1.00  0.00    -0.014 A 
ATOM     91  C   UNL A   1      47.703  28.546  33.007  1.00  0.00     0.010 A 
ATOM     92  C   UNL A   1      46.832  26.887  34.543  1.00  0.00     0.010 A 
ATOM     93  C   UNL A   1      48.992  28.334  33.509  1.00  0.00     0.020 A 
ATOM     94  C   UNL A   1      48.115  26.692  35.067  1.00  0.00     0.020 A 
ATOM     95  C   UNL A   1      49.189  27.409  34.538  1.00  0.00     0.054 A 
BRANCH  95  96
ATOM     96  S   UNL A   1      50.865  27.188  35.204  1.00  0.00     0.124 S 
ATOM     97  O   UNL A   1      50.686  27.547  36.608  1.00  0.00    -0.237 OA
ATOM     98  O   UNL A   1      51.129  25.775  34.944  1.00  0.00    -0.237 OA
ATOM     99  O   UNL A   1      51.675  28.120  34.422  1.00  0.00    -0.744 OA
ENDBRANCH  95  96
ENDBRANCH  69  90
ENDBRANCH  43  44
ENDBRANCH  36  38
ENDBRANCH  35  36
ENDBRANCH  34  35
ENDBRANCH  33  34
ENDBRANCH  32  33
ENDBRANCH   1  32
TORSDOF 24
ENDMDL
MODEL 3
REMARK VINA RESULT:      -9.8      2.387      9.285
REMARK SMILES O=C1CC[C@@H](CC(=O)N2CCC(Oc3ccccc3)(C(=O)OCCOCCOCCOC(=O)c3ccc(-c4c5nc(c(-c6ccc(S(=O)(=O)[O-])cc6)c6ccc([nH]6)c(-c6ccc(S(=O)(=O)[O-])cc6)c6nc(c(-c7ccc(S(=O)(=O)[O-])cc7)c7ccc4[nH]7)C=C6)C=C5)cc3)CC2)N1
REMARK SMILES IDX 27 1 26 2 25 3 24 4 23 5 22 6 20 7 21 8 12 9 7 10 8 11 9 12
REMARK SMILES IDX 10 13 95 14 11 15 94 16 6 17 5 18 1 19 2 20 3 21 96 22 4 23
REMARK SMILES IDX 13 25 14 26 15 27 19 28 16 29 18 30 17 31 28 32 29 33 30 34
REMARK SMILES IDX 31 35 32 36 33 37 34 38 35 39 93 40 36 41 92 42 37 43 38 44
REMARK SMILES IDX 39 45 86 46 40 47 91 48 85 49 87 50 41 51 90 52 84 53 83 54
REMARK SMILES IDX 42 56 72 57 53 58 71 59 54 60 57 61 70 62 88 63 55 64 56 65
REMARK SMILES IDX 69 67 89 68 58 69 43 70 44 71 52 72 45 73 51 74 46 75 47 76
REMARK SMILES IDX 48 77 49 78 50 79 73 80 74 81 82 82 75 83 81 84 76 85 77 86
REMARK SMILES IDX 78 87 79 88 80 89 59 90 60 91 68 92 61 93 67 94 62 95 63 96
REMARK SMILES IDX 64 97 65 98 66 99
REMARK H PARENT 96 24 87 55 57 66
REMARK Flexibility Score: inf
ROOT
ATOM      1  C   UNL A   1      31.840  31.245  26.909  1.00  0.00     0.188 C 
ENDROOT
BRANCH   1   2
ATOM      2  C   UNL A   1      33.106  30.403  27.095  1.00  0.00     0.188 C 
BRANCH   2   3
ATOM      3  O   UNL A   1      32.988  28.990  27.061  1.00  0.00    -0.376 OA
BRANCH   3   4
ATOM      4  C   UNL A   1      33.910  28.228  26.289  1.00  0.00     0.202 C 
BRANCH   4   5
ATOM      5  C   UNL A   1      34.051  28.486  24.776  1.00  0.00     0.261 C 
BRANCH   5   6
ATOM      6  O   UNL A   1      32.834  28.781  24.039  1.00  0.00    -0.460 OA
BRANCH   6   7
ATOM      7  C   UNL A   1      32.549  27.936  23.007  1.00  0.00     0.350 C 
ATOM      8  O   UNL A   1      33.231  27.900  21.984  1.00  0.00    -0.247 OA
BRANCH   7   9
ATOM      9  C   UNL A   1      31.292  27.022  23.198  1.00  0.00     0.209 C 
ATOM     10  C   UNL A   1      31.704  23.817  26.125  1.00  0.00     0.224 C 
ATOM     11  O   UNL A   1      30.933  23.802  27.099  1.00  0.00    -0.275 OA
ATOM     12  N   UNL A   1      31.701  24.932  25.307  1.00  0.00    -0.342 N 
ATOM     13  C   UNL A   1      30.824  26.056  25.646  1.00  0.00     0.124 C 
ATOM     14  C   UNL A   1      32.551  25.117  24.174  1.00  0.00     0.124 C 
ATOM     15  C   UNL A   1      30.553  27.128  24.557  1.00  0.00     0.082 C 
ATOM     16  C   UNL A   1      31.786  25.586  22.981  1.00  0.00     0.082 C 
BRANCH  10  17
ATOM     17  C   UNL A   1      32.571  22.545  25.944  1.00  0.00     0.125 C 
BRANCH  17  18
ATOM     18  C   UNL A   1      33.995  22.191  26.399  1.00  0.00     0.091 C 
ATOM     19  O   UNL A   1      36.369  19.953  25.095  1.00  0.00    -0.275 OA
ATOM     20  C   UNL A   1      35.786  20.924  25.528  1.00  0.00     0.220 C 
ATOM     21  C   UNL A   1      36.330  22.325  25.647  1.00  0.00     0.102 C 
ATOM     22  N   UNL A   1      34.468  20.923  25.930  1.00  0.00    -0.353 N 
ATOM     23  C   UNL A   1      35.141  23.160  26.133  1.00  0.00     0.035 C 
ATOM     24  H   UNL A   1      33.900  20.119  25.897  1.00  0.00     0.163 HD
ENDBRANCH  17  18
ENDBRANCH  10  17
BRANCH   9  25
ATOM     25  O   UNL A   1      30.422  27.508  22.119  1.00  0.00    -0.475 OA
BRANCH  25  26
ATOM     26  C   UNL A   1      29.544  28.490  22.504  1.00  0.00     0.121 A 
ATOM     27  C   UNL A   1      29.859  29.834  22.281  1.00  0.00     0.046 A 
ATOM     28  C   UNL A   1      28.318  28.142  23.063  1.00  0.00     0.046 A 
ATOM     29  C   UNL A   1      28.888  30.813  22.493  1.00  0.00     0.004 A 
ATOM     30  C   UNL A   1      27.351  29.122  23.279  1.00  0.00     0.004 A 
ATOM     31  C   UNL A   1      27.629  30.455  22.974  1.00  0.00     0.000 A 
ENDBRANCH  25  26
ENDBRANCH   9  25
ENDBRANCH   7   9
ENDBRANCH   6   7
ENDBRANCH   5   6
ENDBRANCH   4   5
ENDBRANCH   3   4
ENDBRANCH   2   3
ENDBRANCH   1   2
BRANCH   1  32
ATOM     32  O   UNL A   1      32.042  32.636  26.938  1.00  0.00    -0.376 OA
BRANCH  32  33
ATOM     33  C   UNL A   1      33.009  33.181  27.811  1.00  0.00     0.202 C 
BRANCH  33  34
ATOM     34  C   UNL A   1      32.845  34.567  28.464  1.00  0.00     0.261 C 
BRANCH  34  35
ATOM     35  O   UNL A   1      33.865  35.010  29.377  1.00  0.00    -0.460 OA
BRANCH  35  36
ATOM     36  C   UNL A   1      33.573  34.959  30.700  1.00  0.00     0.338 C 
ATOM     37  O   UNL A   1      32.529  35.298  31.223  1.00  0.00    -0.246 OA
BRANCH  36  38
ATOM     38  C   UNL A   1      34.664  34.228  31.396  1.00  0.00     0.060 A 
ATOM     39  C   UNL A   1      35.939  34.787  31.379  1.00  0.00     0.016 A 
ATOM     40  C   UNL A   1      34.462  32.994  32.026  1.00  0.00     0.016 A 
ATOM     41  C   UNL A   1      36.991  34.122  32.013  1.00  0.00     0.010 A 
ATOM     42  C   UNL A   1      35.540  32.328  32.657  1.00  0.00     0.010 A 
ATOM     43  C   UNL A   1      36.820  32.895  32.670  1.00  0.00    -0.014 A 
BRANCH  43  44
ATOM     44  C   UNL A   1      38.036  32.229  33.239  1.00  0.00     0.031 A 
ATOM     45  C   UNL A   1      38.849  31.310  32.363  1.00  0.00     0.074 A 
ATOM     46  C   UNL A   1      38.547  32.569  34.443  1.00  0.00     0.049 A 
ATOM     47  N   UNL A   1      39.939  30.645  32.654  1.00  0.00    -0.248 NA
ATOM     48  C   UNL A   1      38.375  31.120  30.985  1.00  0.00     0.031 C 
ATOM     49  C   UNL A   1      37.966  33.551  35.356  1.00  0.00     0.029 A 
ATOM     50  N   UNL A   1      39.734  32.214  35.055  1.00  0.00    -0.354 N 
ATOM     51  C   UNL A   1      40.229  29.885  31.528  1.00  0.00     0.074 A 
ATOM     52  C   UNL A   1      39.249  30.238  30.522  1.00  0.00     0.031 C 
ATOM     53  C   UNL A   1      38.851  33.810  36.337  1.00  0.00     0.029 A 
ATOM     54  C   UNL A   1      40.015  32.930  36.202  1.00  0.00     0.049 A 
ATOM     55  H   UNL A   1      40.327  31.511  34.705  1.00  0.00     0.167 HD
ATOM     56  C   UNL A   1      41.181  28.933  31.369  1.00  0.00     0.031 A 
ATOM     57  C   UNL A   1      41.063  32.872  37.058  1.00  0.00     0.031 A 
ATOM     58  C   UNL A   1      42.152  28.567  32.368  1.00  0.00     0.049 A 
ATOM     59  C   UNL A   1      42.097  31.781  36.882  1.00  0.00     0.074 A 
ATOM     60  C   UNL A   1      43.084  27.543  32.324  1.00  0.00     0.029 A 
ATOM     61  N   UNL A   1      42.327  29.207  33.583  1.00  0.00    -0.354 N 
ATOM     62  N   UNL A   1      42.268  30.957  35.876  1.00  0.00    -0.248 NA
ATOM     63  C   UNL A   1      43.031  31.558  38.000  1.00  0.00     0.031 C 
ATOM     64  C   UNL A   1      43.779  27.525  33.539  1.00  0.00     0.029 A 
ATOM     65  C   UNL A   1      43.332  28.586  34.308  1.00  0.00     0.049 A 
ATOM     66  H   UNL A   1      41.813  29.990  33.888  1.00  0.00     0.167 HD
ATOM     67  C   UNL A   1      43.295  30.094  36.261  1.00  0.00     0.074 A 
ATOM     68  C   UNL A   1      43.756  30.538  37.557  1.00  0.00     0.031 C 
ATOM     69  C   UNL A   1      43.781  29.007  35.612  1.00  0.00     0.031 A 
BRANCH  56  70
ATOM     70  C   UNL A   1      41.116  28.106  30.114  1.00  0.00    -0.014 A 
ATOM     71  C   UNL A   1      40.059  27.221  29.849  1.00  0.00     0.010 A 
ATOM     72  C   UNL A   1      42.153  28.243  29.170  1.00  0.00     0.010 A 
ATOM     73  C   UNL A   1      40.061  26.458  28.676  1.00  0.00     0.020 A 
ATOM     74  C   UNL A   1      42.142  27.509  27.985  1.00  0.00     0.020 A 
ATOM     75  C   UNL A   1      41.105  26.605  27.754  1.00  0.00     0.054 A 
BRANCH  75  76
ATOM     76  S   UNL A   1      41.079  25.612  26.239  1.00  0.00     0.124 S 
ATOM     77  O   UNL A   1      39.744  25.019  26.291  1.00  0.00    -0.237 OA
ATOM     78  O   UNL A   1      41.281  26.614  25.196  1.00  0.00    -0.237 OA
ATOM     79  O   UNL A   1      42.183  24.673  26.419  1.00  0.00    -0.744 OA
ENDBRANCH  75  76
ENDBRANCH  56  70
BRANCH  57  80
ATOM     80  C   UNL A   1      41.147  33.778  38.251  1.00  0.00    -0.014 A 
ATOM     81  C   UNL A   1      41.855  34.996  38.207  1.00  0.00     0.010 A 
ATOM     82  C   UNL A   1      40.562  33.393  39.471  1.00  0.00     0.010 A 
ATOM     83  C   UNL A   1      41.975  35.799  39.351  1.00  0.00     0.020 A 
ATOM     84  C   UNL A   1      40.634  34.213  40.600  1.00  0.00     0.020 A 
ATOM     85  C   UNL A   1      41.353  35.406  40.539  1.00  0.00     0.054 A 
BRANCH  85  86
ATOM     86  S   UNL A   1      41.454  36.476  42.002  1.00  0.00     0.124 S 
ATOM     87  O   UNL A   1      42.714  36.051  42.604  1.00  0.00    -0.237 OA
ATOM     88  O   UNL A   1      41.449  37.815  41.421  1.00  0.00    -0.237 OA
ATOM     89  O   UNL A   1      40.252  36.129  42.757  1.00  0.00    -0.744 OA
ENDBRANCH  85  86
ENDBRANCH  57  80
BRANCH  69  90
ATOM     90  C   UNL A   1      44.853  28.191  36.294  1.00  0.00    -0.014 A 
ATOM     91  C   UNL A   1      44.518  27.102  37.122  1.00  0.00     0.010 A 
ATOM     92  C   UNL A   1      46.212  28.464  36.052  1.00  0.00     0.010 A 
ATOM     93  C   UNL A   1      45.519  26.321  37.712  1.00  0.00     0.020 A 
ATOM     94  C   UNL A   1      47.215  27.669  36.616  1.00  0.00     0.020 A 
ATOM     95  C   UNL A   1      46.862  26.609  37.453  1.00  0.00     0.054 A 
BRANCH  95  96
ATOM     96  S   UNL A   1      48.139  25.549  38.191  1.00  0.00     0.124 S 
ATOM     97  O   UNL A   1      48.734  26.436  39.187  1.00  0.00    -0.237 OA
ATOM     98  O   UNL A   1      47.359  24.435  38.727  1.00  0.00    -0.237 OA
ATOM     99  O   UNL A   1      49.005  25.210  37.064  1.00  0.00    -0.744 OA
ENDBRANCH  95  96
ENDBRANCH  69  90
ENDBRANCH  43  44
ENDBRANCH  36  38
ENDBRANCH  35  36
ENDBRANCH  34  35
ENDBRANCH  33  34
ENDBRANCH  32  33
ENDBRANCH   1  32
TORSDOF 24
ENDMDL
