MODEL 1
REMARK VINA RESULT:      -9.5      0.000      0.000
REMARK SMILES CC[C@H](Oc1ccccc1/C=C1\SC(N)=[NH+]C1=O)C(=O)OCCOCCOCCOC(=O)c1ccc(-c2c3nc(c(-c4ccc(S(=O)(=O)[O-])cc4)c4ccc([nH]4)c(-c4ccc(S(=O)(=O)[O-])cc4)c4nc(c(-c5ccc(S(=O)(=O)[O-])cc5)c5ccc2[nH]5)C=C4)C=C3)cc1
REMARK SMILES IDX 25 1 24 2 23 3 22 4 21 5 19 6 20 7 3 8 2 9 1 10 4 11 5 12
REMARK SMILES IDX 6 13 10 14 7 15 9 16 8 17 11 18 12 19 13 20 17 21 14 22
REMARK SMILES IDX 16 23 18 24 15 25 26 29 27 30 28 31 29 32 30 33 31 34 32 35
REMARK SMILES IDX 33 36 34 37 92 38 35 39 91 40 36 41 37 42 38 43 85 44 39 45
REMARK SMILES IDX 90 46 84 47 86 48 40 49 89 50 83 51 82 52 41 54 71 55 52 56
REMARK SMILES IDX 70 57 53 58 56 59 69 60 87 61 54 62 55 63 68 65 88 66 57 67
REMARK SMILES IDX 42 68 43 69 51 70 44 71 50 72 45 73 46 74 47 75 48 76 49 77
REMARK SMILES IDX 72 78 73 79 81 80 74 81 80 82 75 83 76 84 77 85 78 86 79 87
REMARK SMILES IDX 58 88 59 89 67 90 60 91 66 92 61 93 62 94 63 95 64 96 65 97
REMARK H PARENT 16 26 15 27 15 28 86 53 56 64
REMARK Flexibility Score: inf
ROOT
ATOM      1  C   UNL A   1      41.150  21.561  26.691  1.00  0.00     0.188 C 
ENDROOT
BRANCH   1   2
ATOM      2  O   UNL A   1      40.279  22.203  27.591  1.00  0.00    -0.376 OA
BRANCH   2   3
ATOM      3  C   UNL A   1      39.657  23.429  27.257  1.00  0.00     0.202 C 
BRANCH   3   4
ATOM      4  C   UNL A   1      38.761  23.703  26.035  1.00  0.00     0.261 C 
BRANCH   4   5
ATOM      5  O   UNL A   1      37.337  23.713  26.177  1.00  0.00    -0.461 OA
BRANCH   5   6
ATOM      6  C   UNL A   1      36.687  22.606  25.717  1.00  0.00     0.347 C 
ATOM      7  O   UNL A   1      37.260  21.626  25.248  1.00  0.00    -0.248 OA
BRANCH   6   8
ATOM      8  C   UNL A   1      35.143  22.747  25.720  1.00  0.00     0.282 C 
BRANCH   8   9
ATOM      9  C   UNL A   1      34.765  22.051  27.051  1.00  0.00     0.054 C 
ATOM     10  C   UNL A   1      33.358  22.185  27.597  1.00  0.00     0.008 C 
ENDBRANCH   8   9
BRANCH   8  11
ATOM     11  O   UNL A   1      34.520  22.227  24.537  1.00  0.00    -0.478 OA
BRANCH  11  12
ATOM     12  C   UNL A   1      33.422  22.851  23.995  1.00  0.00     0.127 A 
ATOM     13  C   UNL A   1      33.264  24.240  23.955  1.00  0.00     0.047 A 
ATOM     14  C   UNL A   1      32.356  22.059  23.520  1.00  0.00     0.018 A 
ATOM     15  C   UNL A   1      32.009  24.818  23.734  1.00  0.00     0.004 A 
ATOM     16  C   UNL A   1      31.093  22.648  23.315  1.00  0.00     0.012 A 
ATOM     17  C   UNL A   1      30.908  24.016  23.479  1.00  0.00     0.001 A 
BRANCH  14  18
ATOM     18  C   UNL A   1      32.470  20.680  23.023  1.00  0.00     0.036 C 
ATOM     19  C   UNL A   1      32.526  19.527  23.693  1.00  0.00     0.110 C 
ATOM     20  S   UNL A   1      32.558  19.264  25.383  1.00  0.00     0.006 SA
ATOM     21  C   UNL A   1      32.555  18.209  22.977  1.00  0.00     0.346 C 
ATOM     22  C   UNL A   1      32.858  17.577  25.072  1.00  0.00     0.314 C 
ATOM     23  N   UNL A   1      32.789  17.168  23.854  1.00  0.00    -0.200 N 
ATOM     24  O   UNL A   1      32.350  18.080  21.782  1.00  0.00    -0.240 OA
ATOM     25  N   UNL A   1      33.165  16.800  26.128  1.00  0.00    -0.281 N 
ATOM     26  H   UNL A   1      32.891  16.227  23.580  1.00  0.00     0.316 HD
ATOM     27  H   UNL A   1      33.197  17.189  27.032  1.00  0.00     0.302 HD
ATOM     28  H   UNL A   1      33.356  15.843  25.997  1.00  0.00     0.302 HD
ENDBRANCH  14  18
ENDBRANCH  11  12
ENDBRANCH   8  11
ENDBRANCH   6   8
ENDBRANCH   5   6
ENDBRANCH   4   5
ENDBRANCH   3   4
ENDBRANCH   2   3
ENDBRANCH   1   2
BRANCH   1  29
ATOM     29  C   UNL A   1      40.701  20.196  26.146  1.00  0.00     0.188 C 
BRANCH  29  30
ATOM     30  O   UNL A   1      41.609  19.378  25.431  1.00  0.00    -0.376 OA
BRANCH  30  31
ATOM     31  C   UNL A   1      42.705  18.802  26.126  1.00  0.00     0.202 C 
BRANCH  31  32
ATOM     32  C   UNL A   1      43.890  18.200  25.360  1.00  0.00     0.261 C 
BRANCH  32  33
ATOM     33  O   UNL A   1      44.993  19.093  25.162  1.00  0.00    -0.460 OA
BRANCH  33  34
ATOM     34  C   UNL A   1      44.814  20.018  24.183  1.00  0.00     0.338 C 
ATOM     35  O   UNL A   1      44.544  19.819  23.014  1.00  0.00    -0.246 OA
BRANCH  34  36
ATOM     36  C   UNL A   1      44.783  21.359  24.794  1.00  0.00     0.060 A 
ATOM     37  C   UNL A   1      44.345  22.445  24.020  1.00  0.00     0.016 A 
ATOM     38  C   UNL A   1      45.209  21.542  26.107  1.00  0.00     0.016 A 
ATOM     39  C   UNL A   1      44.348  23.728  24.558  1.00  0.00     0.010 A 
ATOM     40  C   UNL A   1      45.240  22.831  26.634  1.00  0.00     0.010 A 
ATOM     41  C   UNL A   1      44.838  23.930  25.852  1.00  0.00    -0.014 A 
BRANCH  41  42
ATOM     42  C   UNL A   1      45.116  25.301  26.334  1.00  0.00     0.031 A 
ATOM     43  C   UNL A   1      46.468  25.892  26.049  1.00  0.00     0.074 A 
ATOM     44  C   UNL A   1      44.192  25.994  27.021  1.00  0.00     0.049 A 
ATOM     45  N   UNL A   1      46.978  27.024  26.453  1.00  0.00    -0.248 NA
ATOM     46  C   UNL A   1      47.368  25.092  25.200  1.00  0.00     0.031 C 
ATOM     47  C   UNL A   1      42.831  25.541  27.307  1.00  0.00     0.029 A 
ATOM     48  N   UNL A   1      44.271  27.227  27.616  1.00  0.00    -0.354 N 
ATOM     49  C   UNL A   1      48.265  27.064  25.929  1.00  0.00     0.074 A 
ATOM     50  C   UNL A   1      48.466  25.833  25.197  1.00  0.00     0.031 C 
ATOM     51  C   UNL A   1      42.205  26.482  28.036  1.00  0.00     0.029 A 
ATOM     52  C   UNL A   1      43.134  27.579  28.303  1.00  0.00     0.049 A 
ATOM     53  H   UNL A   1      45.065  27.805  27.556  1.00  0.00     0.167 HD
ATOM     54  C   UNL A   1      49.195  28.040  26.050  1.00  0.00     0.031 A 
ATOM     55  C   UNL A   1      42.887  28.651  29.081  1.00  0.00     0.031 A 
ATOM     56  C   UNL A   1      48.987  29.253  26.794  1.00  0.00     0.049 A 
ATOM     57  C   UNL A   1      43.967  29.686  29.267  1.00  0.00     0.074 A 
ATOM     58  C   UNL A   1      49.856  30.315  26.964  1.00  0.00     0.029 A 
ATOM     59  N   UNL A   1      47.834  29.560  27.502  1.00  0.00    -0.354 N 
ATOM     60  N   UNL A   1      45.172  29.726  28.748  1.00  0.00    -0.248 NA
ATOM     61  C   UNL A   1      43.651  30.826  30.140  1.00  0.00     0.031 C 
ATOM     62  C   UNL A   1      49.255  31.233  27.830  1.00  0.00     0.029 A 
ATOM     63  C   UNL A   1      47.981  30.781  28.138  1.00  0.00     0.049 A 
ATOM     64  H   UNL A   1      47.030  28.993  27.546  1.00  0.00     0.167 HD
ATOM     65  C   UNL A   1      45.743  30.911  29.202  1.00  0.00     0.074 A 
ATOM     66  C   UNL A   1      44.747  31.563  30.027  1.00  0.00     0.031 C 
ATOM     67  C   UNL A   1      46.977  31.417  28.954  1.00  0.00     0.031 A 
BRANCH  54  68
ATOM     68  C   UNL A   1      50.534  27.813  25.400  1.00  0.00    -0.014 A 
ATOM     69  C   UNL A   1      50.799  28.252  24.091  1.00  0.00     0.010 A 
ATOM     70  C   UNL A   1      51.560  27.185  26.131  1.00  0.00     0.010 A 
ATOM     71  C   UNL A   1      52.054  28.037  23.513  1.00  0.00     0.020 A 
ATOM     72  C   UNL A   1      52.826  26.996  25.568  1.00  0.00     0.020 A 
ATOM     73  C   UNL A   1      53.059  27.413  24.256  1.00  0.00     0.054 A 
BRANCH  73  74
ATOM     74  S   UNL A   1      54.689  27.182  23.494  1.00  0.00     0.124 S 
ATOM     75  O   UNL A   1      55.105  28.560  23.247  1.00  0.00    -0.237 OA
ATOM     76  O   UNL A   1      55.431  26.480  24.539  1.00  0.00    -0.237 OA
ATOM     77  O   UNL A   1      54.406  26.392  22.298  1.00  0.00    -0.744 OA
ENDBRANCH  73  74
ENDBRANCH  54  68
BRANCH  55  78
ATOM     78  C   UNL A   1      41.566  28.797  29.755  1.00  0.00    -0.014 A 
ATOM     79  C   UNL A   1      41.347  28.236  31.025  1.00  0.00     0.010 A 
ATOM     80  C   UNL A   1      40.518  29.497  29.129  1.00  0.00     0.010 A 
ATOM     81  C   UNL A   1      40.100  28.354  31.648  1.00  0.00     0.020 A 
ATOM     82  C   UNL A   1      39.280  29.647  29.762  1.00  0.00     0.020 A 
ATOM     83  C   UNL A   1      39.076  29.064  31.014  1.00  0.00     0.054 A 
BRANCH  83  84
ATOM     84  S   UNL A   1      37.484  29.245  31.865  1.00  0.00     0.124 S 
ATOM     85  O   UNL A   1      36.532  29.008  30.785  1.00  0.00    -0.237 OA
ATOM     86  O   UNL A   1      37.556  28.203  32.887  1.00  0.00    -0.237 OA
ATOM     87  O   UNL A   1      37.523  30.613  32.377  1.00  0.00    -0.744 OA
ENDBRANCH  83  84
ENDBRANCH  55  78
BRANCH  67  88
ATOM     88  C   UNL A   1      47.309  32.765  29.541  1.00  0.00    -0.014 A 
ATOM     89  C   UNL A   1      47.007  33.959  28.863  1.00  0.00     0.010 A 
ATOM     90  C   UNL A   1      47.878  32.835  30.827  1.00  0.00     0.010 A 
ATOM     91  C   UNL A   1      47.299  35.196  29.445  1.00  0.00     0.020 A 
ATOM     92  C   UNL A   1      48.141  34.069  31.427  1.00  0.00     0.020 A 
ATOM     93  C   UNL A   1      47.863  35.242  30.725  1.00  0.00     0.054 A 
BRANCH  93  94
ATOM     94  S   UNL A   1      48.192  36.861  31.474  1.00  0.00     0.124 S 
ATOM     95  O   UNL A   1      49.541  37.150  30.995  1.00  0.00    -0.237 OA
ATOM     96  O   UNL A   1      47.132  37.695  30.913  1.00  0.00    -0.237 OA
ATOM     97  O   UNL A   1      48.083  36.608  32.910  1.00  0.00    -0.744 OA
ENDBRANCH  93  94
ENDBRANCH  67  88
ENDBRANCH  41  42
ENDBRANCH  34  36
ENDBRANCH  33  34
ENDBRANCH  32  33
ENDBRANCH  31  32
ENDBRANCH  30  31
ENDBRANCH  29  30
ENDBRANCH   1  29
TORSDOF 24
ENDMDL
MODEL 2
REMARK VINA RESULT:      -9.4      5.262      6.410
REMARK SMILES CC[C@H](Oc1ccccc1/C=C1\SC(N)=[NH+]C1=O)C(=O)OCCOCCOCCOC(=O)c1ccc(-c2c3nc(c(-c4ccc(S(=O)(=O)[O-])cc4)c4ccc([nH]4)c(-c4ccc(S(=O)(=O)[O-])cc4)c4nc(c(-c5ccc(S(=O)(=O)[O-])cc5)c5ccc2[nH]5)C=C4)C=C3)cc1
REMARK SMILES IDX 25 1 24 2 23 3 22 4 21 5 19 6 20 7 3 8 2 9 1 10 4 11 5 12
REMARK SMILES IDX 6 13 10 14 7 15 9 16 8 17 11 18 12 19 13 20 17 21 14 22
REMARK SMILES IDX 16 23 18 24 15 25 26 29 27 30 28 31 29 32 30 33 31 34 32 35
REMARK SMILES IDX 33 36 34 37 92 38 35 39 91 40 36 41 37 42 38 43 85 44 39 45
REMARK SMILES IDX 90 46 84 47 86 48 40 49 89 50 83 51 82 52 41 54 71 55 52 56
REMARK SMILES IDX 70 57 53 58 56 59 69 60 87 61 54 62 55 63 68 65 88 66 57 67
REMARK SMILES IDX 42 68 43 69 51 70 44 71 50 72 45 73 46 74 47 75 48 76 49 77
REMARK SMILES IDX 72 78 73 79 81 80 74 81 80 82 75 83 76 84 77 85 78 86 79 87
REMARK SMILES IDX 58 88 59 89 67 90 60 91 66 92 61 93 62 94 63 95 64 96 65 97
REMARK H PARENT 16 26 15 27 15 28 86 53 56 64
REMARK Flexibility Score: inf
ROOT
ATOM      1  C   UNL A   1      41.593  18.813  26.346  1.00  0.00     0.188 C 
ENDROOT
BRANCH   1   2
ATOM      2  O   UNL A   1      41.090  19.983  26.943  1.00  0.00    -0.376 OA
BRANCH   2   3
ATOM      3  C   UNL A   1      40.698  21.093  26.159  1.00  0.00     0.202 C 
BRANCH   3   4
ATOM      4  C   UNL A   1      39.596  22.115  26.497  1.00  0.00     0.261 C 
BRANCH   4   5
ATOM      5  O   UNL A   1      38.301  21.997  25.899  1.00  0.00    -0.461 OA
BRANCH   5   6
ATOM      6  C   UNL A   1      37.502  23.097  25.991  1.00  0.00     0.347 C 
ATOM      7  O   UNL A   1      37.865  24.163  26.484  1.00  0.00    -0.248 OA
BRANCH   6   8
ATOM      8  C   UNL A   1      36.043  22.846  25.532  1.00  0.00     0.282 C 
BRANCH   8   9
ATOM      9  C   UNL A   1      36.258  22.149  24.166  1.00  0.00     0.054 C 
ATOM     10  C   UNL A   1      36.353  22.982  22.903  1.00  0.00     0.008 C 
ENDBRANCH   8   9
BRANCH   8  11
ATOM     11  O   UNL A   1      35.237  24.032  25.516  1.00  0.00    -0.478 OA
BRANCH  11  12
ATOM     12  C   UNL A   1      33.889  23.963  25.779  1.00  0.00     0.127 A 
ATOM     13  C   UNL A   1      33.347  23.255  26.856  1.00  0.00     0.047 A 
ATOM     14  C   UNL A   1      32.990  24.571  24.879  1.00  0.00     0.018 A 
ATOM     15  C   UNL A   1      31.992  22.911  26.886  1.00  0.00     0.004 A 
ATOM     16  C   UNL A   1      31.629  24.208  24.907  1.00  0.00     0.012 A 
ATOM     17  C   UNL A   1      31.144  23.335  25.873  1.00  0.00     0.001 A 
BRANCH  14  18
ATOM     18  C   UNL A   1      33.294  25.717  24.008  1.00  0.00     0.036 C 
ATOM     19  C   UNL A   1      33.233  27.026  24.257  1.00  0.00     0.110 C 
ATOM     20  S   UNL A   1      32.700  27.829  25.671  1.00  0.00     0.006 SA
ATOM     21  C   UNL A   1      33.678  28.036  23.241  1.00  0.00     0.346 C 
ATOM     22  C   UNL A   1      32.828  29.338  24.810  1.00  0.00     0.314 C 
ATOM     23  N   UNL A   1      33.362  29.320  23.640  1.00  0.00    -0.200 N 
ATOM     24  O   UNL A   1      34.280  27.752  22.220  1.00  0.00    -0.240 OA
ATOM     25  N   UNL A   1      32.339  30.437  25.416  1.00  0.00    -0.281 N 
ATOM     26  H   UNL A   1      33.527  30.124  23.095  1.00  0.00     0.316 HD
ATOM     27  H   UNL A   1      31.944  30.368  26.315  1.00  0.00     0.302 HD
ATOM     28  H   UNL A   1      32.377  31.309  24.961  1.00  0.00     0.302 HD
ENDBRANCH  14  18
ENDBRANCH  11  12
ENDBRANCH   8  11
ENDBRANCH   6   8
ENDBRANCH   5   6
ENDBRANCH   4   5
ENDBRANCH   3   4
ENDBRANCH   2   3
ENDBRANCH   1   2
BRANCH   1  29
ATOM     29  C   UNL A   1      43.064  18.466  26.627  1.00  0.00     0.188 C 
BRANCH  29  30
ATOM     30  O   UNL A   1      43.903  18.008  25.582  1.00  0.00    -0.376 OA
BRANCH  30  31
ATOM     31  C   UNL A   1      44.368  18.942  24.619  1.00  0.00     0.202 C 
BRANCH  31  32
ATOM     32  C   UNL A   1      44.785  20.358  25.038  1.00  0.00     0.261 C 
BRANCH  32  33
ATOM     33  O   UNL A   1      43.814  21.376  24.763  1.00  0.00    -0.460 OA
BRANCH  33  34
ATOM     34  C   UNL A   1      44.330  22.576  24.393  1.00  0.00     0.338 C 
ATOM     35  O   UNL A   1      44.867  22.861  23.339  1.00  0.00    -0.246 OA
BRANCH  34  36
ATOM     36  C   UNL A   1      43.952  23.588  25.396  1.00  0.00     0.060 A 
ATOM     37  C   UNL A   1      44.252  24.936  25.145  1.00  0.00     0.016 A 
ATOM     38  C   UNL A   1      43.335  23.202  26.584  1.00  0.00     0.016 A 
ATOM     39  C   UNL A   1      43.947  25.905  26.095  1.00  0.00     0.010 A 
ATOM     40  C   UNL A   1      43.058  24.170  27.547  1.00  0.00     0.010 A 
ATOM     41  C   UNL A   1      43.389  25.518  27.318  1.00  0.00    -0.014 A 
BRANCH  41  42
ATOM     42  C   UNL A   1      43.322  26.480  28.439  1.00  0.00     0.031 A 
ATOM     43  C   UNL A   1      44.430  26.464  29.454  1.00  0.00     0.074 A 
ATOM     44  C   UNL A   1      42.292  27.334  28.558  1.00  0.00     0.049 A 
ATOM     45  N   UNL A   1      44.541  27.134  30.570  1.00  0.00    -0.248 NA
ATOM     46  C   UNL A   1      45.563  25.563  29.175  1.00  0.00     0.031 C 
ATOM     47  C   UNL A   1      41.191  27.475  27.605  1.00  0.00     0.029 A 
ATOM     48  N   UNL A   1      42.000  28.239  29.547  1.00  0.00    -0.354 N 
ATOM     49  C   UNL A   1      45.741  26.720  31.138  1.00  0.00     0.074 A 
ATOM     50  C   UNL A   1      46.311  25.726  30.256  1.00  0.00     0.031 C 
ATOM     51  C   UNL A   1      40.335  28.404  28.064  1.00  0.00     0.029 A 
ATOM     52  C   UNL A   1      40.805  28.890  29.361  1.00  0.00     0.049 A 
ATOM     53  H   UNL A   1      42.591  28.406  30.317  1.00  0.00     0.167 HD
ATOM     54  C   UNL A   1      46.313  27.133  32.292  1.00  0.00     0.031 A 
ATOM     55  C   UNL A   1      40.154  29.756  30.161  1.00  0.00     0.031 A 
ATOM     56  C   UNL A   1      45.727  28.113  33.168  1.00  0.00     0.049 A 
ATOM     57  C   UNL A   1      40.773  30.141  31.482  1.00  0.00     0.074 A 
ATOM     58  C   UNL A   1      46.234  28.617  34.353  1.00  0.00     0.029 A 
ATOM     59  N   UNL A   1      44.501  28.728  32.962  1.00  0.00    -0.354 N 
ATOM     60  N   UNL A   1      41.918  29.762  31.998  1.00  0.00    -0.248 NA
ATOM     61  C   UNL A   1      40.013  31.075  32.325  1.00  0.00     0.031 C 
ATOM     62  C   UNL A   1      45.282  29.485  34.897  1.00  0.00     0.029 A 
ATOM     63  C   UNL A   1      44.218  29.582  34.013  1.00  0.00     0.049 A 
ATOM     64  H   UNL A   1      43.918  28.578  32.182  1.00  0.00     0.167 HD
ATOM     65  C   UNL A   1      42.033  30.440  33.208  1.00  0.00     0.074 A 
ATOM     66  C   UNL A   1      40.845  31.259  33.340  1.00  0.00     0.031 C 
ATOM     67  C   UNL A   1      43.031  30.393  34.126  1.00  0.00     0.031 A 
BRANCH  54  68
ATOM     68  C   UNL A   1      47.616  26.494  32.695  1.00  0.00    -0.014 A 
ATOM     69  C   UNL A   1      48.853  27.075  32.365  1.00  0.00     0.010 A 
ATOM     70  C   UNL A   1      47.599  25.308  33.454  1.00  0.00     0.010 A 
ATOM     71  C   UNL A   1      50.048  26.466  32.757  1.00  0.00     0.020 A 
ATOM     72  C   UNL A   1      48.791  24.713  33.875  1.00  0.00     0.020 A 
ATOM     73  C   UNL A   1      50.009  25.290  33.512  1.00  0.00     0.054 A 
BRANCH  73  74
ATOM     74  S   UNL A   1      51.575  24.543  34.040  1.00  0.00     0.124 S 
ATOM     75  O   UNL A   1      51.804  23.550  32.993  1.00  0.00    -0.237 OA
ATOM     76  O   UNL A   1      52.489  25.682  34.035  1.00  0.00    -0.237 OA
ATOM     77  O   UNL A   1      51.273  23.996  35.360  1.00  0.00    -0.744 OA
ENDBRANCH  73  74
ENDBRANCH  54  68
BRANCH  55  78
ATOM     78  C   UNL A   1      38.835  30.313  29.747  1.00  0.00    -0.014 A 
ATOM     79  C   UNL A   1      37.657  29.568  29.930  1.00  0.00     0.010 A 
ATOM     80  C   UNL A   1      38.751  31.591  29.165  1.00  0.00     0.010 A 
ATOM     81  C   UNL A   1      36.422  30.081  29.520  1.00  0.00     0.020 A 
ATOM     82  C   UNL A   1      37.514  32.122  28.784  1.00  0.00     0.020 A 
ATOM     83  C   UNL A   1      36.359  31.358  28.954  1.00  0.00     0.054 A 
BRANCH  83  84
ATOM     84  S   UNL A   1      34.738  32.020  28.477  1.00  0.00     0.124 S 
ATOM     85  O   UNL A   1      34.119  30.871  27.826  1.00  0.00    -0.237 OA
ATOM     86  O   UNL A   1      34.166  32.403  29.766  1.00  0.00    -0.237 OA
ATOM     87  O   UNL A   1      35.070  33.136  27.595  1.00  0.00    -0.744 OA
ENDBRANCH  83  84
ENDBRANCH  55  78
BRANCH  67  88
ATOM     88  C   UNL A   1      42.912  31.288  35.333  1.00  0.00    -0.014 A 
ATOM     89  C   UNL A   1      42.376  30.822  36.547  1.00  0.00     0.010 A 
ATOM     90  C   UNL A   1      43.406  32.605  35.266  1.00  0.00     0.010 A 
ATOM     91  C   UNL A   1      42.305  31.666  37.659  1.00  0.00     0.020 A 
ATOM     92  C   UNL A   1      43.368  33.441  36.384  1.00  0.00     0.020 A 
ATOM     93  C   UNL A   1      42.804  32.969  37.571  1.00  0.00     0.054 A 
BRANCH  93  94
ATOM     94  S   UNL A   1      42.739  34.029  39.041  1.00  0.00     0.124 S 
ATOM     95  O   UNL A   1      42.223  33.112  40.055  1.00  0.00    -0.237 OA
ATOM     96  O   UNL A   1      44.134  34.430  39.208  1.00  0.00    -0.237 OA
ATOM     97  O   UNL A   1      41.829  35.105  38.655  1.00  0.00    -0.744 OA
ENDBRANCH  93  94
ENDBRANCH  67  88
ENDBRANCH  41  42
ENDBRANCH  34  36
ENDBRANCH  33  34
ENDBRANCH  32  33
ENDBRANCH  31  32
ENDBRANCH  30  31
ENDBRANCH  29  30
ENDBRANCH   1  29
TORSDOF 24
ENDMDL
MODEL 3
REMARK VINA RESULT:      -9.2      6.594     10.895
REMARK SMILES CC[C@H](Oc1ccccc1/C=C1\SC(N)=[NH+]C1=O)C(=O)OCCOCCOCCOC(=O)c1ccc(-c2c3nc(c(-c4ccc(S(=O)(=O)[O-])cc4)c4ccc([nH]4)c(-c4ccc(S(=O)(=O)[O-])cc4)c4nc(c(-c5ccc(S(=O)(=O)[O-])cc5)c5ccc2[nH]5)C=C4)C=C3)cc1
REMARK SMILES IDX 25 1 24 2 23 3 22 4 21 5 19 6 20 7 3 8 2 9 1 10 4 11 5 12
REMARK SMILES IDX 6 13 10 14 7 15 9 16 8 17 11 18 12 19 13 20 17 21 14 22
REMARK SMILES IDX 16 23 18 24 15 25 26 29 27 30 28 31 29 32 30 33 31 34 32 35
REMARK SMILES IDX 33 36 34 37 92 38 35 39 91 40 36 41 37 42 38 43 85 44 39 45
REMARK SMILES IDX 90 46 84 47 86 48 40 49 89 50 83 51 82 52 41 54 71 55 52 56
REMARK SMILES IDX 70 57 53 58 56 59 69 60 87 61 54 62 55 63 68 65 88 66 57 67
REMARK SMILES IDX 42 68 43 69 51 70 44 71 50 72 45 73 46 74 47 75 48 76 49 77
REMARK SMILES IDX 72 78 73 79 81 80 74 81 80 82 75 83 76 84 77 85 78 86 79 87
REMARK SMILES IDX 58 88 59 89 67 90 60 91 66 92 61 93 62 94 63 95 64 96 65 97
REMARK H PARENT 16 26 15 27 15 28 86 53 56 64
REMARK Flexibility Score: inf
ROOT
ATOM      1  C   UNL A   1      38.477  24.076  26.470  1.00  0.00     0.188 C 
ENDROOT
BRANCH   1   2
ATOM      2  O   UNL A   1      37.222  24.054  25.834  1.00  0.00    -0.376 OA
BRANCH   2   3
ATOM      3  C   UNL A   1      36.197  23.183  26.270  1.00  0.00     0.202 C 
BRANCH   3   4
ATOM      4  C   UNL A   1      35.491  22.100  25.432  1.00  0.00     0.261 C 
BRANCH   4   5
ATOM      5  O   UNL A   1      35.610  22.105  24.006  1.00  0.00    -0.461 OA
BRANCH   5   6
ATOM      6  C   UNL A   1      34.601  22.722  23.327  1.00  0.00     0.347 C 
ATOM      7  O   UNL A   1      34.776  23.401  22.319  1.00  0.00    -0.248 OA
BRANCH   6   8
ATOM      8  C   UNL A   1      33.220  22.597  24.019  1.00  0.00     0.282 C 
BRANCH   8   9
ATOM      9  C   UNL A   1      32.634  21.342  23.327  1.00  0.00     0.054 C 
ATOM     10  C   UNL A   1      32.652  20.008  24.046  1.00  0.00     0.008 C 
ENDBRANCH   8   9
BRANCH   8  11
ATOM     11  O   UNL A   1      32.429  23.790  23.937  1.00  0.00    -0.478 OA
BRANCH  11  12
ATOM     12  C   UNL A   1      31.594  24.147  24.969  1.00  0.00     0.127 A 
ATOM     13  C   UNL A   1      31.264  23.293  26.026  1.00  0.00     0.047 A 
ATOM     14  C   UNL A   1      30.970  25.411  24.931  1.00  0.00     0.018 A 
ATOM     15  C   UNL A   1      30.158  23.549  26.843  1.00  0.00     0.004 A 
ATOM     16  C   UNL A   1      29.847  25.654  25.747  1.00  0.00     0.012 A 
ATOM     17  C   UNL A   1      29.409  24.701  26.659  1.00  0.00     0.001 A 
BRANCH  14  18
ATOM     18  C   UNL A   1      31.492  26.603  24.246  1.00  0.00     0.036 C 
ATOM     19  C   UNL A   1      32.294  27.570  24.695  1.00  0.00     0.110 C 
ATOM     20  S   UNL A   1      32.936  27.793  26.264  1.00  0.00     0.006 SA
ATOM     21  C   UNL A   1      32.780  28.663  23.790  1.00  0.00     0.346 C 
ATOM     22  C   UNL A   1      33.542  29.343  25.749  1.00  0.00     0.314 C 
ATOM     23  N   UNL A   1      33.447  29.642  24.501  1.00  0.00    -0.200 N 
ATOM     24  O   UNL A   1      32.641  28.655  22.580  1.00  0.00    -0.240 OA
ATOM     25  N   UNL A   1      34.062  30.148  26.695  1.00  0.00    -0.281 N 
ATOM     26  H   UNL A   1      33.804  30.468  24.102  1.00  0.00     0.316 HD
ATOM     27  H   UNL A   1      34.100  29.846  27.632  1.00  0.00     0.302 HD
ATOM     28  H   UNL A   1      34.404  31.039  26.452  1.00  0.00     0.302 HD
ENDBRANCH  14  18
ENDBRANCH  11  12
ENDBRANCH   8  11
ENDBRANCH   6   8
ENDBRANCH   5   6
ENDBRANCH   4   5
ENDBRANCH   3   4
ENDBRANCH   2   3
ENDBRANCH   1   2
BRANCH   1  29
ATOM     29  C   UNL A   1      39.240  22.744  26.545  1.00  0.00     0.188 C 
BRANCH  29  30
ATOM     30  O   UNL A   1      40.211  22.531  27.555  1.00  0.00    -0.376 OA
BRANCH  30  31
ATOM     31  C   UNL A   1      41.578  22.456  27.184  1.00  0.00     0.202 C 
BRANCH  31  32
ATOM     32  C   UNL A   1      42.183  23.474  26.210  1.00  0.00     0.261 C 
BRANCH  32  33
ATOM     33  O   UNL A   1      42.537  24.732  26.798  1.00  0.00    -0.460 OA
BRANCH  33  34
ATOM     34  C   UNL A   1      41.894  25.810  26.278  1.00  0.00     0.338 C 
ATOM     35  O   UNL A   1      41.538  25.978  25.127  1.00  0.00    -0.246 OA
BRANCH  34  36
ATOM     36  C   UNL A   1      41.480  26.696  27.381  1.00  0.00     0.060 A 
ATOM     37  C   UNL A   1      42.112  27.942  27.522  1.00  0.00     0.016 A 
ATOM     38  C   UNL A   1      40.499  26.285  28.280  1.00  0.00     0.016 A 
ATOM     39  C   UNL A   1      41.773  28.777  28.581  1.00  0.00     0.010 A 
ATOM     40  C   UNL A   1      40.182  27.111  29.357  1.00  0.00     0.010 A 
ATOM     41  C   UNL A   1      40.837  28.344  29.526  1.00  0.00    -0.014 A 
BRANCH  41  42
ATOM     42  C   UNL A   1      40.673  29.082  30.798  1.00  0.00     0.031 A 
ATOM     43  C   UNL A   1      39.613  30.143  30.870  1.00  0.00     0.074 A 
ATOM     44  C   UNL A   1      41.462  28.823  31.855  1.00  0.00     0.049 A 
ATOM     45  N   UNL A   1      39.349  30.986  31.832  1.00  0.00    -0.248 NA
ATOM     46  C   UNL A   1      38.735  30.276  29.693  1.00  0.00     0.031 C 
ATOM     47  C   UNL A   1      42.486  27.780  31.915  1.00  0.00     0.029 A 
ATOM     48  N   UNL A   1      41.529  29.434  33.081  1.00  0.00    -0.354 N 
ATOM     49  C   UNL A   1      38.294  31.765  31.370  1.00  0.00     0.074 A 
ATOM     50  C   UNL A   1      37.980  31.309  30.034  1.00  0.00     0.031 C 
ATOM     51  C   UNL A   1      43.090  27.833  33.116  1.00  0.00     0.029 A 
ATOM     52  C   UNL A   1      42.525  28.939  33.888  1.00  0.00     0.049 A 
ATOM     53  H   UNL A   1      40.922  30.158  33.357  1.00  0.00     0.167 HD
ATOM     54  C   UNL A   1      37.647  32.770  32.004  1.00  0.00     0.031 A 
ATOM     55  C   UNL A   1      42.948  29.353  35.098  1.00  0.00     0.031 A 
ATOM     56  C   UNL A   1      37.979  33.223  33.329  1.00  0.00     0.049 A 
ATOM     57  C   UNL A   1      42.265  30.527  35.752  1.00  0.00     0.074 A 
ATOM     58  C   UNL A   1      37.374  34.221  34.071  1.00  0.00     0.029 A 
ATOM     59  N   UNL A   1      39.014  32.718  34.102  1.00  0.00    -0.354 N 
ATOM     60  N   UNL A   1      41.253  31.241  35.316  1.00  0.00    -0.248 NA
ATOM     61  C   UNL A   1      42.777  30.949  37.063  1.00  0.00     0.031 C 
ATOM     62  C   UNL A   1      38.086  34.365  35.266  1.00  0.00     0.029 A 
ATOM     63  C   UNL A   1      39.086  33.405  35.302  1.00  0.00     0.049 A 
ATOM     64  H   UNL A   1      39.609  31.979  33.837  1.00  0.00     0.167 HD
ATOM     65  C   UNL A   1      40.985  32.170  36.317  1.00  0.00     0.074 A 
ATOM     66  C   UNL A   1      41.934  31.921  37.382  1.00  0.00     0.031 C 
ATOM     67  C   UNL A   1      40.036  33.140  36.353  1.00  0.00     0.031 A 
BRANCH  54  68
ATOM     68  C   UNL A   1      36.546  33.474  31.256  1.00  0.00    -0.014 A 
ATOM     69  C   UNL A   1      36.704  33.870  29.916  1.00  0.00     0.010 A 
ATOM     70  C   UNL A   1      35.314  33.708  31.897  1.00  0.00     0.010 A 
ATOM     71  C   UNL A   1      35.664  34.515  29.242  1.00  0.00     0.020 A 
ATOM     72  C   UNL A   1      34.261  34.324  31.216  1.00  0.00     0.020 A 
ATOM     73  C   UNL A   1      34.448  34.736  29.895  1.00  0.00     0.054 A 
BRANCH  73  74
ATOM     74  S   UNL A   1      33.104  35.541  28.983  1.00  0.00     0.124 S 
ATOM     75  O   UNL A   1      32.544  34.426  28.223  1.00  0.00    -0.237 OA
ATOM     76  O   UNL A   1      32.257  36.058  30.055  1.00  0.00    -0.237 OA
ATOM     77  O   UNL A   1      33.783  36.559  28.185  1.00  0.00    -0.744 OA
ENDBRANCH  73  74
ENDBRANCH  54  68
BRANCH  55  78
ATOM     78  C   UNL A   1      44.085  28.662  35.770  1.00  0.00    -0.014 A 
ATOM     79  C   UNL A   1      43.860  27.828  36.878  1.00  0.00     0.010 A 
ATOM     80  C   UNL A   1      45.402  28.839  35.306  1.00  0.00     0.010 A 
ATOM     81  C   UNL A   1      44.930  27.198  37.522  1.00  0.00     0.020 A 
ATOM     82  C   UNL A   1      46.472  28.185  35.927  1.00  0.00     0.020 A 
ATOM     83  C   UNL A   1      46.229  27.378  37.038  1.00  0.00     0.054 A 
BRANCH  83  84
ATOM     84  S   UNL A   1      47.593  26.510  37.862  1.00  0.00     0.124 S 
ATOM     85  O   UNL A   1      46.882  25.562  38.712  1.00  0.00    -0.237 OA
ATOM     86  O   UNL A   1      48.319  25.929  36.735  1.00  0.00    -0.237 OA
ATOM     87  O   UNL A   1      48.301  27.575  38.568  1.00  0.00    -0.744 OA
ENDBRANCH  83  84
ENDBRANCH  55  78
BRANCH  67  88
ATOM     88  C   UNL A   1      39.941  33.976  37.604  1.00  0.00    -0.014 A 
ATOM     89  C   UNL A   1      40.611  35.207  37.722  1.00  0.00     0.010 A 
ATOM     90  C   UNL A   1      39.112  33.547  38.658  1.00  0.00     0.010 A 
ATOM     91  C   UNL A   1      40.480  35.975  38.883  1.00  0.00     0.020 A 
ATOM     92  C   UNL A   1      38.951  34.326  39.806  1.00  0.00     0.020 A 
ATOM     93  C   UNL A   1      39.649  35.530  39.916  1.00  0.00     0.054 A 
BRANCH  93  94
ATOM     94  S   UNL A   1      39.463  36.566  41.393  1.00  0.00     0.124 S 
ATOM     95  O   UNL A   1      39.035  37.840  40.819  1.00  0.00    -0.237 OA
ATOM     96  O   UNL A   1      38.449  35.850  42.161  1.00  0.00    -0.237 OA
ATOM     97  O   UNL A   1      40.799  36.570  41.986  1.00  0.00    -0.744 OA
ENDBRANCH  93  94
ENDBRANCH  67  88
ENDBRANCH  41  42
ENDBRANCH  34  36
ENDBRANCH  33  34
ENDBRANCH  32  33
ENDBRANCH  31  32
ENDBRANCH  30  31
ENDBRANCH  29  30
ENDBRANCH   1  29
TORSDOF 24
ENDMDL
