MODEL 1
REMARK VINA RESULT:     -10.2      0.000      0.000
REMARK SMILES Nc1nc(N2CCOC[C@H]2C(=O)OCCOCCOCCOC(=O)c2ccc(-c3c4nc(c(-c5ccc(S(=O)(=O)[O-])cc5)c5ccc([nH]5)c(-c5ccc(S(=O)(=O)[O-])cc5)c5nc(c(-c6ccc(S(=O)(=O)[O-])cc6)c6ccc3[nH]6)C=C5)C=C4)cc2)ccc1[N+](=O)[O-]
REMARK SMILES IDX 18 1 17 2 16 3 15 4 14 5 13 6 11 7 12 8 10 9 5 10 6 11 7 12
REMARK SMILES IDX 9 13 8 14 4 15 2 16 3 17 87 18 86 19 85 20 1 21 88 24 89 25
REMARK SMILES IDX 90 26 19 27 20 28 21 29 22 30 23 31 24 32 25 33 26 34 84 35
REMARK SMILES IDX 27 36 83 37 28 38 29 39 30 40 77 41 31 42 82 43 76 44 78 45
REMARK SMILES IDX 32 46 81 47 75 48 74 49 33 51 63 52 44 53 62 54 45 55 48 56
REMARK SMILES IDX 61 57 79 58 46 59 47 60 60 62 80 63 49 64 34 65 35 66 43 67
REMARK SMILES IDX 36 68 42 69 37 70 38 71 39 72 40 73 41 74 64 75 65 76 73 77
REMARK SMILES IDX 66 78 72 79 67 80 68 81 69 82 70 83 71 84 50 85 51 86 59 87
REMARK SMILES IDX 52 88 58 89 53 90 54 91 55 92 56 93 57 94
REMARK H PARENT 1 22 1 23 78 50 48 61
REMARK Flexibility Score: inf
ROOT
ATOM      1  C   UNL A   1      34.820  20.787  25.298  1.00  0.00     0.188 C 
ENDROOT
BRANCH   1   2
ATOM      2  C   UNL A   1      33.538  21.536  25.713  1.00  0.00     0.188 C 
BRANCH   2   3
ATOM      3  O   UNL A   1      32.358  21.278  24.956  1.00  0.00    -0.376 OA
BRANCH   3   4
ATOM      4  C   UNL A   1      32.520  20.691  23.669  1.00  0.00     0.202 C 
BRANCH   4   5
ATOM      5  C   UNL A   1      32.387  21.667  22.501  1.00  0.00     0.261 C 
BRANCH   5   6
ATOM      6  O   UNL A   1      32.188  23.007  22.995  1.00  0.00    -0.462 OA
BRANCH   6   7
ATOM      7  C   UNL A   1      33.030  23.981  22.560  1.00  0.00     0.331 C 
ATOM      8  O   UNL A   1      34.005  23.764  21.846  1.00  0.00    -0.250 OA
BRANCH   7   9
ATOM      9  C   UNL A   1      32.717  25.382  23.116  1.00  0.00     0.220 C 
ATOM     10  N   UNL A   1      31.451  25.535  23.892  1.00  0.00    -0.339 N 
ATOM     11  C   UNL A   1      31.437  24.920  25.228  1.00  0.00     0.147 C 
ATOM     12  C   UNL A   1      32.693  25.314  26.014  1.00  0.00     0.181 C 
ATOM     13  C   UNL A   1      33.910  25.756  24.020  1.00  0.00     0.197 C 
ATOM     14  O   UNL A   1      33.894  25.045  25.278  1.00  0.00    -0.377 OA
BRANCH  10  15
ATOM     15  C   UNL A   1      30.641  26.633  23.630  1.00  0.00     0.132 A 
ATOM     16  C   UNL A   1      30.354  28.713  22.571  1.00  0.00     0.204 A 
ATOM     17  N   UNL A   1      31.180  27.722  23.025  1.00  0.00    -0.207 NA
ATOM     18  C   UNL A   1      28.979  28.660  22.760  1.00  0.00     0.311 A 
ATOM     19  C   UNL A   1      28.427  27.609  23.478  1.00  0.00     0.093 A 
ATOM     20  C   UNL A   1      29.272  26.593  23.910  1.00  0.00     0.054 A 
BRANCH  16  21
ATOM     21  N   UNL A   1      30.974  29.808  21.996  1.00  0.00    -0.378 N 
ATOM     22  H   UNL A   1      30.533  30.295  21.264  1.00  0.00     0.158 HD
ATOM     23  H   UNL A   1      31.857  30.101  22.321  1.00  0.00     0.158 HD
ENDBRANCH  16  21
BRANCH  18  24
ATOM     24  N   UNL A   1      28.096  29.674  22.208  1.00  0.00     0.066 N 
ATOM     25  O   UNL A   1      28.277  30.000  21.025  1.00  0.00    -0.258 OA
ATOM     26  O   UNL A   1      27.268  30.201  22.967  1.00  0.00    -0.258 OA
ENDBRANCH  18  24
ENDBRANCH  10  15
ENDBRANCH   7   9
ENDBRANCH   6   7
ENDBRANCH   5   6
ENDBRANCH   4   5
ENDBRANCH   3   4
ENDBRANCH   2   3
ENDBRANCH   1   2
BRANCH   1  27
ATOM     27  O   UNL A   1      36.077  21.384  25.596  1.00  0.00    -0.376 OA
BRANCH  27  28
ATOM     28  C   UNL A   1      37.237  20.669  25.191  1.00  0.00     0.202 C 
BRANCH  28  29
ATOM     29  C   UNL A   1      38.552  21.437  25.331  1.00  0.00     0.261 C 
BRANCH  29  30
ATOM     30  O   UNL A   1      39.291  20.993  26.486  1.00  0.00    -0.460 OA
BRANCH  30  31
ATOM     31  C   UNL A   1      40.494  20.444  26.224  1.00  0.00     0.338 C 
ATOM     32  O   UNL A   1      40.720  19.339  25.743  1.00  0.00    -0.246 OA
BRANCH  31  33
ATOM     33  C   UNL A   1      41.571  21.393  26.535  1.00  0.00     0.060 A 
ATOM     34  C   UNL A   1      41.843  21.708  27.871  1.00  0.00     0.016 A 
ATOM     35  C   UNL A   1      42.156  22.126  25.506  1.00  0.00     0.016 A 
ATOM     36  C   UNL A   1      42.612  22.828  28.181  1.00  0.00     0.010 A 
ATOM     37  C   UNL A   1      42.967  23.221  25.821  1.00  0.00     0.010 A 
ATOM     38  C   UNL A   1      43.151  23.616  27.159  1.00  0.00    -0.014 A 
BRANCH  38  39
ATOM     39  C   UNL A   1      43.794  24.922  27.462  1.00  0.00     0.031 A 
ATOM     40  C   UNL A   1      42.942  26.062  27.960  1.00  0.00     0.074 A 
ATOM     41  C   UNL A   1      45.121  25.095  27.321  1.00  0.00     0.049 A 
ATOM     42  N   UNL A   1      43.238  27.331  28.074  1.00  0.00    -0.248 NA
ATOM     43  C   UNL A   1      41.572  25.723  28.383  1.00  0.00     0.031 C 
ATOM     44  C   UNL A   1      46.082  24.053  26.960  1.00  0.00     0.029 A 
ATOM     45  N   UNL A   1      45.890  26.223  27.467  1.00  0.00    -0.354 N 
ATOM     46  C   UNL A   1      42.078  27.951  28.529  1.00  0.00     0.074 A 
ATOM     47  C   UNL A   1      41.075  26.918  28.673  1.00  0.00     0.031 C 
ATOM     48  C   UNL A   1      47.313  24.588  26.922  1.00  0.00     0.029 A 
ATOM     49  C   UNL A   1      47.216  26.022  27.173  1.00  0.00     0.049 A 
ATOM     50  H   UNL A   1      45.525  27.092  27.753  1.00  0.00     0.167 HD
ATOM     51  C   UNL A   1      41.865  29.264  28.789  1.00  0.00     0.031 A 
ATOM     52  C   UNL A   1      48.232  26.902  27.066  1.00  0.00     0.031 A 
ATOM     53  C   UNL A   1      42.875  30.282  28.663  1.00  0.00     0.049 A 
ATOM     54  C   UNL A   1      47.957  28.367  27.263  1.00  0.00     0.074 A 
ATOM     55  C   UNL A   1      42.762  31.643  28.880  1.00  0.00     0.029 A 
ATOM     56  N   UNL A   1      44.192  30.042  28.298  1.00  0.00    -0.354 N 
ATOM     57  N   UNL A   1      46.833  28.956  27.598  1.00  0.00    -0.248 NA
ATOM     58  C   UNL A   1      49.080  29.287  27.046  1.00  0.00     0.031 C 
ATOM     59  C   UNL A   1      44.003  32.233  28.608  1.00  0.00     0.029 A 
ATOM     60  C   UNL A   1      44.899  31.232  28.268  1.00  0.00     0.049 A 
ATOM     61  H   UNL A   1      44.568  29.157  28.090  1.00  0.00     0.167 HD
ATOM     62  C   UNL A   1      47.119  30.316  27.645  1.00  0.00     0.074 A 
ATOM     63  C   UNL A   1      48.524  30.460  27.316  1.00  0.00     0.031 C 
ATOM     64  C   UNL A   1      46.295  31.353  27.934  1.00  0.00     0.031 A 
BRANCH  51  65
ATOM     65  C   UNL A   1      40.469  29.676  29.172  1.00  0.00    -0.014 A 
ATOM     66  C   UNL A   1      39.437  29.761  28.221  1.00  0.00     0.010 A 
ATOM     67  C   UNL A   1      40.187  29.980  30.517  1.00  0.00     0.010 A 
ATOM     68  C   UNL A   1      38.161  30.192  28.600  1.00  0.00     0.020 A 
ATOM     69  C   UNL A   1      38.908  30.388  30.903  1.00  0.00     0.020 A 
ATOM     70  C   UNL A   1      37.907  30.513  29.937  1.00  0.00     0.054 A 
BRANCH  70  71
ATOM     71  S   UNL A   1      36.247  31.076  30.407  1.00  0.00     0.124 S 
ATOM     72  O   UNL A   1      36.490  32.477  30.744  1.00  0.00    -0.237 OA
ATOM     73  O   UNL A   1      35.471  30.846  29.192  1.00  0.00    -0.237 OA
ATOM     74  O   UNL A   1      35.898  30.216  31.537  1.00  0.00    -0.744 OA
ENDBRANCH  70  71
ENDBRANCH  51  65
BRANCH  52  75
ATOM     75  C   UNL A   1      49.590  26.422  26.698  1.00  0.00    -0.014 A 
ATOM     76  C   UNL A   1      49.948  26.263  25.348  1.00  0.00     0.010 A 
ATOM     77  C   UNL A   1      50.543  26.146  27.696  1.00  0.00     0.010 A 
ATOM     78  C   UNL A   1      51.234  25.837  25.002  1.00  0.00     0.020 A 
ATOM     79  C   UNL A   1      51.838  25.744  27.354  1.00  0.00     0.020 A 
ATOM     80  C   UNL A   1      52.172  25.584  26.008  1.00  0.00     0.054 A 
BRANCH  80  81
ATOM     81  S   UNL A   1      53.857  25.102  25.538  1.00  0.00     0.124 S 
ATOM     82  O   UNL A   1      54.395  24.610  26.802  1.00  0.00    -0.237 OA
ATOM     83  O   UNL A   1      53.624  24.090  24.511  1.00  0.00    -0.237 OA
ATOM     84  O   UNL A   1      54.443  26.348  25.049  1.00  0.00    -0.744 OA
ENDBRANCH  80  81
ENDBRANCH  52  75
BRANCH  64  85
ATOM     85  C   UNL A   1      46.899  32.729  27.939  1.00  0.00    -0.014 A 
ATOM     86  C   UNL A   1      47.689  33.172  29.015  1.00  0.00     0.010 A 
ATOM     87  C   UNL A   1      46.710  33.573  26.830  1.00  0.00     0.010 A 
ATOM     88  C   UNL A   1      48.257  34.448  28.993  1.00  0.00     0.020 A 
ATOM     89  C   UNL A   1      47.294  34.842  26.795  1.00  0.00     0.020 A 
ATOM     90  C   UNL A   1      48.054  35.276  27.884  1.00  0.00     0.054 A 
BRANCH  90  91
ATOM     91  S   UNL A   1      48.834  36.914  27.857  1.00  0.00     0.124 S 
ATOM     92  O   UNL A   1      49.675  36.830  26.666  1.00  0.00    -0.237 OA
ATOM     93  O   UNL A   1      47.689  37.816  27.756  1.00  0.00    -0.237 OA
ATOM     94  O   UNL A   1      49.555  36.973  29.127  1.00  0.00    -0.744 OA
ENDBRANCH  90  91
ENDBRANCH  64  85
ENDBRANCH  38  39
ENDBRANCH  31  33
ENDBRANCH  30  31
ENDBRANCH  29  30
ENDBRANCH  28  29
ENDBRANCH  27  28
ENDBRANCH   1  27
TORSDOF 23
ENDMDL
MODEL 2
REMARK VINA RESULT:      -9.8      3.076      8.081
REMARK SMILES Nc1nc(N2CCOC[C@H]2C(=O)OCCOCCOCCOC(=O)c2ccc(-c3c4nc(c(-c5ccc(S(=O)(=O)[O-])cc5)c5ccc([nH]5)c(-c5ccc(S(=O)(=O)[O-])cc5)c5nc(c(-c6ccc(S(=O)(=O)[O-])cc6)c6ccc3[nH]6)C=C5)C=C4)cc2)ccc1[N+](=O)[O-]
REMARK SMILES IDX 18 1 17 2 16 3 15 4 14 5 13 6 11 7 12 8 10 9 5 10 6 11 7 12
REMARK SMILES IDX 9 13 8 14 4 15 2 16 3 17 87 18 86 19 85 20 1 21 88 24 89 25
REMARK SMILES IDX 90 26 19 27 20 28 21 29 22 30 23 31 24 32 25 33 26 34 84 35
REMARK SMILES IDX 27 36 83 37 28 38 29 39 30 40 77 41 31 42 82 43 76 44 78 45
REMARK SMILES IDX 32 46 81 47 75 48 74 49 33 51 63 52 44 53 62 54 45 55 48 56
REMARK SMILES IDX 61 57 79 58 46 59 47 60 60 62 80 63 49 64 34 65 35 66 43 67
REMARK SMILES IDX 36 68 42 69 37 70 38 71 39 72 40 73 41 74 64 75 65 76 73 77
REMARK SMILES IDX 66 78 72 79 67 80 68 81 69 82 70 83 71 84 50 85 51 86 59 87
REMARK SMILES IDX 52 88 58 89 53 90 54 91 55 92 56 93 57 94
REMARK H PARENT 1 22 1 23 78 50 48 61
REMARK Flexibility Score: inf
ROOT
ATOM      1  C   UNL A   1      32.331  29.971  26.618  1.00  0.00     0.188 C 
ENDROOT
BRANCH   1   2
ATOM      2  C   UNL A   1      32.763  29.280  25.310  1.00  0.00     0.188 C 
BRANCH   2   3
ATOM      3  O   UNL A   1      33.178  27.919  25.397  1.00  0.00    -0.376 OA
BRANCH   3   4
ATOM      4  C   UNL A   1      32.552  26.986  24.524  1.00  0.00     0.202 C 
BRANCH   4   5
ATOM      5  C   UNL A   1      31.231  26.416  25.039  1.00  0.00     0.261 C 
BRANCH   5   6
ATOM      6  O   UNL A   1      31.447  25.115  25.621  1.00  0.00    -0.462 OA
BRANCH   6   7
ATOM      7  C   UNL A   1      31.422  24.033  24.798  1.00  0.00     0.331 C 
ATOM      8  O   UNL A   1      30.817  24.009  23.730  1.00  0.00    -0.250 OA
BRANCH   7   9
ATOM      9  C   UNL A   1      32.142  22.794  25.361  1.00  0.00     0.220 C 
ATOM     10  N   UNL A   1      33.077  22.078  24.443  1.00  0.00    -0.339 N 
ATOM     11  C   UNL A   1      34.340  22.769  24.146  1.00  0.00     0.147 C 
ATOM     12  C   UNL A   1      35.001  23.260  25.439  1.00  0.00     0.181 C 
ATOM     13  C   UNL A   1      32.925  23.283  26.597  1.00  0.00     0.197 C 
ATOM     14  O   UNL A   1      34.103  24.040  26.240  1.00  0.00    -0.377 OA
BRANCH  10  15
ATOM     15  C   UNL A   1      33.019  20.691  24.387  1.00  0.00     0.132 A 
ATOM     16  C   UNL A   1      32.537  18.747  23.154  1.00  0.00     0.204 A 
ATOM     17  N   UNL A   1      32.413  20.098  23.327  1.00  0.00    -0.207 NA
ATOM     18  C   UNL A   1      33.224  17.955  24.066  1.00  0.00     0.311 A 
ATOM     19  C   UNL A   1      33.749  18.533  25.213  1.00  0.00     0.093 A 
ATOM     20  C   UNL A   1      33.641  19.910  25.365  1.00  0.00     0.054 A 
BRANCH  16  21
ATOM     21  N   UNL A   1      31.866  18.206  22.072  1.00  0.00    -0.378 N 
ATOM     22  H   UNL A   1      32.129  17.326  21.720  1.00  0.00     0.158 HD
ATOM     23  H   UNL A   1      31.124  18.702  21.655  1.00  0.00     0.158 HD
ENDBRANCH  16  21
BRANCH  18  24
ATOM     24  N   UNL A   1      33.422  16.533  23.840  1.00  0.00     0.066 N 
ATOM     25  O   UNL A   1      33.055  15.761  24.740  1.00  0.00    -0.258 OA
ATOM     26  O   UNL A   1      34.007  16.184  22.804  1.00  0.00    -0.258 OA
ENDBRANCH  18  24
ENDBRANCH  10  15
ENDBRANCH   7   9
ENDBRANCH   6   7
ENDBRANCH   5   6
ENDBRANCH   4   5
ENDBRANCH   3   4
ENDBRANCH   2   3
ENDBRANCH   1   2
BRANCH   1  27
ATOM     27  O   UNL A   1      33.308  30.165  27.634  1.00  0.00    -0.376 OA
BRANCH  27  28
ATOM     28  C   UNL A   1      34.006  31.404  27.623  1.00  0.00     0.202 C 
BRANCH  28  29
ATOM     29  C   UNL A   1      35.297  31.426  28.442  1.00  0.00     0.261 C 
BRANCH  29  30
ATOM     30  O   UNL A   1      36.122  30.285  28.141  1.00  0.00    -0.460 OA
BRANCH  30  31
ATOM     31  C   UNL A   1      36.712  29.703  29.204  1.00  0.00     0.338 C 
ATOM     32  O   UNL A   1      36.286  29.644  30.354  1.00  0.00    -0.246 OA
BRANCH  31  33
ATOM     33  C   UNL A   1      37.964  29.048  28.804  1.00  0.00     0.060 A 
ATOM     34  C   UNL A   1      38.691  28.321  29.752  1.00  0.00     0.016 A 
ATOM     35  C   UNL A   1      38.520  29.336  27.560  1.00  0.00     0.016 A 
ATOM     36  C   UNL A   1      40.018  27.977  29.500  1.00  0.00     0.010 A 
ATOM     37  C   UNL A   1      39.835  28.947  27.292  1.00  0.00     0.010 A 
ATOM     38  C   UNL A   1      40.614  28.319  28.282  1.00  0.00    -0.014 A 
BRANCH  38  39
ATOM     39  C   UNL A   1      42.076  28.148  28.075  1.00  0.00     0.031 A 
ATOM     40  C   UNL A   1      43.004  29.288  28.412  1.00  0.00     0.074 A 
ATOM     41  C   UNL A   1      42.585  26.990  27.616  1.00  0.00     0.049 A 
ATOM     42  N   UNL A   1      44.267  29.448  28.110  1.00  0.00    -0.248 NA
ATOM     43  C   UNL A   1      42.427  30.398  29.190  1.00  0.00     0.031 C 
ATOM     44  C   UNL A   1      41.823  25.769  27.357  1.00  0.00     0.029 A 
ATOM     45  N   UNL A   1      43.874  26.656  27.282  1.00  0.00    -0.354 N 
ATOM     46  C   UNL A   1      44.621  30.696  28.613  1.00  0.00     0.074 A 
ATOM     47  C   UNL A   1      43.442  31.250  29.242  1.00  0.00     0.031 C 
ATOM     48  C   UNL A   1      42.661  24.816  26.916  1.00  0.00     0.029 A 
ATOM     49  C   UNL A   1      43.998  25.384  26.781  1.00  0.00     0.049 A 
ATOM     50  H   UNL A   1      44.636  27.272  27.391  1.00  0.00     0.167 HD
ATOM     51  C   UNL A   1      45.818  31.328  28.544  1.00  0.00     0.031 A 
ATOM     52  C   UNL A   1      45.057  24.761  26.226  1.00  0.00     0.031 A 
ATOM     53  C   UNL A   1      46.992  30.761  27.935  1.00  0.00     0.049 A 
ATOM     54  C   UNL A   1      46.350  25.511  26.070  1.00  0.00     0.074 A 
ATOM     55  C   UNL A   1      48.249  31.321  27.792  1.00  0.00     0.029 A 
ATOM     56  N   UNL A   1      47.055  29.491  27.380  1.00  0.00    -0.354 N 
ATOM     57  N   UNL A   1      46.649  26.727  26.461  1.00  0.00    -0.248 NA
ATOM     58  C   UNL A   1      47.441  24.813  25.378  1.00  0.00     0.031 C 
ATOM     59  C   UNL A   1      49.061  30.405  27.114  1.00  0.00     0.029 A 
ATOM     60  C   UNL A   1      48.323  29.256  26.878  1.00  0.00     0.049 A 
ATOM     61  H   UNL A   1      46.307  28.852  27.347  1.00  0.00     0.167 HD
ATOM     62  C   UNL A   1      47.968  26.935  26.074  1.00  0.00     0.074 A 
ATOM     63  C   UNL A   1      48.412  25.715  25.430  1.00  0.00     0.031 C 
ATOM     64  C   UNL A   1      48.743  28.036  26.237  1.00  0.00     0.031 A 
BRANCH  51  65
ATOM     65  C   UNL A   1      45.892  32.731  29.086  1.00  0.00    -0.014 A 
ATOM     66  C   UNL A   1      46.267  32.990  30.415  1.00  0.00     0.010 A 
ATOM     67  C   UNL A   1      45.578  33.811  28.240  1.00  0.00     0.010 A 
ATOM     68  C   UNL A   1      46.281  34.302  30.902  1.00  0.00     0.020 A 
ATOM     69  C   UNL A   1      45.612  35.124  28.717  1.00  0.00     0.020 A 
ATOM     70  C   UNL A   1      45.943  35.359  30.053  1.00  0.00     0.054 A 
BRANCH  70  71
ATOM     71  S   UNL A   1      45.959  37.053  30.705  1.00  0.00     0.124 S 
ATOM     72  O   UNL A   1      47.204  37.577  30.147  1.00  0.00    -0.237 OA
ATOM     73  O   UNL A   1      44.734  37.625  30.154  1.00  0.00    -0.237 OA
ATOM     74  O   UNL A   1      45.958  36.865  32.155  1.00  0.00    -0.744 OA
ENDBRANCH  70  71
ENDBRANCH  51  65
BRANCH  52  75
ATOM     75  C   UNL A   1      44.915  23.368  25.725  1.00  0.00    -0.014 A 
ATOM     76  C   UNL A   1      44.006  23.071  24.695  1.00  0.00     0.010 A 
ATOM     77  C   UNL A   1      45.709  22.335  26.257  1.00  0.00     0.010 A 
ATOM     78  C   UNL A   1      43.893  21.766  24.206  1.00  0.00     0.020 A 
ATOM     79  C   UNL A   1      45.617  21.034  25.754  1.00  0.00     0.020 A 
ATOM     80  C   UNL A   1      44.702  20.756  24.736  1.00  0.00     0.054 A 
BRANCH  80  81
ATOM     81  S   UNL A   1      44.593  19.085  24.038  1.00  0.00     0.124 S 
ATOM     82  O   UNL A   1      43.371  18.579  24.655  1.00  0.00    -0.237 OA
ATOM     83  O   UNL A   1      44.518  19.343  22.603  1.00  0.00    -0.237 OA
ATOM     84  O   UNL A   1      45.831  18.449  24.484  1.00  0.00    -0.744 OA
ENDBRANCH  80  81
ENDBRANCH  52  75
BRANCH  64  85
ATOM     85  C   UNL A   1      50.159  27.958  25.739  1.00  0.00    -0.014 A 
ATOM     86  C   UNL A   1      50.512  28.454  24.472  1.00  0.00     0.010 A 
ATOM     87  C   UNL A   1      51.157  27.420  26.571  1.00  0.00     0.010 A 
ATOM     88  C   UNL A   1      51.836  28.388  24.034  1.00  0.00     0.020 A 
ATOM     89  C   UNL A   1      52.487  27.373  26.145  1.00  0.00     0.020 A 
ATOM     90  C   UNL A   1      52.816  27.845  24.873  1.00  0.00     0.054 A 
BRANCH  90  91
ATOM     91  S   UNL A   1      54.537  27.807  24.301  1.00  0.00     0.124 S 
ATOM     92  O   UNL A   1      54.464  28.581  23.065  1.00  0.00    -0.237 OA
ATOM     93  O   UNL A   1      55.257  28.444  25.401  1.00  0.00    -0.237 OA
ATOM     94  O   UNL A   1      54.812  26.382  24.128  1.00  0.00    -0.744 OA
ENDBRANCH  90  91
ENDBRANCH  64  85
ENDBRANCH  38  39
ENDBRANCH  31  33
ENDBRANCH  30  31
ENDBRANCH  29  30
ENDBRANCH  28  29
ENDBRANCH  27  28
ENDBRANCH   1  27
TORSDOF 23
ENDMDL
MODEL 3
REMARK VINA RESULT:      -9.8      2.872      7.883
REMARK SMILES Nc1nc(N2CCOC[C@H]2C(=O)OCCOCCOCCOC(=O)c2ccc(-c3c4nc(c(-c5ccc(S(=O)(=O)[O-])cc5)c5ccc([nH]5)c(-c5ccc(S(=O)(=O)[O-])cc5)c5nc(c(-c6ccc(S(=O)(=O)[O-])cc6)c6ccc3[nH]6)C=C5)C=C4)cc2)ccc1[N+](=O)[O-]
REMARK SMILES IDX 18 1 17 2 16 3 15 4 14 5 13 6 11 7 12 8 10 9 5 10 6 11 7 12
REMARK SMILES IDX 9 13 8 14 4 15 2 16 3 17 87 18 86 19 85 20 1 21 88 24 89 25
REMARK SMILES IDX 90 26 19 27 20 28 21 29 22 30 23 31 24 32 25 33 26 34 84 35
REMARK SMILES IDX 27 36 83 37 28 38 29 39 30 40 77 41 31 42 82 43 76 44 78 45
REMARK SMILES IDX 32 46 81 47 75 48 74 49 33 51 63 52 44 53 62 54 45 55 48 56
REMARK SMILES IDX 61 57 79 58 46 59 47 60 60 62 80 63 49 64 34 65 35 66 43 67
REMARK SMILES IDX 36 68 42 69 37 70 38 71 39 72 40 73 41 74 64 75 65 76 73 77
REMARK SMILES IDX 66 78 72 79 67 80 68 81 69 82 70 83 71 84 50 85 51 86 59 87
REMARK SMILES IDX 52 88 58 89 53 90 54 91 55 92 56 93 57 94
REMARK H PARENT 1 22 1 23 78 50 48 61
REMARK Flexibility Score: inf
ROOT
ATOM      1  C   UNL A   1      32.274  30.145  26.642  1.00  0.00     0.188 C 
ENDROOT
BRANCH   1   2
ATOM      2  C   UNL A   1      32.458  29.508  25.252  1.00  0.00     0.188 C 
BRANCH   2   3
ATOM      3  O   UNL A   1      33.625  28.715  25.047  1.00  0.00    -0.376 OA
BRANCH   3   4
ATOM      4  C   UNL A   1      33.785  28.102  23.772  1.00  0.00     0.202 C 
BRANCH   4   5
ATOM      5  C   UNL A   1      32.485  27.896  22.995  1.00  0.00     0.261 C 
BRANCH   5   6
ATOM      6  O   UNL A   1      32.155  26.493  22.944  1.00  0.00    -0.462 OA
BRANCH   6   7
ATOM      7  C   UNL A   1      32.963  25.671  22.224  1.00  0.00     0.331 C 
ATOM      8  O   UNL A   1      33.376  25.943  21.101  1.00  0.00    -0.250 OA
BRANCH   7   9
ATOM      9  C   UNL A   1      33.247  24.316  22.897  1.00  0.00     0.220 C 
ATOM     10  N   UNL A   1      33.646  24.344  24.335  1.00  0.00    -0.339 N 
ATOM     11  C   UNL A   1      32.580  24.679  25.291  1.00  0.00     0.147 C 
ATOM     12  C   UNL A   1      31.327  23.840  25.015  1.00  0.00     0.181 C 
ATOM     13  C   UNL A   1      31.954  23.489  22.749  1.00  0.00     0.197 C 
ATOM     14  O   UNL A   1      30.910  23.931  23.646  1.00  0.00    -0.377 OA
BRANCH  10  15
ATOM     15  C   UNL A   1      34.716  23.557  24.743  1.00  0.00     0.132 A 
ATOM     16  C   UNL A   1      35.589  21.415  25.168  1.00  0.00     0.204 A 
ATOM     17  N   UNL A   1      34.512  22.235  24.976  1.00  0.00    -0.207 NA
ATOM     18  C   UNL A   1      36.888  21.908  25.182  1.00  0.00     0.311 A 
ATOM     19  C   UNL A   1      37.102  23.274  25.060  1.00  0.00     0.093 A 
ATOM     20  C   UNL A   1      36.002  24.094  24.838  1.00  0.00     0.054 A 
BRANCH  16  21
ATOM     21  N   UNL A   1      35.306  20.088  25.434  1.00  0.00    -0.378 N 
ATOM     22  H   UNL A   1      34.433  19.710  25.181  1.00  0.00     0.158 HD
ATOM     23  H   UNL A   1      35.978  19.520  25.876  1.00  0.00     0.158 HD
ENDBRANCH  16  21
BRANCH  18  24
ATOM     24  N   UNL A   1      38.035  21.025  25.306  1.00  0.00     0.066 N 
ATOM     25  O   UNL A   1      37.957  19.914  24.759  1.00  0.00    -0.258 OA
ATOM     26  O   UNL A   1      38.987  21.402  26.005  1.00  0.00    -0.258 OA
ENDBRANCH  18  24
ENDBRANCH  10  15
ENDBRANCH   7   9
ENDBRANCH   6   7
ENDBRANCH   5   6
ENDBRANCH   4   5
ENDBRANCH   3   4
ENDBRANCH   2   3
ENDBRANCH   1   2
BRANCH   1  27
ATOM     27  O   UNL A   1      33.393  30.188  27.520  1.00  0.00    -0.376 OA
BRANCH  27  28
ATOM     28  C   UNL A   1      34.147  31.394  27.539  1.00  0.00     0.202 C 
BRANCH  28  29
ATOM     29  C   UNL A   1      35.402  31.359  28.410  1.00  0.00     0.261 C 
BRANCH  29  30
ATOM     30  O   UNL A   1      36.271  30.276  28.025  1.00  0.00    -0.460 OA
BRANCH  30  31
ATOM     31  C   UNL A   1      36.807  29.576  29.044  1.00  0.00     0.338 C 
ATOM     32  O   UNL A   1      36.321  29.384  30.154  1.00  0.00    -0.246 OA
BRANCH  31  33
ATOM     33  C   UNL A   1      38.084  28.973  28.640  1.00  0.00     0.060 A 
ATOM     34  C   UNL A   1      38.780  28.168  29.547  1.00  0.00     0.016 A 
ATOM     35  C   UNL A   1      38.688  29.381  27.453  1.00  0.00     0.016 A 
ATOM     36  C   UNL A   1      40.121  27.861  29.322  1.00  0.00     0.010 A 
ATOM     37  C   UNL A   1      40.019  29.031  27.207  1.00  0.00     0.010 A 
ATOM     38  C   UNL A   1      40.763  28.321  28.167  1.00  0.00    -0.014 A 
BRANCH  38  39
ATOM     39  C   UNL A   1      42.235  28.184  28.009  1.00  0.00     0.031 A 
ATOM     40  C   UNL A   1      43.127  29.331  28.412  1.00  0.00     0.074 A 
ATOM     41  C   UNL A   1      42.783  27.050  27.536  1.00  0.00     0.049 A 
ATOM     42  N   UNL A   1      44.396  29.524  28.162  1.00  0.00    -0.248 NA
ATOM     43  C   UNL A   1      42.500  30.406  29.201  1.00  0.00     0.031 C 
ATOM     44  C   UNL A   1      42.055  25.823  27.215  1.00  0.00     0.029 A 
ATOM     45  N   UNL A   1      44.090  26.751  27.240  1.00  0.00    -0.354 N 
ATOM     46  C   UNL A   1      44.708  30.763  28.713  1.00  0.00     0.074 A 
ATOM     47  C   UNL A   1      43.495  31.275  29.314  1.00  0.00     0.031 C 
ATOM     48  C   UNL A   1      42.927  24.899  26.777  1.00  0.00     0.029 A 
ATOM     49  C   UNL A   1      44.257  25.496  26.708  1.00  0.00     0.049 A 
ATOM     50  H   UNL A   1      44.835  27.377  27.394  1.00  0.00     0.167 HD
ATOM     51  C   UNL A   1      45.894  31.419  28.706  1.00  0.00     0.031 A 
ATOM     52  C   UNL A   1      45.347  24.910  26.174  1.00  0.00     0.031 A 
ATOM     53  C   UNL A   1      47.100  30.892  28.124  1.00  0.00     0.049 A 
ATOM     54  C   UNL A   1      46.630  25.689  26.087  1.00  0.00     0.074 A 
ATOM     55  C   UNL A   1      48.349  31.481  28.043  1.00  0.00     0.029 A 
ATOM     56  N   UNL A   1      47.208  29.641  27.535  1.00  0.00    -0.354 N 
ATOM     57  N   UNL A   1      46.890  26.898  26.523  1.00  0.00    -0.248 NA
ATOM     58  C   UNL A   1      47.759  25.032  25.415  1.00  0.00     0.031 C 
ATOM     59  C   UNL A   1      49.204  30.600  27.369  1.00  0.00     0.029 A 
ATOM     60  C   UNL A   1      48.498  29.445  27.074  1.00  0.00     0.049 A 
ATOM     61  H   UNL A   1      46.475  28.989  27.457  1.00  0.00     0.167 HD
ATOM     62  C   UNL A   1      48.218  27.142  26.191  1.00  0.00     0.074 A 
ATOM     63  C   UNL A   1      48.709  25.950  25.529  1.00  0.00     0.031 C 
ATOM     64  C   UNL A   1      48.964  28.252  26.413  1.00  0.00     0.031 A 
BRANCH  51  65
ATOM     65  C   UNL A   1      45.919  32.807  29.290  1.00  0.00    -0.014 A 
ATOM     66  C   UNL A   1      46.509  33.072  30.537  1.00  0.00     0.010 A 
ATOM     67  C   UNL A   1      45.340  33.867  28.568  1.00  0.00     0.010 A 
ATOM     68  C   UNL A   1      46.475  34.363  31.075  1.00  0.00     0.020 A 
ATOM     69  C   UNL A   1      45.325  35.162  29.091  1.00  0.00     0.020 A 
ATOM     70  C   UNL A   1      45.874  35.398  30.353  1.00  0.00     0.054 A 
BRANCH  70  71
ATOM     71  S   UNL A   1      45.835  37.065  31.070  1.00  0.00     0.124 S 
ATOM     72  O   UNL A   1      44.401  37.276  31.258  1.00  0.00    -0.237 OA
ATOM     73  O   UNL A   1      46.613  36.909  32.296  1.00  0.00    -0.237 OA
ATOM     74  O   UNL A   1      46.457  37.898  30.043  1.00  0.00    -0.744 OA
ENDBRANCH  70  71
ENDBRANCH  51  65
BRANCH  52  75
ATOM     75  C   UNL A   1      45.251  23.530  25.628  1.00  0.00    -0.014 A 
ATOM     76  C   UNL A   1      45.347  22.418  26.481  1.00  0.00     0.010 A 
ATOM     77  C   UNL A   1      45.035  23.322  24.253  1.00  0.00     0.010 A 
ATOM     78  C   UNL A   1      45.230  21.122  25.970  1.00  0.00     0.020 A 
ATOM     79  C   UNL A   1      44.892  22.029  23.742  1.00  0.00     0.020 A 
ATOM     80  C   UNL A   1      44.999  20.936  24.603  1.00  0.00     0.054 A 
BRANCH  80  81
ATOM     81  S   UNL A   1      44.777  19.250  23.971  1.00  0.00     0.124 S 
ATOM     82  O   UNL A   1      46.048  18.625  24.321  1.00  0.00    -0.237 OA
ATOM     83  O   UNL A   1      43.614  18.779  24.718  1.00  0.00    -0.237 OA
ATOM     84  O   UNL A   1      44.549  19.450  22.541  1.00  0.00    -0.744 OA
ENDBRANCH  80  81
ENDBRANCH  52  75
BRANCH  64  85
ATOM     85  C   UNL A   1      50.399  28.216  25.965  1.00  0.00    -0.014 A 
ATOM     86  C   UNL A   1      50.739  28.352  24.608  1.00  0.00     0.010 A 
ATOM     87  C   UNL A   1      51.421  28.087  26.923  1.00  0.00     0.010 A 
ATOM     88  C   UNL A   1      52.079  28.333  24.214  1.00  0.00     0.020 A 
ATOM     89  C   UNL A   1      52.763  28.090  26.534  1.00  0.00     0.020 A 
ATOM     90  C   UNL A   1      53.083  28.200  25.179  1.00  0.00     0.054 A 
BRANCH  90  91
ATOM     91  S   UNL A   1      54.818  28.218  24.650  1.00  0.00     0.124 S 
ATOM     92  O   UNL A   1      54.693  28.403  23.206  1.00  0.00    -0.237 OA
ATOM     93  O   UNL A   1      55.367  29.356  25.384  1.00  0.00    -0.237 OA
ATOM     94  O   UNL A   1      55.322  26.913  25.070  1.00  0.00    -0.744 OA
ENDBRANCH  90  91
ENDBRANCH  64  85
ENDBRANCH  38  39
ENDBRANCH  31  33
ENDBRANCH  30  31
ENDBRANCH  29  30
ENDBRANCH  28  29
ENDBRANCH  27  28
ENDBRANCH   1  27
TORSDOF 23
ENDMDL
