MODEL 1
REMARK VINA RESULT:     -10.9      0.000      0.000
REMARK SMILES Cc1cc(=O)n2cc(-c3ccccc3)nc2n1[C@H](C)C(=O)OCCOCCOCCOC(=O)c1ccc(-c2c3nc(c(-c4ccc(S(=O)(=O)[O-])cc4)c4ccc([nH]4)c(-c4ccc(S(=O)(=O)[O-])cc4)c4nc(c(-c5ccc(S(=O)(=O)[O-])cc5)c5ccc2[nH]5)C=C4)C=C3)cc1
REMARK SMILES IDX 27 1 26 2 25 3 24 4 23 5 22 6 20 7 21 8 18 9 19 10 17 11
REMARK SMILES IDX 1 12 2 13 3 14 4 15 16 16 5 17 6 18 15 19 7 20 8 21 9 22
REMARK SMILES IDX 10 23 14 24 11 25 13 26 12 27 28 28 29 29 30 30 31 31 32 32
REMARK SMILES IDX 33 33 34 34 35 35 93 36 36 37 92 38 37 39 38 40 39 41 86 42
REMARK SMILES IDX 40 43 91 44 85 45 87 46 41 47 90 48 84 49 83 50 42 52 72 53
REMARK SMILES IDX 53 54 71 55 54 56 57 57 70 58 88 59 55 60 56 61 69 63 89 64
REMARK SMILES IDX 58 65 43 66 44 67 52 68 45 69 51 70 46 71 47 72 48 73 49 74
REMARK SMILES IDX 50 75 73 76 74 77 82 78 75 79 81 80 76 81 77 82 78 83 79 84
REMARK SMILES IDX 80 85 59 86 60 87 68 88 61 89 67 90 62 91 63 92 64 93 65 94
REMARK SMILES IDX 66 95
REMARK H PARENT 87 51 57 62
REMARK Flexibility Score: inf
ROOT
ATOM      1  C   UNL A   1      39.487  22.351  26.890  1.00  0.00     0.188 C 
ENDROOT
BRANCH   1   2
ATOM      2  C   UNL A   1      38.591  22.661  25.686  1.00  0.00     0.188 C 
BRANCH   2   3
ATOM      3  O   UNL A   1      37.793  21.635  25.134  1.00  0.00    -0.376 OA
BRANCH   3   4
ATOM      4  C   UNL A   1      36.403  21.664  25.403  1.00  0.00     0.202 C 
BRANCH   4   5
ATOM      5  C   UNL A   1      35.764  22.986  25.866  1.00  0.00     0.261 C 
BRANCH   5   6
ATOM      6  O   UNL A   1      35.650  23.994  24.841  1.00  0.00    -0.462 OA
BRANCH   6   7
ATOM      7  C   UNL A   1      35.176  23.586  23.638  1.00  0.00     0.329 C 
ATOM      8  O   UNL A   1      35.830  22.894  22.853  1.00  0.00    -0.250 OA
BRANCH   7   9
ATOM      9  C   UNL A   1      33.718  24.006  23.300  1.00  0.00     0.197 C 
ATOM     10  C   UNL A   1      33.006  23.589  22.012  1.00  0.00     0.044 C 
BRANCH   9  11
ATOM     11  N   UNL A   1      32.882  23.591  24.455  1.00  0.00    -0.301 N 
ATOM     12  C   UNL A   1      33.039  21.136  23.925  1.00  0.00     0.065 C 
ATOM     13  C   UNL A   1      32.477  22.281  24.734  1.00  0.00     0.024 A 
ATOM     14  C   UNL A   1      31.580  22.034  25.709  1.00  0.00     0.093 A 
ATOM     15  C   UNL A   1      30.997  23.151  26.499  1.00  0.00     0.259 A 
ATOM     16  C   UNL A   1      32.370  24.645  25.155  1.00  0.00     0.218 A 
ATOM     17  O   UNL A   1      30.175  23.008  27.392  1.00  0.00    -0.269 OA
ATOM     18  N   UNL A   1      31.451  24.418  26.147  1.00  0.00    -0.251 N 
ATOM     19  N   UNL A   1      32.588  25.926  24.976  1.00  0.00    -0.212 NA
ATOM     20  C   UNL A   1      31.095  25.658  26.642  1.00  0.00     0.127 A 
ATOM     21  C   UNL A   1      31.808  26.566  25.891  1.00  0.00     0.091 A 
BRANCH  21  22
ATOM     22  C   UNL A   1      31.763  28.007  25.982  1.00  0.00     0.002 A 
ATOM     23  C   UNL A   1      32.227  28.662  27.124  1.00  0.00     0.010 A 
ATOM     24  C   UNL A   1      31.303  28.761  24.893  1.00  0.00     0.010 A 
ATOM     25  C   UNL A   1      32.197  30.056  27.193  1.00  0.00     0.001 A 
ATOM     26  C   UNL A   1      31.263  30.155  24.967  1.00  0.00     0.001 A 
ATOM     27  C   UNL A   1      31.705  30.802  26.121  1.00  0.00     0.000 A 
ENDBRANCH  21  22
ENDBRANCH   9  11
ENDBRANCH   7   9
ENDBRANCH   6   7
ENDBRANCH   5   6
ENDBRANCH   4   5
ENDBRANCH   3   4
ENDBRANCH   2   3
ENDBRANCH   1   2
BRANCH   1  28
ATOM     28  O   UNL A   1      40.717  21.651  26.842  1.00  0.00    -0.376 OA
BRANCH  28  29
ATOM     29  C   UNL A   1      40.962  20.357  26.300  1.00  0.00     0.202 C 
BRANCH  29  30
ATOM     30  C   UNL A   1      42.351  19.768  26.017  1.00  0.00     0.261 C 
BRANCH  30  31
ATOM     31  O   UNL A   1      43.412  20.673  26.156  1.00  0.00    -0.460 OA
BRANCH  31  32
ATOM     32  C   UNL A   1      44.163  20.798  25.036  1.00  0.00     0.338 C 
ATOM     33  O   UNL A   1      44.334  19.981  24.159  1.00  0.00    -0.246 OA
BRANCH  32  34
ATOM     34  C   UNL A   1      44.649  22.188  25.024  1.00  0.00     0.060 A 
ATOM     35  C   UNL A   1      45.833  22.452  25.704  1.00  0.00     0.016 A 
ATOM     36  C   UNL A   1      43.871  23.205  24.437  1.00  0.00     0.016 A 
ATOM     37  C   UNL A   1      45.998  23.726  26.170  1.00  0.00     0.010 A 
ATOM     38  C   UNL A   1      44.053  24.480  24.872  1.00  0.00     0.010 A 
ATOM     39  C   UNL A   1      44.981  24.639  25.886  1.00  0.00    -0.014 A 
BRANCH  39  40
ATOM     40  C   UNL A   1      44.727  25.667  26.857  1.00  0.00     0.031 A 
ATOM     41  C   UNL A   1      45.726  26.732  26.816  1.00  0.00     0.074 A 
ATOM     42  C   UNL A   1      43.625  25.614  27.632  1.00  0.00     0.049 A 
ATOM     43  N   UNL A   1      46.714  26.893  27.626  1.00  0.00    -0.248 NA
ATOM     44  C   UNL A   1      45.788  27.551  25.595  1.00  0.00     0.031 C 
ATOM     45  C   UNL A   1      42.448  24.739  27.536  1.00  0.00     0.029 A 
ATOM     46  N   UNL A   1      43.283  26.442  28.641  1.00  0.00    -0.354 N 
ATOM     47  C   UNL A   1      47.392  27.995  27.138  1.00  0.00     0.074 A 
ATOM     48  C   UNL A   1      46.945  28.184  25.781  1.00  0.00     0.031 C 
ATOM     49  C   UNL A   1      41.435  25.277  28.259  1.00  0.00     0.029 A 
ATOM     50  C   UNL A   1      41.936  26.442  28.970  1.00  0.00     0.049 A 
ATOM     51  H   UNL A   1      43.941  27.004  29.111  1.00  0.00     0.167 HD
ATOM     52  C   UNL A   1      48.036  28.853  27.971  1.00  0.00     0.031 A 
ATOM     53  C   UNL A   1      41.304  27.420  29.672  1.00  0.00     0.031 A 
ATOM     54  C   UNL A   1      48.184  28.309  29.297  1.00  0.00     0.049 A 
ATOM     55  C   UNL A   1      42.373  28.171  30.398  1.00  0.00     0.074 A 
ATOM     56  C   UNL A   1      48.823  27.199  29.812  1.00  0.00     0.029 A 
ATOM     57  N   UNL A   1      47.248  28.683  30.237  1.00  0.00    -0.354 N 
ATOM     58  N   UNL A   1      43.114  27.631  31.331  1.00  0.00    -0.248 NA
ATOM     59  C   UNL A   1      42.972  29.317  29.722  1.00  0.00     0.031 C 
ATOM     60  C   UNL A   1      47.930  26.683  30.796  1.00  0.00     0.029 A 
ATOM     61  C   UNL A   1      46.833  27.544  30.886  1.00  0.00     0.049 A 
ATOM     62  H   UNL A   1      46.933  29.599  30.412  1.00  0.00     0.167 HD
ATOM     63  C   UNL A   1      44.404  28.087  31.085  1.00  0.00     0.074 A 
ATOM     64  C   UNL A   1      44.244  29.171  30.115  1.00  0.00     0.031 C 
ATOM     65  C   UNL A   1      45.506  27.356  31.440  1.00  0.00     0.031 A 
BRANCH  52  66
ATOM     66  C   UNL A   1      48.150  30.317  27.672  1.00  0.00    -0.014 A 
ATOM     67  C   UNL A   1      46.985  31.047  27.389  1.00  0.00     0.010 A 
ATOM     68  C   UNL A   1      49.391  30.946  27.422  1.00  0.00     0.010 A 
ATOM     69  C   UNL A   1      47.064  32.334  26.845  1.00  0.00     0.020 A 
ATOM     70  C   UNL A   1      49.479  32.243  26.928  1.00  0.00     0.020 A 
ATOM     71  C   UNL A   1      48.312  32.917  26.612  1.00  0.00     0.054 A 
BRANCH  71  72
ATOM     72  S   UNL A   1      48.398  34.536  25.814  1.00  0.00     0.124 S 
ATOM     73  O   UNL A   1      49.631  34.425  25.042  1.00  0.00    -0.237 OA
ATOM     74  O   UNL A   1      47.161  34.561  25.039  1.00  0.00    -0.237 OA
ATOM     75  O   UNL A   1      48.443  35.470  26.938  1.00  0.00    -0.744 OA
ENDBRANCH  71  72
ENDBRANCH  52  66
BRANCH  53  76
ATOM     76  C   UNL A   1      39.975  28.010  29.334  1.00  0.00    -0.014 A 
ATOM     77  C   UNL A   1      38.972  28.184  30.307  1.00  0.00     0.010 A 
ATOM     78  C   UNL A   1      39.786  28.654  28.091  1.00  0.00     0.010 A 
ATOM     79  C   UNL A   1      37.855  29.009  30.062  1.00  0.00     0.020 A 
ATOM     80  C   UNL A   1      38.677  29.472  27.838  1.00  0.00     0.020 A 
ATOM     81  C   UNL A   1      37.726  29.665  28.833  1.00  0.00     0.054 A 
BRANCH  81  82
ATOM     82  S   UNL A   1      36.373  30.854  28.576  1.00  0.00     0.124 S 
ATOM     83  O   UNL A   1      35.667  30.284  27.433  1.00  0.00    -0.237 OA
ATOM     84  O   UNL A   1      35.661  30.803  29.850  1.00  0.00    -0.237 OA
ATOM     85  O   UNL A   1      37.067  32.113  28.309  1.00  0.00    -0.744 OA
ENDBRANCH  81  82
ENDBRANCH  53  76
BRANCH  65  86
ATOM     86  C   UNL A   1      45.315  26.122  32.301  1.00  0.00    -0.014 A 
ATOM     87  C   UNL A   1      44.862  24.879  31.812  1.00  0.00     0.010 A 
ATOM     88  C   UNL A   1      45.791  26.182  33.622  1.00  0.00     0.010 A 
ATOM     89  C   UNL A   1      44.865  23.737  32.633  1.00  0.00     0.020 A 
ATOM     90  C   UNL A   1      45.812  25.049  34.438  1.00  0.00     0.020 A 
ATOM     91  C   UNL A   1      45.341  23.831  33.944  1.00  0.00     0.054 A 
BRANCH  91  92
ATOM     92  S   UNL A   1      45.374  22.353  34.999  1.00  0.00     0.124 S 
ATOM     93  O   UNL A   1      45.472  22.921  36.340  1.00  0.00    -0.237 OA
ATOM     94  O   UNL A   1      44.106  21.700  34.682  1.00  0.00    -0.237 OA
ATOM     95  O   UNL A   1      46.563  21.630  34.548  1.00  0.00    -0.744 OA
ENDBRANCH  91  92
ENDBRANCH  65  86
ENDBRANCH  39  40
ENDBRANCH  32  34
ENDBRANCH  31  32
ENDBRANCH  30  31
ENDBRANCH  29  30
ENDBRANCH  28  29
ENDBRANCH   1  28
TORSDOF 22
ENDMDL
MODEL 2
REMARK VINA RESULT:     -10.9      2.604      7.420
REMARK SMILES Cc1cc(=O)n2cc(-c3ccccc3)nc2n1[C@H](C)C(=O)OCCOCCOCCOC(=O)c1ccc(-c2c3nc(c(-c4ccc(S(=O)(=O)[O-])cc4)c4ccc([nH]4)c(-c4ccc(S(=O)(=O)[O-])cc4)c4nc(c(-c5ccc(S(=O)(=O)[O-])cc5)c5ccc2[nH]5)C=C4)C=C3)cc1
REMARK SMILES IDX 27 1 26 2 25 3 24 4 23 5 22 6 20 7 21 8 18 9 19 10 17 11
REMARK SMILES IDX 1 12 2 13 3 14 4 15 16 16 5 17 6 18 15 19 7 20 8 21 9 22
REMARK SMILES IDX 10 23 14 24 11 25 13 26 12 27 28 28 29 29 30 30 31 31 32 32
REMARK SMILES IDX 33 33 34 34 35 35 93 36 36 37 92 38 37 39 38 40 39 41 86 42
REMARK SMILES IDX 40 43 91 44 85 45 87 46 41 47 90 48 84 49 83 50 42 52 72 53
REMARK SMILES IDX 53 54 71 55 54 56 57 57 70 58 88 59 55 60 56 61 69 63 89 64
REMARK SMILES IDX 58 65 43 66 44 67 52 68 45 69 51 70 46 71 47 72 48 73 49 74
REMARK SMILES IDX 50 75 73 76 74 77 82 78 75 79 81 80 76 81 77 82 78 83 79 84
REMARK SMILES IDX 80 85 59 86 60 87 68 88 61 89 67 90 62 91 63 92 64 93 65 94
REMARK SMILES IDX 66 95
REMARK H PARENT 87 51 57 62
REMARK Flexibility Score: inf
ROOT
ATOM      1  C   UNL A   1      34.359  22.128  23.928  1.00  0.00     0.188 C 
ENDROOT
BRANCH   1   2
ATOM      2  C   UNL A   1      34.529  23.648  23.831  1.00  0.00     0.188 C 
BRANCH   2   3
ATOM      3  O   UNL A   1      34.471  24.271  22.565  1.00  0.00    -0.376 OA
BRANCH   3   4
ATOM      4  C   UNL A   1      33.586  25.365  22.409  1.00  0.00     0.202 C 
BRANCH   4   5
ATOM      5  C   UNL A   1      32.278  25.156  21.625  1.00  0.00     0.261 C 
BRANCH   5   6
ATOM      6  O   UNL A   1      31.075  25.429  22.372  1.00  0.00    -0.462 OA
BRANCH   6   7
ATOM      7  C   UNL A   1      30.833  24.637  23.446  1.00  0.00     0.329 C 
ATOM      8  O   UNL A   1      31.020  23.417  23.442  1.00  0.00    -0.250 OA
BRANCH   7   9
ATOM      9  C   UNL A   1      30.334  25.359  24.729  1.00  0.00     0.197 C 
ATOM     10  C   UNL A   1      29.843  24.612  25.970  1.00  0.00     0.044 C 
BRANCH   9  11
ATOM     11  N   UNL A   1      31.417  26.289  25.137  1.00  0.00    -0.301 N 
ATOM     12  C   UNL A   1      32.685  24.541  26.430  1.00  0.00     0.065 C 
ATOM     13  C   UNL A   1      32.480  25.972  25.990  1.00  0.00     0.024 A 
ATOM     14  C   UNL A   1      33.314  26.933  26.432  1.00  0.00     0.093 A 
ATOM     15  C   UNL A   1      33.113  28.350  26.030  1.00  0.00     0.259 A 
ATOM     16  C   UNL A   1      31.197  27.578  24.745  1.00  0.00     0.218 A 
ATOM     17  O   UNL A   1      33.821  29.278  26.395  1.00  0.00    -0.269 OA
ATOM     18  N   UNL A   1      32.027  28.573  25.189  1.00  0.00    -0.251 N 
ATOM     19  N   UNL A   1      30.216  28.051  24.013  1.00  0.00    -0.212 NA
ATOM     20  C   UNL A   1      31.539  29.754  24.663  1.00  0.00     0.127 A 
ATOM     21  C   UNL A   1      30.416  29.396  23.951  1.00  0.00     0.091 A 
BRANCH  21  22
ATOM     22  C   UNL A   1      29.512  30.271  23.241  1.00  0.00     0.002 A 
ATOM     23  C   UNL A   1      29.065  31.458  23.825  1.00  0.00     0.010 A 
ATOM     24  C   UNL A   1      29.123  29.957  21.931  1.00  0.00     0.010 A 
ATOM     25  C   UNL A   1      28.208  32.306  23.121  1.00  0.00     0.001 A 
ATOM     26  C   UNL A   1      28.256  30.800  21.232  1.00  0.00     0.001 A 
ATOM     27  C   UNL A   1      27.794  31.972  21.831  1.00  0.00     0.000 A 
ENDBRANCH  21  22
ENDBRANCH   9  11
ENDBRANCH   7   9
ENDBRANCH   6   7
ENDBRANCH   5   6
ENDBRANCH   4   5
ENDBRANCH   3   4
ENDBRANCH   2   3
ENDBRANCH   1   2
BRANCH   1  28
ATOM     28  O   UNL A   1      34.975  21.290  24.888  1.00  0.00    -0.376 OA
BRANCH  28  29
ATOM     29  C   UNL A   1      36.157  21.549  25.641  1.00  0.00     0.202 C 
BRANCH  29  30
ATOM     30  C   UNL A   1      37.520  21.924  25.043  1.00  0.00     0.261 C 
BRANCH  30  31
ATOM     31  O   UNL A   1      38.556  22.049  25.978  1.00  0.00    -0.460 OA
BRANCH  31  32
ATOM     32  C   UNL A   1      39.419  21.005  25.969  1.00  0.00     0.338 C 
ATOM     33  O   UNL A   1      39.259  19.910  25.475  1.00  0.00    -0.246 OA
BRANCH  32  34
ATOM     34  C   UNL A   1      40.665  21.500  26.578  1.00  0.00     0.060 A 
ATOM     35  C   UNL A   1      40.846  21.258  27.936  1.00  0.00     0.016 A 
ATOM     36  C   UNL A   1      41.563  22.278  25.822  1.00  0.00     0.016 A 
ATOM     37  C   UNL A   1      41.649  22.134  28.610  1.00  0.00     0.010 A 
ATOM     38  C   UNL A   1      42.389  23.128  26.488  1.00  0.00     0.010 A 
ATOM     39  C   UNL A   1      42.233  23.158  27.863  1.00  0.00    -0.014 A 
BRANCH  39  40
ATOM     40  C   UNL A   1      42.449  24.416  28.523  1.00  0.00     0.031 A 
ATOM     41  C   UNL A   1      41.398  25.389  28.227  1.00  0.00     0.074 A 
ATOM     42  C   UNL A   1      43.491  24.574  29.362  1.00  0.00     0.049 A 
ATOM     43  N   UNL A   1      41.469  26.369  27.396  1.00  0.00    -0.248 NA
ATOM     44  C   UNL A   1      40.042  25.082  28.709  1.00  0.00     0.031 C 
ATOM     45  C   UNL A   1      44.411  23.573  29.921  1.00  0.00     0.029 A 
ATOM     46  N   UNL A   1      43.884  25.703  29.990  1.00  0.00    -0.354 N 
ATOM     47  C   UNL A   1      40.215  26.952  27.434  1.00  0.00     0.074 A 
ATOM     48  C   UNL A   1      39.332  25.985  28.035  1.00  0.00     0.031 C 
ATOM     49  C   UNL A   1      45.045  24.103  30.995  1.00  0.00     0.029 A 
ATOM     50  C   UNL A   1      44.682  25.506  31.106  1.00  0.00     0.049 A 
ATOM     51  H   UNL A   1      43.624  26.601  29.678  1.00  0.00     0.167 HD
ATOM     52  C   UNL A   1      40.052  28.288  27.254  1.00  0.00     0.031 A 
ATOM     53  C   UNL A   1      44.894  26.425  32.086  1.00  0.00     0.031 A 
ATOM     54  C   UNL A   1      41.240  28.910  26.726  1.00  0.00     0.049 A 
ATOM     55  C   UNL A   1      44.536  27.753  31.499  1.00  0.00     0.074 A 
ATOM     56  C   UNL A   1      41.964  28.759  25.561  1.00  0.00     0.029 A 
ATOM     57  N   UNL A   1      42.088  29.511  27.631  1.00  0.00    -0.354 N 
ATOM     58  N   UNL A   1      45.194  28.290  30.505  1.00  0.00    -0.248 NA
ATOM     59  C   UNL A   1      43.158  28.207  31.644  1.00  0.00     0.031 C 
ATOM     60  C   UNL A   1      43.330  28.831  25.965  1.00  0.00     0.029 A 
ATOM     61  C   UNL A   1      43.368  29.101  27.335  1.00  0.00     0.049 A 
ATOM     62  H   UNL A   1      41.827  30.122  28.357  1.00  0.00     0.167 HD
ATOM     63  C   UNL A   1      44.220  28.820  29.665  1.00  0.00     0.074 A 
ATOM     64  C   UNL A   1      42.986  28.789  30.450  1.00  0.00     0.031 C 
ATOM     65  C   UNL A   1      44.424  28.946  28.317  1.00  0.00     0.031 A 
BRANCH  52  66
ATOM     66  C   UNL A   1      38.965  29.057  27.941  1.00  0.00    -0.014 A 
ATOM     67  C   UNL A   1      37.857  29.486  27.194  1.00  0.00     0.010 A 
ATOM     68  C   UNL A   1      39.114  29.580  29.246  1.00  0.00     0.010 A 
ATOM     69  C   UNL A   1      36.962  30.425  27.719  1.00  0.00     0.020 A 
ATOM     70  C   UNL A   1      38.203  30.476  29.794  1.00  0.00     0.020 A 
ATOM     71  C   UNL A   1      37.149  30.918  29.013  1.00  0.00     0.054 A 
BRANCH  71  72
ATOM     72  S   UNL A   1      36.046  32.205  29.637  1.00  0.00     0.124 S 
ATOM     73  O   UNL A   1      34.918  32.105  28.718  1.00  0.00    -0.237 OA
ATOM     74  O   UNL A   1      35.795  31.757  31.004  1.00  0.00    -0.237 OA
ATOM     75  O   UNL A   1      36.843  33.425  29.522  1.00  0.00    -0.744 OA
ENDBRANCH  71  72
ENDBRANCH  52  66
BRANCH  53  76
ATOM     76  C   UNL A   1      44.877  26.148  33.553  1.00  0.00    -0.014 A 
ATOM     77  C   UNL A   1      45.695  26.862  34.451  1.00  0.00     0.010 A 
ATOM     78  C   UNL A   1      43.850  25.353  34.109  1.00  0.00     0.010 A 
ATOM     79  C   UNL A   1      45.459  26.819  35.841  1.00  0.00     0.020 A 
ATOM     80  C   UNL A   1      43.613  25.302  35.488  1.00  0.00     0.020 A 
ATOM     81  C   UNL A   1      44.405  26.054  36.349  1.00  0.00     0.054 A 
BRANCH  81  82
ATOM     82  S   UNL A   1      44.001  26.127  38.121  1.00  0.00     0.124 S 
ATOM     83  O   UNL A   1      44.672  27.351  38.546  1.00  0.00    -0.237 OA
ATOM     84  O   UNL A   1      42.541  26.176  38.111  1.00  0.00    -0.237 OA
ATOM     85  O   UNL A   1      44.571  24.892  38.656  1.00  0.00    -0.744 OA
ENDBRANCH  81  82
ENDBRANCH  53  76
BRANCH  65  86
ATOM     86  C   UNL A   1      45.812  28.694  27.763  1.00  0.00    -0.014 A 
ATOM     87  C   UNL A   1      46.305  27.419  27.415  1.00  0.00     0.010 A 
ATOM     88  C   UNL A   1      46.578  29.820  27.411  1.00  0.00     0.010 A 
ATOM     89  C   UNL A   1      47.540  27.278  26.756  1.00  0.00     0.020 A 
ATOM     90  C   UNL A   1      47.796  29.688  26.741  1.00  0.00     0.020 A 
ATOM     91  C   UNL A   1      48.278  28.418  26.423  1.00  0.00     0.054 A 
BRANCH  91  92
ATOM     92  S   UNL A   1      49.859  28.243  25.546  1.00  0.00     0.124 S 
ATOM     93  O   UNL A   1      50.575  29.454  25.935  1.00  0.00    -0.237 OA
ATOM     94  O   UNL A   1      50.392  26.994  26.084  1.00  0.00    -0.237 OA
ATOM     95  O   UNL A   1      49.470  28.183  24.136  1.00  0.00    -0.744 OA
ENDBRANCH  91  92
ENDBRANCH  65  86
ENDBRANCH  39  40
ENDBRANCH  32  34
ENDBRANCH  31  32
ENDBRANCH  30  31
ENDBRANCH  29  30
ENDBRANCH  28  29
ENDBRANCH   1  28
TORSDOF 22
ENDMDL
MODEL 3
REMARK VINA RESULT:     -10.8      2.660      9.486
REMARK SMILES Cc1cc(=O)n2cc(-c3ccccc3)nc2n1[C@H](C)C(=O)OCCOCCOCCOC(=O)c1ccc(-c2c3nc(c(-c4ccc(S(=O)(=O)[O-])cc4)c4ccc([nH]4)c(-c4ccc(S(=O)(=O)[O-])cc4)c4nc(c(-c5ccc(S(=O)(=O)[O-])cc5)c5ccc2[nH]5)C=C4)C=C3)cc1
REMARK SMILES IDX 27 1 26 2 25 3 24 4 23 5 22 6 20 7 21 8 18 9 19 10 17 11
REMARK SMILES IDX 1 12 2 13 3 14 4 15 16 16 5 17 6 18 15 19 7 20 8 21 9 22
REMARK SMILES IDX 10 23 14 24 11 25 13 26 12 27 28 28 29 29 30 30 31 31 32 32
REMARK SMILES IDX 33 33 34 34 35 35 93 36 36 37 92 38 37 39 38 40 39 41 86 42
REMARK SMILES IDX 40 43 91 44 85 45 87 46 41 47 90 48 84 49 83 50 42 52 72 53
REMARK SMILES IDX 53 54 71 55 54 56 57 57 70 58 88 59 55 60 56 61 69 63 89 64
REMARK SMILES IDX 58 65 43 66 44 67 52 68 45 69 51 70 46 71 47 72 48 73 49 74
REMARK SMILES IDX 50 75 73 76 74 77 82 78 75 79 81 80 76 81 77 82 78 83 79 84
REMARK SMILES IDX 80 85 59 86 60 87 68 88 61 89 67 90 62 91 63 92 64 93 65 94
REMARK SMILES IDX 66 95
REMARK H PARENT 87 51 57 62
REMARK Flexibility Score: inf
ROOT
ATOM      1  C   UNL A   1      31.732  29.351  24.557  1.00  0.00     0.188 C 
ENDROOT
BRANCH   1   2
ATOM      2  C   UNL A   1      30.493  29.382  23.655  1.00  0.00     0.188 C 
BRANCH   2   3
ATOM      3  O   UNL A   1      30.088  28.201  22.996  1.00  0.00    -0.376 OA
BRANCH   3   4
ATOM      4  C   UNL A   1      28.973  27.503  23.520  1.00  0.00     0.202 C 
BRANCH   4   5
ATOM      5  C   UNL A   1      29.127  26.012  23.868  1.00  0.00     0.261 C 
BRANCH   5   6
ATOM      6  O   UNL A   1      30.465  25.493  23.726  1.00  0.00    -0.462 OA
BRANCH   6   7
ATOM      7  C   UNL A   1      30.642  24.181  24.022  1.00  0.00     0.329 C 
ATOM      8  O   UNL A   1      30.565  23.282  23.180  1.00  0.00    -0.250 OA
BRANCH   7   9
ATOM      9  C   UNL A   1      30.995  23.855  25.500  1.00  0.00     0.197 C 
ATOM     10  C   UNL A   1      30.576  22.557  26.192  1.00  0.00     0.044 C 
BRANCH   9  11
ATOM     11  N   UNL A   1      32.467  24.000  25.623  1.00  0.00    -0.301 N 
ATOM     12  C   UNL A   1      32.364  26.438  26.239  1.00  0.00     0.065 C 
ATOM     13  C   UNL A   1      33.146  25.196  25.884  1.00  0.00     0.024 A 
ATOM     14  C   UNL A   1      34.491  25.251  25.807  1.00  0.00     0.093 A 
ATOM     15  C   UNL A   1      35.275  24.045  25.434  1.00  0.00     0.259 A 
ATOM     16  C   UNL A   1      33.151  22.871  25.276  1.00  0.00     0.218 A 
ATOM     17  O   UNL A   1      36.494  24.018  25.336  1.00  0.00    -0.269 OA
ATOM     18  N   UNL A   1      34.518  22.905  25.185  1.00  0.00    -0.251 N 
ATOM     19  N   UNL A   1      32.669  21.699  24.936  1.00  0.00    -0.212 NA
ATOM     20  C   UNL A   1      34.916  21.644  24.786  1.00  0.00     0.127 A 
ATOM     21  C   UNL A   1      33.749  20.928  24.632  1.00  0.00     0.091 A 
BRANCH  21  22
ATOM     22  C   UNL A   1      33.612  19.561  24.187  1.00  0.00     0.002 A 
ATOM     23  C   UNL A   1      32.556  19.187  23.353  1.00  0.00     0.010 A 
ATOM     24  C   UNL A   1      34.577  18.609  24.546  1.00  0.00     0.010 A 
ATOM     25  C   UNL A   1      32.444  17.867  22.912  1.00  0.00     0.001 A 
ATOM     26  C   UNL A   1      34.458  17.287  24.114  1.00  0.00     0.001 A 
ATOM     27  C   UNL A   1      33.388  16.915  23.302  1.00  0.00     0.000 A 
ENDBRANCH  21  22
ENDBRANCH   9  11
ENDBRANCH   7   9
ENDBRANCH   6   7
ENDBRANCH   5   6
ENDBRANCH   4   5
ENDBRANCH   3   4
ENDBRANCH   2   3
ENDBRANCH   1   2
BRANCH   1  28
ATOM     28  O   UNL A   1      32.090  30.344  25.500  1.00  0.00    -0.376 OA
BRANCH  28  29
ATOM     29  C   UNL A   1      32.640  30.154  26.800  1.00  0.00     0.202 C 
BRANCH  29  30
ATOM     30  C   UNL A   1      34.136  30.196  27.140  1.00  0.00     0.261 C 
BRANCH  30  31
ATOM     31  O   UNL A   1      34.448  30.858  28.335  1.00  0.00    -0.460 OA
BRANCH  31  32
ATOM     32  C   UNL A   1      35.600  31.567  28.274  1.00  0.00     0.338 C 
ATOM     33  O   UNL A   1      35.863  32.500  27.549  1.00  0.00    -0.246 OA
BRANCH  32  34
ATOM     34  C   UNL A   1      36.450  31.057  29.364  1.00  0.00     0.060 A 
ATOM     35  C   UNL A   1      37.451  31.901  29.835  1.00  0.00     0.016 A 
ATOM     36  C   UNL A   1      36.304  29.731  29.815  1.00  0.00     0.016 A 
ATOM     37  C   UNL A   1      38.541  31.299  30.397  1.00  0.00     0.010 A 
ATOM     38  C   UNL A   1      37.374  29.136  30.407  1.00  0.00     0.010 A 
ATOM     39  C   UNL A   1      38.522  29.905  30.476  1.00  0.00    -0.014 A 
BRANCH  39  40
ATOM     40  C   UNL A   1      39.781  29.221  30.363  1.00  0.00     0.031 A 
ATOM     41  C   UNL A   1      40.467  29.099  31.648  1.00  0.00     0.074 A 
ATOM     42  C   UNL A   1      40.177  28.716  29.178  1.00  0.00     0.049 A 
ATOM     43  N   UNL A   1      41.451  29.816  32.066  1.00  0.00    -0.248 NA
ATOM     44  C   UNL A   1      39.822  28.270  32.679  1.00  0.00     0.031 C 
ATOM     45  C   UNL A   1      39.426  28.552  27.925  1.00  0.00     0.029 A 
ATOM     46  N   UNL A   1      41.355  28.127  28.881  1.00  0.00    -0.354 N 
ATOM     47  C   UNL A   1      41.701  29.355  33.346  1.00  0.00     0.074 A 
ATOM     48  C   UNL A   1      40.533  28.614  33.751  1.00  0.00     0.031 C 
ATOM     49  C   UNL A   1      40.076  27.668  27.130  1.00  0.00     0.029 A 
ATOM     50  C   UNL A   1      41.341  27.321  27.755  1.00  0.00     0.049 A 
ATOM     51  H   UNL A   1      42.166  28.261  29.426  1.00  0.00     0.167 HD
ATOM     52  C   UNL A   1      42.958  29.350  33.861  1.00  0.00     0.031 A 
ATOM     53  C   UNL A   1      42.264  26.364  27.468  1.00  0.00     0.031 A 
ATOM     54  C   UNL A   1      43.867  30.143  33.073  1.00  0.00     0.049 A 
ATOM     55  C   UNL A   1      43.472  26.689  28.287  1.00  0.00     0.074 A 
ATOM     56  C   UNL A   1      43.924  31.479  32.730  1.00  0.00     0.029 A 
ATOM     57  N   UNL A   1      44.642  29.476  32.148  1.00  0.00    -0.354 N 
ATOM     58  N   UNL A   1      44.177  27.777  28.112  1.00  0.00    -0.248 NA
ATOM     59  C   UNL A   1      43.566  26.101  29.618  1.00  0.00     0.031 C 
ATOM     60  C   UNL A   1      44.326  31.491  31.362  1.00  0.00     0.029 A 
ATOM     61  C   UNL A   1      44.569  30.174  30.965  1.00  0.00     0.049 A 
ATOM     62  H   UNL A   1      45.154  28.650  32.306  1.00  0.00     0.167 HD
ATOM     63  C   UNL A   1      44.463  28.238  29.393  1.00  0.00     0.074 A 
ATOM     64  C   UNL A   1      44.110  27.129  30.281  1.00  0.00     0.031 C 
ATOM     65  C   UNL A   1      44.664  29.566  29.651  1.00  0.00     0.031 A 
BRANCH  52  66
ATOM     66  C   UNL A   1      43.417  28.302  34.828  1.00  0.00    -0.014 A 
ATOM     67  C   UNL A   1      43.705  28.674  36.151  1.00  0.00     0.010 A 
ATOM     68  C   UNL A   1      43.808  27.008  34.416  1.00  0.00     0.010 A 
ATOM     69  C   UNL A   1      44.387  27.802  37.006  1.00  0.00     0.020 A 
ATOM     70  C   UNL A   1      44.442  26.115  35.273  1.00  0.00     0.020 A 
ATOM     71  C   UNL A   1      44.756  26.531  36.556  1.00  0.00     0.054 A 
BRANCH  71  72
ATOM     72  S   UNL A   1      45.725  25.457  37.637  1.00  0.00     0.124 S 
ATOM     73  O   UNL A   1      44.741  25.082  38.648  1.00  0.00    -0.237 OA
ATOM     74  O   UNL A   1      46.136  24.395  36.724  1.00  0.00    -0.237 OA
ATOM     75  O   UNL A   1      46.805  26.324  38.105  1.00  0.00    -0.744 OA
ENDBRANCH  71  72
ENDBRANCH  52  66
BRANCH  53  76
ATOM     76  C   UNL A   1      41.963  24.990  26.965  1.00  0.00    -0.014 A 
ATOM     77  C   UNL A   1      42.879  24.275  26.170  1.00  0.00     0.010 A 
ATOM     78  C   UNL A   1      40.869  24.270  27.495  1.00  0.00     0.010 A 
ATOM     79  C   UNL A   1      42.731  22.888  25.958  1.00  0.00     0.020 A 
ATOM     80  C   UNL A   1      40.713  22.894  27.285  1.00  0.00     0.020 A 
ATOM     81  C   UNL A   1      41.658  22.203  26.536  1.00  0.00     0.054 A 
BRANCH  81  82
ATOM     82  S   UNL A   1      41.557  20.391  26.398  1.00  0.00     0.124 S 
ATOM     83  O   UNL A   1      42.543  20.100  25.363  1.00  0.00    -0.237 OA
ATOM     84  O   UNL A   1      41.906  19.952  27.746  1.00  0.00    -0.237 OA
ATOM     85  O   UNL A   1      40.167  20.152  26.013  1.00  0.00    -0.744 OA
ENDBRANCH  81  82
ENDBRANCH  53  76
BRANCH  65  86
ATOM     86  C   UNL A   1      44.776  30.527  28.484  1.00  0.00    -0.014 A 
ATOM     87  C   UNL A   1      43.711  30.845  27.615  1.00  0.00     0.010 A 
ATOM     88  C   UNL A   1      45.963  31.274  28.379  1.00  0.00     0.010 A 
ATOM     89  C   UNL A   1      43.842  31.866  26.656  1.00  0.00     0.020 A 
ATOM     90  C   UNL A   1      46.094  32.300  27.441  1.00  0.00     0.020 A 
ATOM     91  C   UNL A   1      45.038  32.587  26.576  1.00  0.00     0.054 A 
BRANCH  91  92
ATOM     92  S   UNL A   1      45.201  33.926  25.359  1.00  0.00     0.124 S 
ATOM     93  O   UNL A   1      44.585  33.349  24.168  1.00  0.00    -0.237 OA
ATOM     94  O   UNL A   1      44.465  35.023  25.981  1.00  0.00    -0.237 OA
ATOM     95  O   UNL A   1      46.646  34.136  25.265  1.00  0.00    -0.744 OA
ENDBRANCH  91  92
ENDBRANCH  65  86
ENDBRANCH  39  40
ENDBRANCH  32  34
ENDBRANCH  31  32
ENDBRANCH  30  31
ENDBRANCH  29  30
ENDBRANCH  28  29
ENDBRANCH   1  28
TORSDOF 22
ENDMDL
