MODEL 1
REMARK VINA RESULT:      -9.4      0.000      0.000
REMARK SMILES Cc1ccc(NC(=O)C[C@H]2C(=O)NCCN2C(=O)CCC(=O)OCCOCCOCCOC(=O)c2ccc(-c3c4nc(c(-c5ccc(S(=O)(=O)[O-])cc5)c5ccc([nH]5)c(-c5ccc(S(=O)(=O)[O-])cc5)c5nc(c(-c6ccc(S(=O)(=O)[O-])cc6)c6ccc3[nH]6)C=C5)C=C4)cc2)c(C)c1
REMARK SMILES IDX 26 1 25 2 24 3 23 4 21 5 22 6 20 7 19 8 17 9 18 10 16 11
REMARK SMILES IDX 10 12 11 13 12 14 13 15 15 16 14 17 9 19 7 20 6 21 8 23 5 24
REMARK SMILES IDX 1 25 2 26 3 27 97 28 4 29 95 30 96 31 27 32 28 33 29 34
REMARK SMILES IDX 30 35 31 36 32 37 33 38 34 39 35 40 36 41 94 42 37 43 93 44
REMARK SMILES IDX 38 45 39 46 40 47 87 48 41 49 92 50 86 51 88 52 42 53 91 54
REMARK SMILES IDX 85 55 84 56 43 58 73 59 54 60 72 61 55 62 58 63 71 64 89 65
REMARK SMILES IDX 56 66 57 67 70 69 90 70 59 71 44 72 45 73 53 74 46 75 52 76
REMARK SMILES IDX 47 77 48 78 49 79 50 80 51 81 74 82 75 83 83 84 76 85 82 86
REMARK SMILES IDX 77 87 78 88 79 89 80 90 81 91 60 92 61 93 69 94 62 95 68 96
REMARK SMILES IDX 63 97 64 98 65 99 66 100 67 101
REMARK H PARENT 13 18 6 22 88 57 58 68
REMARK Flexibility Score: inf
ROOT
ATOM      1  O   UNL A   1      33.221  34.199  28.831  1.00  0.00    -0.376 OA
ENDROOT
BRANCH   1   2
ATOM      2  C   UNL A   1      34.130  33.389  28.076  1.00  0.00     0.202 C 
BRANCH   2   3
ATOM      3  C   UNL A   1      33.727  31.914  27.977  1.00  0.00     0.261 C 
BRANCH   3   4
ATOM      4  O   UNL A   1      34.863  31.151  27.503  1.00  0.00    -0.463 OA
BRANCH   4   5
ATOM      5  C   UNL A   1      34.770  29.814  27.435  1.00  0.00     0.306 C 
ATOM      6  O   UNL A   1      35.688  29.047  27.698  1.00  0.00    -0.252 OA
BRANCH   5   7
ATOM      7  C   UNL A   1      33.392  29.316  27.051  1.00  0.00     0.132 C 
BRANCH   7   8
ATOM      8  C   UNL A   1      33.098  27.963  26.406  1.00  0.00     0.112 C 
BRANCH   8   9
ATOM      9  C   UNL A   1      31.890  27.446  25.587  1.00  0.00     0.223 C 
ATOM     10  O   UNL A   1      31.113  28.314  25.154  1.00  0.00    -0.275 OA
BRANCH   9  11
ATOM     11  N   UNL A   1      31.720  26.143  25.147  1.00  0.00    -0.328 N 
ATOM     12  C   UNL A   1      32.731  25.261  24.575  1.00  0.00     0.183 C 
ATOM     13  C   UNL A   1      32.371  24.645  23.196  1.00  0.00     0.243 C 
ATOM     14  O   UNL A   1      33.178  24.001  22.525  1.00  0.00    -0.273 OA
ATOM     15  N   UNL A   1      31.092  24.812  22.732  1.00  0.00    -0.353 N 
ATOM     16  C   UNL A   1      30.350  25.656  24.925  1.00  0.00     0.141 C 
ATOM     17  C   UNL A   1      30.087  25.598  23.420  1.00  0.00     0.137 C 
ATOM     18  H   UNL A   1      30.842  24.373  21.887  1.00  0.00     0.163 HD
BRANCH  12  19
ATOM     19  C   UNL A   1      33.309  24.185  25.507  1.00  0.00     0.135 C 
BRANCH  19  20
ATOM     20  C   UNL A   1      34.780  23.831  25.394  1.00  0.00     0.227 C 
ATOM     21  N   UNL A   1      35.288  22.594  25.134  1.00  0.00    -0.326 N 
ATOM     22  H   UNL A   1      36.273  22.577  25.129  1.00  0.00     0.169 HD
ATOM     23  O   UNL A   1      35.616  24.742  25.485  1.00  0.00    -0.275 OA
BRANCH  21  24
ATOM     24  C   UNL A   1      34.721  21.335  24.870  1.00  0.00     0.044 A 
ATOM     25  C   UNL A   1      32.417  17.694  24.732  1.00  0.00     0.044 C 
ATOM     26  C   UNL A   1      33.232  18.948  24.605  1.00  0.00    -0.051 A 
ATOM     27  C   UNL A   1      32.608  20.181  24.448  1.00  0.00     0.005 A 
ATOM     28  C   UNL A   1      34.621  18.922  24.756  1.00  0.00     0.009 A 
ATOM     29  C   UNL A   1      33.352  21.359  24.550  1.00  0.00     0.026 A 
ATOM     30  C   UNL A   1      35.387  20.106  24.867  1.00  0.00    -0.027 A 
ATOM     31  C   UNL A   1      36.876  19.963  24.919  1.00  0.00     0.046 C 
ENDBRANCH  21  24
ENDBRANCH  19  20
ENDBRANCH  12  19
ENDBRANCH   9  11
ENDBRANCH   8   9
ENDBRANCH   7   8
ENDBRANCH   5   7
ENDBRANCH   4   5
ENDBRANCH   3   4
ENDBRANCH   2   3
ENDBRANCH   1   2
BRANCH   1  32
ATOM     32  C   UNL A   1      33.773  34.834  29.974  1.00  0.00     0.188 C 
BRANCH  32  33
ATOM     33  C   UNL A   1      34.669  33.950  30.843  1.00  0.00     0.188 C 
BRANCH  33  34
ATOM     34  O   UNL A   1      35.399  34.562  31.900  1.00  0.00    -0.376 OA
BRANCH  34  35
ATOM     35  C   UNL A   1      35.751  33.699  32.996  1.00  0.00     0.202 C 
BRANCH  35  36
ATOM     36  C   UNL A   1      37.158  33.072  32.961  1.00  0.00     0.261 C 
BRANCH  36  37
ATOM     37  O   UNL A   1      37.194  31.628  32.989  1.00  0.00    -0.460 OA
BRANCH  37  38
ATOM     38  C   UNL A   1      36.879  30.941  31.859  1.00  0.00     0.338 C 
ATOM     39  O   UNL A   1      35.786  30.870  31.346  1.00  0.00    -0.246 OA
BRANCH  38  40
ATOM     40  C   UNL A   1      38.165  30.556  31.187  1.00  0.00     0.060 A 
ATOM     41  C   UNL A   1      39.111  29.828  31.927  1.00  0.00     0.016 A 
ATOM     42  C   UNL A   1      38.362  30.737  29.810  1.00  0.00     0.016 A 
ATOM     43  C   UNL A   1      40.263  29.326  31.309  1.00  0.00     0.010 A 
ATOM     44  C   UNL A   1      39.503  30.224  29.191  1.00  0.00     0.010 A 
ATOM     45  C   UNL A   1      40.484  29.556  29.944  1.00  0.00    -0.014 A 
BRANCH  45  46
ATOM     46  C   UNL A   1      41.839  29.397  29.357  1.00  0.00     0.031 A 
ATOM     47  C   UNL A   1      42.174  28.040  28.793  1.00  0.00     0.074 A 
ATOM     48  C   UNL A   1      42.754  30.383  29.337  1.00  0.00     0.049 A 
ATOM     49  N   UNL A   1      43.306  27.585  28.327  1.00  0.00    -0.248 NA
ATOM     50  C   UNL A   1      41.075  27.057  28.767  1.00  0.00     0.031 C 
ATOM     51  C   UNL A   1      42.548  31.751  29.807  1.00  0.00     0.029 A 
ATOM     52  N   UNL A   1      44.062  30.370  28.910  1.00  0.00    -0.354 N 
ATOM     53  C   UNL A   1      43.060  26.263  27.974  1.00  0.00     0.074 A 
ATOM     54  C   UNL A   1      41.685  25.977  28.309  1.00  0.00     0.031 C 
ATOM     55  C   UNL A   1      43.694  32.443  29.652  1.00  0.00     0.029 A 
ATOM     56  C   UNL A   1      44.726  31.557  29.113  1.00  0.00     0.049 A 
ATOM     57  H   UNL A   1      44.484  29.581  28.498  1.00  0.00     0.167 HD
ATOM     58  C   UNL A   1      43.901  25.362  27.416  1.00  0.00     0.031 A 
ATOM     59  C   UNL A   1      46.022  31.880  28.909  1.00  0.00     0.031 A 
ATOM     60  C   UNL A   1      45.273  25.642  27.098  1.00  0.00     0.049 A 
ATOM     61  C   UNL A   1      46.965  30.837  28.357  1.00  0.00     0.074 A 
ATOM     62  C   UNL A   1      46.209  24.802  26.522  1.00  0.00     0.029 A 
ATOM     63  N   UNL A   1      45.908  26.850  27.339  1.00  0.00    -0.354 N 
ATOM     64  N   UNL A   1      46.714  29.596  28.008  1.00  0.00    -0.248 NA
ATOM     65  C   UNL A   1      48.368  31.239  28.166  1.00  0.00     0.031 C 
ATOM     66  C   UNL A   1      47.428  25.483  26.471  1.00  0.00     0.029 A 
ATOM     67  C   UNL A   1      47.231  26.772  26.945  1.00  0.00     0.049 A 
ATOM     68  H   UNL A   1      45.480  27.646  27.731  1.00  0.00     0.167 HD
ATOM     69  C   UNL A   1      47.915  29.085  27.521  1.00  0.00     0.074 A 
ATOM     70  C   UNL A   1      48.891  30.150  27.617  1.00  0.00     0.031 C 
ATOM     71  C   UNL A   1      48.186  27.848  27.033  1.00  0.00     0.031 A 
BRANCH  58  72
ATOM     72  C   UNL A   1      43.363  23.981  27.155  1.00  0.00    -0.014 A 
ATOM     73  C   UNL A   1      42.905  23.602  25.879  1.00  0.00     0.010 A 
ATOM     74  C   UNL A   1      43.330  23.041  28.201  1.00  0.00     0.010 A 
ATOM     75  C   UNL A   1      42.388  22.322  25.665  1.00  0.00     0.020 A 
ATOM     76  C   UNL A   1      42.844  21.750  27.982  1.00  0.00     0.020 A 
ATOM     77  C   UNL A   1      42.361  21.405  26.719  1.00  0.00     0.054 A 
BRANCH  77  78
ATOM     78  S   UNL A   1      41.708  19.742  26.405  1.00  0.00     0.124 S 
ATOM     79  O   UNL A   1      40.278  20.005  26.258  1.00  0.00    -0.237 OA
ATOM     80  O   UNL A   1      42.403  19.353  25.181  1.00  0.00    -0.237 OA
ATOM     81  O   UNL A   1      42.082  18.989  27.599  1.00  0.00    -0.744 OA
ENDBRANCH  77  78
ENDBRANCH  58  72
BRANCH  59  82
ATOM     82  C   UNL A   1      46.520  33.247  29.245  1.00  0.00    -0.014 A 
ATOM     83  C   UNL A   1      46.500  34.278  28.289  1.00  0.00     0.010 A 
ATOM     84  C   UNL A   1      47.036  33.522  30.526  1.00  0.00     0.010 A 
ATOM     85  C   UNL A   1      46.999  35.548  28.599  1.00  0.00     0.020 A 
ATOM     86  C   UNL A   1      47.507  34.798  30.850  1.00  0.00     0.020 A 
ATOM     87  C   UNL A   1      47.495  35.802  29.880  1.00  0.00     0.054 A 
BRANCH  87  88
ATOM     88  S   UNL A   1      48.087  37.473  30.275  1.00  0.00     0.124 S 
ATOM     89  O   UNL A   1      47.305  38.297  29.361  1.00  0.00    -0.237 OA
ATOM     90  O   UNL A   1      47.746  37.599  31.691  1.00  0.00    -0.237 OA
ATOM     91  O   UNL A   1      49.518  37.406  29.990  1.00  0.00    -0.744 OA
ENDBRANCH  87  88
ENDBRANCH  59  82
BRANCH  71  92
ATOM     92  C   UNL A   1      49.571  27.582  26.502  1.00  0.00    -0.014 A 
ATOM     93  C   UNL A   1      50.556  26.961  27.288  1.00  0.00     0.010 A 
ATOM     94  C   UNL A   1      49.855  27.874  25.154  1.00  0.00     0.010 A 
ATOM     95  C   UNL A   1      51.807  26.656  26.742  1.00  0.00     0.020 A 
ATOM     96  C   UNL A   1      51.091  27.543  24.596  1.00  0.00     0.020 A 
ATOM     97  C   UNL A   1      52.064  26.945  25.398  1.00  0.00     0.054 A 
BRANCH  97  98
ATOM     98  S   UNL A   1      53.671  26.481  24.697  1.00  0.00     0.124 S 
ATOM     99  O   UNL A   1      54.546  26.551  25.864  1.00  0.00    -0.237 OA
ATOM    100  O   UNL A   1      53.419  25.138  24.180  1.00  0.00    -0.237 OA
ATOM    101  O   UNL A   1      53.914  27.499  23.676  1.00  0.00    -0.744 OA
ENDBRANCH  97  98
ENDBRANCH  71  92
ENDBRANCH  45  46
ENDBRANCH  38  40
ENDBRANCH  37  38
ENDBRANCH  36  37
ENDBRANCH  35  36
ENDBRANCH  34  35
ENDBRANCH  33  34
ENDBRANCH  32  33
ENDBRANCH   1  32
TORSDOF 26
ENDMDL
MODEL 2
REMARK VINA RESULT:      -8.9      1.621      7.947
REMARK SMILES Cc1ccc(NC(=O)C[C@H]2C(=O)NCCN2C(=O)CCC(=O)OCCOCCOCCOC(=O)c2ccc(-c3c4nc(c(-c5ccc(S(=O)(=O)[O-])cc5)c5ccc([nH]5)c(-c5ccc(S(=O)(=O)[O-])cc5)c5nc(c(-c6ccc(S(=O)(=O)[O-])cc6)c6ccc3[nH]6)C=C5)C=C4)cc2)c(C)c1
REMARK SMILES IDX 26 1 25 2 24 3 23 4 21 5 22 6 20 7 19 8 17 9 18 10 16 11
REMARK SMILES IDX 10 12 11 13 12 14 13 15 15 16 14 17 9 19 7 20 6 21 8 23 5 24
REMARK SMILES IDX 1 25 2 26 3 27 97 28 4 29 95 30 96 31 27 32 28 33 29 34
REMARK SMILES IDX 30 35 31 36 32 37 33 38 34 39 35 40 36 41 94 42 37 43 93 44
REMARK SMILES IDX 38 45 39 46 40 47 87 48 41 49 92 50 86 51 88 52 42 53 91 54
REMARK SMILES IDX 85 55 84 56 43 58 73 59 54 60 72 61 55 62 58 63 71 64 89 65
REMARK SMILES IDX 56 66 57 67 70 69 90 70 59 71 44 72 45 73 53 74 46 75 52 76
REMARK SMILES IDX 47 77 48 78 49 79 50 80 51 81 74 82 75 83 83 84 76 85 82 86
REMARK SMILES IDX 77 87 78 88 79 89 80 90 81 91 60 92 61 93 69 94 62 95 68 96
REMARK SMILES IDX 63 97 64 98 65 99 66 100 67 101
REMARK H PARENT 13 18 6 22 88 57 58 68
REMARK Flexibility Score: inf
ROOT
ATOM      1  O   UNL A   1      34.728  31.907  30.021  1.00  0.00    -0.376 OA
ENDROOT
BRANCH   1   2
ATOM      2  C   UNL A   1      34.397  32.243  28.668  1.00  0.00     0.202 C 
BRANCH   2   3
ATOM      3  C   UNL A   1      35.112  31.389  27.614  1.00  0.00     0.261 C 
BRANCH   3   4
ATOM      4  O   UNL A   1      34.619  30.030  27.703  1.00  0.00    -0.463 OA
BRANCH   4   5
ATOM      5  C   UNL A   1      33.759  29.585  26.775  1.00  0.00     0.306 C 
ATOM      6  O   UNL A   1      32.809  30.232  26.350  1.00  0.00    -0.252 OA
BRANCH   5   7
ATOM      7  C   UNL A   1      34.095  28.208  26.241  1.00  0.00     0.132 C 
BRANCH   7   8
ATOM      8  C   UNL A   1      33.113  27.041  26.149  1.00  0.00     0.112 C 
BRANCH   8   9
ATOM      9  C   UNL A   1      31.886  26.789  25.239  1.00  0.00     0.223 C 
ATOM     10  O   UNL A   1      30.988  27.647  25.284  1.00  0.00    -0.275 OA
BRANCH   9  11
ATOM     11  N   UNL A   1      31.802  25.811  24.260  1.00  0.00    -0.328 N 
ATOM     12  C   UNL A   1      32.667  24.649  24.092  1.00  0.00     0.183 C 
ATOM     13  C   UNL A   1      33.308  24.496  22.686  1.00  0.00     0.243 C 
ATOM     14  O   UNL A   1      34.169  23.653  22.436  1.00  0.00    -0.273 OA
ATOM     15  N   UNL A   1      32.869  25.325  21.686  1.00  0.00    -0.353 N 
ATOM     16  C   UNL A   1      30.977  26.082  23.073  1.00  0.00     0.141 C 
ATOM     17  C   UNL A   1      31.901  26.385  21.892  1.00  0.00     0.137 C 
ATOM     18  H   UNL A   1      33.229  25.194  20.779  1.00  0.00     0.163 HD
BRANCH  12  19
ATOM     19  C   UNL A   1      32.107  23.302  24.573  1.00  0.00     0.135 C 
BRANCH  19  20
ATOM     20  C   UNL A   1      32.496  22.796  25.950  1.00  0.00     0.227 C 
ATOM     21  N   UNL A   1      33.022  21.572  26.234  1.00  0.00    -0.326 N 
ATOM     22  H   UNL A   1      33.178  21.436  27.197  1.00  0.00     0.169 HD
ATOM     23  O   UNL A   1      32.390  23.568  26.915  1.00  0.00    -0.275 OA
BRANCH  21  24
ATOM     24  C   UNL A   1      33.393  20.458  25.460  1.00  0.00     0.044 A 
ATOM     25  C   UNL A   1      34.084  16.577  23.717  1.00  0.00     0.044 C 
ATOM     26  C   UNL A   1      33.832  17.989  24.159  1.00  0.00    -0.051 A 
ATOM     27  C   UNL A   1      32.535  18.433  24.393  1.00  0.00     0.005 A 
ATOM     28  C   UNL A   1      34.892  18.850  24.454  1.00  0.00     0.009 A 
ATOM     29  C   UNL A   1      32.321  19.668  25.010  1.00  0.00     0.026 A 
ATOM     30  C   UNL A   1      34.691  20.101  25.084  1.00  0.00    -0.027 A 
ATOM     31  C   UNL A   1      35.885  20.988  25.257  1.00  0.00     0.046 C 
ENDBRANCH  21  24
ENDBRANCH  19  20
ENDBRANCH  12  19
ENDBRANCH   9  11
ENDBRANCH   8   9
ENDBRANCH   7   8
ENDBRANCH   5   7
ENDBRANCH   4   5
ENDBRANCH   3   4
ENDBRANCH   2   3
ENDBRANCH   1   2
BRANCH   1  32
ATOM     32  C   UNL A   1      36.112  31.931  30.335  1.00  0.00     0.188 C 
BRANCH  32  33
ATOM     33  C   UNL A   1      36.511  32.903  31.446  1.00  0.00     0.188 C 
BRANCH  33  34
ATOM     34  O   UNL A   1      37.893  33.034  31.763  1.00  0.00    -0.376 OA
BRANCH  34  35
ATOM     35  C   UNL A   1      38.604  31.801  31.973  1.00  0.00     0.202 C 
BRANCH  35  36
ATOM     36  C   UNL A   1      37.841  30.673  32.693  1.00  0.00     0.261 C 
BRANCH  36  37
ATOM     37  O   UNL A   1      37.653  29.464  31.925  1.00  0.00    -0.460 OA
BRANCH  37  38
ATOM     38  C   UNL A   1      38.316  28.338  32.300  1.00  0.00     0.338 C 
ATOM     39  O   UNL A   1      37.843  27.390  32.882  1.00  0.00    -0.246 OA
BRANCH  38  40
ATOM     40  C   UNL A   1      39.641  28.335  31.594  1.00  0.00     0.060 A 
ATOM     41  C   UNL A   1      39.647  28.307  30.189  1.00  0.00     0.016 A 
ATOM     42  C   UNL A   1      40.844  28.546  32.282  1.00  0.00     0.016 A 
ATOM     43  C   UNL A   1      40.848  28.442  29.482  1.00  0.00     0.010 A 
ATOM     44  C   UNL A   1      42.040  28.695  31.577  1.00  0.00     0.010 A 
ATOM     45  C   UNL A   1      42.057  28.597  30.174  1.00  0.00    -0.014 A 
BRANCH  45  46
ATOM     46  C   UNL A   1      43.356  28.346  29.500  1.00  0.00     0.031 A 
ATOM     47  C   UNL A   1      44.362  29.469  29.535  1.00  0.00     0.074 A 
ATOM     48  C   UNL A   1      43.644  27.200  28.857  1.00  0.00     0.049 A 
ATOM     49  N   UNL A   1      45.519  29.572  28.939  1.00  0.00    -0.248 NA
ATOM     50  C   UNL A   1      43.996  30.644  30.346  1.00  0.00     0.031 C 
ATOM     51  C   UNL A   1      42.784  26.021  28.785  1.00  0.00     0.029 A 
ATOM     52  N   UNL A   1      44.754  26.849  28.124  1.00  0.00    -0.354 N 
ATOM     53  C   UNL A   1      46.007  30.827  29.287  1.00  0.00     0.074 A 
ATOM     54  C   UNL A   1      45.010  31.461  30.116  1.00  0.00     0.031 C 
ATOM     55  C   UNL A   1      43.394  25.081  28.036  1.00  0.00     0.029 A 
ATOM     56  C   UNL A   1      44.667  25.605  27.544  1.00  0.00     0.049 A 
ATOM     57  H   UNL A   1      45.538  27.437  28.023  1.00  0.00     0.167 HD
ATOM     58  C   UNL A   1      47.184  31.403  28.952  1.00  0.00     0.031 A 
ATOM     59  C   UNL A   1      45.508  24.976  26.694  1.00  0.00     0.031 A 
ATOM     60  C   UNL A   1      48.169  30.779  28.114  1.00  0.00     0.049 A 
ATOM     61  C   UNL A   1      46.783  25.668  26.268  1.00  0.00     0.074 A 
ATOM     62  C   UNL A   1      49.399  31.273  27.720  1.00  0.00     0.029 A 
ATOM     63  N   UNL A   1      48.030  29.528  27.532  1.00  0.00    -0.354 N 
ATOM     64  N   UNL A   1      47.242  26.847  26.623  1.00  0.00    -0.248 NA
ATOM     65  C   UNL A   1      47.657  24.944  25.332  1.00  0.00     0.031 C 
ATOM     66  C   UNL A   1      49.978  30.346  26.850  1.00  0.00     0.029 A 
ATOM     67  C   UNL A   1      49.143  29.242  26.763  1.00  0.00     0.049 A 
ATOM     68  H   UNL A   1      47.256  28.932  27.651  1.00  0.00     0.167 HD
ATOM     69  C   UNL A   1      48.473  26.985  25.985  1.00  0.00     0.074 A 
ATOM     70  C   UNL A   1      48.689  25.771  25.226  1.00  0.00     0.031 C 
ATOM     71  C   UNL A   1      49.349  28.021  26.026  1.00  0.00     0.031 A 
BRANCH  58  72
ATOM     72  C   UNL A   1      47.445  32.795  29.463  1.00  0.00    -0.014 A 
ATOM     73  C   UNL A   1      48.092  33.014  30.694  1.00  0.00     0.010 A 
ATOM     74  C   UNL A   1      47.048  33.902  28.692  1.00  0.00     0.010 A 
ATOM     75  C   UNL A   1      48.303  34.314  31.161  1.00  0.00     0.020 A 
ATOM     76  C   UNL A   1      47.287  35.203  29.140  1.00  0.00     0.020 A 
ATOM     77  C   UNL A   1      47.898  35.400  30.379  1.00  0.00     0.054 A 
BRANCH  77  78
ATOM     78  S   UNL A   1      48.207  37.076  30.999  1.00  0.00     0.124 S 
ATOM     79  O   UNL A   1      48.794  37.725  29.829  1.00  0.00    -0.237 OA
ATOM     80  O   UNL A   1      46.870  37.532  31.366  1.00  0.00    -0.237 OA
ATOM     81  O   UNL A   1      49.122  36.870  32.119  1.00  0.00    -0.744 OA
ENDBRANCH  77  78
ENDBRANCH  58  72
BRANCH  59  82
ATOM     82  C   UNL A   1      45.172  23.621  26.164  1.00  0.00    -0.014 A 
ATOM     83  C   UNL A   1      46.081  22.554  26.282  1.00  0.00     0.010 A 
ATOM     84  C   UNL A   1      43.942  23.394  25.519  1.00  0.00     0.010 A 
ATOM     85  C   UNL A   1      45.774  21.295  25.754  1.00  0.00     0.020 A 
ATOM     86  C   UNL A   1      43.617  22.129  25.018  1.00  0.00     0.020 A 
ATOM     87  C   UNL A   1      44.542  21.089  25.130  1.00  0.00     0.054 A 
BRANCH  87  88
ATOM     88  S   UNL A   1      44.144  19.432  24.501  1.00  0.00     0.124 S 
ATOM     89  O   UNL A   1      42.767  19.259  24.949  1.00  0.00    -0.237 OA
ATOM     90  O   UNL A   1      44.325  19.592  23.060  1.00  0.00    -0.237 OA
ATOM     91  O   UNL A   1      45.128  18.572  25.154  1.00  0.00    -0.744 OA
ENDBRANCH  87  88
ENDBRANCH  59  82
BRANCH  71  92
ATOM     92  C   UNL A   1      50.654  27.877  25.287  1.00  0.00    -0.014 A 
ATOM     93  C   UNL A   1      51.669  27.018  25.742  1.00  0.00     0.010 A 
ATOM     94  C   UNL A   1      50.821  28.544  24.057  1.00  0.00     0.010 A 
ATOM     95  C   UNL A   1      52.837  26.847  24.991  1.00  0.00     0.020 A 
ATOM     96  C   UNL A   1      51.972  28.351  23.291  1.00  0.00     0.020 A 
ATOM     97  C   UNL A   1      52.979  27.511  23.769  1.00  0.00     0.054 A 
BRANCH  97  98
ATOM     98  S   UNL A   1      54.474  27.220  22.785  1.00  0.00     0.124 S 
ATOM     99  O   UNL A   1      54.861  28.577  22.409  1.00  0.00    -0.237 OA
ATOM    100  O   UNL A   1      55.359  26.555  23.737  1.00  0.00    -0.237 OA
ATOM    101  O   UNL A   1      54.009  26.378  21.684  1.00  0.00    -0.744 OA
ENDBRANCH  97  98
ENDBRANCH  71  92
ENDBRANCH  45  46
ENDBRANCH  38  40
ENDBRANCH  37  38
ENDBRANCH  36  37
ENDBRANCH  35  36
ENDBRANCH  34  35
ENDBRANCH  33  34
ENDBRANCH  32  33
ENDBRANCH   1  32
TORSDOF 26
ENDMDL
MODEL 3
REMARK VINA RESULT:      -8.8      7.438     13.040
REMARK SMILES Cc1ccc(NC(=O)C[C@H]2C(=O)NCCN2C(=O)CCC(=O)OCCOCCOCCOC(=O)c2ccc(-c3c4nc(c(-c5ccc(S(=O)(=O)[O-])cc5)c5ccc([nH]5)c(-c5ccc(S(=O)(=O)[O-])cc5)c5nc(c(-c6ccc(S(=O)(=O)[O-])cc6)c6ccc3[nH]6)C=C5)C=C4)cc2)c(C)c1
REMARK SMILES IDX 26 1 25 2 24 3 23 4 21 5 22 6 20 7 19 8 17 9 18 10 16 11
REMARK SMILES IDX 10 12 11 13 12 14 13 15 15 16 14 17 9 19 7 20 6 21 8 23 5 24
REMARK SMILES IDX 1 25 2 26 3 27 97 28 4 29 95 30 96 31 27 32 28 33 29 34
REMARK SMILES IDX 30 35 31 36 32 37 33 38 34 39 35 40 36 41 94 42 37 43 93 44
REMARK SMILES IDX 38 45 39 46 40 47 87 48 41 49 92 50 86 51 88 52 42 53 91 54
REMARK SMILES IDX 85 55 84 56 43 58 73 59 54 60 72 61 55 62 58 63 71 64 89 65
REMARK SMILES IDX 56 66 57 67 70 69 90 70 59 71 44 72 45 73 53 74 46 75 52 76
REMARK SMILES IDX 47 77 48 78 49 79 50 80 51 81 74 82 75 83 83 84 76 85 82 86
REMARK SMILES IDX 77 87 78 88 79 89 80 90 81 91 60 92 61 93 69 94 62 95 68 96
REMARK SMILES IDX 63 97 64 98 65 99 66 100 67 101
REMARK H PARENT 13 18 6 22 88 57 58 68
REMARK Flexibility Score: inf
ROOT
ATOM      1  O   UNL A   1      40.097  26.605  28.958  1.00  0.00    -0.376 OA
ENDROOT
BRANCH   1   2
ATOM      2  C   UNL A   1      40.268  25.434  28.151  1.00  0.00     0.202 C 
BRANCH   2   3
ATOM      3  C   UNL A   1      39.063  25.097  27.266  1.00  0.00     0.261 C 
BRANCH   3   4
ATOM      4  O   UNL A   1      39.219  23.748  26.762  1.00  0.00    -0.463 OA
BRANCH   4   5
ATOM      5  C   UNL A   1      38.201  23.176  26.101  1.00  0.00     0.306 C 
ATOM      6  O   UNL A   1      38.290  22.124  25.478  1.00  0.00    -0.252 OA
BRANCH   5   7
ATOM      7  C   UNL A   1      36.890  23.923  26.234  1.00  0.00     0.132 C 
BRANCH   7   8
ATOM      8  C   UNL A   1      35.650  23.674  25.377  1.00  0.00     0.112 C 
BRANCH   8   9
ATOM      9  C   UNL A   1      34.437  24.571  25.025  1.00  0.00     0.223 C 
ATOM     10  O   UNL A   1      34.573  25.785  25.253  1.00  0.00    -0.275 OA
BRANCH   9  11
ATOM     11  N   UNL A   1      33.319  24.163  24.315  1.00  0.00    -0.328 N 
ATOM     12  C   UNL A   1      32.558  22.931  24.492  1.00  0.00     0.183 C 
ATOM     13  C   UNL A   1      32.368  22.078  23.209  1.00  0.00     0.243 C 
ATOM     14  O   UNL A   1      31.876  20.950  23.228  1.00  0.00    -0.273 OA
ATOM     15  N   UNL A   1      32.746  22.626  22.011  1.00  0.00    -0.353 N 
ATOM     16  C   UNL A   1      33.010  24.845  23.050  1.00  0.00     0.141 C 
ATOM     17  C   UNL A   1      33.384  23.923  21.889  1.00  0.00     0.137 C 
ATOM     18  H   UNL A   1      32.574  22.114  21.188  1.00  0.00     0.163 HD
BRANCH  12  19
ATOM     19  C   UNL A   1      31.229  23.050  25.256  1.00  0.00     0.135 C 
BRANCH  19  20
ATOM     20  C   UNL A   1      31.210  23.791  26.580  1.00  0.00     0.227 C 
ATOM     21  N   UNL A   1      31.037  25.132  26.745  1.00  0.00    -0.326 N 
ATOM     22  H   UNL A   1      31.084  25.411  27.688  1.00  0.00     0.169 HD
ATOM     23  O   UNL A   1      31.299  23.132  27.627  1.00  0.00    -0.275 OA
BRANCH  21  24
ATOM     24  C   UNL A   1      30.805  26.207  25.869  1.00  0.00     0.044 A 
ATOM     25  C   UNL A   1      30.275  28.894  22.540  1.00  0.00     0.044 C 
ATOM     26  C   UNL A   1      30.330  28.047  23.778  1.00  0.00    -0.051 A 
ATOM     27  C   UNL A   1      29.575  26.882  23.868  1.00  0.00     0.005 A 
ATOM     28  C   UNL A   1      31.219  28.343  24.814  1.00  0.00     0.009 A 
ATOM     29  C   UNL A   1      29.792  25.988  24.920  1.00  0.00     0.026 A 
ATOM     30  C   UNL A   1      31.453  27.445  25.882  1.00  0.00    -0.027 A 
ATOM     31  C   UNL A   1      32.346  27.909  26.991  1.00  0.00     0.046 C 
ENDBRANCH  21  24
ENDBRANCH  19  20
ENDBRANCH  12  19
ENDBRANCH   9  11
ENDBRANCH   8   9
ENDBRANCH   7   8
ENDBRANCH   5   7
ENDBRANCH   4   5
ENDBRANCH   3   4
ENDBRANCH   2   3
ENDBRANCH   1   2
BRANCH   1  32
ATOM     32  C   UNL A   1      39.742  27.786  28.255  1.00  0.00     0.188 C 
BRANCH  32  33
ATOM     33  C   UNL A   1      38.581  28.579  28.857  1.00  0.00     0.188 C 
BRANCH  33  34
ATOM     34  O   UNL A   1      38.791  29.953  29.164  1.00  0.00    -0.376 OA
BRANCH  34  35
ATOM     35  C   UNL A   1      37.778  30.860  28.691  1.00  0.00     0.202 C 
BRANCH  35  36
ATOM     36  C   UNL A   1      36.392  30.760  29.355  1.00  0.00     0.261 C 
BRANCH  36  37
ATOM     37  O   UNL A   1      36.327  31.213  30.725  1.00  0.00    -0.460 OA
BRANCH  37  38
ATOM     38  C   UNL A   1      36.561  30.322  31.724  1.00  0.00     0.338 C 
ATOM     39  O   UNL A   1      36.470  29.119  31.646  1.00  0.00    -0.246 OA
BRANCH  38  40
ATOM     40  C   UNL A   1      37.254  31.056  32.836  1.00  0.00     0.060 A 
ATOM     41  C   UNL A   1      36.727  32.292  33.248  1.00  0.00     0.016 A 
ATOM     42  C   UNL A   1      38.279  30.463  33.586  1.00  0.00     0.016 A 
ATOM     43  C   UNL A   1      37.250  32.949  34.368  1.00  0.00     0.010 A 
ATOM     44  C   UNL A   1      38.791  31.111  34.712  1.00  0.00     0.010 A 
ATOM     45  C   UNL A   1      38.313  32.380  35.083  1.00  0.00    -0.014 A 
BRANCH  45  46
ATOM     46  C   UNL A   1      39.138  33.204  36.002  1.00  0.00     0.031 A 
ATOM     47  C   UNL A   1      38.762  33.168  37.462  1.00  0.00     0.074 A 
ATOM     48  C   UNL A   1      40.158  33.976  35.585  1.00  0.00     0.049 A 
ATOM     49  N   UNL A   1      39.227  33.867  38.461  1.00  0.00    -0.248 NA
ATOM     50  C   UNL A   1      37.698  32.218  37.836  1.00  0.00     0.031 C 
ATOM     51  C   UNL A   1      40.655  34.070  34.214  1.00  0.00     0.029 A 
ATOM     52  N   UNL A   1      40.955  34.849  36.290  1.00  0.00    -0.354 N 
ATOM     53  C   UNL A   1      38.501  33.456  39.574  1.00  0.00     0.074 A 
ATOM     54  C   UNL A   1      37.543  32.474  39.123  1.00  0.00     0.031 C 
ATOM     55  C   UNL A   1      41.665  34.960  34.177  1.00  0.00     0.029 A 
ATOM     56  C   UNL A   1      41.859  35.530  35.509  1.00  0.00     0.049 A 
ATOM     57  H   UNL A   1      40.882  34.975  37.264  1.00  0.00     0.167 HD
ATOM     58  C   UNL A   1      38.620  33.855  40.861  1.00  0.00     0.031 A 
ATOM     59  C   UNL A   1      42.724  36.517  35.832  1.00  0.00     0.031 A 
ATOM     60  C   UNL A   1      39.562  34.844  41.306  1.00  0.00     0.049 A 
ATOM     61  C   UNL A   1      42.789  37.004  37.261  1.00  0.00     0.074 A 
ATOM     62  C   UNL A   1      39.770  35.314  42.589  1.00  0.00     0.029 A 
ATOM     63  N   UNL A   1      40.443  35.522  40.479  1.00  0.00    -0.354 N 
ATOM     64  N   UNL A   1      42.112  36.591  38.308  1.00  0.00    -0.248 NA
ATOM     65  C   UNL A   1      43.739  38.089  37.556  1.00  0.00     0.031 C 
ATOM     66  C   UNL A   1      40.736  36.321  42.529  1.00  0.00     0.029 A 
ATOM     67  C   UNL A   1      41.183  36.424  41.220  1.00  0.00     0.049 A 
ATOM     68  H   UNL A   1      40.531  35.380  39.508  1.00  0.00     0.167 HD
ATOM     69  C   UNL A   1      42.582  37.336  39.387  1.00  0.00     0.074 A 
ATOM     70  C   UNL A   1      43.603  38.222  38.869  1.00  0.00     0.031 C 
ATOM     71  C   UNL A   1      42.208  37.288  40.690  1.00  0.00     0.031 A 
BRANCH  58  72
ATOM     72  C   UNL A   1      37.679  33.246  41.865  1.00  0.00    -0.014 A 
ATOM     73  C   UNL A   1      36.460  33.866  42.195  1.00  0.00     0.010 A 
ATOM     74  C   UNL A   1      38.013  32.025  42.478  1.00  0.00     0.010 A 
ATOM     75  C   UNL A   1      35.611  33.296  43.148  1.00  0.00     0.020 A 
ATOM     76  C   UNL A   1      37.152  31.435  43.406  1.00  0.00     0.020 A 
ATOM     77  C   UNL A   1      35.965  32.083  43.747  1.00  0.00     0.054 A 
BRANCH  77  78
ATOM     78  S   UNL A   1      34.832  31.354  44.961  1.00  0.00     0.124 S 
ATOM     79  O   UNL A   1      35.110  32.156  46.150  1.00  0.00    -0.237 OA
ATOM     80  O   UNL A   1      33.524  31.572  44.348  1.00  0.00    -0.237 OA
ATOM     81  O   UNL A   1      35.256  29.959  45.039  1.00  0.00    -0.744 OA
ENDBRANCH  77  78
ENDBRANCH  58  72
BRANCH  59  82
ATOM     82  C   UNL A   1      43.592  37.133  34.784  1.00  0.00    -0.014 A 
ATOM     83  C   UNL A   1      43.179  38.286  34.092  1.00  0.00     0.010 A 
ATOM     84  C   UNL A   1      44.833  36.556  34.459  1.00  0.00     0.010 A 
ATOM     85  C   UNL A   1      43.981  38.839  33.089  1.00  0.00     0.020 A 
ATOM     86  C   UNL A   1      45.653  37.124  33.477  1.00  0.00     0.020 A 
ATOM     87  C   UNL A   1      45.216  38.258  32.790  1.00  0.00     0.054 A 
BRANCH  87  88
ATOM     88  S   UNL A   1      46.263  39.026  31.520  1.00  0.00     0.124 S 
ATOM     89  O   UNL A   1      47.585  38.518  31.869  1.00  0.00    -0.237 OA
ATOM     90  O   UNL A   1      45.690  38.502  30.283  1.00  0.00    -0.237 OA
ATOM     91  O   UNL A   1      46.066  40.457  31.733  1.00  0.00    -0.744 OA
ENDBRANCH  87  88
ENDBRANCH  59  82
BRANCH  71  92
ATOM     92  C   UNL A   1      42.939  38.168  41.671  1.00  0.00    -0.014 A 
ATOM     93  C   UNL A   1      44.127  37.750  42.295  1.00  0.00     0.010 A 
ATOM     94  C   UNL A   1      42.474  39.479  41.894  1.00  0.00     0.010 A 
ATOM     95  C   UNL A   1      44.824  38.619  43.140  1.00  0.00     0.020 A 
ATOM     96  C   UNL A   1      43.184  40.359  42.712  1.00  0.00     0.020 A 
ATOM     97  C   UNL A   1      44.351  39.919  43.340  1.00  0.00     0.054 A 
BRANCH  97  98
ATOM     98  S   UNL A   1      45.309  41.047  44.388  1.00  0.00     0.124 S 
ATOM     99  O   UNL A   1      45.872  40.136  45.381  1.00  0.00    -0.237 OA
ATOM    100  O   UNL A   1      46.267  41.622  43.448  1.00  0.00    -0.237 OA
ATOM    101  O   UNL A   1      44.309  41.983  44.899  1.00  0.00    -0.744 OA
ENDBRANCH  97  98
ENDBRANCH  71  92
ENDBRANCH  45  46
ENDBRANCH  38  40
ENDBRANCH  37  38
ENDBRANCH  36  37
ENDBRANCH  35  36
ENDBRANCH  34  35
ENDBRANCH  33  34
ENDBRANCH  32  33
ENDBRANCH   1  32
TORSDOF 26
ENDMDL
