MODEL 1
REMARK VINA RESULT:      -7.8      0.000      0.000
REMARK SMILES CC/C=C/C/C=C/C/C=C/C/C=C/CCSCCCC(=O)OCCOCCOCCOC(=O)c1ccc(-c2c3nc(c(-c4ccc(S(=O)(=O)[O-])cc4)c4ccc([nH]4)c(-c4ccc(S(=O)(=O)[O-])cc4)c4nc(c(-c5ccc(S(=O)(=O)[O-])cc5)c5ccc2[nH]5)C=C4)C=C3)cc1
REMARK SMILES IDX 20 1 21 2 19 3 18 4 17 5 16 6 15 7 14 8 13 9 12 10 11 11
REMARK SMILES IDX 10 12 9 13 8 14 7 15 6 16 5 17 4 18 3 19 2 20 1 21 22 22
REMARK SMILES IDX 23 23 24 24 25 25 26 26 27 27 28 28 29 29 30 30 31 31 32 32
REMARK SMILES IDX 33 33 34 34 35 35 93 36 36 37 92 38 37 39 38 40 39 41 86 42
REMARK SMILES IDX 40 43 91 44 85 45 87 46 41 47 90 48 84 49 83 50 42 52 72 53
REMARK SMILES IDX 53 54 71 55 54 56 57 57 70 58 88 59 55 60 56 61 69 63 89 64
REMARK SMILES IDX 58 65 43 66 44 67 52 68 45 69 51 70 46 71 47 72 48 73 49 74
REMARK SMILES IDX 50 75 73 76 74 77 82 78 75 79 81 80 76 81 77 82 78 83 79 84
REMARK SMILES IDX 80 85 59 86 60 87 68 88 61 89 67 90 62 91 63 92 64 93 65 94
REMARK SMILES IDX 66 95
REMARK H PARENT 87 51 57 62
REMARK Flexibility Score: inf
ROOT
ATOM      1  C   UNL A   1      32.578  29.501  24.934  1.00  0.00     0.305 C 
ATOM      2  O   UNL A   1      33.250  29.286  23.945  1.00  0.00    -0.252 OA
ENDROOT
BRANCH   1   3
ATOM      3  C   UNL A   1      31.070  29.584  24.836  1.00  0.00     0.123 C 
BRANCH   3   4
ATOM      4  C   UNL A   1      30.447  29.828  23.467  1.00  0.00     0.023 C 
BRANCH   4   5
ATOM      5  C   UNL A   1      29.173  29.096  23.039  1.00  0.00     0.070 C 
BRANCH   5   6
ATOM      6  S   UNL A   1      28.610  27.440  23.611  1.00  0.00    -0.162 SA
BRANCH   6   7
ATOM      7  C   UNL A   1      30.027  26.286  23.517  1.00  0.00     0.073 C 
BRANCH   7   8
ATOM      8  C   UNL A   1      31.138  26.723  22.534  1.00  0.00     0.038 C 
BRANCH   8   9
ATOM      9  C   UNL A   1      32.334  25.808  22.397  1.00  0.00    -0.030 C 
ATOM     10  C   UNL A   1      32.365  24.477  22.618  1.00  0.00    -0.027 C 
BRANCH  10  11
ATOM     11  C   UNL A   1      33.591  23.579  22.476  1.00  0.00     0.054 C 
BRANCH  11  12
ATOM     12  C   UNL A   1      33.460  22.261  23.212  1.00  0.00    -0.027 C 
ATOM     13  C   UNL A   1      32.911  22.059  24.430  1.00  0.00    -0.027 C 
BRANCH  13  14
ATOM     14  C   UNL A   1      32.712  20.700  25.060  1.00  0.00     0.054 C 
BRANCH  14  15
ATOM     15  C   UNL A   1      33.112  19.623  24.101  1.00  0.00    -0.027 C 
ATOM     16  C   UNL A   1      32.299  19.040  23.208  1.00  0.00    -0.027 C 
BRANCH  16  17
ATOM     17  C   UNL A   1      32.688  17.791  22.468  1.00  0.00     0.054 C 
BRANCH  17  18
ATOM     18  C   UNL A   1      33.446  16.886  23.400  1.00  0.00    -0.027 C 
ATOM     19  C   UNL A   1      33.063  16.604  24.655  1.00  0.00    -0.031 C 
BRANCH  19  20
ATOM     20  C   UNL A   1      33.868  15.765  25.601  1.00  0.00     0.023 C 
ATOM     21  C   UNL A   1      35.352  15.879  25.285  1.00  0.00     0.008 C 
ENDBRANCH  19  20
ENDBRANCH  17  18
ENDBRANCH  16  17
ENDBRANCH  14  15
ENDBRANCH  13  14
ENDBRANCH  11  12
ENDBRANCH  10  11
ENDBRANCH   8   9
ENDBRANCH   7   8
ENDBRANCH   6   7
ENDBRANCH   5   6
ENDBRANCH   4   5
ENDBRANCH   3   4
ENDBRANCH   1   3
BRANCH   1  22
ATOM     22  O   UNL A   1      33.029  29.546  26.199  1.00  0.00    -0.463 OA
BRANCH  22  23
ATOM     23  C   UNL A   1      33.024  30.632  27.159  1.00  0.00     0.261 C 
BRANCH  23  24
ATOM     24  C   UNL A   1      34.315  31.281  27.653  1.00  0.00     0.202 C 
BRANCH  24  25
ATOM     25  O   UNL A   1      34.512  32.662  27.420  1.00  0.00    -0.376 OA
BRANCH  25  26
ATOM     26  C   UNL A   1      35.130  33.365  28.478  1.00  0.00     0.188 C 
BRANCH  26  27
ATOM     27  C   UNL A   1      35.074  32.616  29.828  1.00  0.00     0.188 C 
BRANCH  27  28
ATOM     28  O   UNL A   1      35.639  33.200  30.992  1.00  0.00    -0.376 OA
BRANCH  28  29
ATOM     29  C   UNL A   1      36.527  32.418  31.776  1.00  0.00     0.202 C 
BRANCH  29  30
ATOM     30  C   UNL A   1      36.462  30.879  31.713  1.00  0.00     0.261 C 
BRANCH  30  31
ATOM     31  O   UNL A   1      37.590  30.200  31.129  1.00  0.00    -0.460 OA
BRANCH  31  32
ATOM     32  C   UNL A   1      38.451  29.608  31.997  1.00  0.00     0.338 C 
ATOM     33  O   UNL A   1      38.255  29.401  33.187  1.00  0.00    -0.246 OA
BRANCH  32  34
ATOM     34  C   UNL A   1      39.587  29.001  31.253  1.00  0.00     0.060 A 
ATOM     35  C   UNL A   1      40.634  28.396  31.977  1.00  0.00     0.016 A 
ATOM     36  C   UNL A   1      39.634  29.032  29.860  1.00  0.00     0.016 A 
ATOM     37  C   UNL A   1      41.743  27.865  31.319  1.00  0.00     0.010 A 
ATOM     38  C   UNL A   1      40.770  28.545  29.203  1.00  0.00     0.010 A 
ATOM     39  C   UNL A   1      41.848  28.005  29.933  1.00  0.00    -0.014 A 
BRANCH  39  40
ATOM     40  C   UNL A   1      43.180  27.887  29.290  1.00  0.00     0.031 A 
ATOM     41  C   UNL A   1      44.115  29.063  29.417  1.00  0.00     0.074 A 
ATOM     42  C   UNL A   1      43.566  26.785  28.625  1.00  0.00     0.049 A 
ATOM     43  N   UNL A   1      45.282  29.261  28.864  1.00  0.00    -0.248 NA
ATOM     44  C   UNL A   1      43.663  30.167  30.283  1.00  0.00     0.031 C 
ATOM     45  C   UNL A   1      42.792  25.553  28.500  1.00  0.00     0.029 A 
ATOM     46  N   UNL A   1      44.712  26.536  27.911  1.00  0.00    -0.354 N 
ATOM     47  C   UNL A   1      45.693  30.517  29.298  1.00  0.00     0.074 A 
ATOM     48  C   UNL A   1      44.644  31.044  30.141  1.00  0.00     0.031 C 
ATOM     49  C   UNL A   1      43.471  24.687  27.725  1.00  0.00     0.029 A 
ATOM     50  C   UNL A   1      44.711  25.318  27.273  1.00  0.00     0.049 A 
ATOM     51  H   UNL A   1      45.464  27.169  27.860  1.00  0.00     0.167 HD
ATOM     52  C   UNL A   1      46.842  31.174  29.021  1.00  0.00     0.031 A 
ATOM     53  C   UNL A   1      45.594  24.790  26.400  1.00  0.00     0.031 A 
ATOM     54  C   UNL A   1      47.877  30.652  28.171  1.00  0.00     0.049 A 
ATOM     55  C   UNL A   1      46.826  25.581  26.028  1.00  0.00     0.074 A 
ATOM     56  C   UNL A   1      49.085  31.234  27.832  1.00  0.00     0.029 A 
ATOM     57  N   UNL A   1      47.823  29.431  27.518  1.00  0.00    -0.354 N 
ATOM     58  N   UNL A   1      47.210  26.762  26.454  1.00  0.00    -0.248 NA
ATOM     59  C   UNL A   1      47.746  24.964  25.063  1.00  0.00     0.031 C 
ATOM     60  C   UNL A   1      49.732  30.394  26.923  1.00  0.00     0.029 A 
ATOM     61  C   UNL A   1      48.962  29.254  26.753  1.00  0.00     0.049 A 
ATOM     62  H   UNL A   1      47.082  28.786  27.587  1.00  0.00     0.167 HD
ATOM     63  C   UNL A   1      48.434  27.009  25.839  1.00  0.00     0.074 A 
ATOM     64  C   UNL A   1      48.730  25.853  25.020  1.00  0.00     0.031 C 
ATOM     65  C   UNL A   1      49.244  28.093  25.947  1.00  0.00     0.031 A 
BRANCH  52  66
ATOM     66  C   UNL A   1      47.017  32.551  29.607  1.00  0.00    -0.014 A 
ATOM     67  C   UNL A   1      47.690  32.750  30.825  1.00  0.00     0.010 A 
ATOM     68  C   UNL A   1      46.524  33.667  28.907  1.00  0.00     0.010 A 
ATOM     69  C   UNL A   1      47.841  34.037  31.348  1.00  0.00     0.020 A 
ATOM     70  C   UNL A   1      46.699  34.959  29.410  1.00  0.00     0.020 A 
ATOM     71  C   UNL A   1      47.344  35.133  30.636  1.00  0.00     0.054 A 
BRANCH  71  72
ATOM     72  S   UNL A   1      47.585  36.795  31.321  1.00  0.00     0.124 S 
ATOM     73  O   UNL A   1      47.933  36.501  32.709  1.00  0.00    -0.237 OA
ATOM     74  O   UNL A   1      48.671  37.324  30.500  1.00  0.00    -0.237 OA
ATOM     75  O   UNL A   1      46.290  37.442  31.129  1.00  0.00    -0.744 OA
ENDBRANCH  71  72
ENDBRANCH  52  66
BRANCH  53  76
ATOM     76  C   UNL A   1      45.340  23.452  25.793  1.00  0.00    -0.014 A 
ATOM     77  C   UNL A   1      45.737  22.276  26.454  1.00  0.00     0.010 A 
ATOM     78  C   UNL A   1      44.712  23.347  24.538  1.00  0.00     0.010 A 
ATOM     79  C   UNL A   1      45.532  21.026  25.864  1.00  0.00     0.020 A 
ATOM     80  C   UNL A   1      44.477  22.097  23.957  1.00  0.00     0.020 A 
ATOM     81  C   UNL A   1      44.900  20.943  24.620  1.00  0.00     0.054 A 
BRANCH  81  82
ATOM     82  S   UNL A   1      44.607  19.306  23.896  1.00  0.00     0.124 S 
ATOM     83  O   UNL A   1      43.314  18.946  24.469  1.00  0.00    -0.237 OA
ATOM     84  O   UNL A   1      44.609  19.592  22.463  1.00  0.00    -0.237 OA
ATOM     85  O   UNL A   1      45.744  18.516  24.367  1.00  0.00    -0.744 OA
ENDBRANCH  81  82
ENDBRANCH  53  76
BRANCH  65  86
ATOM     86  C   UNL A   1      50.555  28.066  25.202  1.00  0.00    -0.014 A 
ATOM     87  C   UNL A   1      51.760  27.735  25.845  1.00  0.00     0.010 A 
ATOM     88  C   UNL A   1      50.565  28.317  23.816  1.00  0.00     0.010 A 
ATOM     89  C   UNL A   1      52.956  27.686  25.122  1.00  0.00     0.020 A 
ATOM     90  C   UNL A   1      51.752  28.236  23.084  1.00  0.00     0.020 A 
ATOM     91  C   UNL A   1      52.944  27.936  23.746  1.00  0.00     0.054 A 
BRANCH  91  92
ATOM     92  S   UNL A   1      54.501  27.822  22.824  1.00  0.00     0.124 S 
ATOM     93  O   UNL A   1      54.461  29.033  22.008  1.00  0.00    -0.237 OA
ATOM     94  O   UNL A   1      55.503  27.815  23.888  1.00  0.00    -0.237 OA
ATOM     95  O   UNL A   1      54.377  26.568  22.084  1.00  0.00    -0.744 OA
ENDBRANCH  91  92
ENDBRANCH  65  86
ENDBRANCH  39  40
ENDBRANCH  32  34
ENDBRANCH  31  32
ENDBRANCH  30  31
ENDBRANCH  29  30
ENDBRANCH  28  29
ENDBRANCH  27  28
ENDBRANCH  26  27
ENDBRANCH  25  26
ENDBRANCH  24  25
ENDBRANCH  23  24
ENDBRANCH  22  23
ENDBRANCH   1  22
TORSDOF 33
ENDMDL
MODEL 2
REMARK VINA RESULT:      -7.0      2.450      3.612
REMARK SMILES CC/C=C/C/C=C/C/C=C/C/C=C/CCSCCCC(=O)OCCOCCOCCOC(=O)c1ccc(-c2c3nc(c(-c4ccc(S(=O)(=O)[O-])cc4)c4ccc([nH]4)c(-c4ccc(S(=O)(=O)[O-])cc4)c4nc(c(-c5ccc(S(=O)(=O)[O-])cc5)c5ccc2[nH]5)C=C4)C=C3)cc1
REMARK SMILES IDX 20 1 21 2 19 3 18 4 17 5 16 6 15 7 14 8 13 9 12 10 11 11
REMARK SMILES IDX 10 12 9 13 8 14 7 15 6 16 5 17 4 18 3 19 2 20 1 21 22 22
REMARK SMILES IDX 23 23 24 24 25 25 26 26 27 27 28 28 29 29 30 30 31 31 32 32
REMARK SMILES IDX 33 33 34 34 35 35 93 36 36 37 92 38 37 39 38 40 39 41 86 42
REMARK SMILES IDX 40 43 91 44 85 45 87 46 41 47 90 48 84 49 83 50 42 52 72 53
REMARK SMILES IDX 53 54 71 55 54 56 57 57 70 58 88 59 55 60 56 61 69 63 89 64
REMARK SMILES IDX 58 65 43 66 44 67 52 68 45 69 51 70 46 71 47 72 48 73 49 74
REMARK SMILES IDX 50 75 73 76 74 77 82 78 75 79 81 80 76 81 77 82 78 83 79 84
REMARK SMILES IDX 80 85 59 86 60 87 68 88 61 89 67 90 62 91 63 92 64 93 65 94
REMARK SMILES IDX 66 95
REMARK H PARENT 87 51 57 62
REMARK Flexibility Score: inf
ROOT
ATOM      1  C   UNL A   1      32.579  29.648  25.101  1.00  0.00     0.305 C 
ATOM      2  O   UNL A   1      33.338  29.363  24.195  1.00  0.00    -0.252 OA
ENDROOT
BRANCH   1   3
ATOM      3  C   UNL A   1      31.093  29.780  24.846  1.00  0.00     0.123 C 
BRANCH   3   4
ATOM      4  C   UNL A   1      30.610  29.845  23.402  1.00  0.00     0.023 C 
BRANCH   4   5
ATOM      5  C   UNL A   1      29.256  29.258  22.996  1.00  0.00     0.070 C 
BRANCH   5   6
ATOM      6  S   UNL A   1      28.591  27.605  23.455  1.00  0.00    -0.162 SA
BRANCH   6   7
ATOM      7  C   UNL A   1      29.979  26.412  23.480  1.00  0.00     0.073 C 
BRANCH   7   8
ATOM      8  C   UNL A   1      31.215  26.860  22.667  1.00  0.00     0.038 C 
BRANCH   8   9
ATOM      9  C   UNL A   1      32.226  25.795  22.308  1.00  0.00    -0.030 C 
ATOM     10  C   UNL A   1      32.041  24.458  22.345  1.00  0.00    -0.027 C 
BRANCH  10  11
ATOM     11  C   UNL A   1      33.083  23.405  21.982  1.00  0.00     0.054 C 
BRANCH  11  12
ATOM     12  C   UNL A   1      33.623  22.653  23.182  1.00  0.00    -0.027 C 
ATOM     13  C   UNL A   1      34.568  23.077  24.050  1.00  0.00    -0.027 C 
BRANCH  13  14
ATOM     14  C   UNL A   1      34.983  22.322  25.292  1.00  0.00     0.054 C 
BRANCH  14  15
ATOM     15  C   UNL A   1      34.288  20.999  25.348  1.00  0.00    -0.027 C 
ATOM     16  C   UNL A   1      33.506  20.576  26.352  1.00  0.00    -0.027 C 
BRANCH  16  17
ATOM     17  C   UNL A   1      33.060  19.146  26.472  1.00  0.00     0.054 C 
BRANCH  17  18
ATOM     18  C   UNL A   1      33.189  18.478  25.131  1.00  0.00    -0.027 C 
ATOM     19  C   UNL A   1      32.479  18.822  24.047  1.00  0.00    -0.031 C 
BRANCH  19  20
ATOM     20  C   UNL A   1      32.558  18.098  22.736  1.00  0.00     0.023 C 
ATOM     21  C   UNL A   1      33.575  16.969  22.812  1.00  0.00     0.008 C 
ENDBRANCH  19  20
ENDBRANCH  17  18
ENDBRANCH  16  17
ENDBRANCH  14  15
ENDBRANCH  13  14
ENDBRANCH  11  12
ENDBRANCH  10  11
ENDBRANCH   8   9
ENDBRANCH   7   8
ENDBRANCH   6   7
ENDBRANCH   5   6
ENDBRANCH   4   5
ENDBRANCH   3   4
ENDBRANCH   1   3
BRANCH   1  22
ATOM     22  O   UNL A   1      32.902  29.738  26.402  1.00  0.00    -0.463 OA
BRANCH  22  23
ATOM     23  C   UNL A   1      33.056  30.901  27.253  1.00  0.00     0.261 C 
BRANCH  23  24
ATOM     24  C   UNL A   1      34.381  31.236  27.933  1.00  0.00     0.202 C 
BRANCH  24  25
ATOM     25  O   UNL A   1      35.102  32.370  27.494  1.00  0.00    -0.376 OA
BRANCH  25  26
ATOM     26  C   UNL A   1      35.445  33.291  28.508  1.00  0.00     0.188 C 
BRANCH  26  27
ATOM     27  C   UNL A   1      34.629  33.106  29.807  1.00  0.00     0.188 C 
BRANCH  27  28
ATOM     28  O   UNL A   1      33.873  34.185  30.334  1.00  0.00    -0.376 OA
BRANCH  28  29
ATOM     29  C   UNL A   1      34.119  34.590  31.673  1.00  0.00     0.202 C 
BRANCH  29  30
ATOM     30  C   UNL A   1      34.875  33.654  32.637  1.00  0.00     0.261 C 
BRANCH  30  31
ATOM     31  O   UNL A   1      36.001  34.210  33.342  1.00  0.00    -0.460 OA
BRANCH  31  32
ATOM     32  C   UNL A   1      36.710  33.349  34.118  1.00  0.00     0.338 C 
ATOM     33  O   UNL A   1      36.473  33.060  35.283  1.00  0.00    -0.246 OA
BRANCH  32  34
ATOM     34  C   UNL A   1      37.680  32.591  33.284  1.00  0.00     0.060 A 
ATOM     35  C   UNL A   1      38.151  31.346  33.743  1.00  0.00     0.016 A 
ATOM     36  C   UNL A   1      38.134  33.099  32.068  1.00  0.00     0.016 A 
ATOM     37  C   UNL A   1      39.103  30.630  33.018  1.00  0.00     0.010 A 
ATOM     38  C   UNL A   1      39.127  32.406  31.365  1.00  0.00     0.010 A 
ATOM     39  C   UNL A   1      39.649  31.195  31.863  1.00  0.00    -0.014 A 
BRANCH  39  40
ATOM     40  C   UNL A   1      40.953  30.698  31.357  1.00  0.00     0.031 A 
ATOM     41  C   UNL A   1      42.144  31.610  31.508  1.00  0.00     0.074 A 
ATOM     42  C   UNL A   1      41.096  29.486  30.793  1.00  0.00     0.049 A 
ATOM     43  N   UNL A   1      43.363  31.468  31.059  1.00  0.00    -0.248 NA
ATOM     44  C   UNL A   1      41.923  32.856  32.264  1.00  0.00     0.031 C 
ATOM     45  C   UNL A   1      40.045  28.481  30.663  1.00  0.00     0.029 A 
ATOM     46  N   UNL A   1      42.193  28.906  30.207  1.00  0.00    -0.354 N 
ATOM     47  C   UNL A   1      44.046  32.611  31.461  1.00  0.00     0.074 A 
ATOM     48  C   UNL A   1      43.103  33.447  32.169  1.00  0.00     0.031 C 
ATOM     49  C   UNL A   1      40.539  27.416  30.006  1.00  0.00     0.029 A 
ATOM     50  C   UNL A   1      41.931  27.680  29.641  1.00  0.00     0.049 A 
ATOM     51  H   UNL A   1      43.083  29.325  30.193  1.00  0.00     0.167 HD
ATOM     52  C   UNL A   1      45.343  32.937  31.258  1.00  0.00     0.031 A 
ATOM     53  C   UNL A   1      42.716  26.883  28.886  1.00  0.00     0.031 A 
ATOM     54  C   UNL A   1      46.274  32.109  30.542  1.00  0.00     0.049 A 
ATOM     55  C   UNL A   1      44.133  27.310  28.591  1.00  0.00     0.074 A 
ATOM     56  C   UNL A   1      47.613  32.343  30.289  1.00  0.00     0.029 A 
ATOM     57  N   UNL A   1      45.960  30.893  29.954  1.00  0.00    -0.354 N 
ATOM     58  N   UNL A   1      44.772  28.387  28.986  1.00  0.00    -0.248 NA
ATOM     59  C   UNL A   1      44.939  26.410  27.753  1.00  0.00     0.031 C 
ATOM     60  C   UNL A   1      48.093  31.300  29.493  1.00  0.00     0.029 A 
ATOM     61  C   UNL A   1      47.073  30.379  29.313  1.00  0.00     0.049 A 
ATOM     62  H   UNL A   1      45.077  30.461  29.988  1.00  0.00     0.167 HD
ATOM     63  C   UNL A   1      46.063  28.273  28.478  1.00  0.00     0.074 A 
ATOM     64  C   UNL A   1      46.117  27.019  27.756  1.00  0.00     0.031 C 
ATOM     65  C   UNL A   1      47.112  29.125  28.603  1.00  0.00     0.031 A 
BRANCH  52  66
ATOM     66  C   UNL A   1      45.816  34.268  31.782  1.00  0.00    -0.014 A 
ATOM     67  C   UNL A   1      45.670  35.447  31.029  1.00  0.00     0.010 A 
ATOM     68  C   UNL A   1      46.390  34.342  33.064  1.00  0.00     0.010 A 
ATOM     69  C   UNL A   1      46.117  36.670  31.537  1.00  0.00     0.020 A 
ATOM     70  C   UNL A   1      46.810  35.566  33.589  1.00  0.00     0.020 A 
ATOM     71  C   UNL A   1      46.683  36.721  32.814  1.00  0.00     0.054 A 
BRANCH  71  72
ATOM     72  S   UNL A   1      47.221  38.328  33.462  1.00  0.00     0.124 S 
ATOM     73  O   UNL A   1      46.317  38.514  34.594  1.00  0.00    -0.237 OA
ATOM     74  O   UNL A   1      48.618  38.079  33.809  1.00  0.00    -0.237 OA
ATOM     75  O   UNL A   1      47.013  39.242  32.342  1.00  0.00    -0.744 OA
ENDBRANCH  71  72
ENDBRANCH  52  66
BRANCH  53  76
ATOM     76  C   UNL A   1      42.177  25.608  28.333  1.00  0.00    -0.014 A 
ATOM     77  C   UNL A   1      42.503  24.374  28.922  1.00  0.00     0.010 A 
ATOM     78  C   UNL A   1      41.344  25.620  27.198  1.00  0.00     0.010 A 
ATOM     79  C   UNL A   1      42.027  23.178  28.377  1.00  0.00     0.020 A 
ATOM     80  C   UNL A   1      40.840  24.428  26.667  1.00  0.00     0.020 A 
ATOM     81  C   UNL A   1      41.195  23.212  27.254  1.00  0.00     0.054 A 
BRANCH  81  82
ATOM     82  S   UNL A   1      40.557  21.649  26.591  1.00  0.00     0.124 S 
ATOM     83  O   UNL A   1      40.543  20.799  27.777  1.00  0.00    -0.237 OA
ATOM     84  O   UNL A   1      39.247  22.039  26.075  1.00  0.00    -0.237 OA
ATOM     85  O   UNL A   1      41.537  21.285  25.570  1.00  0.00    -0.744 OA
ENDBRANCH  81  82
ENDBRANCH  53  76
BRANCH  65  86
ATOM     86  C   UNL A   1      48.427  28.715  27.989  1.00  0.00    -0.014 A 
ATOM     87  C   UNL A   1      48.688  28.893  26.620  1.00  0.00     0.010 A 
ATOM     88  C   UNL A   1      49.442  28.200  28.819  1.00  0.00     0.010 A 
ATOM     89  C   UNL A   1      49.928  28.534  26.085  1.00  0.00     0.020 A 
ATOM     90  C   UNL A   1      50.694  27.872  28.294  1.00  0.00     0.020 A 
ATOM     91  C   UNL A   1      50.925  28.027  26.926  1.00  0.00     0.054 A 
BRANCH  91  92
ATOM     92  S   UNL A   1      52.540  27.610  26.214  1.00  0.00     0.124 S 
ATOM     93  O   UNL A   1      53.363  27.437  27.408  1.00  0.00    -0.237 OA
ATOM     94  O   UNL A   1      52.254  26.389  25.466  1.00  0.00    -0.237 OA
ATOM     95  O   UNL A   1      52.869  28.775  25.395  1.00  0.00    -0.744 OA
ENDBRANCH  91  92
ENDBRANCH  65  86
ENDBRANCH  39  40
ENDBRANCH  32  34
ENDBRANCH  31  32
ENDBRANCH  30  31
ENDBRANCH  29  30
ENDBRANCH  28  29
ENDBRANCH  27  28
ENDBRANCH  26  27
ENDBRANCH  25  26
ENDBRANCH  24  25
ENDBRANCH  23  24
ENDBRANCH  22  23
ENDBRANCH   1  22
TORSDOF 33
ENDMDL
MODEL 3
REMARK VINA RESULT:      -6.5      8.529     14.629
REMARK SMILES CC/C=C/C/C=C/C/C=C/C/C=C/CCSCCCC(=O)OCCOCCOCCOC(=O)c1ccc(-c2c3nc(c(-c4ccc(S(=O)(=O)[O-])cc4)c4ccc([nH]4)c(-c4ccc(S(=O)(=O)[O-])cc4)c4nc(c(-c5ccc(S(=O)(=O)[O-])cc5)c5ccc2[nH]5)C=C4)C=C3)cc1
REMARK SMILES IDX 20 1 21 2 19 3 18 4 17 5 16 6 15 7 14 8 13 9 12 10 11 11
REMARK SMILES IDX 10 12 9 13 8 14 7 15 6 16 5 17 4 18 3 19 2 20 1 21 22 22
REMARK SMILES IDX 23 23 24 24 25 25 26 26 27 27 28 28 29 29 30 30 31 31 32 32
REMARK SMILES IDX 33 33 34 34 35 35 93 36 36 37 92 38 37 39 38 40 39 41 86 42
REMARK SMILES IDX 40 43 91 44 85 45 87 46 41 47 90 48 84 49 83 50 42 52 72 53
REMARK SMILES IDX 53 54 71 55 54 56 57 57 70 58 88 59 55 60 56 61 69 63 89 64
REMARK SMILES IDX 58 65 43 66 44 67 52 68 45 69 51 70 46 71 47 72 48 73 49 74
REMARK SMILES IDX 50 75 73 76 74 77 82 78 75 79 81 80 76 81 77 82 78 83 79 84
REMARK SMILES IDX 80 85 59 86 60 87 68 88 61 89 67 90 62 91 63 92 64 93 65 94
REMARK SMILES IDX 66 95
REMARK H PARENT 87 51 57 62
REMARK Flexibility Score: inf
ROOT
ATOM      1  C   UNL A   1      31.565  28.594  24.149  1.00  0.00     0.305 C 
ATOM      2  O   UNL A   1      32.453  28.848  23.359  1.00  0.00    -0.252 OA
ENDROOT
BRANCH   1   3
ATOM      3  C   UNL A   1      30.599  27.459  23.882  1.00  0.00     0.123 C 
BRANCH   3   4
ATOM      4  C   UNL A   1      31.139  26.187  23.241  1.00  0.00     0.023 C 
BRANCH   4   5
ATOM      5  C   UNL A   1      30.510  24.824  23.542  1.00  0.00     0.070 C 
BRANCH   5   6
ATOM      6  S   UNL A   1      31.086  23.598  24.788  1.00  0.00    -0.162 SA
BRANCH   6   7
ATOM      7  C   UNL A   1      32.362  22.542  24.011  1.00  0.00     0.073 C 
BRANCH   7   8
ATOM      8  C   UNL A   1      32.038  22.119  22.559  1.00  0.00     0.038 C 
BRANCH   8   9
ATOM      9  C   UNL A   1      32.149  20.648  22.230  1.00  0.00    -0.030 C 
ATOM     10  C   UNL A   1      32.166  19.621  23.106  1.00  0.00    -0.027 C 
BRANCH  10  11
ATOM     11  C   UNL A   1      32.285  18.144  22.744  1.00  0.00     0.054 C 
BRANCH  11  12
ATOM     12  C   UNL A   1      33.555  17.498  23.259  1.00  0.00    -0.027 C 
ATOM     13  C   UNL A   1      33.903  17.301  24.550  1.00  0.00    -0.027 C 
BRANCH  13  14
ATOM     14  C   UNL A   1      35.137  16.550  24.995  1.00  0.00     0.054 C 
BRANCH  14  15
ATOM     15  C   UNL A   1      36.263  17.505  25.234  1.00  0.00    -0.027 C 
ATOM     16  C   UNL A   1      36.316  18.768  24.786  1.00  0.00    -0.027 C 
BRANCH  16  17
ATOM     17  C   UNL A   1      37.580  19.580  24.829  1.00  0.00     0.054 C 
BRANCH  17  18
ATOM     18  C   UNL A   1      37.227  21.023  25.066  1.00  0.00    -0.027 C 
ATOM     19  C   UNL A   1      35.996  21.533  24.914  1.00  0.00    -0.031 C 
BRANCH  19  20
ATOM     20  C   UNL A   1      35.672  22.988  25.077  1.00  0.00     0.023 C 
ATOM     21  C   UNL A   1      35.128  23.260  26.471  1.00  0.00     0.008 C 
ENDBRANCH  19  20
ENDBRANCH  17  18
ENDBRANCH  16  17
ENDBRANCH  14  15
ENDBRANCH  13  14
ENDBRANCH  11  12
ENDBRANCH  10  11
ENDBRANCH   8   9
ENDBRANCH   7   8
ENDBRANCH   6   7
ENDBRANCH   5   6
ENDBRANCH   4   5
ENDBRANCH   3   4
ENDBRANCH   1   3
BRANCH   1  22
ATOM     22  O   UNL A   1      31.407  29.148  25.363  1.00  0.00    -0.463 OA
BRANCH  22  23
ATOM     23  C   UNL A   1      31.663  30.500  25.819  1.00  0.00     0.261 C 
BRANCH  23  24
ATOM     24  C   UNL A   1      32.337  30.789  27.158  1.00  0.00     0.202 C 
BRANCH  24  25
ATOM     25  O   UNL A   1      33.614  31.396  27.158  1.00  0.00    -0.376 OA
BRANCH  25  26
ATOM     26  C   UNL A   1      34.417  31.099  28.281  1.00  0.00     0.188 C 
BRANCH  26  27
ATOM     27  C   UNL A   1      35.723  30.355  27.923  1.00  0.00     0.188 C 
BRANCH  27  28
ATOM     28  O   UNL A   1      36.225  29.342  28.779  1.00  0.00    -0.376 OA
BRANCH  28  29
ATOM     29  C   UNL A   1      37.628  29.130  28.823  1.00  0.00     0.202 C 
BRANCH  29  30
ATOM     30  C   UNL A   1      38.525  30.065  29.657  1.00  0.00     0.261 C 
BRANCH  30  31
ATOM     31  O   UNL A   1      38.140  30.292  31.027  1.00  0.00    -0.460 OA
BRANCH  31  32
ATOM     32  C   UNL A   1      38.825  29.592  31.968  1.00  0.00     0.338 C 
ATOM     33  O   UNL A   1      39.580  28.651  31.766  1.00  0.00    -0.246 OA
BRANCH  32  34
ATOM     34  C   UNL A   1      38.741  30.287  33.281  1.00  0.00     0.060 A 
ATOM     35  C   UNL A   1      37.923  31.427  33.401  1.00  0.00     0.016 A 
ATOM     36  C   UNL A   1      39.465  29.832  34.382  1.00  0.00     0.016 A 
ATOM     37  C   UNL A   1      37.861  32.139  34.599  1.00  0.00     0.010 A 
ATOM     38  C   UNL A   1      39.443  30.575  35.569  1.00  0.00     0.010 A 
ATOM     39  C   UNL A   1      38.679  31.756  35.664  1.00  0.00    -0.014 A 
BRANCH  39  40
ATOM     40  C   UNL A   1      38.981  32.737  36.737  1.00  0.00     0.031 A 
ATOM     41  C   UNL A   1      40.008  33.798  36.433  1.00  0.00     0.074 A 
ATOM     42  C   UNL A   1      38.372  32.709  37.935  1.00  0.00     0.049 A 
ATOM     43  N   UNL A   1      40.530  34.700  37.221  1.00  0.00    -0.248 NA
ATOM     44  C   UNL A   1      40.517  33.839  35.050  1.00  0.00     0.031 C 
ATOM     45  C   UNL A   1      37.306  31.789  38.324  1.00  0.00     0.029 A 
ATOM     46  N   UNL A   1      38.582  33.475  39.054  1.00  0.00    -0.354 N 
ATOM     47  C   UNL A   1      41.441  35.400  36.436  1.00  0.00     0.074 A 
ATOM     48  C   UNL A   1      41.417  34.806  35.119  1.00  0.00     0.031 C 
ATOM     49  C   UNL A   1      36.976  32.023  39.608  1.00  0.00     0.029 A 
ATOM     50  C   UNL A   1      37.831  33.084  40.138  1.00  0.00     0.049 A 
ATOM     51  H   UNL A   1      39.210  34.232  39.080  1.00  0.00     0.167 HD
ATOM     52  C   UNL A   1      42.228  36.445  36.781  1.00  0.00     0.031 A 
ATOM     53  C   UNL A   1      37.857  33.514  41.417  1.00  0.00     0.031 A 
ATOM     54  C   UNL A   1      42.258  37.024  38.097  1.00  0.00     0.049 A 
ATOM     55  C   UNL A   1      38.811  34.618  41.804  1.00  0.00     0.074 A 
ATOM     56  C   UNL A   1      43.013  38.091  38.548  1.00  0.00     0.029 A 
ATOM     57  N   UNL A   1      41.508  36.578  39.174  1.00  0.00    -0.354 N 
ATOM     58  N   UNL A   1      39.659  35.280  41.052  1.00  0.00    -0.248 NA
ATOM     59  C   UNL A   1      38.807  35.037  43.213  1.00  0.00     0.031 C 
ATOM     60  C   UNL A   1      42.767  38.249  39.914  1.00  0.00     0.029 A 
ATOM     61  C   UNL A   1      41.805  37.329  40.297  1.00  0.00     0.049 A 
ATOM     62  H   UNL A   1      40.862  35.836  39.144  1.00  0.00     0.167 HD
ATOM     63  C   UNL A   1      40.258  36.219  41.888  1.00  0.00     0.074 A 
ATOM     64  C   UNL A   1      39.669  36.045  43.199  1.00  0.00     0.031 C 
ATOM     65  C   UNL A   1      41.205  37.145  41.596  1.00  0.00     0.031 A 
BRANCH  52  66
ATOM     66  C   UNL A   1      43.153  36.997  35.729  1.00  0.00    -0.014 A 
ATOM     67  C   UNL A   1      42.658  37.620  34.570  1.00  0.00     0.010 A 
ATOM     68  C   UNL A   1      44.544  36.919  35.923  1.00  0.00     0.010 A 
ATOM     69  C   UNL A   1      43.537  38.125  33.608  1.00  0.00     0.020 A 
ATOM     70  C   UNL A   1      45.428  37.450  34.980  1.00  0.00     0.020 A 
ATOM     71  C   UNL A   1      44.917  38.038  33.820  1.00  0.00     0.054 A 
BRANCH  71  72
ATOM     72  S   UNL A   1      46.034  38.735  32.573  1.00  0.00     0.124 S 
ATOM     73  O   UNL A   1      47.318  38.160  32.964  1.00  0.00    -0.237 OA
ATOM     74  O   UNL A   1      45.472  38.226  31.324  1.00  0.00    -0.237 OA
ATOM     75  O   UNL A   1      45.914  40.177  32.765  1.00  0.00    -0.744 OA
ENDBRANCH  71  72
ENDBRANCH  52  66
BRANCH  53  76
ATOM     76  C   UNL A   1      36.969  32.885  42.437  1.00  0.00    -0.014 A 
ATOM     77  C   UNL A   1      35.717  33.447  42.743  1.00  0.00     0.010 A 
ATOM     78  C   UNL A   1      37.381  31.727  43.122  1.00  0.00     0.010 A 
ATOM     79  C   UNL A   1      34.905  32.877  43.728  1.00  0.00     0.020 A 
ATOM     80  C   UNL A   1      36.558  31.135  44.086  1.00  0.00     0.020 A 
ATOM     81  C   UNL A   1      35.329  31.722  44.391  1.00  0.00     0.054 A 
BRANCH  81  82
ATOM     82  S   UNL A   1      34.237  30.978  45.634  1.00  0.00     0.124 S 
ATOM     83  O   UNL A   1      32.915  31.334  45.131  1.00  0.00    -0.237 OA
ATOM     84  O   UNL A   1      34.587  29.562  45.551  1.00  0.00    -0.237 OA
ATOM     85  O   UNL A   1      34.634  31.638  46.877  1.00  0.00    -0.744 OA
ENDBRANCH  81  82
ENDBRANCH  53  76
BRANCH  65  86
ATOM     86  C   UNL A   1      41.635  38.082  42.697  1.00  0.00    -0.014 A 
ATOM     87  C   UNL A   1      42.659  37.739  43.596  1.00  0.00     0.010 A 
ATOM     88  C   UNL A   1      41.040  39.355  42.789  1.00  0.00     0.010 A 
ATOM     89  C   UNL A   1      43.060  38.641  44.587  1.00  0.00     0.020 A 
ATOM     90  C   UNL A   1      41.460  40.271  43.756  1.00  0.00     0.020 A 
ATOM     91  C   UNL A   1      42.459  39.902  44.660  1.00  0.00     0.054 A 
BRANCH  91  92
ATOM     92  S   UNL A   1      43.027  41.069  45.926  1.00  0.00     0.124 S 
ATOM     93  O   UNL A   1      43.425  40.173  47.009  1.00  0.00    -0.237 OA
ATOM     94  O   UNL A   1      44.122  41.763  45.253  1.00  0.00    -0.237 OA
ATOM     95  O   UNL A   1      41.849  41.889  46.198  1.00  0.00    -0.744 OA
ENDBRANCH  91  92
ENDBRANCH  65  86
ENDBRANCH  39  40
ENDBRANCH  32  34
ENDBRANCH  31  32
ENDBRANCH  30  31
ENDBRANCH  29  30
ENDBRANCH  28  29
ENDBRANCH  27  28
ENDBRANCH  26  27
ENDBRANCH  25  26
ENDBRANCH  24  25
ENDBRANCH  23  24
ENDBRANCH  22  23
ENDBRANCH   1  22
TORSDOF 33
ENDMDL
