MODEL 1
REMARK VINA RESULT:      -8.9      0.000      0.000
REMARK SMILES C[C@@H](O)CN(C)C(=O)N[C@H]1C=C[C@@H](C(=O)OCCOCCOCCOC(=O)c2ccc(-c3c4nc(c(-c5ccc(S(=O)(=O)[O-])cc5)c5ccc([nH]5)c(-c5ccc(S(=O)(=O)[O-])cc5)c5nc(c(-c6ccc(S(=O)(=O)[O-])cc6)c6ccc3[nH]6)C=C5)C=C4)cc2)C1
REMARK SMILES IDX 20 1 19 2 18 3 17 4 16 5 14 6 15 7 13 8 10 9 11 10 88 11
REMARK SMILES IDX 12 12 9 13 7 14 8 15 5 17 6 18 4 19 2 20 1 21 3 22 21 24
REMARK SMILES IDX 22 25 23 26 24 27 25 28 26 29 27 30 28 31 29 32 87 33 30 34
REMARK SMILES IDX 86 35 31 36 32 37 33 38 80 39 34 40 85 41 79 42 81 43 35 44
REMARK SMILES IDX 84 45 78 46 77 47 36 49 66 50 47 51 65 52 48 53 51 54 64 55
REMARK SMILES IDX 82 56 49 57 50 58 63 60 83 61 52 62 37 63 38 64 46 65 39 66
REMARK SMILES IDX 45 67 40 68 41 69 42 70 43 71 44 72 67 73 68 74 76 75 69 76
REMARK SMILES IDX 75 77 70 78 71 79 72 80 73 81 74 82 53 83 54 84 62 85 55 86
REMARK SMILES IDX 61 87 56 88 57 89 58 90 59 91 60 92
REMARK H PARENT 9 16 3 23 81 48 51 59
REMARK Flexibility Score: inf
ROOT
ATOM      1  C   UNL A   1      32.479  29.488  26.866  1.00  0.00     0.188 C 
ENDROOT
BRANCH   1   2
ATOM      2  O   UNL A   1      31.752  30.225  25.888  1.00  0.00    -0.376 OA
BRANCH   2   3
ATOM      3  C   UNL A   1      31.314  29.552  24.713  1.00  0.00     0.202 C 
BRANCH   3   4
ATOM      4  C   UNL A   1      31.211  28.016  24.740  1.00  0.00     0.261 C 
BRANCH   4   5
ATOM      5  O   UNL A   1      32.283  27.323  24.062  1.00  0.00    -0.463 OA
BRANCH   5   6
ATOM      6  C   UNL A   1      32.130  25.981  23.910  1.00  0.00     0.312 C 
ATOM      7  O   UNL A   1      32.350  25.385  22.859  1.00  0.00    -0.252 OA
BRANCH   6   8
ATOM      8  C   UNL A   1      31.743  25.239  25.198  1.00  0.00     0.124 C 
ATOM      9  C   UNL A   1      31.504  23.049  26.316  1.00  0.00     0.107 C 
ATOM     10  C   UNL A   1      32.828  23.694  26.603  1.00  0.00    -0.006 C 
ATOM     11  C   UNL A   1      31.034  23.882  25.121  1.00  0.00     0.048 C 
ATOM     12  C   UNL A   1      32.959  24.882  25.998  1.00  0.00    -0.014 C 
BRANCH   9  13
ATOM     13  N   UNL A   1      31.725  21.646  26.037  1.00  0.00    -0.332 N 
ATOM     14  C   UNL A   1      32.368  20.914  25.111  1.00  0.00     0.317 C 
ATOM     15  O   UNL A   1      32.044  19.722  25.093  1.00  0.00    -0.249 OA
ATOM     16  H   UNL A   1      31.284  21.072  26.706  1.00  0.00     0.165 HD
BRANCH  14  17
ATOM     17  N   UNL A   1      33.331  21.402  24.275  1.00  0.00    -0.325 N 
ATOM     18  C   UNL A   1      33.138  22.139  23.041  1.00  0.00     0.148 C 
BRANCH  17  19
ATOM     19  C   UNL A   1      34.735  21.281  24.717  1.00  0.00     0.152 C 
BRANCH  19  20
ATOM     20  C   UNL A   1      35.587  22.557  24.540  1.00  0.00     0.130 C 
ATOM     21  C   UNL A   1      36.269  23.023  25.822  1.00  0.00     0.040 C 
BRANCH  20  22
ATOM     22  O   UNL A   1      36.615  22.281  23.578  1.00  0.00    -0.392 OA
ATOM     23  H   UNL A   1      36.382  22.691  22.730  1.00  0.00     0.211 HD
ENDBRANCH  20  22
ENDBRANCH  19  20
ENDBRANCH  17  19
ENDBRANCH  14  17
ENDBRANCH   9  13
ENDBRANCH   6   8
ENDBRANCH   5   6
ENDBRANCH   4   5
ENDBRANCH   3   4
ENDBRANCH   2   3
ENDBRANCH   1   2
BRANCH   1  24
ATOM     24  C   UNL A   1      33.913  29.931  27.202  1.00  0.00     0.188 C 
BRANCH  24  25
ATOM     25  O   UNL A   1      34.112  31.325  27.229  1.00  0.00    -0.376 OA
BRANCH  25  26
ATOM     26  C   UNL A   1      35.214  31.817  27.965  1.00  0.00     0.202 C 
BRANCH  26  27
ATOM     27  C   UNL A   1      35.089  31.893  29.496  1.00  0.00     0.261 C 
BRANCH  27  28
ATOM     28  O   UNL A   1      36.310  31.964  30.255  1.00  0.00    -0.460 OA
BRANCH  28  29
ATOM     29  C   UNL A   1      36.719  30.839  30.885  1.00  0.00     0.338 C 
ATOM     30  O   UNL A   1      36.015  30.065  31.521  1.00  0.00    -0.246 OA
BRANCH  29  31
ATOM     31  C   UNL A   1      38.111  30.554  30.462  1.00  0.00     0.060 A 
ATOM     32  C   UNL A   1      38.439  30.619  29.099  1.00  0.00     0.016 A 
ATOM     33  C   UNL A   1      39.093  30.241  31.403  1.00  0.00     0.016 A 
ATOM     34  C   UNL A   1      39.743  30.349  28.672  1.00  0.00     0.010 A 
ATOM     35  C   UNL A   1      40.391  29.946  30.971  1.00  0.00     0.010 A 
ATOM     36  C   UNL A   1      40.720  29.974  29.604  1.00  0.00    -0.014 A 
BRANCH  36  37
ATOM     37  C   UNL A   1      42.032  29.445  29.147  1.00  0.00     0.031 A 
ATOM     38  C   UNL A   1      43.197  30.396  29.057  1.00  0.00     0.074 A 
ATOM     39  C   UNL A   1      42.197  28.150  28.814  1.00  0.00     0.049 A 
ATOM     40  N   UNL A   1      44.403  30.191  28.597  1.00  0.00    -0.248 NA
ATOM     41  C   UNL A   1      42.966  31.764  29.552  1.00  0.00     0.031 C 
ATOM     42  C   UNL A   1      41.171  27.112  28.905  1.00  0.00     0.029 A 
ATOM     43  N   UNL A   1      43.296  27.491  28.317  1.00  0.00    -0.354 N 
ATOM     44  C   UNL A   1      45.071  31.402  28.733  1.00  0.00     0.074 A 
ATOM     45  C   UNL A   1      44.130  32.345  29.297  1.00  0.00     0.031 C 
ATOM     46  C   UNL A   1      41.683  25.951  28.460  1.00  0.00     0.029 A 
ATOM     47  C   UNL A   1      43.059  26.171  28.014  1.00  0.00     0.049 A 
ATOM     48  H   UNL A   1      44.171  27.925  28.189  1.00  0.00     0.167 HD
ATOM     49  C   UNL A   1      46.354  31.704  28.423  1.00  0.00     0.031 A 
ATOM     50  C   UNL A   1      43.848  25.254  27.415  1.00  0.00     0.031 A 
ATOM     51  C   UNL A   1      47.287  30.771  27.849  1.00  0.00     0.049 A 
ATOM     52  C   UNL A   1      45.245  25.641  26.991  1.00  0.00     0.074 A 
ATOM     53  C   UNL A   1      48.611  30.984  27.504  1.00  0.00     0.029 A 
ATOM     54  N   UNL A   1      46.998  29.454  27.530  1.00  0.00    -0.354 N 
ATOM     55  N   UNL A   1      45.867  26.786  27.144  1.00  0.00    -0.248 NA
ATOM     56  C   UNL A   1      46.049  24.607  26.320  1.00  0.00     0.031 C 
ATOM     57  C   UNL A   1      49.104  29.815  26.920  1.00  0.00     0.029 A 
ATOM     58  C   UNL A   1      48.111  28.850  26.968  1.00  0.00     0.049 A 
ATOM     59  H   UNL A   1      46.131  29.013  27.680  1.00  0.00     0.167 HD
ATOM     60  C   UNL A   1      47.145  26.597  26.620  1.00  0.00     0.074 A 
ATOM     61  C   UNL A   1      47.211  25.226  26.163  1.00  0.00     0.031 C 
ATOM     62  C   UNL A   1      48.170  27.479  26.526  1.00  0.00     0.031 A 
BRANCH  49  63
ATOM     63  C   UNL A   1      46.822  33.114  28.671  1.00  0.00    -0.014 A 
ATOM     64  C   UNL A   1      47.460  33.468  29.874  1.00  0.00     0.010 A 
ATOM     65  C   UNL A   1      46.686  34.081  27.658  1.00  0.00     0.010 A 
ATOM     66  C   UNL A   1      47.930  34.769  30.067  1.00  0.00     0.020 A 
ATOM     67  C   UNL A   1      47.181  35.376  27.836  1.00  0.00     0.020 A 
ATOM     68  C   UNL A   1      47.792  35.714  29.045  1.00  0.00     0.054 A 
BRANCH  68  69
ATOM     69  S   UNL A   1      48.458  37.381  29.308  1.00  0.00     0.124 S 
ATOM     70  O   UNL A   1      49.340  37.175  30.453  1.00  0.00    -0.237 OA
ATOM     71  O   UNL A   1      49.128  37.658  28.040  1.00  0.00    -0.237 OA
ATOM     72  O   UNL A   1      47.272  38.191  29.574  1.00  0.00    -0.744 OA
ENDBRANCH  68  69
ENDBRANCH  49  63
BRANCH  50  73
ATOM     73  C   UNL A   1      43.334  23.882  27.135  1.00  0.00    -0.014 A 
ATOM     74  C   UNL A   1      42.733  23.574  25.900  1.00  0.00     0.010 A 
ATOM     75  C   UNL A   1      43.403  22.882  28.124  1.00  0.00     0.010 A 
ATOM     76  C   UNL A   1      42.183  22.308  25.673  1.00  0.00     0.020 A 
ATOM     77  C   UNL A   1      42.886  21.605  27.888  1.00  0.00     0.020 A 
ATOM     78  C   UNL A   1      42.263  21.332  26.670  1.00  0.00     0.054 A 
BRANCH  78  79
ATOM     79  S   UNL A   1      41.563  19.689  26.344  1.00  0.00     0.124 S 
ATOM     80  O   UNL A   1      42.394  19.218  25.241  1.00  0.00    -0.237 OA
ATOM     81  O   UNL A   1      41.756  19.006  27.620  1.00  0.00    -0.237 OA
ATOM     82  O   UNL A   1      40.171  19.974  26.001  1.00  0.00    -0.744 OA
ENDBRANCH  78  79
ENDBRANCH  50  73
BRANCH  62  83
ATOM     83  C   UNL A   1      49.476  26.985  25.956  1.00  0.00    -0.014 A 
ATOM     84  C   UNL A   1      49.866  27.288  24.640  1.00  0.00     0.010 A 
ATOM     85  C   UNL A   1      50.354  26.253  26.777  1.00  0.00     0.010 A 
ATOM     86  C   UNL A   1      51.096  26.840  24.146  1.00  0.00     0.020 A 
ATOM     87  C   UNL A   1      51.598  25.832  26.299  1.00  0.00     0.020 A 
ATOM     88  C   UNL A   1      51.955  26.117  24.979  1.00  0.00     0.054 A 
BRANCH  88  89
ATOM     89  S   UNL A   1      53.563  25.588  24.328  1.00  0.00     0.124 S 
ATOM     90  O   UNL A   1      53.415  25.850  22.899  1.00  0.00    -0.237 OA
ATOM     91  O   UNL A   1      54.497  26.462  25.034  1.00  0.00    -0.237 OA
ATOM     92  O   UNL A   1      53.640  24.176  24.696  1.00  0.00    -0.744 OA
ENDBRANCH  88  89
ENDBRANCH  62  83
ENDBRANCH  36  37
ENDBRANCH  29  31
ENDBRANCH  28  29
ENDBRANCH  27  28
ENDBRANCH  26  27
ENDBRANCH  25  26
ENDBRANCH  24  25
ENDBRANCH   1  24
TORSDOF 25
ENDMDL
MODEL 2
REMARK VINA RESULT:      -8.9      5.915     10.681
REMARK SMILES C[C@@H](O)CN(C)C(=O)N[C@H]1C=C[C@@H](C(=O)OCCOCCOCCOC(=O)c2ccc(-c3c4nc(c(-c5ccc(S(=O)(=O)[O-])cc5)c5ccc([nH]5)c(-c5ccc(S(=O)(=O)[O-])cc5)c5nc(c(-c6ccc(S(=O)(=O)[O-])cc6)c6ccc3[nH]6)C=C5)C=C4)cc2)C1
REMARK SMILES IDX 20 1 19 2 18 3 17 4 16 5 14 6 15 7 13 8 10 9 11 10 88 11
REMARK SMILES IDX 12 12 9 13 7 14 8 15 5 17 6 18 4 19 2 20 1 21 3 22 21 24
REMARK SMILES IDX 22 25 23 26 24 27 25 28 26 29 27 30 28 31 29 32 87 33 30 34
REMARK SMILES IDX 86 35 31 36 32 37 33 38 80 39 34 40 85 41 79 42 81 43 35 44
REMARK SMILES IDX 84 45 78 46 77 47 36 49 66 50 47 51 65 52 48 53 51 54 64 55
REMARK SMILES IDX 82 56 49 57 50 58 63 60 83 61 52 62 37 63 38 64 46 65 39 66
REMARK SMILES IDX 45 67 40 68 41 69 42 70 43 71 44 72 67 73 68 74 76 75 69 76
REMARK SMILES IDX 75 77 70 78 71 79 72 80 73 81 74 82 53 83 54 84 62 85 55 86
REMARK SMILES IDX 61 87 56 88 57 89 58 90 59 91 60 92
REMARK H PARENT 9 16 3 23 81 48 51 59
REMARK Flexibility Score: inf
ROOT
ATOM      1  C   UNL A   1      32.416  28.295  25.105  1.00  0.00     0.188 C 
ENDROOT
BRANCH   1   2
ATOM      2  O   UNL A   1      32.546  27.059  24.410  1.00  0.00    -0.376 OA
BRANCH   2   3
ATOM      3  C   UNL A   1      32.388  25.846  25.139  1.00  0.00     0.202 C 
BRANCH   3   4
ATOM      4  C   UNL A   1      32.269  24.527  24.355  1.00  0.00     0.261 C 
BRANCH   4   5
ATOM      5  O   UNL A   1      33.387  23.624  24.510  1.00  0.00    -0.463 OA
BRANCH   5   6
ATOM      6  C   UNL A   1      34.215  23.504  23.440  1.00  0.00     0.312 C 
ATOM      7  O   UNL A   1      34.167  24.237  22.456  1.00  0.00    -0.252 OA
BRANCH   6   8
ATOM      8  C   UNL A   1      35.295  22.423  23.594  1.00  0.00     0.124 C 
ATOM      9  C   UNL A   1      37.456  21.808  24.621  1.00  0.00     0.107 C 
ATOM     10  C   UNL A   1      36.284  21.327  25.427  1.00  0.00    -0.006 C 
ATOM     11  C   UNL A   1      36.773  22.820  23.700  1.00  0.00     0.048 C 
ATOM     12  C   UNL A   1      35.112  21.659  24.871  1.00  0.00    -0.014 C 
BRANCH   9  13
ATOM     13  N   UNL A   1      38.439  22.366  25.525  1.00  0.00    -0.332 N 
ATOM     14  C   UNL A   1      39.441  21.909  26.296  1.00  0.00     0.317 C 
ATOM     15  O   UNL A   1      39.839  22.718  27.141  1.00  0.00    -0.249 OA
ATOM     16  H   UNL A   1      38.351  23.345  25.594  1.00  0.00     0.165 HD
BRANCH  14  17
ATOM     17  N   UNL A   1      40.021  20.680  26.159  1.00  0.00    -0.325 N 
ATOM     18  C   UNL A   1      39.407  19.467  25.655  1.00  0.00     0.148 C 
BRANCH  17  19
ATOM     19  C   UNL A   1      41.467  20.580  26.437  1.00  0.00     0.152 C 
BRANCH  19  20
ATOM     20  C   UNL A   1      42.043  19.147  26.390  1.00  0.00     0.130 C 
ATOM     21  C   UNL A   1      43.272  19.008  25.498  1.00  0.00     0.040 C 
BRANCH  20  22
ATOM     22  O   UNL A   1      42.427  18.773  27.721  1.00  0.00    -0.392 OA
ATOM     23  H   UNL A   1      42.001  17.933  27.956  1.00  0.00     0.211 HD
ENDBRANCH  20  22
ENDBRANCH  19  20
ENDBRANCH  17  19
ENDBRANCH  14  17
ENDBRANCH   9  13
ENDBRANCH   6   8
ENDBRANCH   5   6
ENDBRANCH   4   5
ENDBRANCH   3   4
ENDBRANCH   2   3
ENDBRANCH   1   2
BRANCH   1  24
ATOM     24  C   UNL A   1      31.376  29.311  24.605  1.00  0.00     0.188 C 
BRANCH  24  25
ATOM     25  O   UNL A   1      31.202  30.437  25.433  1.00  0.00    -0.376 OA
BRANCH  25  26
ATOM     26  C   UNL A   1      32.111  30.616  26.499  1.00  0.00     0.202 C 
BRANCH  26  27
ATOM     27  C   UNL A   1      32.247  32.021  27.110  1.00  0.00     0.261 C 
BRANCH  27  28
ATOM     28  O   UNL A   1      33.564  32.442  27.508  1.00  0.00    -0.460 OA
BRANCH  28  29
ATOM     29  C   UNL A   1      33.654  33.502  28.345  1.00  0.00     0.338 C 
ATOM     30  O   UNL A   1      32.835  34.403  28.466  1.00  0.00    -0.246 OA
BRANCH  29  31
ATOM     31  C   UNL A   1      34.781  33.258  29.276  1.00  0.00     0.060 A 
ATOM     32  C   UNL A   1      36.004  33.911  29.056  1.00  0.00     0.016 A 
ATOM     33  C   UNL A   1      34.632  32.404  30.370  1.00  0.00     0.016 A 
ATOM     34  C   UNL A   1      37.085  33.694  29.917  1.00  0.00     0.010 A 
ATOM     35  C   UNL A   1      35.723  32.169  31.215  1.00  0.00     0.010 A 
ATOM     36  C   UNL A   1      36.962  32.793  30.981  1.00  0.00    -0.014 A 
BRANCH  36  37
ATOM     37  C   UNL A   1      38.162  32.363  31.747  1.00  0.00     0.031 A 
ATOM     38  C   UNL A   1      39.061  31.317  31.142  1.00  0.00     0.074 A 
ATOM     39  C   UNL A   1      38.455  32.882  32.955  1.00  0.00     0.049 A 
ATOM     40  N   UNL A   1      40.102  30.717  31.659  1.00  0.00    -0.248 NA
ATOM     41  C   UNL A   1      38.740  30.889  29.770  1.00  0.00     0.031 C 
ATOM     42  C   UNL A   1      37.702  33.936  33.632  1.00  0.00     0.029 A 
ATOM     43  N   UNL A   1      39.466  32.575  33.835  1.00  0.00    -0.354 N 
ATOM     44  C   UNL A   1      40.553  29.834  30.684  1.00  0.00     0.074 A 
ATOM     45  C   UNL A   1      39.658  29.957  29.554  1.00  0.00     0.031 C 
ATOM     46  C   UNL A   1      38.266  34.177  34.829  1.00  0.00     0.029 A 
ATOM     47  C   UNL A   1      39.394  33.265  35.022  1.00  0.00     0.049 A 
ATOM     48  H   UNL A   1      40.175  31.922  33.633  1.00  0.00     0.167 HD
ATOM     49  C   UNL A   1      41.617  28.998  30.722  1.00  0.00     0.031 A 
ATOM     50  C   UNL A   1      40.130  33.152  36.148  1.00  0.00     0.031 A 
ATOM     51  C   UNL A   1      42.499  28.864  31.851  1.00  0.00     0.049 A 
ATOM     52  C   UNL A   1      41.254  32.145  36.199  1.00  0.00     0.074 A 
ATOM     53  C   UNL A   1      43.608  28.046  31.980  1.00  0.00     0.029 A 
ATOM     54  N   UNL A   1      42.373  29.558  33.043  1.00  0.00    -0.354 N 
ATOM     55  N   UNL A   1      41.678  31.329  35.263  1.00  0.00    -0.248 NA
ATOM     56  C   UNL A   1      42.005  32.049  37.462  1.00  0.00     0.031 C 
ATOM     57  C   UNL A   1      44.115  28.199  33.273  1.00  0.00     0.029 A 
ATOM     58  C   UNL A   1      43.368  29.167  33.924  1.00  0.00     0.049 A 
ATOM     59  H   UNL A   1      41.679  30.229  33.237  1.00  0.00     0.167 HD
ATOM     60  C   UNL A   1      42.764  30.651  35.812  1.00  0.00     0.074 A 
ATOM     61  C   UNL A   1      42.943  31.163  37.154  1.00  0.00     0.031 C 
ATOM     62  C   UNL A   1      43.544  29.692  35.255  1.00  0.00     0.031 A 
BRANCH  49  63
ATOM     63  C   UNL A   1      41.875  28.136  29.514  1.00  0.00    -0.014 A 
ATOM     64  C   UNL A   1      41.240  26.891  29.359  1.00  0.00     0.010 A 
ATOM     65  C   UNL A   1      42.711  28.611  28.487  1.00  0.00     0.010 A 
ATOM     66  C   UNL A   1      41.455  26.126  28.210  1.00  0.00     0.020 A 
ATOM     67  C   UNL A   1      42.906  27.862  27.322  1.00  0.00     0.020 A 
ATOM     68  C   UNL A   1      42.284  26.619  27.196  1.00  0.00     0.054 A 
BRANCH  68  69
ATOM     69  S   UNL A   1      42.502  25.626  25.694  1.00  0.00     0.124 S 
ATOM     70  O   UNL A   1      42.819  24.311  26.246  1.00  0.00    -0.237 OA
ATOM     71  O   UNL A   1      41.198  25.739  25.047  1.00  0.00    -0.237 OA
ATOM     72  O   UNL A   1      43.601  26.289  24.996  1.00  0.00    -0.744 OA
ENDBRANCH  68  69
ENDBRANCH  49  63
BRANCH  50  73
ATOM     73  C   UNL A   1      39.813  33.983  37.345  1.00  0.00    -0.014 A 
ATOM     74  C   UNL A   1      40.388  35.256  37.514  1.00  0.00     0.010 A 
ATOM     75  C   UNL A   1      38.962  33.484  38.350  1.00  0.00     0.010 A 
ATOM     76  C   UNL A   1      40.147  35.997  38.675  1.00  0.00     0.020 A 
ATOM     77  C   UNL A   1      38.691  34.237  39.497  1.00  0.00     0.020 A 
ATOM     78  C   UNL A   1      39.300  35.481  39.660  1.00  0.00     0.054 A 
BRANCH  78  79
ATOM     79  S   UNL A   1      38.984  36.471  41.148  1.00  0.00     0.124 S 
ATOM     80  O   UNL A   1      38.710  37.789  40.584  1.00  0.00    -0.237 OA
ATOM     81  O   UNL A   1      37.841  35.786  41.744  1.00  0.00    -0.237 OA
ATOM     82  O   UNL A   1      40.232  36.361  41.902  1.00  0.00    -0.744 OA
ENDBRANCH  78  79
ENDBRANCH  50  73
BRANCH  62  83
ATOM     83  C   UNL A   1      44.699  29.163  36.068  1.00  0.00    -0.014 A 
ATOM     84  C   UNL A   1      45.961  29.781  36.042  1.00  0.00     0.010 A 
ATOM     85  C   UNL A   1      44.497  28.060  36.919  1.00  0.00     0.010 A 
ATOM     86  C   UNL A   1      47.007  29.287  36.828  1.00  0.00     0.020 A 
ATOM     87  C   UNL A   1      45.529  27.584  37.731  1.00  0.00     0.020 A 
ATOM     88  C   UNL A   1      46.784  28.193  37.669  1.00  0.00     0.054 A 
BRANCH  88  89
ATOM     89  S   UNL A   1      48.146  27.600  38.711  1.00  0.00     0.124 S 
ATOM     90  O   UNL A   1      49.245  27.508  37.754  1.00  0.00    -0.237 OA
ATOM     91  O   UNL A   1      48.269  28.660  39.709  1.00  0.00    -0.237 OA
ATOM     92  O   UNL A   1      47.660  26.322  39.226  1.00  0.00    -0.744 OA
ENDBRANCH  88  89
ENDBRANCH  62  83
ENDBRANCH  36  37
ENDBRANCH  29  31
ENDBRANCH  28  29
ENDBRANCH  27  28
ENDBRANCH  26  27
ENDBRANCH  25  26
ENDBRANCH  24  25
ENDBRANCH   1  24
TORSDOF 25
ENDMDL
MODEL 3
REMARK VINA RESULT:      -8.8      5.911     10.583
REMARK SMILES C[C@@H](O)CN(C)C(=O)N[C@H]1C=C[C@@H](C(=O)OCCOCCOCCOC(=O)c2ccc(-c3c4nc(c(-c5ccc(S(=O)(=O)[O-])cc5)c5ccc([nH]5)c(-c5ccc(S(=O)(=O)[O-])cc5)c5nc(c(-c6ccc(S(=O)(=O)[O-])cc6)c6ccc3[nH]6)C=C5)C=C4)cc2)C1
REMARK SMILES IDX 20 1 19 2 18 3 17 4 16 5 14 6 15 7 13 8 10 9 11 10 88 11
REMARK SMILES IDX 12 12 9 13 7 14 8 15 5 17 6 18 4 19 2 20 1 21 3 22 21 24
REMARK SMILES IDX 22 25 23 26 24 27 25 28 26 29 27 30 28 31 29 32 87 33 30 34
REMARK SMILES IDX 86 35 31 36 32 37 33 38 80 39 34 40 85 41 79 42 81 43 35 44
REMARK SMILES IDX 84 45 78 46 77 47 36 49 66 50 47 51 65 52 48 53 51 54 64 55
REMARK SMILES IDX 82 56 49 57 50 58 63 60 83 61 52 62 37 63 38 64 46 65 39 66
REMARK SMILES IDX 45 67 40 68 41 69 42 70 43 71 44 72 67 73 68 74 76 75 69 76
REMARK SMILES IDX 75 77 70 78 71 79 72 80 73 81 74 82 53 83 54 84 62 85 55 86
REMARK SMILES IDX 61 87 56 88 57 89 58 90 59 91 60 92
REMARK H PARENT 9 16 3 23 81 48 51 59
REMARK Flexibility Score: inf
ROOT
ATOM      1  C   UNL A   1      31.806  29.162  26.516  1.00  0.00     0.188 C 
ENDROOT
BRANCH   1   2
ATOM      2  O   UNL A   1      31.733  29.762  25.228  1.00  0.00    -0.376 OA
BRANCH   2   3
ATOM      3  C   UNL A   1      30.838  29.210  24.267  1.00  0.00     0.202 C 
BRANCH   3   4
ATOM      4  C   UNL A   1      30.644  27.683  24.236  1.00  0.00     0.261 C 
BRANCH   4   5
ATOM      5  O   UNL A   1      31.763  26.938  23.705  1.00  0.00    -0.463 OA
BRANCH   5   6
ATOM      6  C   UNL A   1      31.516  26.187  22.600  1.00  0.00     0.312 C 
ATOM      7  O   UNL A   1      31.104  26.650  21.540  1.00  0.00    -0.252 OA
BRANCH   6   8
ATOM      8  C   UNL A   1      31.885  24.703  22.749  1.00  0.00     0.124 C 
ATOM      9  C   UNL A   1      32.757  22.942  24.246  1.00  0.00     0.107 C 
ATOM     10  C   UNL A   1      31.257  22.986  24.231  1.00  0.00    -0.006 C 
ATOM     11  C   UNL A   1      33.089  24.291  23.605  1.00  0.00     0.048 C 
ATOM     12  C   UNL A   1      30.783  23.940  23.420  1.00  0.00    -0.014 C 
BRANCH   9  13
ATOM     13  N   UNL A   1      33.201  22.787  25.615  1.00  0.00    -0.332 N 
ATOM     14  C   UNL A   1      34.018  21.968  26.298  1.00  0.00     0.317 C 
ATOM     15  O   UNL A   1      33.873  22.015  27.525  1.00  0.00    -0.249 OA
ATOM     16  H   UNL A   1      32.794  23.462  26.204  1.00  0.00     0.165 HD
BRANCH  14  17
ATOM     17  N   UNL A   1      34.968  21.171  25.725  1.00  0.00    -0.325 N 
ATOM     18  C   UNL A   1      34.758  20.080  24.793  1.00  0.00     0.148 C 
BRANCH  17  19
ATOM     19  C   UNL A   1      36.381  21.515  25.975  1.00  0.00     0.152 C 
BRANCH  19  20
ATOM     20  C   UNL A   1      37.236  21.729  24.706  1.00  0.00     0.130 C 
ATOM     21  C   UNL A   1      36.781  22.908  23.851  1.00  0.00     0.040 C 
BRANCH  20  22
ATOM     22  O   UNL A   1      38.588  21.984  25.112  1.00  0.00    -0.392 OA
ATOM     23  H   UNL A   1      38.642  22.861  25.524  1.00  0.00     0.211 HD
ENDBRANCH  20  22
ENDBRANCH  19  20
ENDBRANCH  17  19
ENDBRANCH  14  17
ENDBRANCH   9  13
ENDBRANCH   6   8
ENDBRANCH   5   6
ENDBRANCH   4   5
ENDBRANCH   3   4
ENDBRANCH   2   3
ENDBRANCH   1   2
BRANCH   1  24
ATOM     24  C   UNL A   1      33.190  28.962  27.155  1.00  0.00     0.188 C 
BRANCH  24  25
ATOM     25  O   UNL A   1      34.146  29.940  26.819  1.00  0.00    -0.376 OA
BRANCH  25  26
ATOM     26  C   UNL A   1      34.252  31.071  27.659  1.00  0.00     0.202 C 
BRANCH  26  27
ATOM     27  C   UNL A   1      33.122  32.114  27.619  1.00  0.00     0.261 C 
BRANCH  27  28
ATOM     28  O   UNL A   1      33.504  33.496  27.500  1.00  0.00    -0.460 OA
BRANCH  28  29
ATOM     29  C   UNL A   1      33.421  34.264  28.611  1.00  0.00     0.338 C 
ATOM     30  O   UNL A   1      32.466  34.951  28.950  1.00  0.00    -0.246 OA
BRANCH  29  31
ATOM     31  C   UNL A   1      34.572  33.936  29.485  1.00  0.00     0.060 A 
ATOM     32  C   UNL A   1      35.869  34.257  29.058  1.00  0.00     0.016 A 
ATOM     33  C   UNL A   1      34.376  33.328  30.726  1.00  0.00     0.016 A 
ATOM     34  C   UNL A   1      36.974  33.953  29.861  1.00  0.00     0.010 A 
ATOM     35  C   UNL A   1      35.484  33.001  31.517  1.00  0.00     0.010 A 
ATOM     36  C   UNL A   1      36.790  33.289  31.080  1.00  0.00    -0.014 A 
BRANCH  36  37
ATOM     37  C   UNL A   1      37.956  32.738  31.821  1.00  0.00     0.031 A 
ATOM     38  C   UNL A   1      38.694  31.567  31.226  1.00  0.00     0.074 A 
ATOM     39  C   UNL A   1      38.356  33.256  32.997  1.00  0.00     0.049 A 
ATOM     40  N   UNL A   1      39.671  30.859  31.730  1.00  0.00    -0.248 NA
ATOM     41  C   UNL A   1      38.269  31.137  29.883  1.00  0.00     0.031 C 
ATOM     42  C   UNL A   1      37.767  34.419  33.658  1.00  0.00     0.029 A 
ATOM     43  N   UNL A   1      39.354  32.855  33.853  1.00  0.00    -0.354 N 
ATOM     44  C   UNL A   1      39.970  29.894  30.775  1.00  0.00     0.074 A 
ATOM     45  C   UNL A   1      39.055  30.090  29.672  1.00  0.00     0.031 C 
ATOM     46  C   UNL A   1      38.402  34.627  34.825  1.00  0.00     0.029 A 
ATOM     47  C   UNL A   1      39.415  33.588  35.015  1.00  0.00     0.049 A 
ATOM     48  H   UNL A   1      39.968  32.111  33.653  1.00  0.00     0.167 HD
ATOM     49  C   UNL A   1      40.922  28.932  30.809  1.00  0.00     0.031 A 
ATOM     50  C   UNL A   1      40.173  33.421  36.119  1.00  0.00     0.031 A 
ATOM     51  C   UNL A   1      41.824  28.727  31.912  1.00  0.00     0.049 A 
ATOM     52  C   UNL A   1      41.164  32.283  36.171  1.00  0.00     0.074 A 
ATOM     53  C   UNL A   1      42.827  27.780  32.035  1.00  0.00     0.029 A 
ATOM     54  N   UNL A   1      41.831  29.471  33.081  1.00  0.00    -0.354 N 
ATOM     55  N   UNL A   1      41.447  31.390  35.253  1.00  0.00    -0.248 NA
ATOM     56  C   UNL A   1      41.945  32.136  37.410  1.00  0.00     0.031 C 
ATOM     57  C   UNL A   1      43.398  27.912  33.304  1.00  0.00     0.029 A 
ATOM     58  C   UNL A   1      42.803  28.988  33.941  1.00  0.00     0.049 A 
ATOM     59  H   UNL A   1      41.234  30.230  33.271  1.00  0.00     0.167 HD
ATOM     60  C   UNL A   1      42.461  30.599  35.791  1.00  0.00     0.074 A 
ATOM     61  C   UNL A   1      42.753  31.129  37.105  1.00  0.00     0.031 C 
ATOM     62  C   UNL A   1      43.093  29.531  35.245  1.00  0.00     0.031 A 
BRANCH  49  63
ATOM     63  C   UNL A   1      41.025  28.005  29.628  1.00  0.00    -0.014 A 
ATOM     64  C   UNL A   1      42.089  28.105  28.713  1.00  0.00     0.010 A 
ATOM     65  C   UNL A   1      40.082  26.973  29.469  1.00  0.00     0.010 A 
ATOM     66  C   UNL A   1      42.194  27.206  27.649  1.00  0.00     0.020 A 
ATOM     67  C   UNL A   1      40.199  26.053  28.423  1.00  0.00     0.020 A 
ATOM     68  C   UNL A   1      41.250  26.182  27.513  1.00  0.00     0.054 A 
BRANCH  68  69
ATOM     69  S   UNL A   1      41.443  25.000  26.151  1.00  0.00     0.124 S 
ATOM     70  O   UNL A   1      40.131  24.360  26.121  1.00  0.00    -0.237 OA
ATOM     71  O   UNL A   1      41.745  25.869  25.017  1.00  0.00    -0.237 OA
ATOM     72  O   UNL A   1      42.543  24.144  26.587  1.00  0.00    -0.744 OA
ENDBRANCH  68  69
ENDBRANCH  49  63
BRANCH  50  73
ATOM     73  C   UNL A   1      40.008  34.325  37.294  1.00  0.00    -0.014 A 
ATOM     74  C   UNL A   1      39.061  34.042  38.295  1.00  0.00     0.010 A 
ATOM     75  C   UNL A   1      40.771  35.504  37.395  1.00  0.00     0.010 A 
ATOM     76  C   UNL A   1      38.857  34.934  39.354  1.00  0.00     0.020 A 
ATOM     77  C   UNL A   1      40.594  36.381  38.469  1.00  0.00     0.020 A 
ATOM     78  C   UNL A   1      39.625  36.098  39.433  1.00  0.00     0.054 A 
BRANCH  78  79
ATOM     79  S   UNL A   1      39.358  37.229  40.827  1.00  0.00     0.124 S 
ATOM     80  O   UNL A   1      40.720  37.649  41.143  1.00  0.00    -0.237 OA
ATOM     81  O   UNL A   1      38.499  38.254  40.240  1.00  0.00    -0.237 OA
ATOM     82  O   UNL A   1      38.714  36.386  41.832  1.00  0.00    -0.744 OA
ENDBRANCH  78  79
ENDBRANCH  50  73
BRANCH  62  83
ATOM     83  C   UNL A   1      44.204  28.889  36.038  1.00  0.00    -0.014 A 
ATOM     84  C   UNL A   1      43.936  28.049  37.133  1.00  0.00     0.010 A 
ATOM     85  C   UNL A   1      45.540  29.083  35.638  1.00  0.00     0.010 A 
ATOM     86  C   UNL A   1      44.984  27.443  37.833  1.00  0.00     0.020 A 
ATOM     87  C   UNL A   1      46.588  28.454  36.314  1.00  0.00     0.020 A 
ATOM     88  C   UNL A   1      46.303  27.647  37.417  1.00  0.00     0.054 A 
BRANCH  88  89
ATOM     89  S   UNL A   1      47.641  26.814  38.315  1.00  0.00     0.124 S 
ATOM     90  O   UNL A   1      47.279  27.066  39.708  1.00  0.00    -0.237 OA
ATOM     91  O   UNL A   1      47.507  25.428  37.873  1.00  0.00    -0.237 OA
ATOM     92  O   UNL A   1      48.848  27.495  37.853  1.00  0.00    -0.744 OA
ENDBRANCH  88  89
ENDBRANCH  62  83
ENDBRANCH  36  37
ENDBRANCH  29  31
ENDBRANCH  28  29
ENDBRANCH  27  28
ENDBRANCH  26  27
ENDBRANCH  25  26
ENDBRANCH  24  25
ENDBRANCH   1  24
TORSDOF 25
ENDMDL
