MODEL 1
REMARK VINA RESULT:      -9.9      0.000      0.000
REMARK SMILES CN1C(=O)/C(=C\c2cccc(Cl)c2)Sc2ccc(C(=O)OCCOCCOCCOC(=O)c3ccc(-c4c5nc(c(-c6ccc(S(=O)(=O)[O-])cc6)c6ccc([nH]6)c(-c6ccc(S(=O)(=O)[O-])cc6)c6nc(c(-c7ccc(S(=O)(=O)[O-])cc7)c7ccc4[nH]7)C=C6)C=C5)cc3)cc21
REMARK SMILES IDX 26 1 25 2 24 3 23 4 22 5 21 6 19 7 20 8 18 9 1 10 2 11 3 12
REMARK SMILES IDX 94 13 4 14 5 15 15 16 93 17 6 18 14 19 16 20 17 21 7 22 8 23
REMARK SMILES IDX 13 24 9 25 11 26 10 27 12 28 27 29 28 30 29 31 30 32 31 33
REMARK SMILES IDX 32 34 33 35 34 36 92 37 35 38 91 39 36 40 37 41 38 42 85 43
REMARK SMILES IDX 39 44 90 45 84 46 86 47 40 48 89 49 83 50 82 51 41 53 71 54
REMARK SMILES IDX 52 55 70 56 53 57 56 58 69 59 87 60 54 61 55 62 68 64 88 65
REMARK SMILES IDX 57 66 42 67 43 68 51 69 44 70 50 71 45 72 46 73 47 74 48 75
REMARK SMILES IDX 49 76 72 77 73 78 81 79 74 80 80 81 75 82 76 83 77 84 78 85
REMARK SMILES IDX 79 86 58 87 59 88 67 89 60 90 66 91 61 92 62 93 63 94 64 95
REMARK SMILES IDX 65 96
REMARK H PARENT 86 52 56 63
REMARK Flexibility Score: inf
ROOT
ATOM      1  C   UNL A   1      37.611  23.479  25.854  1.00  0.00     0.188 C 
ENDROOT
BRANCH   1   2
ATOM      2  C   UNL A   1      36.099  23.266  26.079  1.00  0.00     0.188 C 
BRANCH   2   3
ATOM      3  O   UNL A   1      35.492  22.117  25.537  1.00  0.00    -0.376 OA
BRANCH   3   4
ATOM      4  C   UNL A   1      34.948  22.105  24.230  1.00  0.00     0.202 C 
BRANCH   4   5
ATOM      5  C   UNL A   1      35.350  23.039  23.077  1.00  0.00     0.261 C 
BRANCH   5   6
ATOM      6  O   UNL A   1      34.362  23.327  22.087  1.00  0.00    -0.460 OA
BRANCH   6   7
ATOM      7  C   UNL A   1      33.099  22.953  22.417  1.00  0.00     0.338 C 
ATOM      8  O   UNL A   1      32.547  21.905  22.136  1.00  0.00    -0.246 OA
BRANCH   7   9
ATOM      9  C   UNL A   1      32.512  23.944  23.342  1.00  0.00     0.062 A 
ATOM     10  C   UNL A   1      33.995  27.949  23.076  1.00  0.00     0.153 C 
ATOM     11  N   UNL A   1      33.047  27.576  24.117  1.00  0.00    -0.310 N 
ATOM     12  C   UNL A   1      32.589  28.600  24.943  1.00  0.00     0.264 C 
ATOM     13  C   UNL A   1      32.558  26.230  24.204  1.00  0.00     0.058 A 
ATOM     14  O   UNL A   1      32.650  29.793  24.653  1.00  0.00    -0.268 OA
ATOM     15  C   UNL A   1      32.085  28.162  26.277  1.00  0.00     0.078 C 
ATOM     16  C   UNL A   1      31.486  25.891  25.056  1.00  0.00     0.036 A 
ATOM     17  C   UNL A   1      33.082  25.226  23.375  1.00  0.00     0.043 A 
ATOM     18  C   UNL A   1      32.629  28.615  27.422  1.00  0.00     0.029 C 
ATOM     19  S   UNL A   1      30.802  27.015  26.262  1.00  0.00    -0.082 SA
ATOM     20  C   UNL A   1      30.901  24.613  24.992  1.00  0.00     0.018 A 
ATOM     21  C   UNL A   1      31.402  23.643  24.126  1.00  0.00     0.017 A 
BRANCH  18  22
ATOM     22  C   UNL A   1      33.715  29.600  27.495  1.00  0.00    -0.023 A 
ATOM     23  C   UNL A   1      35.044  29.174  27.361  1.00  0.00     0.008 A 
ATOM     24  C   UNL A   1      33.448  30.952  27.729  1.00  0.00     0.028 A 
ATOM     25  C   UNL A   1      36.097  30.080  27.484  1.00  0.00     0.002 A 
ATOM     26  C   UNL A   1      34.508  31.857  27.838  1.00  0.00     0.041 A 
ATOM     27  C   UNL A   1      35.829  31.426  27.722  1.00  0.00     0.020 A 
ATOM     28  Cl  UNL A   1      34.181  33.524  28.119  1.00  0.00    -0.084 Cl
ENDBRANCH  18  22
ENDBRANCH   7   9
ENDBRANCH   6   7
ENDBRANCH   5   6
ENDBRANCH   4   5
ENDBRANCH   3   4
ENDBRANCH   2   3
ENDBRANCH   1   2
BRANCH   1  29
ATOM     29  O   UNL A   1      38.550  22.495  26.248  1.00  0.00    -0.376 OA
BRANCH  29  30
ATOM     30  C   UNL A   1      38.618  21.271  25.531  1.00  0.00     0.202 C 
BRANCH  30  31
ATOM     31  C   UNL A   1      39.409  20.069  26.070  1.00  0.00     0.261 C 
BRANCH  31  32
ATOM     32  O   UNL A   1      40.617  19.770  25.360  1.00  0.00    -0.460 OA
BRANCH  32  33
ATOM     33  C   UNL A   1      41.733  19.668  26.125  1.00  0.00     0.338 C 
ATOM     34  O   UNL A   1      42.387  18.662  26.346  1.00  0.00    -0.246 OA
BRANCH  33  35
ATOM     35  C   UNL A   1      42.171  21.022  26.508  1.00  0.00     0.060 A 
ATOM     36  C   UNL A   1      42.453  21.335  27.838  1.00  0.00     0.016 A 
ATOM     37  C   UNL A   1      42.304  21.992  25.504  1.00  0.00     0.016 A 
ATOM     38  C   UNL A   1      42.884  22.624  28.163  1.00  0.00     0.010 A 
ATOM     39  C   UNL A   1      42.713  23.285  25.833  1.00  0.00     0.010 A 
ATOM     40  C   UNL A   1      43.024  23.604  27.162  1.00  0.00    -0.014 A 
BRANCH  40  41
ATOM     41  C   UNL A   1      43.655  24.908  27.476  1.00  0.00     0.031 A 
ATOM     42  C   UNL A   1      45.094  25.185  27.165  1.00  0.00     0.074 A 
ATOM     43  C   UNL A   1      42.898  25.845  28.077  1.00  0.00     0.049 A 
ATOM     44  N   UNL A   1      45.766  26.293  27.340  1.00  0.00    -0.248 NA
ATOM     45  C   UNL A   1      45.883  24.086  26.586  1.00  0.00     0.031 C 
ATOM     46  C   UNL A   1      41.488  25.673  28.432  1.00  0.00     0.029 A 
ATOM     47  N   UNL A   1      43.195  27.118  28.490  1.00  0.00    -0.354 N 
ATOM     48  C   UNL A   1      47.049  26.042  26.873  1.00  0.00     0.074 A 
ATOM     49  C   UNL A   1      47.075  24.656  26.448  1.00  0.00     0.031 C 
ATOM     50  C   UNL A   1      41.036  26.805  28.990  1.00  0.00     0.029 A 
ATOM     51  C   UNL A   1      42.130  27.771  29.066  1.00  0.00     0.049 A 
ATOM     52  H   UNL A   1      44.085  27.526  28.385  1.00  0.00     0.167 HD
ATOM     53  C   UNL A   1      48.095  26.898  26.789  1.00  0.00     0.031 A 
ATOM     54  C   UNL A   1      42.035  29.008  29.594  1.00  0.00     0.031 A 
ATOM     55  C   UNL A   1      48.052  28.270  27.235  1.00  0.00     0.049 A 
ATOM     56  C   UNL A   1      43.231  29.916  29.554  1.00  0.00     0.074 A 
ATOM     57  C   UNL A   1      49.052  29.224  27.151  1.00  0.00     0.029 A 
ATOM     58  N   UNL A   1      46.973  28.881  27.858  1.00  0.00    -0.354 N 
ATOM     59  N   UNL A   1      44.413  29.690  29.032  1.00  0.00    -0.248 NA
ATOM     60  C   UNL A   1      43.085  31.248  30.156  1.00  0.00     0.031 C 
ATOM     61  C   UNL A   1      48.608  30.382  27.793  1.00  0.00     0.029 A 
ATOM     62  C   UNL A   1      47.299  30.184  28.202  1.00  0.00     0.049 A 
ATOM     63  H   UNL A   1      46.103  28.453  28.030  1.00  0.00     0.167 HD
ATOM     64  C   UNL A   1      45.143  30.856  29.224  1.00  0.00     0.074 A 
ATOM     65  C   UNL A   1      44.269  31.793  29.898  1.00  0.00     0.031 C 
ATOM     66  C   UNL A   1      46.426  31.117  28.872  1.00  0.00     0.031 A 
BRANCH  53  67
ATOM     67  C   UNL A   1      49.384  26.413  26.175  1.00  0.00    -0.014 A 
ATOM     68  C   UNL A   1      50.348  25.771  26.977  1.00  0.00     0.010 A 
ATOM     69  C   UNL A   1      49.711  26.740  24.847  1.00  0.00     0.010 A 
ATOM     70  C   UNL A   1      51.626  25.503  26.477  1.00  0.00     0.020 A 
ATOM     71  C   UNL A   1      50.979  26.446  24.333  1.00  0.00     0.020 A 
ATOM     72  C   UNL A   1      51.936  25.854  25.160  1.00  0.00     0.054 A 
BRANCH  72  73
ATOM     73  S   UNL A   1      53.614  25.542  24.542  1.00  0.00     0.124 S 
ATOM     74  O   UNL A   1      54.405  26.518  25.286  1.00  0.00    -0.237 OA
ATOM     75  O   UNL A   1      53.832  24.144  24.906  1.00  0.00    -0.237 OA
ATOM     76  O   UNL A   1      53.502  25.791  23.106  1.00  0.00    -0.744 OA
ENDBRANCH  72  73
ENDBRANCH  53  67
BRANCH  54  77
ATOM     77  C   UNL A   1      40.729  29.449  30.156  1.00  0.00    -0.014 A 
ATOM     78  C   UNL A   1      39.813  30.160  29.356  1.00  0.00     0.010 A 
ATOM     79  C   UNL A   1      40.443  29.262  31.519  1.00  0.00     0.010 A 
ATOM     80  C   UNL A   1      38.673  30.734  29.923  1.00  0.00     0.020 A 
ATOM     81  C   UNL A   1      39.285  29.807  32.082  1.00  0.00     0.020 A 
ATOM     82  C   UNL A   1      38.425  30.567  31.287  1.00  0.00     0.054 A 
BRANCH  82  83
ATOM     83  S   UNL A   1      36.978  31.384  32.014  1.00  0.00     0.124 S 
ATOM     84  O   UNL A   1      37.501  31.823  33.306  1.00  0.00    -0.237 OA
ATOM     85  O   UNL A   1      36.696  32.447  31.054  1.00  0.00    -0.237 OA
ATOM     86  O   UNL A   1      35.978  30.321  32.074  1.00  0.00    -0.744 OA
ENDBRANCH  82  83
ENDBRANCH  54  77
BRANCH  66  87
ATOM     87  C   UNL A   1      47.003  32.472  29.202  1.00  0.00    -0.014 A 
ATOM     88  C   UNL A   1      47.588  32.692  30.465  1.00  0.00     0.010 A 
ATOM     89  C   UNL A   1      46.807  33.565  28.341  1.00  0.00     0.010 A 
ATOM     90  C   UNL A   1      47.904  33.987  30.886  1.00  0.00     0.020 A 
ATOM     91  C   UNL A   1      47.152  34.858  28.746  1.00  0.00     0.020 A 
ATOM     92  C   UNL A   1      47.665  35.064  30.030  1.00  0.00     0.054 A 
BRANCH  92  93
ATOM     93  S   UNL A   1      47.996  36.744  30.629  1.00  0.00     0.124 S 
ATOM     94  O   UNL A   1      47.401  36.718  31.961  1.00  0.00    -0.237 OA
ATOM     95  O   UNL A   1      49.455  36.816  30.593  1.00  0.00    -0.237 OA
ATOM     96  O   UNL A   1      47.313  37.597  29.658  1.00  0.00    -0.744 OA
ENDBRANCH  92  93
ENDBRANCH  66  87
ENDBRANCH  40  41
ENDBRANCH  33  35
ENDBRANCH  32  33
ENDBRANCH  31  32
ENDBRANCH  30  31
ENDBRANCH  29  30
ENDBRANCH   1  29
TORSDOF 21
ENDMDL
MODEL 2
REMARK VINA RESULT:      -9.7      2.295      3.440
REMARK SMILES CN1C(=O)/C(=C\c2cccc(Cl)c2)Sc2ccc(C(=O)OCCOCCOCCOC(=O)c3ccc(-c4c5nc(c(-c6ccc(S(=O)(=O)[O-])cc6)c6ccc([nH]6)c(-c6ccc(S(=O)(=O)[O-])cc6)c6nc(c(-c7ccc(S(=O)(=O)[O-])cc7)c7ccc4[nH]7)C=C6)C=C5)cc3)cc21
REMARK SMILES IDX 26 1 25 2 24 3 23 4 22 5 21 6 19 7 20 8 18 9 1 10 2 11 3 12
REMARK SMILES IDX 94 13 4 14 5 15 15 16 93 17 6 18 14 19 16 20 17 21 7 22 8 23
REMARK SMILES IDX 13 24 9 25 11 26 10 27 12 28 27 29 28 30 29 31 30 32 31 33
REMARK SMILES IDX 32 34 33 35 34 36 92 37 35 38 91 39 36 40 37 41 38 42 85 43
REMARK SMILES IDX 39 44 90 45 84 46 86 47 40 48 89 49 83 50 82 51 41 53 71 54
REMARK SMILES IDX 52 55 70 56 53 57 56 58 69 59 87 60 54 61 55 62 68 64 88 65
REMARK SMILES IDX 57 66 42 67 43 68 51 69 44 70 50 71 45 72 46 73 47 74 48 75
REMARK SMILES IDX 49 76 72 77 73 78 81 79 74 80 80 81 75 82 76 83 77 84 78 85
REMARK SMILES IDX 79 86 58 87 59 88 67 89 60 90 66 91 61 92 62 93 63 94 64 95
REMARK SMILES IDX 65 96
REMARK H PARENT 86 52 56 63
REMARK Flexibility Score: inf
ROOT
ATOM      1  C   UNL A   1      32.956  23.080  26.634  1.00  0.00     0.188 C 
ENDROOT
BRANCH   1   2
ATOM      2  C   UNL A   1      32.562  21.755  25.948  1.00  0.00     0.188 C 
BRANCH   2   3
ATOM      3  O   UNL A   1      33.568  20.993  25.324  1.00  0.00    -0.376 OA
BRANCH   3   4
ATOM      4  C   UNL A   1      33.947  21.217  23.978  1.00  0.00     0.202 C 
BRANCH   4   5
ATOM      5  C   UNL A   1      34.763  22.412  23.457  1.00  0.00     0.261 C 
BRANCH   5   6
ATOM      6  O   UNL A   1      34.366  22.988  22.212  1.00  0.00    -0.460 OA
BRANCH   6   7
ATOM      7  C   UNL A   1      33.027  22.991  21.986  1.00  0.00     0.338 C 
ATOM      8  O   UNL A   1      32.398  22.209  21.296  1.00  0.00    -0.246 OA
BRANCH   7   9
ATOM      9  C   UNL A   1      32.379  23.997  22.851  1.00  0.00     0.062 A 
ATOM     10  C   UNL A   1      34.105  27.911  22.892  1.00  0.00     0.153 C 
ATOM     11  N   UNL A   1      33.007  27.575  23.788  1.00  0.00    -0.310 N 
ATOM     12  C   UNL A   1      32.500  28.608  24.574  1.00  0.00     0.264 C 
ATOM     13  C   UNL A   1      32.437  26.259  23.773  1.00  0.00     0.058 A 
ATOM     14  O   UNL A   1      32.666  29.800  24.326  1.00  0.00    -0.268 OA
ATOM     15  C   UNL A   1      31.800  28.174  25.817  1.00  0.00     0.078 C 
ATOM     16  C   UNL A   1      31.244  25.967  24.468  1.00  0.00     0.036 A 
ATOM     17  C   UNL A   1      33.009  25.241  22.994  1.00  0.00     0.043 A 
ATOM     18  C   UNL A   1      32.211  28.573  27.035  1.00  0.00     0.029 C 
ATOM     19  S   UNL A   1      30.469  27.106  25.602  1.00  0.00    -0.082 SA
ATOM     20  C   UNL A   1      30.603  24.727  24.292  1.00  0.00     0.018 A 
ATOM     21  C   UNL A   1      31.159  23.746  23.475  1.00  0.00     0.017 A 
BRANCH  18  22
ATOM     22  C   UNL A   1      33.331  29.491  27.278  1.00  0.00    -0.023 A 
ATOM     23  C   UNL A   1      34.634  28.982  27.364  1.00  0.00     0.008 A 
ATOM     24  C   UNL A   1      33.115  30.861  27.456  1.00  0.00     0.028 A 
ATOM     25  C   UNL A   1      35.708  29.825  27.650  1.00  0.00     0.002 A 
ATOM     26  C   UNL A   1      34.198  31.701  27.730  1.00  0.00     0.041 A 
ATOM     27  C   UNL A   1      35.491  31.188  27.833  1.00  0.00     0.020 A 
ATOM     28  Cl  UNL A   1      33.936  33.389  27.943  1.00  0.00    -0.084 Cl
ENDBRANCH  18  22
ENDBRANCH   7   9
ENDBRANCH   6   7
ENDBRANCH   5   6
ENDBRANCH   4   5
ENDBRANCH   3   4
ENDBRANCH   2   3
ENDBRANCH   1   2
BRANCH   1  29
ATOM     29  O   UNL A   1      34.234  23.240  27.225  1.00  0.00    -0.376 OA
BRANCH  29  30
ATOM     30  C   UNL A   1      35.320  23.680  26.424  1.00  0.00     0.202 C 
BRANCH  30  31
ATOM     31  C   UNL A   1      36.574  22.814  26.228  1.00  0.00     0.261 C 
BRANCH  31  32
ATOM     32  O   UNL A   1      37.732  23.519  25.766  1.00  0.00    -0.460 OA
BRANCH  32  33
ATOM     33  C   UNL A   1      38.887  23.236  26.421  1.00  0.00     0.338 C 
ATOM     34  O   UNL A   1      39.475  22.168  26.452  1.00  0.00    -0.246 OA
BRANCH  33  35
ATOM     35  C   UNL A   1      39.454  24.491  26.947  1.00  0.00     0.060 A 
ATOM     36  C   UNL A   1      39.355  24.808  28.303  1.00  0.00     0.016 A 
ATOM     37  C   UNL A   1      40.099  25.361  26.057  1.00  0.00     0.016 A 
ATOM     38  C   UNL A   1      39.919  25.997  28.771  1.00  0.00     0.010 A 
ATOM     39  C   UNL A   1      40.642  26.558  26.523  1.00  0.00     0.010 A 
ATOM     40  C   UNL A   1      40.572  26.875  27.887  1.00  0.00    -0.014 A 
BRANCH  40  41
ATOM     41  C   UNL A   1      41.329  28.038  28.409  1.00  0.00     0.031 A 
ATOM     42  C   UNL A   1      42.824  28.102  28.348  1.00  0.00     0.074 A 
ATOM     43  C   UNL A   1      40.629  29.042  28.971  1.00  0.00     0.049 A 
ATOM     44  N   UNL A   1      43.613  29.074  28.723  1.00  0.00    -0.248 NA
ATOM     45  C   UNL A   1      43.526  26.932  27.797  1.00  0.00     0.031 C 
ATOM     46  C   UNL A   1      39.170  29.075  29.091  1.00  0.00     0.029 A 
ATOM     47  N   UNL A   1      41.038  30.221  29.539  1.00  0.00    -0.354 N 
ATOM     48  C   UNL A   1      44.904  28.653  28.434  1.00  0.00     0.074 A 
ATOM     49  C   UNL A   1      44.796  27.313  27.894  1.00  0.00     0.031 C 
ATOM     50  C   UNL A   1      38.804  30.224  29.675  1.00  0.00     0.029 A 
ATOM     51  C   UNL A   1      40.001  30.996  30.003  1.00  0.00     0.049 A 
ATOM     52  H   UNL A   1      41.984  30.488  29.608  1.00  0.00     0.167 HD
ATOM     53  C   UNL A   1      46.064  29.336  28.589  1.00  0.00     0.031 A 
ATOM     54  C   UNL A   1      40.003  32.195  30.621  1.00  0.00     0.031 A 
ATOM     55  C   UNL A   1      46.151  30.664  29.146  1.00  0.00     0.049 A 
ATOM     56  C   UNL A   1      41.310  32.901  30.846  1.00  0.00     0.074 A 
ATOM     57  C   UNL A   1      47.280  31.450  29.301  1.00  0.00     0.029 A 
ATOM     58  N   UNL A   1      45.086  31.396  29.651  1.00  0.00    -0.354 N 
ATOM     59  N   UNL A   1      42.515  32.524  30.491  1.00  0.00    -0.248 NA
ATOM     60  C   UNL A   1      41.265  34.196  31.537  1.00  0.00     0.031 C 
ATOM     61  C   UNL A   1      46.913  32.618  29.971  1.00  0.00     0.029 A 
ATOM     62  C   UNL A   1      45.540  32.605  30.157  1.00  0.00     0.049 A 
ATOM     63  H   UNL A   1      44.147  31.102  29.649  1.00  0.00     0.167 HD
ATOM     64  C   UNL A   1      43.368  33.543  30.897  1.00  0.00     0.074 A 
ATOM     65  C   UNL A   1      42.542  34.561  31.512  1.00  0.00     0.031 C 
ATOM     66  C   UNL A   1      44.715  33.619  30.769  1.00  0.00     0.031 A 
BRANCH  53  67
ATOM     67  C   UNL A   1      47.351  28.692  28.136  1.00  0.00    -0.014 A 
ATOM     68  C   UNL A   1      47.737  28.766  26.784  1.00  0.00     0.010 A 
ATOM     69  C   UNL A   1      48.089  27.876  29.011  1.00  0.00     0.010 A 
ATOM     70  C   UNL A   1      48.809  28.006  26.306  1.00  0.00     0.020 A 
ATOM     71  C   UNL A   1      49.181  27.136  28.544  1.00  0.00     0.020 A 
ATOM     72  C   UNL A   1      49.517  27.186  27.189  1.00  0.00     0.054 A 
BRANCH  72  73
ATOM     73  S   UNL A   1      50.875  26.169  26.544  1.00  0.00     0.124 S 
ATOM     74  O   UNL A   1      50.572  26.116  25.117  1.00  0.00    -0.237 OA
ATOM     75  O   UNL A   1      52.056  26.947  26.910  1.00  0.00    -0.237 OA
ATOM     76  O   UNL A   1      50.728  24.905  27.262  1.00  0.00    -0.744 OA
ENDBRANCH  72  73
ENDBRANCH  53  67
BRANCH  54  77
ATOM     77  C   UNL A   1      38.702  32.801  31.016  1.00  0.00    -0.014 A 
ATOM     78  C   UNL A   1      38.248  32.707  32.347  1.00  0.00     0.010 A 
ATOM     79  C   UNL A   1      37.862  33.373  30.047  1.00  0.00     0.010 A 
ATOM     80  C   UNL A   1      36.954  33.110  32.684  1.00  0.00     0.020 A 
ATOM     81  C   UNL A   1      36.578  33.808  30.388  1.00  0.00     0.020 A 
ATOM     82  C   UNL A   1      36.121  33.642  31.698  1.00  0.00     0.054 A 
BRANCH  82  83
ATOM     83  S   UNL A   1      34.420  34.088  32.144  1.00  0.00     0.124 S 
ATOM     84  O   UNL A   1      33.865  32.795  32.535  1.00  0.00    -0.237 OA
ATOM     85  O   UNL A   1      34.616  35.044  33.229  1.00  0.00    -0.237 OA
ATOM     86  O   UNL A   1      33.879  34.651  30.910  1.00  0.00    -0.744 OA
ENDBRANCH  82  83
ENDBRANCH  54  77
BRANCH  66  87
ATOM     87  C   UNL A   1      45.423  34.839  31.305  1.00  0.00    -0.014 A 
ATOM     88  C   UNL A   1      45.815  34.881  32.657  1.00  0.00     0.010 A 
ATOM     89  C   UNL A   1      45.537  36.003  30.525  1.00  0.00     0.010 A 
ATOM     90  C   UNL A   1      46.245  36.078  33.236  1.00  0.00     0.020 A 
ATOM     91  C   UNL A   1      45.997  37.195  31.093  1.00  0.00     0.020 A 
ATOM     92  C   UNL A   1      46.315  37.232  32.454  1.00  0.00     0.054 A 
BRANCH  92  93
ATOM     93  S   UNL A   1      46.785  38.795  33.246  1.00  0.00     0.124 S 
ATOM     94  O   UNL A   1      45.615  39.631  32.999  1.00  0.00    -0.237 OA
ATOM     95  O   UNL A   1      46.995  38.399  34.636  1.00  0.00    -0.237 OA
ATOM     96  O   UNL A   1      47.997  39.193  32.531  1.00  0.00    -0.744 OA
ENDBRANCH  92  93
ENDBRANCH  66  87
ENDBRANCH  40  41
ENDBRANCH  33  35
ENDBRANCH  32  33
ENDBRANCH  31  32
ENDBRANCH  30  31
ENDBRANCH  29  30
ENDBRANCH   1  29
TORSDOF 21
ENDMDL
MODEL 3
REMARK VINA RESULT:      -9.6      2.446      8.543
REMARK SMILES CN1C(=O)/C(=C\c2cccc(Cl)c2)Sc2ccc(C(=O)OCCOCCOCCOC(=O)c3ccc(-c4c5nc(c(-c6ccc(S(=O)(=O)[O-])cc6)c6ccc([nH]6)c(-c6ccc(S(=O)(=O)[O-])cc6)c6nc(c(-c7ccc(S(=O)(=O)[O-])cc7)c7ccc4[nH]7)C=C6)C=C5)cc3)cc21
REMARK SMILES IDX 26 1 25 2 24 3 23 4 22 5 21 6 19 7 20 8 18 9 1 10 2 11 3 12
REMARK SMILES IDX 94 13 4 14 5 15 15 16 93 17 6 18 14 19 16 20 17 21 7 22 8 23
REMARK SMILES IDX 13 24 9 25 11 26 10 27 12 28 27 29 28 30 29 31 30 32 31 33
REMARK SMILES IDX 32 34 33 35 34 36 92 37 35 38 91 39 36 40 37 41 38 42 85 43
REMARK SMILES IDX 39 44 90 45 84 46 86 47 40 48 89 49 83 50 82 51 41 53 71 54
REMARK SMILES IDX 52 55 70 56 53 57 56 58 69 59 87 60 54 61 55 62 68 64 88 65
REMARK SMILES IDX 57 66 42 67 43 68 51 69 44 70 50 71 45 72 46 73 47 74 48 75
REMARK SMILES IDX 49 76 72 77 73 78 81 79 74 80 80 81 75 82 76 83 77 84 78 85
REMARK SMILES IDX 79 86 58 87 59 88 67 89 60 90 66 91 61 92 62 93 63 94 64 95
REMARK SMILES IDX 65 96
REMARK H PARENT 86 52 56 63
REMARK Flexibility Score: inf
ROOT
ATOM      1  C   UNL A   1      33.290  23.041  26.570  1.00  0.00     0.188 C 
ENDROOT
BRANCH   1   2
ATOM      2  C   UNL A   1      32.664  21.777  25.944  1.00  0.00     0.188 C 
BRANCH   2   3
ATOM      3  O   UNL A   1      33.510  20.847  25.311  1.00  0.00    -0.376 OA
BRANCH   3   4
ATOM      4  C   UNL A   1      33.974  21.040  23.988  1.00  0.00     0.202 C 
BRANCH   4   5
ATOM      5  C   UNL A   1      34.718  22.279  23.464  1.00  0.00     0.261 C 
BRANCH   5   6
ATOM      6  O   UNL A   1      34.233  22.880  22.263  1.00  0.00    -0.460 OA
BRANCH   6   7
ATOM      7  C   UNL A   1      32.892  22.780  22.076  1.00  0.00     0.338 C 
ATOM      8  O   UNL A   1      32.295  21.891  21.496  1.00  0.00    -0.246 OA
BRANCH   7   9
ATOM      9  C   UNL A   1      32.203  23.837  22.844  1.00  0.00     0.062 A 
ATOM     10  C   UNL A   1      34.054  27.694  22.911  1.00  0.00     0.153 C 
ATOM     11  N   UNL A   1      32.868  27.426  23.713  1.00  0.00    -0.310 N 
ATOM     12  C   UNL A   1      32.328  28.503  24.413  1.00  0.00     0.264 C 
ATOM     13  C   UNL A   1      32.256  26.129  23.690  1.00  0.00     0.058 A 
ATOM     14  O   UNL A   1      32.558  29.679  24.142  1.00  0.00    -0.268 OA
ATOM     15  C   UNL A   1      31.503  28.138  25.600  1.00  0.00     0.078 C 
ATOM     16  C   UNL A   1      30.995  25.901  24.281  1.00  0.00     0.036 A 
ATOM     17  C   UNL A   1      32.861  25.066  23.002  1.00  0.00     0.043 A 
ATOM     18  C   UNL A   1      31.815  28.568  26.837  1.00  0.00     0.029 C 
ATOM     19  S   UNL A   1      30.160  27.105  25.300  1.00  0.00    -0.082 SA
ATOM     20  C   UNL A   1      30.329  24.676  24.089  1.00  0.00     0.018 A 
ATOM     21  C   UNL A   1      30.923  23.649  23.360  1.00  0.00     0.017 A 
BRANCH  18  22
ATOM     22  C   UNL A   1      32.940  29.458  27.151  1.00  0.00    -0.023 A 
ATOM     23  C   UNL A   1      34.228  28.921  27.288  1.00  0.00     0.008 A 
ATOM     24  C   UNL A   1      32.743  30.828  27.347  1.00  0.00     0.028 A 
ATOM     25  C   UNL A   1      35.303  29.736  27.642  1.00  0.00     0.002 A 
ATOM     26  C   UNL A   1      33.827  31.641  27.689  1.00  0.00     0.041 A 
ATOM     27  C   UNL A   1      35.104  31.100  27.842  1.00  0.00     0.020 A 
ATOM     28  Cl  UNL A   1      33.588  33.329  27.923  1.00  0.00    -0.084 Cl
ENDBRANCH  18  22
ENDBRANCH   7   9
ENDBRANCH   6   7
ENDBRANCH   5   6
ENDBRANCH   4   5
ENDBRANCH   3   4
ENDBRANCH   2   3
ENDBRANCH   1   2
BRANCH   1  29
ATOM     29  O   UNL A   1      34.555  22.986  27.206  1.00  0.00    -0.376 OA
BRANCH  29  30
ATOM     30  C   UNL A   1      35.714  23.376  26.485  1.00  0.00     0.202 C 
BRANCH  30  31
ATOM     31  C   UNL A   1      36.788  22.354  26.083  1.00  0.00     0.261 C 
BRANCH  31  32
ATOM     32  O   UNL A   1      38.018  22.920  25.614  1.00  0.00    -0.460 OA
BRANCH  32  33
ATOM     33  C   UNL A   1      39.086  22.759  26.437  1.00  0.00     0.338 C 
ATOM     34  O   UNL A   1      39.722  21.736  26.630  1.00  0.00    -0.246 OA
BRANCH  33  35
ATOM     35  C   UNL A   1      39.504  24.082  26.936  1.00  0.00     0.060 A 
ATOM     36  C   UNL A   1      39.350  24.422  28.280  1.00  0.00     0.016 A 
ATOM     37  C   UNL A   1      40.065  24.993  26.030  1.00  0.00     0.016 A 
ATOM     38  C   UNL A   1      39.775  25.678  28.722  1.00  0.00     0.010 A 
ATOM     39  C   UNL A   1      40.467  26.255  26.469  1.00  0.00     0.010 A 
ATOM     40  C   UNL A   1      40.342  26.598  27.822  1.00  0.00    -0.014 A 
BRANCH  40  41
ATOM     41  C   UNL A   1      40.959  27.850  28.321  1.00  0.00     0.031 A 
ATOM     42  C   UNL A   1      40.137  28.964  28.893  1.00  0.00     0.074 A 
ATOM     43  C   UNL A   1      42.297  27.973  28.226  1.00  0.00     0.049 A 
ATOM     44  N   UNL A   1      40.545  30.094  29.409  1.00  0.00    -0.248 NA
ATOM     45  C   UNL A   1      38.676  28.795  28.888  1.00  0.00     0.031 C 
ATOM     46  C   UNL A   1      43.189  26.951  27.676  1.00  0.00     0.029 A 
ATOM     47  N   UNL A   1      43.138  28.994  28.587  1.00  0.00    -0.354 N 
ATOM     48  C   UNL A   1      39.399  30.765  29.815  1.00  0.00     0.074 A 
ATOM     49  C   UNL A   1      38.273  29.934  29.442  1.00  0.00     0.031 C 
ATOM     50  C   UNL A   1      44.454  27.386  27.754  1.00  0.00     0.029 A 
ATOM     51  C   UNL A   1      44.463  28.731  28.327  1.00  0.00     0.049 A 
ATOM     52  H   UNL A   1      42.824  29.834  28.992  1.00  0.00     0.167 HD
ATOM     53  C   UNL A   1      39.307  31.954  30.459  1.00  0.00     0.031 A 
ATOM     54  C   UNL A   1      45.567  29.479  28.527  1.00  0.00     0.031 A 
ATOM     55  C   UNL A   1      40.441  32.775  30.805  1.00  0.00     0.049 A 
ATOM     56  C   UNL A   1      45.430  30.826  29.179  1.00  0.00     0.074 A 
ATOM     57  C   UNL A   1      40.445  33.975  31.496  1.00  0.00     0.029 A 
ATOM     58  N   UNL A   1      41.762  32.500  30.482  1.00  0.00    -0.354 N 
ATOM     59  N   UNL A   1      44.346  31.410  29.632  1.00  0.00    -0.248 NA
ATOM     60  C   UNL A   1      46.657  31.613  29.362  1.00  0.00     0.031 C 
ATOM     61  C   UNL A   1      41.752  34.464  31.519  1.00  0.00     0.029 A 
ATOM     62  C   UNL A   1      42.582  33.529  30.921  1.00  0.00     0.049 A 
ATOM     63  H   UNL A   1      42.073  31.693  30.012  1.00  0.00     0.167 HD
ATOM     64  C   UNL A   1      44.763  32.621  30.171  1.00  0.00     0.074 A 
ATOM     65  C   UNL A   1      46.200  32.683  30.002  1.00  0.00     0.031 C 
ATOM     66  C   UNL A   1      44.014  33.590  30.752  1.00  0.00     0.031 A 
BRANCH  53  67
ATOM     67  C   UNL A   1      37.943  32.455  30.865  1.00  0.00    -0.014 A 
ATOM     68  C   UNL A   1      37.212  33.288  29.996  1.00  0.00     0.010 A 
ATOM     69  C   UNL A   1      37.461  32.239  32.168  1.00  0.00     0.010 A 
ATOM     70  C   UNL A   1      36.049  33.928  30.435  1.00  0.00     0.020 A 
ATOM     71  C   UNL A   1      36.281  32.854  32.602  1.00  0.00     0.020 A 
ATOM     72  C   UNL A   1      35.597  33.715  31.740  1.00  0.00     0.054 A 
BRANCH  72  73
ATOM     73  S   UNL A   1      34.113  34.591  32.309  1.00  0.00     0.124 S 
ATOM     74  O   UNL A   1      33.455  34.934  31.051  1.00  0.00    -0.237 OA
ATOM     75  O   UNL A   1      33.439  33.580  33.119  1.00  0.00    -0.237 OA
ATOM     76  O   UNL A   1      34.649  35.722  33.062  1.00  0.00    -0.744 OA
ENDBRANCH  72  73
ENDBRANCH  53  67
BRANCH  54  77
ATOM     77  C   UNL A   1      46.892  28.923  28.140  1.00  0.00    -0.014 A 
ATOM     78  C   UNL A   1      47.699  28.274  29.096  1.00  0.00     0.010 A 
ATOM     79  C   UNL A   1      47.401  29.136  26.848  1.00  0.00     0.010 A 
ATOM     80  C   UNL A   1      49.012  27.914  28.786  1.00  0.00     0.020 A 
ATOM     81  C   UNL A   1      48.704  28.745  26.525  1.00  0.00     0.020 A 
ATOM     82  C   UNL A   1      49.512  28.167  27.508  1.00  0.00     0.054 A 
BRANCH  82  83
ATOM     83  S   UNL A   1      51.243  27.758  27.154  1.00  0.00     0.124 S 
ATOM     84  O   UNL A   1      51.318  27.998  25.715  1.00  0.00    -0.237 OA
ATOM     85  O   UNL A   1      51.972  28.707  27.989  1.00  0.00    -0.237 OA
ATOM     86  O   UNL A   1      51.355  26.360  27.560  1.00  0.00    -0.744 OA
ENDBRANCH  82  83
ENDBRANCH  54  77
BRANCH  66  87
ATOM     87  C   UNL A   1      44.707  34.831  31.258  1.00  0.00    -0.014 A 
ATOM     88  C   UNL A   1      45.073  34.921  32.616  1.00  0.00     0.010 A 
ATOM     89  C   UNL A   1      44.830  35.968  30.441  1.00  0.00     0.010 A 
ATOM     90  C   UNL A   1      45.487  36.139  33.161  1.00  0.00     0.020 A 
ATOM     91  C   UNL A   1      45.274  37.182  30.976  1.00  0.00     0.020 A 
ATOM     92  C   UNL A   1      45.566  37.267  32.340  1.00  0.00     0.054 A 
BRANCH  92  93
ATOM     93  S   UNL A   1      46.015  38.858  33.087  1.00  0.00     0.124 S 
ATOM     94  O   UNL A   1      46.692  39.535  31.985  1.00  0.00    -0.237 OA
ATOM     95  O   UNL A   1      44.718  39.412  33.465  1.00  0.00    -0.237 OA
ATOM     96  O   UNL A   1      46.875  38.483  34.208  1.00  0.00    -0.744 OA
ENDBRANCH  92  93
ENDBRANCH  66  87
ENDBRANCH  40  41
ENDBRANCH  33  35
ENDBRANCH  32  33
ENDBRANCH  31  32
ENDBRANCH  30  31
ENDBRANCH  29  30
ENDBRANCH   1  29
TORSDOF 21
ENDMDL
