MODEL 1
REMARK VINA RESULT:     -10.2      0.000      0.000
REMARK SMILES Cc1cc(C)c2c(OCCCC(=O)OCCOCCOCCOC(=O)c3ccc(-c4c5nc(c(-c6ccc(S(=O)(=O)[O-])cc6)c6ccc([nH]6)c(-c6ccc(S(=O)(=O)[O-])cc6)c6nc(c(-c7ccc(S(=O)(=O)[O-])cc7)c7ccc4[nH]7)C=C6)C=C5)cc3)nsc2n1
REMARK SMILES IDX 18 1 17 2 16 3 15 4 14 5 12 6 13 7 11 8 10 9 9 10 8 11 7 12
REMARK SMILES IDX 1 13 2 14 3 15 89 16 4 17 88 18 5 19 6 20 87 21 86 22 19 23
REMARK SMILES IDX 20 24 21 25 22 26 23 27 24 28 25 29 26 30 27 31 85 32 28 33
REMARK SMILES IDX 84 34 29 35 30 36 31 37 78 38 32 39 83 40 77 41 79 42 33 43
REMARK SMILES IDX 82 44 76 45 75 46 34 48 64 49 45 50 63 51 46 52 49 53 62 54
REMARK SMILES IDX 80 55 47 56 48 57 61 59 81 60 50 61 35 62 36 63 44 64 37 65
REMARK SMILES IDX 43 66 38 67 39 68 40 69 41 70 42 71 65 72 66 73 74 74 67 75
REMARK SMILES IDX 73 76 68 77 69 78 70 79 71 80 72 81 51 82 52 83 60 84 53 85
REMARK SMILES IDX 59 86 54 87 55 88 56 89 57 90 58 91
REMARK H PARENT 79 47 49 58
REMARK Flexibility Score: inf
ROOT
ATOM      1  C   UNL A   1      37.285  23.260  25.878  1.00  0.00     0.188 C 
ENDROOT
BRANCH   1   2
ATOM      2  O   UNL A   1      35.924  22.929  26.071  1.00  0.00    -0.376 OA
BRANCH   2   3
ATOM      3  C   UNL A   1      35.593  21.561  25.901  1.00  0.00     0.202 C 
BRANCH   3   4
ATOM      4  C   UNL A   1      34.894  21.120  24.604  1.00  0.00     0.261 C 
BRANCH   4   5
ATOM      5  O   UNL A   1      34.142  19.865  24.653  1.00  0.00    -0.463 OA
BRANCH   5   6
ATOM      6  C   UNL A   1      32.818  19.928  24.938  1.00  0.00     0.305 C 
ATOM      7  O   UNL A   1      32.159  18.925  25.209  1.00  0.00    -0.252 OA
BRANCH   6   8
ATOM      8  C   UNL A   1      32.113  21.292  24.840  1.00  0.00     0.126 C 
BRANCH   8   9
ATOM      9  C   UNL A   1      31.619  22.242  25.945  1.00  0.00     0.053 C 
BRANCH   9  10
ATOM     10  C   UNL A   1      32.018  23.721  26.123  1.00  0.00     0.232 C 
BRANCH  10  11
ATOM     11  O   UNL A   1      32.919  24.408  25.256  1.00  0.00    -0.477 OA
BRANCH  11  12
ATOM     12  C   UNL A   1      32.468  24.847  24.066  1.00  0.00     0.235 A 
ATOM     13  C   UNL A   1      29.857  29.333  22.291  1.00  0.00     0.067 C 
ATOM     14  C   UNL A   1      30.171  27.906  22.654  1.00  0.00     0.039 A 
ATOM     15  C   UNL A   1      29.655  27.369  23.829  1.00  0.00     0.027 A 
ATOM     16  N   UNL A   1      31.042  27.253  21.870  1.00  0.00    -0.240 NA
ATOM     17  C   UNL A   1      30.249  26.246  24.439  1.00  0.00    -0.034 A 
ATOM     18  C   UNL A   1      31.581  26.168  22.454  1.00  0.00     0.147 A 
ATOM     19  C   UNL A   1      29.779  25.792  25.794  1.00  0.00     0.045 C 
ATOM     20  C   UNL A   1      31.359  25.701  23.749  1.00  0.00     0.078 A 
ATOM     21  S   UNL A   1      32.734  25.186  21.680  1.00  0.00    -0.012 S 
ATOM     22  N   UNL A   1      33.185  24.369  23.050  1.00  0.00    -0.153 NA
ENDBRANCH  11  12
ENDBRANCH  10  11
ENDBRANCH   9  10
ENDBRANCH   8   9
ENDBRANCH   6   8
ENDBRANCH   5   6
ENDBRANCH   4   5
ENDBRANCH   3   4
ENDBRANCH   2   3
ENDBRANCH   1   2
BRANCH   1  23
ATOM     23  C   UNL A   1      38.296  22.096  25.787  1.00  0.00     0.188 C 
BRANCH  23  24
ATOM     24  O   UNL A   1      39.481  22.138  26.563  1.00  0.00    -0.376 OA
BRANCH  24  25
ATOM     25  C   UNL A   1      40.633  21.331  26.349  1.00  0.00     0.202 C 
BRANCH  25  26
ATOM     26  C   UNL A   1      42.058  21.808  26.070  1.00  0.00     0.261 C 
BRANCH  26  27
ATOM     27  O   UNL A   1      42.145  22.915  25.219  1.00  0.00    -0.460 OA
BRANCH  27  28
ATOM     28  C   UNL A   1      42.815  23.960  25.727  1.00  0.00     0.338 C 
ATOM     29  O   UNL A   1      43.935  24.353  25.417  1.00  0.00    -0.246 OA
BRANCH  28  30
ATOM     30  C   UNL A   1      41.910  24.629  26.654  1.00  0.00     0.060 A 
ATOM     31  C   UNL A   1      40.924  25.458  26.121  1.00  0.00     0.016 A 
ATOM     32  C   UNL A   1      42.152  24.534  28.036  1.00  0.00     0.016 A 
ATOM     33  C   UNL A   1      40.460  26.460  26.930  1.00  0.00     0.010 A 
ATOM     34  C   UNL A   1      41.663  25.507  28.848  1.00  0.00     0.010 A 
ATOM     35  C   UNL A   1      40.993  26.542  28.221  1.00  0.00    -0.014 A 
BRANCH  35  36
ATOM     36  C   UNL A   1      40.976  27.813  28.889  1.00  0.00     0.031 A 
ATOM     37  C   UNL A   1      42.019  28.708  28.387  1.00  0.00     0.074 A 
ATOM     38  C   UNL A   1      40.063  28.084  29.842  1.00  0.00     0.049 A 
ATOM     39  N   UNL A   1      43.165  28.913  28.938  1.00  0.00    -0.248 NA
ATOM     40  C   UNL A   1      41.893  29.221  27.017  1.00  0.00     0.031 C 
ATOM     41  C   UNL A   1      38.876  27.323  30.255  1.00  0.00     0.029 A 
ATOM     42  N   UNL A   1      39.985  29.188  30.620  1.00  0.00    -0.354 N 
ATOM     43  C   UNL A   1      43.808  29.803  28.098  1.00  0.00     0.074 A 
ATOM     44  C   UNL A   1      43.098  29.766  26.844  1.00  0.00     0.031 C 
ATOM     45  C   UNL A   1      38.085  28.106  31.031  1.00  0.00     0.029 A 
ATOM     46  C   UNL A   1      38.783  29.351  31.300  1.00  0.00     0.049 A 
ATOM     47  H   UNL A   1      40.726  29.830  30.700  1.00  0.00     0.167 HD
ATOM     48  C   UNL A   1      44.674  30.721  28.602  1.00  0.00     0.031 A 
ATOM     49  C   UNL A   1      38.421  30.456  32.003  1.00  0.00     0.031 A 
ATOM     50  C   UNL A   1      45.056  30.409  29.957  1.00  0.00     0.049 A 
ATOM     51  C   UNL A   1      39.684  31.161  32.346  1.00  0.00     0.074 A 
ATOM     52  C   UNL A   1      45.736  29.371  30.561  1.00  0.00     0.029 A 
ATOM     53  N   UNL A   1      44.339  31.031  30.954  1.00  0.00    -0.354 N 
ATOM     54  N   UNL A   1      40.573  30.668  33.161  1.00  0.00    -0.248 NA
ATOM     55  C   UNL A   1      40.177  32.171  31.423  1.00  0.00     0.031 C 
ATOM     56  C   UNL A   1      45.065  29.152  31.800  1.00  0.00     0.029 A 
ATOM     57  C   UNL A   1      44.055  30.109  31.929  1.00  0.00     0.049 A 
ATOM     58  H   UNL A   1      44.075  31.980  30.964  1.00  0.00     0.167 HD
ATOM     59  C   UNL A   1      41.795  30.962  32.575  1.00  0.00     0.074 A 
ATOM     60  C   UNL A   1      41.492  31.967  31.556  1.00  0.00     0.031 C 
ATOM     61  C   UNL A   1      42.882  30.159  32.780  1.00  0.00     0.031 A 
BRANCH  48  62
ATOM     62  C   UNL A   1      44.798  32.100  28.021  1.00  0.00    -0.014 A 
ATOM     63  C   UNL A   1      46.038  32.507  27.503  1.00  0.00     0.010 A 
ATOM     64  C   UNL A   1      43.812  33.094  28.205  1.00  0.00     0.010 A 
ATOM     65  C   UNL A   1      46.290  33.855  27.222  1.00  0.00     0.020 A 
ATOM     66  C   UNL A   1      44.038  34.431  27.887  1.00  0.00     0.020 A 
ATOM     67  C   UNL A   1      45.288  34.807  27.422  1.00  0.00     0.054 A 
BRANCH  67  68
ATOM     68  S   UNL A   1      45.655  36.553  27.135  1.00  0.00     0.124 S 
ATOM     69  O   UNL A   1      44.328  37.102  26.882  1.00  0.00    -0.237 OA
ATOM     70  O   UNL A   1      46.276  36.944  28.398  1.00  0.00    -0.237 OA
ATOM     71  O   UNL A   1      46.556  36.530  25.985  1.00  0.00    -0.744 OA
ENDBRANCH  67  68
ENDBRANCH  48  62
BRANCH  49  72
ATOM     72  C   UNL A   1      37.117  31.172  32.035  1.00  0.00    -0.014 A 
ATOM     73  C   UNL A   1      36.707  31.825  33.216  1.00  0.00     0.010 A 
ATOM     74  C   UNL A   1      36.468  31.520  30.835  1.00  0.00     0.010 A 
ATOM     75  C   UNL A   1      35.761  32.864  33.182  1.00  0.00     0.020 A 
ATOM     76  C   UNL A   1      35.518  32.554  30.795  1.00  0.00     0.020 A 
ATOM     77  C   UNL A   1      35.198  33.245  31.963  1.00  0.00     0.054 A 
BRANCH  77  78
ATOM     78  S   UNL A   1      34.153  34.735  31.897  1.00  0.00     0.124 S 
ATOM     79  O   UNL A   1      34.966  35.719  32.608  1.00  0.00    -0.237 OA
ATOM     80  O   UNL A   1      34.008  34.955  30.461  1.00  0.00    -0.237 OA
ATOM     81  O   UNL A   1      32.930  34.329  32.586  1.00  0.00    -0.744 OA
ENDBRANCH  77  78
ENDBRANCH  49  72
BRANCH  61  82
ATOM     82  C   UNL A   1      42.788  29.126  33.885  1.00  0.00    -0.014 A 
ATOM     83  C   UNL A   1      42.229  27.839  33.734  1.00  0.00     0.010 A 
ATOM     84  C   UNL A   1      43.381  29.452  35.115  1.00  0.00     0.010 A 
ATOM     85  C   UNL A   1      42.221  26.928  34.805  1.00  0.00     0.020 A 
ATOM     86  C   UNL A   1      43.393  28.547  36.178  1.00  0.00     0.020 A 
ATOM     87  C   UNL A   1      42.798  27.294  36.025  1.00  0.00     0.054 A 
BRANCH  87  88
ATOM     88  S   UNL A   1      42.772  26.131  37.419  1.00  0.00     0.124 S 
ATOM     89  O   UNL A   1      43.259  24.895  36.813  1.00  0.00    -0.237 OA
ATOM     90  O   UNL A   1      43.674  26.758  38.381  1.00  0.00    -0.237 OA
ATOM     91  O   UNL A   1      41.366  26.106  37.826  1.00  0.00    -0.744 OA
ENDBRANCH  87  88
ENDBRANCH  61  82
ENDBRANCH  35  36
ENDBRANCH  28  30
ENDBRANCH  27  28
ENDBRANCH  26  27
ENDBRANCH  25  26
ENDBRANCH  24  25
ENDBRANCH  23  24
ENDBRANCH   1  23
TORSDOF 24
ENDMDL
MODEL 2
REMARK VINA RESULT:      -9.5      1.646      2.074
REMARK SMILES Cc1cc(C)c2c(OCCCC(=O)OCCOCCOCCOC(=O)c3ccc(-c4c5nc(c(-c6ccc(S(=O)(=O)[O-])cc6)c6ccc([nH]6)c(-c6ccc(S(=O)(=O)[O-])cc6)c6nc(c(-c7ccc(S(=O)(=O)[O-])cc7)c7ccc4[nH]7)C=C6)C=C5)cc3)nsc2n1
REMARK SMILES IDX 18 1 17 2 16 3 15 4 14 5 12 6 13 7 11 8 10 9 9 10 8 11 7 12
REMARK SMILES IDX 1 13 2 14 3 15 89 16 4 17 88 18 5 19 6 20 87 21 86 22 19 23
REMARK SMILES IDX 20 24 21 25 22 26 23 27 24 28 25 29 26 30 27 31 85 32 28 33
REMARK SMILES IDX 84 34 29 35 30 36 31 37 78 38 32 39 83 40 77 41 79 42 33 43
REMARK SMILES IDX 82 44 76 45 75 46 34 48 64 49 45 50 63 51 46 52 49 53 62 54
REMARK SMILES IDX 80 55 47 56 48 57 61 59 81 60 50 61 35 62 36 63 44 64 37 65
REMARK SMILES IDX 43 66 38 67 39 68 40 69 41 70 42 71 65 72 66 73 74 74 67 75
REMARK SMILES IDX 73 76 68 77 69 78 70 79 71 80 72 81 51 82 52 83 60 84 53 85
REMARK SMILES IDX 59 86 54 87 55 88 56 89 57 90 58 91
REMARK H PARENT 79 47 49 58
REMARK Flexibility Score: inf
ROOT
ATOM      1  C   UNL A   1      37.201  22.236  24.921  1.00  0.00     0.188 C 
ENDROOT
BRANCH   1   2
ATOM      2  O   UNL A   1      35.891  21.886  24.523  1.00  0.00    -0.376 OA
BRANCH   2   3
ATOM      3  C   UNL A   1      35.213  20.972  25.369  1.00  0.00     0.202 C 
BRANCH   3   4
ATOM      4  C   UNL A   1      34.954  19.542  24.865  1.00  0.00     0.261 C 
BRANCH   4   5
ATOM      5  O   UNL A   1      33.571  19.065  24.914  1.00  0.00    -0.463 OA
BRANCH   5   6
ATOM      6  C   UNL A   1      32.587  19.932  24.570  1.00  0.00     0.305 C 
ATOM      7  O   UNL A   1      31.759  20.338  25.385  1.00  0.00    -0.252 OA
BRANCH   6   8
ATOM      8  C   UNL A   1      32.465  20.352  23.095  1.00  0.00     0.126 C 
BRANCH   8   9
ATOM      9  C   UNL A   1      32.076  21.704  22.472  1.00  0.00     0.053 C 
BRANCH   9  10
ATOM     10  C   UNL A   1      31.717  22.993  23.239  1.00  0.00     0.232 C 
BRANCH  10  11
ATOM     11  O   UNL A   1      32.517  24.174  23.219  1.00  0.00    -0.477 OA
BRANCH  11  12
ATOM     12  C   UNL A   1      31.914  25.370  23.362  1.00  0.00     0.235 A 
ATOM     13  C   UNL A   1      32.125  29.436  27.037  1.00  0.00     0.067 C 
ATOM     14  C   UNL A   1      31.637  28.286  26.199  1.00  0.00     0.039 A 
ATOM     15  C   UNL A   1      31.569  27.013  26.755  1.00  0.00     0.027 A 
ATOM     16  N   UNL A   1      31.397  28.533  24.901  1.00  0.00    -0.240 NA
ATOM     17  C   UNL A   1      31.561  25.862  25.941  1.00  0.00    -0.034 A 
ATOM     18  C   UNL A   1      31.365  27.425  24.141  1.00  0.00     0.147 A 
ATOM     19  C   UNL A   1      31.662  24.498  26.570  1.00  0.00     0.045 C 
ATOM     20  C   UNL A   1      31.583  26.108  24.547  1.00  0.00     0.078 A 
ATOM     21  S   UNL A   1      31.107  27.471  22.461  1.00  0.00    -0.012 S 
ATOM     22  N   UNL A   1      31.570  25.902  22.190  1.00  0.00    -0.153 NA
ENDBRANCH  11  12
ENDBRANCH  10  11
ENDBRANCH   9  10
ENDBRANCH   8   9
ENDBRANCH   6   8
ENDBRANCH   5   6
ENDBRANCH   4   5
ENDBRANCH   3   4
ENDBRANCH   2   3
ENDBRANCH   1   2
BRANCH   1  23
ATOM     23  C   UNL A   1      38.130  21.097  25.396  1.00  0.00     0.188 C 
BRANCH  23  24
ATOM     24  O   UNL A   1      39.448  21.401  25.819  1.00  0.00    -0.376 OA
BRANCH  24  25
ATOM     25  C   UNL A   1      40.399  20.453  26.292  1.00  0.00     0.202 C 
BRANCH  25  26
ATOM     26  C   UNL A   1      41.920  20.531  26.174  1.00  0.00     0.261 C 
BRANCH  26  27
ATOM     27  O   UNL A   1      42.392  21.631  25.450  1.00  0.00    -0.460 OA
BRANCH  27  28
ATOM     28  C   UNL A   1      43.168  22.471  26.151  1.00  0.00     0.338 C 
ATOM     29  O   UNL A   1      44.394  22.515  26.174  1.00  0.00    -0.246 OA
BRANCH  28  30
ATOM     30  C   UNL A   1      42.275  23.419  26.809  1.00  0.00     0.060 A 
ATOM     31  C   UNL A   1      41.587  24.330  26.011  1.00  0.00     0.016 A 
ATOM     32  C   UNL A   1      42.253  23.475  28.214  1.00  0.00     0.016 A 
ATOM     33  C   UNL A   1      41.208  25.504  26.606  1.00  0.00     0.010 A 
ATOM     34  C   UNL A   1      41.843  24.626  28.810  1.00  0.00     0.010 A 
ATOM     35  C   UNL A   1      41.518  25.668  27.959  1.00  0.00    -0.014 A 
BRANCH  35  36
ATOM     36  C   UNL A   1      41.650  27.002  28.476  1.00  0.00     0.031 A 
ATOM     37  C   UNL A   1      42.834  27.678  27.946  1.00  0.00     0.074 A 
ATOM     38  C   UNL A   1      40.738  27.508  29.329  1.00  0.00     0.049 A 
ATOM     39  N   UNL A   1      43.968  27.792  28.545  1.00  0.00    -0.248 NA
ATOM     40  C   UNL A   1      42.851  28.032  26.520  1.00  0.00     0.031 C 
ATOM     41  C   UNL A   1      39.436  26.972  29.745  1.00  0.00     0.029 A 
ATOM     42  N   UNL A   1      40.779  28.699  29.968  1.00  0.00    -0.354 N 
ATOM     43  C   UNL A   1      44.773  28.476  27.654  1.00  0.00     0.074 A 
ATOM     44  C   UNL A   1      44.129  28.383  26.367  1.00  0.00     0.031 C 
ATOM     45  C   UNL A   1      38.726  27.944  30.372  1.00  0.00     0.029 A 
ATOM     46  C   UNL A   1      39.581  29.107  30.543  1.00  0.00     0.049 A 
ATOM     47  H   UNL A   1      41.600  29.240  30.023  1.00  0.00     0.167 HD
ATOM     48  C   UNL A   1      45.735  29.322  28.106  1.00  0.00     0.031 A 
ATOM     49  C   UNL A   1      39.346  30.328  31.089  1.00  0.00     0.031 A 
ATOM     50  C   UNL A   1      45.999  29.130  29.510  1.00  0.00     0.049 A 
ATOM     51  C   UNL A   1      40.677  30.891  31.433  1.00  0.00     0.074 A 
ATOM     52  C   UNL A   1      46.494  28.091  30.273  1.00  0.00     0.029 A 
ATOM     53  N   UNL A   1      45.330  29.961  30.379  1.00  0.00    -0.354 N 
ATOM     54  N   UNL A   1      41.445  30.386  32.357  1.00  0.00    -0.248 NA
ATOM     55  C   UNL A   1      41.355  31.705  30.436  1.00  0.00     0.031 C 
ATOM     56  C   UNL A   1      45.737  28.119  31.481  1.00  0.00     0.029 A 
ATOM     57  C   UNL A   1      44.868  29.212  31.432  1.00  0.00     0.049 A 
ATOM     58  H   UNL A   1      45.204  30.931  30.264  1.00  0.00     0.167 HD
ATOM     59  C   UNL A   1      42.724  30.437  31.825  1.00  0.00     0.074 A 
ATOM     60  C   UNL A   1      42.619  31.342  30.679  1.00  0.00     0.031 C 
ATOM     61  C   UNL A   1      43.674  29.525  32.192  1.00  0.00     0.031 A 
BRANCH  48  62
ATOM     62  C   UNL A   1      46.084  30.590  27.381  1.00  0.00    -0.014 A 
ATOM     63  C   UNL A   1      47.436  30.938  27.238  1.00  0.00     0.010 A 
ATOM     64  C   UNL A   1      45.122  31.576  27.067  1.00  0.00     0.010 A 
ATOM     65  C   UNL A   1      47.807  32.228  26.839  1.00  0.00     0.020 A 
ATOM     66  C   UNL A   1      45.480  32.848  26.627  1.00  0.00     0.020 A 
ATOM     67  C   UNL A   1      46.824  33.174  26.542  1.00  0.00     0.054 A 
BRANCH  67  68
ATOM     68  S   UNL A   1      47.318  34.858  26.110  1.00  0.00     0.124 S 
ATOM     69  O   UNL A   1      46.030  35.490  25.846  1.00  0.00    -0.237 OA
ATOM     70  O   UNL A   1      48.004  35.294  27.324  1.00  0.00    -0.237 OA
ATOM     71  O   UNL A   1      48.180  34.675  24.945  1.00  0.00    -0.744 OA
ENDBRANCH  67  68
ENDBRANCH  48  62
BRANCH  49  72
ATOM     72  C   UNL A   1      38.157  31.213  30.953  1.00  0.00    -0.014 A 
ATOM     73  C   UNL A   1      38.306  32.505  30.407  1.00  0.00     0.010 A 
ATOM     74  C   UNL A   1      36.858  30.670  31.008  1.00  0.00     0.010 A 
ATOM     75  C   UNL A   1      37.215  33.185  29.838  1.00  0.00     0.020 A 
ATOM     76  C   UNL A   1      35.763  31.347  30.447  1.00  0.00     0.020 A 
ATOM     77  C   UNL A   1      35.955  32.584  29.832  1.00  0.00     0.054 A 
BRANCH  77  78
ATOM     78  S   UNL A   1      34.605  33.368  28.894  1.00  0.00     0.124 S 
ATOM     79  O   UNL A   1      33.726  33.852  29.955  1.00  0.00    -0.237 OA
ATOM     80  O   UNL A   1      35.306  34.401  28.135  1.00  0.00    -0.237 OA
ATOM     81  O   UNL A   1      34.063  32.274  28.091  1.00  0.00    -0.744 OA
ENDBRANCH  77  78
ENDBRANCH  49  72
BRANCH  61  82
ATOM     82  C   UNL A   1      43.378  28.657  33.398  1.00  0.00    -0.014 A 
ATOM     83  C   UNL A   1      44.191  28.577  34.549  1.00  0.00     0.010 A 
ATOM     84  C   UNL A   1      42.161  27.955  33.394  1.00  0.00     0.010 A 
ATOM     85  C   UNL A   1      43.816  27.773  35.640  1.00  0.00     0.020 A 
ATOM     86  C   UNL A   1      41.773  27.170  34.482  1.00  0.00     0.020 A 
ATOM     87  C   UNL A   1      42.610  27.068  35.594  1.00  0.00     0.054 A 
BRANCH  87  88
ATOM     88  S   UNL A   1      42.130  26.011  36.990  1.00  0.00     0.124 S 
ATOM     89  O   UNL A   1      42.539  24.683  36.540  1.00  0.00    -0.237 OA
ATOM     90  O   UNL A   1      42.902  26.566  38.098  1.00  0.00    -0.237 OA
ATOM     91  O   UNL A   1      40.683  26.207  37.095  1.00  0.00    -0.744 OA
ENDBRANCH  87  88
ENDBRANCH  61  82
ENDBRANCH  35  36
ENDBRANCH  28  30
ENDBRANCH  27  28
ENDBRANCH  26  27
ENDBRANCH  25  26
ENDBRANCH  24  25
ENDBRANCH  23  24
ENDBRANCH   1  23
TORSDOF 24
ENDMDL
MODEL 3
REMARK VINA RESULT:      -9.2      2.663      9.909
REMARK SMILES Cc1cc(C)c2c(OCCCC(=O)OCCOCCOCCOC(=O)c3ccc(-c4c5nc(c(-c6ccc(S(=O)(=O)[O-])cc6)c6ccc([nH]6)c(-c6ccc(S(=O)(=O)[O-])cc6)c6nc(c(-c7ccc(S(=O)(=O)[O-])cc7)c7ccc4[nH]7)C=C6)C=C5)cc3)nsc2n1
REMARK SMILES IDX 18 1 17 2 16 3 15 4 14 5 12 6 13 7 11 8 10 9 9 10 8 11 7 12
REMARK SMILES IDX 1 13 2 14 3 15 89 16 4 17 88 18 5 19 6 20 87 21 86 22 19 23
REMARK SMILES IDX 20 24 21 25 22 26 23 27 24 28 25 29 26 30 27 31 85 32 28 33
REMARK SMILES IDX 84 34 29 35 30 36 31 37 78 38 32 39 83 40 77 41 79 42 33 43
REMARK SMILES IDX 82 44 76 45 75 46 34 48 64 49 45 50 63 51 46 52 49 53 62 54
REMARK SMILES IDX 80 55 47 56 48 57 61 59 81 60 50 61 35 62 36 63 44 64 37 65
REMARK SMILES IDX 43 66 38 67 39 68 40 69 41 70 42 71 65 72 66 73 74 74 67 75
REMARK SMILES IDX 73 76 68 77 69 78 70 79 71 80 72 81 51 82 52 83 60 84 53 85
REMARK SMILES IDX 59 86 54 87 55 88 56 89 57 90 58 91
REMARK H PARENT 79 47 49 58
REMARK Flexibility Score: inf
ROOT
ATOM      1  C   UNL A   1      33.924  31.426  28.018  1.00  0.00     0.188 C 
ENDROOT
BRANCH   1   2
ATOM      2  O   UNL A   1      34.153  30.624  26.877  1.00  0.00    -0.376 OA
BRANCH   2   3
ATOM      3  C   UNL A   1      32.995  30.092  26.255  1.00  0.00     0.202 C 
BRANCH   3   4
ATOM      4  C   UNL A   1      32.645  28.611  26.475  1.00  0.00     0.261 C 
BRANCH   4   5
ATOM      5  O   UNL A   1      31.293  28.190  26.105  1.00  0.00    -0.463 OA
BRANCH   5   6
ATOM      6  C   UNL A   1      31.150  27.397  25.014  1.00  0.00     0.305 C 
ATOM      7  O   UNL A   1      31.516  27.754  23.895  1.00  0.00    -0.252 OA
BRANCH   6   8
ATOM      8  C   UNL A   1      30.436  26.045  25.182  1.00  0.00     0.126 C 
BRANCH   8   9
ATOM      9  C   UNL A   1      30.754  24.855  26.104  1.00  0.00     0.053 C 
BRANCH   9  10
ATOM     10  C   UNL A   1      32.133  24.189  26.291  1.00  0.00     0.232 C 
BRANCH  10  11
ATOM     11  O   UNL A   1      33.102  24.071  25.251  1.00  0.00    -0.477 OA
BRANCH  11  12
ATOM     12  C   UNL A   1      32.987  23.062  24.367  1.00  0.00     0.235 A 
ATOM     13  C   UNL A   1      32.429  17.616  24.704  1.00  0.00     0.067 C 
ATOM     14  C   UNL A   1      32.990  18.985  24.427  1.00  0.00     0.039 A 
ATOM     15  C   UNL A   1      33.951  19.517  25.279  1.00  0.00     0.027 A 
ATOM     16  N   UNL A   1      32.438  19.679  23.419  1.00  0.00    -0.240 NA
ATOM     17  C   UNL A   1      34.177  20.907  25.346  1.00  0.00    -0.034 A 
ATOM     18  C   UNL A   1      32.682  21.000  23.480  1.00  0.00     0.147 A 
ATOM     19  C   UNL A   1      35.097  21.468  26.396  1.00  0.00     0.045 C 
ATOM     20  C   UNL A   1      33.391  21.689  24.465  1.00  0.00     0.078 A 
ATOM     21  S   UNL A   1      32.070  22.101  22.339  1.00  0.00    -0.012 S 
ATOM     22  N   UNL A   1      32.421  23.456  23.227  1.00  0.00    -0.153 NA
ENDBRANCH  11  12
ENDBRANCH  10  11
ENDBRANCH   9  10
ENDBRANCH   8   9
ENDBRANCH   6   8
ENDBRANCH   5   6
ENDBRANCH   4   5
ENDBRANCH   3   4
ENDBRANCH   2   3
ENDBRANCH   1   2
BRANCH   1  23
ATOM     23  C   UNL A   1      33.319  32.829  27.795  1.00  0.00     0.188 C 
BRANCH  23  24
ATOM     24  O   UNL A   1      34.116  33.977  28.024  1.00  0.00    -0.376 OA
BRANCH  24  25
ATOM     25  C   UNL A   1      34.894  34.219  29.191  1.00  0.00     0.202 C 
BRANCH  25  26
ATOM     26  C   UNL A   1      34.556  33.822  30.628  1.00  0.00     0.261 C 
BRANCH  26  27
ATOM     27  O   UNL A   1      35.041  32.569  31.015  1.00  0.00    -0.460 OA
BRANCH  27  28
ATOM     28  C   UNL A   1      36.351  32.540  31.302  1.00  0.00     0.338 C 
ATOM     29  O   UNL A   1      36.960  33.258  32.088  1.00  0.00    -0.246 OA
BRANCH  28  30
ATOM     30  C   UNL A   1      36.914  31.402  30.583  1.00  0.00     0.060 A 
ATOM     31  C   UNL A   1      36.798  30.140  31.162  1.00  0.00     0.016 A 
ATOM     32  C   UNL A   1      37.671  31.635  29.421  1.00  0.00     0.016 A 
ATOM     33  C   UNL A   1      37.740  29.213  30.806  1.00  0.00     0.010 A 
ATOM     34  C   UNL A   1      38.582  30.700  29.043  1.00  0.00     0.010 A 
ATOM     35  C   UNL A   1      38.709  29.604  29.877  1.00  0.00    -0.014 A 
BRANCH  35  36
ATOM     36  C   UNL A   1      39.974  28.923  29.878  1.00  0.00     0.031 A 
ATOM     37  C   UNL A   1      40.503  28.755  31.231  1.00  0.00     0.074 A 
ATOM     38  C   UNL A   1      40.534  28.500  28.728  1.00  0.00     0.049 A 
ATOM     39  N   UNL A   1      41.388  29.505  31.792  1.00  0.00    -0.248 NA
ATOM     40  C   UNL A   1      39.803  27.840  32.142  1.00  0.00     0.031 C 
ATOM     41  C   UNL A   1      39.979  28.454  27.369  1.00  0.00     0.029 A 
ATOM     42  N   UNL A   1      41.753  27.938  28.562  1.00  0.00    -0.354 N 
ATOM     43  C   UNL A   1      41.546  28.978  33.060  1.00  0.00     0.074 A 
ATOM     44  C   UNL A   1      40.402  28.134  33.297  1.00  0.00     0.031 C 
ATOM     45  C   UNL A   1      40.770  27.681  26.583  1.00  0.00     0.029 A 
ATOM     46  C   UNL A   1      41.960  27.319  27.335  1.00  0.00     0.049 A 
ATOM     47  H   UNL A   1      42.445  27.965  29.261  1.00  0.00     0.167 HD
ATOM     48  C   UNL A   1      42.753  29.033  33.682  1.00  0.00     0.031 A 
ATOM     49  C   UNL A   1      43.037  26.556  27.010  1.00  0.00     0.031 A 
ATOM     50  C   UNL A   1      43.648  29.957  33.032  1.00  0.00     0.049 A 
ATOM     51  C   UNL A   1      44.121  26.951  27.946  1.00  0.00     0.074 A 
ATOM     52  C   UNL A   1      43.649  31.320  32.815  1.00  0.00     0.029 A 
ATOM     53  N   UNL A   1      44.522  29.421  32.114  1.00  0.00    -0.354 N 
ATOM     54  N   UNL A   1      44.679  28.129  27.931  1.00  0.00    -0.248 NA
ATOM     55  C   UNL A   1      44.247  26.218  29.196  1.00  0.00     0.031 C 
ATOM     56  C   UNL A   1      44.186  31.491  31.505  1.00  0.00     0.029 A 
ATOM     57  C   UNL A   1      44.554  30.237  31.011  1.00  0.00     0.049 A 
ATOM     58  H   UNL A   1      45.036  28.589  32.229  1.00  0.00     0.167 HD
ATOM     59  C   UNL A   1      44.831  28.468  29.267  1.00  0.00     0.074 A 
ATOM     60  C   UNL A   1      44.632  27.216  29.998  1.00  0.00     0.031 C 
ATOM     61  C   UNL A   1      44.822  29.776  29.663  1.00  0.00     0.031 A 
BRANCH  48  62
ATOM     62  C   UNL A   1      43.236  27.930  34.579  1.00  0.00    -0.014 A 
ATOM     63  C   UNL A   1      43.726  28.259  35.853  1.00  0.00     0.010 A 
ATOM     64  C   UNL A   1      43.467  26.617  34.113  1.00  0.00     0.010 A 
ATOM     65  C   UNL A   1      44.449  27.327  36.607  1.00  0.00     0.020 A 
ATOM     66  C   UNL A   1      44.147  25.668  34.874  1.00  0.00     0.020 A 
ATOM     67  C   UNL A   1      44.658  26.040  36.107  1.00  0.00     0.054 A 
BRANCH  67  68
ATOM     68  S   UNL A   1      45.665  24.875  37.053  1.00  0.00     0.124 S 
ATOM     69  O   UNL A   1      44.650  24.011  37.645  1.00  0.00    -0.237 OA
ATOM     70  O   UNL A   1      46.488  24.268  36.010  1.00  0.00    -0.237 OA
ATOM     71  O   UNL A   1      46.388  25.730  37.991  1.00  0.00    -0.744 OA
ENDBRANCH  67  68
ENDBRANCH  48  62
BRANCH  49  72
ATOM     72  C   UNL A   1      43.092  25.259  26.284  1.00  0.00    -0.014 A 
ATOM     73  C   UNL A   1      43.933  25.123  25.160  1.00  0.00     0.010 A 
ATOM     74  C   UNL A   1      42.619  24.082  26.895  1.00  0.00     0.010 A 
ATOM     75  C   UNL A   1      44.374  23.859  24.730  1.00  0.00     0.020 A 
ATOM     76  C   UNL A   1      43.052  22.816  26.467  1.00  0.00     0.020 A 
ATOM     77  C   UNL A   1      43.956  22.714  25.410  1.00  0.00     0.054 A 
BRANCH  77  78
ATOM     78  S   UNL A   1      44.710  21.111  24.992  1.00  0.00     0.124 S 
ATOM     79  O   UNL A   1      44.577  21.071  23.538  1.00  0.00    -0.237 OA
ATOM     80  O   UNL A   1      46.073  21.261  25.496  1.00  0.00    -0.237 OA
ATOM     81  O   UNL A   1      43.888  20.144  25.716  1.00  0.00    -0.744 OA
ENDBRANCH  77  78
ENDBRANCH  49  72
BRANCH  61  82
ATOM     82  C   UNL A   1      44.937  30.833  28.584  1.00  0.00    -0.014 A 
ATOM     83  C   UNL A   1      46.154  31.294  28.038  1.00  0.00     0.010 A 
ATOM     84  C   UNL A   1      43.738  31.317  28.036  1.00  0.00     0.010 A 
ATOM     85  C   UNL A   1      46.164  32.251  27.008  1.00  0.00     0.020 A 
ATOM     86  C   UNL A   1      43.739  32.253  27.000  1.00  0.00     0.020 A 
ATOM     87  C   UNL A   1      44.952  32.730  26.501  1.00  0.00     0.054 A 
BRANCH  87  88
ATOM     88  S   UNL A   1      44.957  33.982  25.186  1.00  0.00     0.124 S 
ATOM     89  O   UNL A   1      46.360  34.388  25.138  1.00  0.00    -0.237 OA
ATOM     90  O   UNL A   1      44.478  33.236  24.026  1.00  0.00    -0.237 OA
ATOM     91  O   UNL A   1      44.036  35.008  25.677  1.00  0.00    -0.744 OA
ENDBRANCH  87  88
ENDBRANCH  61  82
ENDBRANCH  35  36
ENDBRANCH  28  30
ENDBRANCH  27  28
ENDBRANCH  26  27
ENDBRANCH  25  26
ENDBRANCH  24  25
ENDBRANCH  23  24
ENDBRANCH   1  23
TORSDOF 24
ENDMDL
