MODEL 1
REMARK VINA RESULT:      -9.6      0.000      0.000
REMARK SMILES Cc1nnsc1Sc1ccccc1C(=O)OCCOCCOCCOC(=O)c1ccc(-c2c3nc(c(-c4ccc(S(=O)(=O)[O-])cc4)c4ccc([nH]4)c(-c4ccc(S(=O)(=O)[O-])cc4)c4nc(c(-c5ccc(S(=O)(=O)[O-])cc5)c5ccc2[nH]5)C=C4)C=C3)cc1
REMARK SMILES IDX 21 1 20 2 19 3 18 4 17 5 16 6 14 7 15 8 13 9 8 10 9 11 10 12
REMARK SMILES IDX 12 13 11 14 7 15 6 16 1 17 2 18 3 19 4 20 5 21 22 22 23 23
REMARK SMILES IDX 24 24 25 25 26 26 27 27 28 28 29 29 87 30 30 31 86 32 31 33
REMARK SMILES IDX 32 34 33 35 80 36 34 37 85 38 79 39 81 40 35 41 84 42 78 43
REMARK SMILES IDX 77 44 36 46 66 47 47 48 65 49 48 50 51 51 64 52 82 53 49 54
REMARK SMILES IDX 50 55 63 57 83 58 52 59 37 60 38 61 46 62 39 63 45 64 40 65
REMARK SMILES IDX 41 66 42 67 43 68 44 69 67 70 68 71 76 72 69 73 75 74 70 75
REMARK SMILES IDX 71 76 72 77 73 78 74 79 53 80 54 81 62 82 55 83 61 84 56 85
REMARK SMILES IDX 57 86 58 87 59 88 60 89
REMARK H PARENT 81 45 51 56
REMARK Flexibility Score: inf
ROOT
ATOM      1  C   UNL A   1      36.783  22.521  25.354  1.00  0.00     0.188 C 
ENDROOT
BRANCH   1   2
ATOM      2  C   UNL A   1      35.444  22.446  26.126  1.00  0.00     0.188 C 
BRANCH   2   3
ATOM      3  O   UNL A   1      34.904  23.691  26.503  1.00  0.00    -0.376 OA
BRANCH   3   4
ATOM      4  C   UNL A   1      34.669  24.692  25.530  1.00  0.00     0.202 C 
BRANCH   4   5
ATOM      5  C   UNL A   1      33.415  25.579  25.455  1.00  0.00     0.261 C 
BRANCH   5   6
ATOM      6  O   UNL A   1      32.462  25.486  26.518  1.00  0.00    -0.460 OA
BRANCH   6   7
ATOM      7  C   UNL A   1      31.286  26.120  26.298  1.00  0.00     0.339 C 
ATOM      8  O   UNL A   1      30.179  25.607  26.336  1.00  0.00    -0.246 OA
BRANCH   7   9
ATOM      9  C   UNL A   1      31.464  27.582  26.151  1.00  0.00     0.074 A 
ATOM     10  C   UNL A   1      31.184  28.339  25.000  1.00  0.00     0.028 A 
ATOM     11  C   UNL A   1      31.444  29.729  25.062  1.00  0.00     0.016 A 
ATOM     12  C   UNL A   1      31.943  30.348  26.212  1.00  0.00     0.001 A 
ATOM     13  C   UNL A   1      31.960  28.218  27.314  1.00  0.00     0.017 A 
ATOM     14  C   UNL A   1      32.203  29.589  27.341  1.00  0.00     0.001 A 
BRANCH  10  15
ATOM     15  S   UNL A   1      30.608  27.834  23.390  1.00  0.00    -0.075 SA
BRANCH  15  16
ATOM     16  C   UNL A   1      31.858  26.903  22.621  1.00  0.00     0.109 A 
ATOM     17  C   UNL A   1      33.953  28.417  22.291  1.00  0.00     0.071 C 
ATOM     18  C   UNL A   1      33.160  27.165  22.211  1.00  0.00     0.087 A 
ATOM     19  N   UNL A   1      33.807  26.078  21.615  1.00  0.00    -0.142 NA
ATOM     20  N   UNL A   1      33.062  24.989  21.608  1.00  0.00    -0.090 NA
ATOM     21  S   UNL A   1      31.575  25.222  22.316  1.00  0.00    -0.005 S 
ENDBRANCH  15  16
ENDBRANCH  10  15
ENDBRANCH   7   9
ENDBRANCH   6   7
ENDBRANCH   5   6
ENDBRANCH   4   5
ENDBRANCH   3   4
ENDBRANCH   2   3
ENDBRANCH   1   2
BRANCH   1  22
ATOM     22  O   UNL A   1      37.219  21.430  24.560  1.00  0.00    -0.376 OA
BRANCH  22  23
ATOM     23  C   UNL A   1      38.237  20.579  25.063  1.00  0.00     0.202 C 
BRANCH  23  24
ATOM     24  C   UNL A   1      39.290  21.086  26.070  1.00  0.00     0.261 C 
BRANCH  24  25
ATOM     25  O   UNL A   1      40.041  20.081  26.772  1.00  0.00    -0.460 OA
BRANCH  25  26
ATOM     26  C   UNL A   1      41.320  19.899  26.351  1.00  0.00     0.338 C 
ATOM     27  O   UNL A   1      41.760  18.947  25.734  1.00  0.00    -0.246 OA
BRANCH  26  28
ATOM     28  C   UNL A   1      42.088  21.148  26.561  1.00  0.00     0.060 A 
ATOM     29  C   UNL A   1      42.303  21.592  27.876  1.00  0.00     0.016 A 
ATOM     30  C   UNL A   1      42.567  21.890  25.482  1.00  0.00     0.016 A 
ATOM     31  C   UNL A   1      42.985  22.785  28.115  1.00  0.00     0.010 A 
ATOM     32  C   UNL A   1      43.220  23.104  25.722  1.00  0.00     0.010 A 
ATOM     33  C   UNL A   1      43.409  23.571  27.037  1.00  0.00    -0.014 A 
BRANCH  33  34
ATOM     34  C   UNL A   1      43.850  24.970  27.273  1.00  0.00     0.031 A 
ATOM     35  C   UNL A   1      45.311  25.292  27.093  1.00  0.00     0.074 A 
ATOM     36  C   UNL A   1      42.983  25.939  27.619  1.00  0.00     0.049 A 
ATOM     37  N   UNL A   1      45.947  26.412  27.320  1.00  0.00    -0.248 NA
ATOM     38  C   UNL A   1      46.166  24.203  26.590  1.00  0.00     0.031 C 
ATOM     39  C   UNL A   1      41.538  25.776  27.765  1.00  0.00     0.029 A 
ATOM     40  N   UNL A   1      43.204  27.262  27.923  1.00  0.00    -0.354 N 
ATOM     41  C   UNL A   1      47.276  26.162  26.990  1.00  0.00     0.074 A 
ATOM     42  C   UNL A   1      47.359  24.776  26.583  1.00  0.00     0.031 C 
ATOM     43  C   UNL A   1      41.004  26.950  28.150  1.00  0.00     0.029 A 
ATOM     44  C   UNL A   1      42.071  27.935  28.315  1.00  0.00     0.049 A 
ATOM     45  H   UNL A   1      44.090  27.686  27.863  1.00  0.00     0.167 HD
ATOM     46  C   UNL A   1      48.330  27.009  27.015  1.00  0.00     0.031 A 
ATOM     47  C   UNL A   1      41.920  29.191  28.784  1.00  0.00     0.031 A 
ATOM     48  C   UNL A   1      48.254  28.380  27.444  1.00  0.00     0.049 A 
ATOM     49  C   UNL A   1      43.132  30.086  28.908  1.00  0.00     0.074 A 
ATOM     50  C   UNL A   1      49.271  29.315  27.523  1.00  0.00     0.029 A 
ATOM     51  N   UNL A   1      47.096  29.012  27.870  1.00  0.00    -0.354 N 
ATOM     52  N   UNL A   1      44.380  29.838  28.587  1.00  0.00    -0.248 NA
ATOM     53  C   UNL A   1      42.911  31.434  29.453  1.00  0.00     0.031 C 
ATOM     54  C   UNL A   1      48.739  30.497  28.049  1.00  0.00     0.029 A 
ATOM     55  C   UNL A   1      47.377  30.319  28.230  1.00  0.00     0.049 A 
ATOM     56  H   UNL A   1      46.206  28.594  27.911  1.00  0.00     0.167 HD
ATOM     57  C   UNL A   1      45.082  31.011  28.855  1.00  0.00     0.074 A 
ATOM     58  C   UNL A   1      44.119  31.971  29.349  1.00  0.00     0.031 C 
ATOM     59  C   UNL A   1      46.405  31.271  28.706  1.00  0.00     0.031 A 
BRANCH  46  60
ATOM     60  C   UNL A   1      49.668  26.469  26.582  1.00  0.00    -0.014 A 
ATOM     61  C   UNL A   1      50.073  26.534  25.237  1.00  0.00     0.010 A 
ATOM     62  C   UNL A   1      50.549  25.930  27.537  1.00  0.00     0.010 A 
ATOM     63  C   UNL A   1      51.322  26.043  24.850  1.00  0.00     0.020 A 
ATOM     64  C   UNL A   1      51.812  25.467  27.160  1.00  0.00     0.020 A 
ATOM     65  C   UNL A   1      52.186  25.515  25.814  1.00  0.00     0.054 A 
BRANCH  65  66
ATOM     66  S   UNL A   1      53.816  24.921  25.286  1.00  0.00     0.124 S 
ATOM     67  O   UNL A   1      54.198  25.926  24.297  1.00  0.00    -0.237 OA
ATOM     68  O   UNL A   1      54.580  24.941  26.530  1.00  0.00    -0.237 OA
ATOM     69  O   UNL A   1      53.543  23.591  24.747  1.00  0.00    -0.744 OA
ENDBRANCH  65  66
ENDBRANCH  46  60
BRANCH  47  70
ATOM     70  C   UNL A   1      40.579  29.683  29.213  1.00  0.00    -0.014 A 
ATOM     71  C   UNL A   1      40.276  29.854  30.575  1.00  0.00     0.010 A 
ATOM     72  C   UNL A   1      39.576  29.934  28.256  1.00  0.00     0.010 A 
ATOM     73  C   UNL A   1      38.988  30.227  30.975  1.00  0.00     0.020 A 
ATOM     74  C   UNL A   1      38.298  30.341  28.651  1.00  0.00     0.020 A 
ATOM     75  C   UNL A   1      38.006  30.466  30.009  1.00  0.00     0.054 A 
BRANCH  75  76
ATOM     76  S   UNL A   1      36.346  30.960  30.551  1.00  0.00     0.124 S 
ATOM     77  O   UNL A   1      35.603  30.948  29.296  1.00  0.00    -0.237 OA
ATOM     78  O   UNL A   1      36.001  29.906  31.502  1.00  0.00    -0.237 OA
ATOM     79  O   UNL A   1      36.558  32.279  31.142  1.00  0.00    -0.744 OA
ENDBRANCH  75  76
ENDBRANCH  47  70
BRANCH  59  80
ATOM     80  C   UNL A   1      46.887  32.665  29.021  1.00  0.00    -0.014 A 
ATOM     81  C   UNL A   1      46.877  33.684  28.052  1.00  0.00     0.010 A 
ATOM     82  C   UNL A   1      47.302  32.972  30.331  1.00  0.00     0.010 A 
ATOM     83  C   UNL A   1      47.305  34.975  28.380  1.00  0.00     0.020 A 
ATOM     84  C   UNL A   1      47.699  34.268  30.671  1.00  0.00     0.020 A 
ATOM     85  C   UNL A   1      47.711  35.259  29.688  1.00  0.00     0.054 A 
BRANCH  85  86
ATOM     86  S   UNL A   1      48.217  36.952  30.097  1.00  0.00     0.124 S 
ATOM     87  O   UNL A   1      48.994  36.751  31.317  1.00  0.00    -0.237 OA
ATOM     88  O   UNL A   1      48.986  37.350  28.920  1.00  0.00    -0.237 OA
ATOM     89  O   UNL A   1      46.952  37.660  30.274  1.00  0.00    -0.744 OA
ENDBRANCH  85  86
ENDBRANCH  59  80
ENDBRANCH  33  34
ENDBRANCH  26  28
ENDBRANCH  25  26
ENDBRANCH  24  25
ENDBRANCH  23  24
ENDBRANCH  22  23
ENDBRANCH   1  22
TORSDOF 22
ENDMDL
MODEL 2
REMARK VINA RESULT:      -9.4      1.044      8.230
REMARK SMILES Cc1nnsc1Sc1ccccc1C(=O)OCCOCCOCCOC(=O)c1ccc(-c2c3nc(c(-c4ccc(S(=O)(=O)[O-])cc4)c4ccc([nH]4)c(-c4ccc(S(=O)(=O)[O-])cc4)c4nc(c(-c5ccc(S(=O)(=O)[O-])cc5)c5ccc2[nH]5)C=C4)C=C3)cc1
REMARK SMILES IDX 21 1 20 2 19 3 18 4 17 5 16 6 14 7 15 8 13 9 8 10 9 11 10 12
REMARK SMILES IDX 12 13 11 14 7 15 6 16 1 17 2 18 3 19 4 20 5 21 22 22 23 23
REMARK SMILES IDX 24 24 25 25 26 26 27 27 28 28 29 29 87 30 30 31 86 32 31 33
REMARK SMILES IDX 32 34 33 35 80 36 34 37 85 38 79 39 81 40 35 41 84 42 78 43
REMARK SMILES IDX 77 44 36 46 66 47 47 48 65 49 48 50 51 51 64 52 82 53 49 54
REMARK SMILES IDX 50 55 63 57 83 58 52 59 37 60 38 61 46 62 39 63 45 64 40 65
REMARK SMILES IDX 41 66 42 67 43 68 44 69 67 70 68 71 76 72 69 73 75 74 70 75
REMARK SMILES IDX 71 76 72 77 73 78 74 79 53 80 54 81 62 82 55 83 61 84 56 85
REMARK SMILES IDX 57 86 58 87 59 88 60 89
REMARK H PARENT 81 45 51 56
REMARK Flexibility Score: inf
ROOT
ATOM      1  C   UNL A   1      36.677  22.513  24.881  1.00  0.00     0.188 C 
ENDROOT
BRANCH   1   2
ATOM      2  C   UNL A   1      35.511  22.665  25.887  1.00  0.00     0.188 C 
BRANCH   2   3
ATOM      3  O   UNL A   1      34.558  23.646  25.550  1.00  0.00    -0.376 OA
BRANCH   3   4
ATOM      4  C   UNL A   1      34.840  25.017  25.761  1.00  0.00     0.202 C 
BRANCH   4   5
ATOM      5  C   UNL A   1      34.044  26.189  25.164  1.00  0.00     0.261 C 
BRANCH   5   6
ATOM      6  O   UNL A   1      33.235  26.971  26.047  1.00  0.00    -0.460 OA
BRANCH   6   7
ATOM      7  C   UNL A   1      31.918  26.661  26.053  1.00  0.00     0.339 C 
ATOM      8  O   UNL A   1      31.353  25.948  26.867  1.00  0.00    -0.246 OA
BRANCH   7   9
ATOM      9  C   UNL A   1      31.166  27.418  25.027  1.00  0.00     0.074 A 
ATOM     10  C   UNL A   1      30.364  26.868  24.012  1.00  0.00     0.028 A 
ATOM     11  C   UNL A   1      29.744  27.772  23.117  1.00  0.00     0.016 A 
ATOM     12  C   UNL A   1      29.895  29.158  23.226  1.00  0.00     0.001 A 
ATOM     13  C   UNL A   1      31.305  28.822  25.136  1.00  0.00     0.017 A 
ATOM     14  C   UNL A   1      30.679  29.684  24.238  1.00  0.00     0.001 A 
BRANCH  10  15
ATOM     15  S   UNL A   1      30.033  25.168  23.587  1.00  0.00    -0.075 SA
BRANCH  15  16
ATOM     16  C   UNL A   1      31.500  24.449  22.994  1.00  0.00     0.109 A 
ATOM     17  C   UNL A   1      32.820  26.234  21.628  1.00  0.00     0.071 C 
ATOM     18  C   UNL A   1      32.572  24.901  22.234  1.00  0.00     0.087 A 
ATOM     19  N   UNL A   1      33.555  23.937  21.993  1.00  0.00    -0.142 NA
ATOM     20  N   UNL A   1      33.293  22.788  22.586  1.00  0.00    -0.090 NA
ATOM     21  S   UNL A   1      31.875  22.823  23.456  1.00  0.00    -0.005 S 
ENDBRANCH  15  16
ENDBRANCH  10  15
ENDBRANCH   7   9
ENDBRANCH   6   7
ENDBRANCH   5   6
ENDBRANCH   4   5
ENDBRANCH   3   4
ENDBRANCH   2   3
ENDBRANCH   1   2
BRANCH   1  22
ATOM     22  O   UNL A   1      37.016  21.239  24.358  1.00  0.00    -0.376 OA
BRANCH  22  23
ATOM     23  C   UNL A   1      38.046  20.491  24.986  1.00  0.00     0.202 C 
BRANCH  23  24
ATOM     24  C   UNL A   1      39.070  21.159  25.926  1.00  0.00     0.261 C 
BRANCH  24  25
ATOM     25  O   UNL A   1      39.823  20.281  26.781  1.00  0.00    -0.460 OA
BRANCH  25  26
ATOM     26  C   UNL A   1      41.065  19.950  26.340  1.00  0.00     0.338 C 
ATOM     27  O   UNL A   1      41.381  18.949  25.726  1.00  0.00    -0.246 OA
BRANCH  26  28
ATOM     28  C   UNL A   1      41.974  21.104  26.524  1.00  0.00     0.060 A 
ATOM     29  C   UNL A   1      42.241  21.549  27.829  1.00  0.00     0.016 A 
ATOM     30  C   UNL A   1      42.536  21.761  25.429  1.00  0.00     0.016 A 
ATOM     31  C   UNL A   1      43.059  22.659  28.042  1.00  0.00     0.010 A 
ATOM     32  C   UNL A   1      43.328  22.895  25.643  1.00  0.00     0.010 A 
ATOM     33  C   UNL A   1      43.571  23.366  26.948  1.00  0.00    -0.014 A 
BRANCH  33  34
ATOM     34  C   UNL A   1      44.174  24.707  27.153  1.00  0.00     0.031 A 
ATOM     35  C   UNL A   1      43.259  25.850  27.509  1.00  0.00     0.074 A 
ATOM     36  C   UNL A   1      45.500  24.913  27.047  1.00  0.00     0.049 A 
ATOM     37  N   UNL A   1      43.535  27.120  27.655  1.00  0.00    -0.248 NA
ATOM     38  C   UNL A   1      41.842  25.511  27.730  1.00  0.00     0.031 C 
ATOM     39  C   UNL A   1      46.501  23.885  26.770  1.00  0.00     0.029 A 
ATOM     40  N   UNL A   1      46.230  26.073  27.152  1.00  0.00    -0.354 N 
ATOM     41  C   UNL A   1      42.329  27.731  27.981  1.00  0.00     0.074 A 
ATOM     42  C   UNL A   1      41.314  26.699  27.977  1.00  0.00     0.031 C 
ATOM     43  C   UNL A   1      47.714  24.464  26.707  1.00  0.00     0.029 A 
ATOM     44  C   UNL A   1      47.572  25.907  26.899  1.00  0.00     0.049 A 
ATOM     45  H   UNL A   1      45.829  26.942  27.386  1.00  0.00     0.167 HD
ATOM     46  C   UNL A   1      42.086  29.031  28.268  1.00  0.00     0.031 A 
ATOM     47  C   UNL A   1      48.562  26.818  26.804  1.00  0.00     0.031 A 
ATOM     48  C   UNL A   1      43.089  30.063  28.247  1.00  0.00     0.049 A 
ATOM     49  C   UNL A   1      48.246  28.280  27.018  1.00  0.00     0.074 A 
ATOM     50  C   UNL A   1      42.938  31.414  28.505  1.00  0.00     0.029 A 
ATOM     51  N   UNL A   1      44.427  29.859  27.949  1.00  0.00    -0.354 N 
ATOM     52  N   UNL A   1      47.102  28.843  27.332  1.00  0.00    -0.248 NA
ATOM     53  C   UNL A   1      49.360  29.230  26.872  1.00  0.00     0.031 C 
ATOM     54  C   UNL A   1      44.176  32.036  28.309  1.00  0.00     0.029 A 
ATOM     55  C   UNL A   1      45.110  31.062  27.999  1.00  0.00     0.049 A 
ATOM     56  H   UNL A   1      44.832  28.988  27.734  1.00  0.00     0.167 HD
ATOM     57  C   UNL A   1      47.370  30.204  27.457  1.00  0.00     0.074 A 
ATOM     58  C   UNL A   1      48.783  30.378  27.201  1.00  0.00     0.031 C 
ATOM     59  C   UNL A   1      46.522  31.219  27.757  1.00  0.00     0.031 A 
BRANCH  46  60
ATOM     60  C   UNL A   1      40.671  29.416  28.610  1.00  0.00    -0.014 A 
ATOM     61  C   UNL A   1      40.346  29.922  29.881  1.00  0.00     0.010 A 
ATOM     62  C   UNL A   1      39.661  29.315  27.635  1.00  0.00     0.010 A 
ATOM     63  C   UNL A   1      39.033  30.290  30.182  1.00  0.00     0.020 A 
ATOM     64  C   UNL A   1      38.352  29.712  27.921  1.00  0.00     0.020 A 
ATOM     65  C   UNL A   1      38.044  30.185  29.199  1.00  0.00     0.054 A 
BRANCH  65  66
ATOM     66  S   UNL A   1      36.356  30.707  29.608  1.00  0.00     0.124 S 
ATOM     67  O   UNL A   1      35.554  29.818  28.772  1.00  0.00    -0.237 OA
ATOM     68  O   UNL A   1      36.284  30.453  31.045  1.00  0.00    -0.237 OA
ATOM     69  O   UNL A   1      36.326  32.116  29.225  1.00  0.00    -0.744 OA
ENDBRANCH  65  66
ENDBRANCH  46  60
BRANCH  47  70
ATOM     70  C   UNL A   1      49.948  26.396  26.451  1.00  0.00    -0.014 A 
ATOM     71  C   UNL A   1      50.852  25.982  27.445  1.00  0.00     0.010 A 
ATOM     72  C   UNL A   1      50.389  26.458  25.114  1.00  0.00     0.010 A 
ATOM     73  C   UNL A   1      52.178  25.676  27.117  1.00  0.00     0.020 A 
ATOM     74  C   UNL A   1      51.703  26.120  24.778  1.00  0.00     0.020 A 
ATOM     75  C   UNL A   1      52.595  25.750  25.785  1.00  0.00     0.054 A 
BRANCH  75  76
ATOM     76  S   UNL A   1      54.316  25.338  25.383  1.00  0.00     0.124 S 
ATOM     77  O   UNL A   1      54.627  26.317  24.346  1.00  0.00    -0.237 OA
ATOM     78  O   UNL A   1      54.993  25.533  26.663  1.00  0.00    -0.237 OA
ATOM     79  O   UNL A   1      54.239  23.951  24.932  1.00  0.00    -0.744 OA
ENDBRANCH  75  76
ENDBRANCH  47  70
BRANCH  59  80
ATOM     80  C   UNL A   1      47.103  32.605  27.888  1.00  0.00    -0.014 A 
ATOM     81  C   UNL A   1      47.105  33.508  26.809  1.00  0.00     0.010 A 
ATOM     82  C   UNL A   1      47.601  33.030  29.135  1.00  0.00     0.010 A 
ATOM     83  C   UNL A   1      47.626  34.797  26.967  1.00  0.00     0.020 A 
ATOM     84  C   UNL A   1      48.092  34.327  29.305  1.00  0.00     0.020 A 
ATOM     85  C   UNL A   1      48.114  35.198  28.215  1.00  0.00     0.054 A 
BRANCH  85  86
ATOM     86  S   UNL A   1      48.741  36.890  28.404  1.00  0.00     0.124 S 
ATOM     87  O   UNL A   1      47.521  37.635  28.705  1.00  0.00    -0.237 OA
ATOM     88  O   UNL A   1      49.687  36.759  29.508  1.00  0.00    -0.237 OA
ATOM     89  O   UNL A   1      49.345  37.184  27.106  1.00  0.00    -0.744 OA
ENDBRANCH  85  86
ENDBRANCH  59  80
ENDBRANCH  33  34
ENDBRANCH  26  28
ENDBRANCH  25  26
ENDBRANCH  24  25
ENDBRANCH  23  24
ENDBRANCH  22  23
ENDBRANCH   1  22
TORSDOF 22
ENDMDL
MODEL 3
REMARK VINA RESULT:      -9.3      5.414      8.784
REMARK SMILES Cc1nnsc1Sc1ccccc1C(=O)OCCOCCOCCOC(=O)c1ccc(-c2c3nc(c(-c4ccc(S(=O)(=O)[O-])cc4)c4ccc([nH]4)c(-c4ccc(S(=O)(=O)[O-])cc4)c4nc(c(-c5ccc(S(=O)(=O)[O-])cc5)c5ccc2[nH]5)C=C4)C=C3)cc1
REMARK SMILES IDX 21 1 20 2 19 3 18 4 17 5 16 6 14 7 15 8 13 9 8 10 9 11 10 12
REMARK SMILES IDX 12 13 11 14 7 15 6 16 1 17 2 18 3 19 4 20 5 21 22 22 23 23
REMARK SMILES IDX 24 24 25 25 26 26 27 27 28 28 29 29 87 30 30 31 86 32 31 33
REMARK SMILES IDX 32 34 33 35 80 36 34 37 85 38 79 39 81 40 35 41 84 42 78 43
REMARK SMILES IDX 77 44 36 46 66 47 47 48 65 49 48 50 51 51 64 52 82 53 49 54
REMARK SMILES IDX 50 55 63 57 83 58 52 59 37 60 38 61 46 62 39 63 45 64 40 65
REMARK SMILES IDX 41 66 42 67 43 68 44 69 67 70 68 71 76 72 69 73 75 74 70 75
REMARK SMILES IDX 71 76 72 77 73 78 74 79 53 80 54 81 62 82 55 83 61 84 56 85
REMARK SMILES IDX 57 86 58 87 59 88 60 89
REMARK H PARENT 81 45 51 56
REMARK Flexibility Score: inf
ROOT
ATOM      1  C   UNL A   1      31.124  27.130  26.065  1.00  0.00     0.188 C 
ENDROOT
BRANCH   1   2
ATOM      2  C   UNL A   1      30.697  27.251  24.583  1.00  0.00     0.188 C 
BRANCH   2   3
ATOM      3  O   UNL A   1      31.055  26.158  23.770  1.00  0.00    -0.376 OA
BRANCH   3   4
ATOM      4  C   UNL A   1      30.442  24.896  23.957  1.00  0.00     0.202 C 
BRANCH   4   5
ATOM      5  C   UNL A   1      31.186  23.581  24.242  1.00  0.00     0.261 C 
BRANCH   5   6
ATOM      6  O   UNL A   1      31.349  22.655  23.164  1.00  0.00    -0.460 OA
BRANCH   6   7
ATOM      7  C   UNL A   1      32.591  22.133  23.033  1.00  0.00     0.339 C 
ATOM      8  O   UNL A   1      33.583  22.731  22.648  1.00  0.00    -0.246 OA
BRANCH   7   9
ATOM      9  C   UNL A   1      32.671  20.753  23.564  1.00  0.00     0.074 A 
ATOM     10  C   UNL A   1      33.108  20.382  24.847  1.00  0.00     0.028 A 
ATOM     11  C   UNL A   1      33.126  19.000  25.149  1.00  0.00     0.016 A 
ATOM     12  C   UNL A   1      32.716  18.026  24.233  1.00  0.00     0.001 A 
ATOM     13  C   UNL A   1      32.248  19.762  22.646  1.00  0.00     0.017 A 
ATOM     14  C   UNL A   1      32.276  18.409  22.977  1.00  0.00     0.001 A 
BRANCH  10  15
ATOM     15  S   UNL A   1      33.740  21.372  26.189  1.00  0.00    -0.075 SA
BRANCH  15  16
ATOM     16  C   UNL A   1      35.259  22.061  25.702  1.00  0.00     0.109 A 
ATOM     17  C   UNL A   1      36.852  20.141  24.947  1.00  0.00     0.071 C 
ATOM     18  C   UNL A   1      36.455  21.547  25.215  1.00  0.00     0.087 A 
ATOM     19  N   UNL A   1      37.435  22.510  24.956  1.00  0.00    -0.142 NA
ATOM     20  N   UNL A   1      37.008  23.737  25.180  1.00  0.00    -0.090 NA
ATOM     21  S   UNL A   1      35.427  23.785  25.695  1.00  0.00    -0.005 S 
ENDBRANCH  15  16
ENDBRANCH  10  15
ENDBRANCH   7   9
ENDBRANCH   6   7
ENDBRANCH   5   6
ENDBRANCH   4   5
ENDBRANCH   3   4
ENDBRANCH   2   3
ENDBRANCH   1   2
BRANCH   1  22
ATOM     22  O   UNL A   1      31.791  28.202  26.712  1.00  0.00    -0.376 OA
BRANCH  22  23
ATOM     23  C   UNL A   1      31.800  29.479  26.093  1.00  0.00     0.202 C 
BRANCH  23  24
ATOM     24  C   UNL A   1      32.478  30.694  26.758  1.00  0.00     0.261 C 
BRANCH  24  25
ATOM     25  O   UNL A   1      33.886  30.575  27.026  1.00  0.00    -0.460 OA
BRANCH  25  26
ATOM     26  C   UNL A   1      34.409  31.513  27.858  1.00  0.00     0.338 C 
ATOM     27  O   UNL A   1      33.849  32.503  28.290  1.00  0.00    -0.246 OA
BRANCH  26  28
ATOM     28  C   UNL A   1      35.723  31.047  28.357  1.00  0.00     0.060 A 
ATOM     29  C   UNL A   1      35.777  29.853  29.095  1.00  0.00     0.016 A 
ATOM     30  C   UNL A   1      36.884  31.785  28.130  1.00  0.00     0.016 A 
ATOM     31  C   UNL A   1      36.989  29.401  29.618  1.00  0.00     0.010 A 
ATOM     32  C   UNL A   1      38.092  31.349  28.685  1.00  0.00     0.010 A 
ATOM     33  C   UNL A   1      38.146  30.170  29.454  1.00  0.00    -0.014 A 
BRANCH  33  34
ATOM     34  C   UNL A   1      39.356  29.863  30.259  1.00  0.00     0.031 A 
ATOM     35  C   UNL A   1      40.241  28.730  29.806  1.00  0.00     0.074 A 
ATOM     36  C   UNL A   1      39.681  30.576  31.353  1.00  0.00     0.049 A 
ATOM     37  N   UNL A   1      41.298  28.221  30.383  1.00  0.00    -0.248 NA
ATOM     38  C   UNL A   1      39.881  28.087  28.530  1.00  0.00     0.031 C 
ATOM     39  C   UNL A   1      38.948  31.733  31.863  1.00  0.00     0.029 A 
ATOM     40  N   UNL A   1      40.718  30.417  32.242  1.00  0.00    -0.354 N 
ATOM     41  C   UNL A   1      41.727  27.198  29.544  1.00  0.00     0.074 A 
ATOM     42  C   UNL A   1      40.797  27.136  28.438  1.00  0.00     0.031 C 
ATOM     43  C   UNL A   1      39.548  32.168  32.987  1.00  0.00     0.029 A 
ATOM     44  C   UNL A   1      40.681  31.298  33.297  1.00  0.00     0.049 A 
ATOM     45  H   UNL A   1      41.421  29.737  32.132  1.00  0.00     0.167 HD
ATOM     46  C   UNL A   1      42.804  26.389  29.675  1.00  0.00     0.031 A 
ATOM     47  C   UNL A   1      41.453  31.371  34.401  1.00  0.00     0.031 A 
ATOM     48  C   UNL A   1      43.715  26.432  30.787  1.00  0.00     0.049 A 
ATOM     49  C   UNL A   1      42.583  30.384  34.581  1.00  0.00     0.074 A 
ATOM     50  C   UNL A   1      44.826  25.641  31.020  1.00  0.00     0.029 A 
ATOM     51  N   UNL A   1      43.621  27.312  31.854  1.00  0.00    -0.354 N 
ATOM     52  N   UNL A   1      42.982  29.426  33.776  1.00  0.00    -0.248 NA
ATOM     53  C   UNL A   1      43.373  30.493  35.817  1.00  0.00     0.031 C 
ATOM     54  C   UNL A   1      45.371  26.006  32.256  1.00  0.00     0.029 A 
ATOM     55  C   UNL A   1      44.642  27.072  32.757  1.00  0.00     0.049 A 
ATOM     56  H   UNL A   1      42.930  28.007  31.955  1.00  0.00     0.167 HD
ATOM     57  C   UNL A   1      44.089  28.848  34.393  1.00  0.00     0.074 A 
ATOM     58  C   UNL A   1      44.306  29.571  35.626  1.00  0.00     0.031 C 
ATOM     59  C   UNL A   1      44.857  27.811  33.975  1.00  0.00     0.031 A 
BRANCH  46  60
ATOM     60  C   UNL A   1      43.043  25.369  28.593  1.00  0.00    -0.014 A 
ATOM     61  C   UNL A   1      43.796  25.690  27.450  1.00  0.00     0.010 A 
ATOM     62  C   UNL A   1      42.549  24.060  28.741  1.00  0.00     0.010 A 
ATOM     63  C   UNL A   1      44.025  24.731  26.460  1.00  0.00     0.020 A 
ATOM     64  C   UNL A   1      42.801  23.088  27.769  1.00  0.00     0.020 A 
ATOM     65  C   UNL A   1      43.528  23.435  26.627  1.00  0.00     0.054 A 
BRANCH  65  66
ATOM     66  S   UNL A   1      43.874  22.202  25.343  1.00  0.00     0.124 S 
ATOM     67  O   UNL A   1      43.277  22.821  24.162  1.00  0.00    -0.237 OA
ATOM     68  O   UNL A   1      45.332  22.137  25.349  1.00  0.00    -0.237 OA
ATOM     69  O   UNL A   1      43.197  21.000  25.824  1.00  0.00    -0.744 OA
ENDBRANCH  65  66
ENDBRANCH  46  60
BRANCH  47  70
ATOM     70  C   UNL A   1      41.175  32.389  35.455  1.00  0.00    -0.014 A 
ATOM     71  C   UNL A   1      40.343  32.088  36.547  1.00  0.00     0.010 A 
ATOM     72  C   UNL A   1      41.702  33.690  35.340  1.00  0.00     0.010 A 
ATOM     73  C   UNL A   1      40.011  33.075  37.482  1.00  0.00     0.020 A 
ATOM     74  C   UNL A   1      41.401  34.670  36.291  1.00  0.00     0.020 A 
ATOM     75  C   UNL A   1      40.541  34.361  37.346  1.00  0.00     0.054 A 
BRANCH  75  76
ATOM     76  S   UNL A   1      40.107  35.622  38.576  1.00  0.00     0.124 S 
ATOM     77  O   UNL A   1      41.320  35.687  39.384  1.00  0.00    -0.237 OA
ATOM     78  O   UNL A   1      39.836  36.792  37.744  1.00  0.00    -0.237 OA
ATOM     79  O   UNL A   1      38.937  35.058  39.246  1.00  0.00    -0.744 OA
ENDBRANCH  75  76
ENDBRANCH  47  70
BRANCH  59  80
ATOM     80  C   UNL A   1      46.045  27.429  34.823  1.00  0.00    -0.014 A 
ATOM     81  C   UNL A   1      47.304  28.026  34.639  1.00  0.00     0.010 A 
ATOM     82  C   UNL A   1      45.877  26.498  35.867  1.00  0.00     0.010 A 
ATOM     83  C   UNL A   1      48.382  27.673  35.458  1.00  0.00     0.020 A 
ATOM     84  C   UNL A   1      46.941  26.166  36.708  1.00  0.00     0.020 A 
ATOM     85  C   UNL A   1      48.192  26.747  36.489  1.00  0.00     0.054 A 
BRANCH  85  86
ATOM     86  S   UNL A   1      49.594  26.340  37.566  1.00  0.00     0.124 S 
ATOM     87  O   UNL A   1      50.515  27.441  37.296  1.00  0.00    -0.237 OA
ATOM     88  O   UNL A   1      48.987  26.340  38.895  1.00  0.00    -0.237 OA
ATOM     89  O   UNL A   1      50.032  25.031  37.088  1.00  0.00    -0.744 OA
ENDBRANCH  85  86
ENDBRANCH  59  80
ENDBRANCH  33  34
ENDBRANCH  26  28
ENDBRANCH  25  26
ENDBRANCH  24  25
ENDBRANCH  23  24
ENDBRANCH  22  23
ENDBRANCH   1  22
TORSDOF 22
ENDMDL
