MODEL 1
REMARK VINA RESULT:      -9.2      0.000      0.000
REMARK SMILES CC(C)Cc1ccc([C@@H](C)C(=O)OCCOCCOCCOC(=O)c2ccc(-c3c4nc(c(-c5ccc(S(=O)(=O)[O-])cc5)c5ccc([nH]5)c(-c5ccc(S(=O)(=O)[O-])cc5)c5nc(c(-c6ccc(S(=O)(=O)[O-])cc6)c6ccc3[nH]6)C=C5)C=C4)cc2)cc1
REMARK SMILES IDX 17 1 16 2 15 3 14 4 13 5 11 6 12 7 9 8 10 9 8 10 5 11 6 12
REMARK SMILES IDX 86 13 7 14 85 15 4 16 2 17 1 18 3 19 18 20 19 21 20 22 21 23
REMARK SMILES IDX 22 24 23 25 24 26 25 27 26 28 84 29 27 30 83 31 28 32 29 33
REMARK SMILES IDX 30 34 77 35 31 36 82 37 76 38 78 39 32 40 81 41 75 42 74 43
REMARK SMILES IDX 33 45 63 46 44 47 62 48 45 49 48 50 61 51 79 52 46 53 47 54
REMARK SMILES IDX 60 56 80 57 49 58 34 59 35 60 43 61 36 62 42 63 37 64 38 65
REMARK SMILES IDX 39 66 40 67 41 68 64 69 65 70 73 71 66 72 72 73 67 74 68 75
REMARK SMILES IDX 69 76 70 77 71 78 50 79 51 80 59 81 52 82 58 83 53 84 54 85
REMARK SMILES IDX 55 86 56 87 57 88
REMARK H PARENT 78 44 48 55
REMARK Flexibility Score: inf
ROOT
ATOM      1  C   UNL A   1      42.665  20.904  25.918  1.00  0.00     0.188 C 
ENDROOT
BRANCH   1   2
ATOM      2  O   UNL A   1      41.869  20.977  27.093  1.00  0.00    -0.376 OA
BRANCH   2   3
ATOM      3  C   UNL A   1      40.457  20.848  26.982  1.00  0.00     0.202 C 
BRANCH   3   4
ATOM      4  C   UNL A   1      39.692  21.714  25.965  1.00  0.00     0.261 C 
BRANCH   4   5
ATOM      5  O   UNL A   1      38.258  21.777  26.147  1.00  0.00    -0.463 OA
BRANCH   5   6
ATOM      6  C   UNL A   1      37.621  22.828  25.571  1.00  0.00     0.313 C 
ATOM      7  O   UNL A   1      37.959  23.997  25.758  1.00  0.00    -0.252 OA
BRANCH   6   8
ATOM      8  C   UNL A   1      36.453  22.497  24.636  1.00  0.00     0.126 C 
ATOM      9  C   UNL A   1      36.897  22.765  23.198  1.00  0.00     0.025 C 
BRANCH   8  10
ATOM     10  C   UNL A   1      35.054  23.071  24.868  1.00  0.00    -0.034 A 
ATOM     11  C   UNL A   1      32.499  24.251  25.346  1.00  0.00    -0.048 A 
ATOM     12  C   UNL A   1      32.649  23.156  24.480  1.00  0.00     0.004 A 
ATOM     13  C   UNL A   1      33.639  24.739  25.989  1.00  0.00     0.004 A 
ATOM     14  C   UNL A   1      33.907  22.574  24.242  1.00  0.00     0.005 A 
ATOM     15  C   UNL A   1      34.893  24.147  25.767  1.00  0.00     0.005 A 
BRANCH  11  16
ATOM     16  C   UNL A   1      31.137  24.864  25.604  1.00  0.00     0.038 C 
BRANCH  16  17
ATOM     17  C   UNL A   1      30.834  26.195  24.879  1.00  0.00    -0.013 C 
ATOM     18  C   UNL A   1      31.670  26.381  23.614  1.00  0.00     0.008 C 
ATOM     19  C   UNL A   1      29.350  26.260  24.494  1.00  0.00     0.008 C 
ENDBRANCH  16  17
ENDBRANCH  11  16
ENDBRANCH   8  10
ENDBRANCH   6   8
ENDBRANCH   5   6
ENDBRANCH   4   5
ENDBRANCH   3   4
ENDBRANCH   2   3
ENDBRANCH   1   2
BRANCH   1  20
ATOM     20  C   UNL A   1      43.147  22.207  25.261  1.00  0.00     0.188 C 
BRANCH  20  21
ATOM     21  O   UNL A   1      44.422  22.649  25.642  1.00  0.00    -0.376 OA
BRANCH  21  22
ATOM     22  C   UNL A   1      44.576  23.666  26.604  1.00  0.00     0.202 C 
BRANCH  22  23
ATOM     23  C   UNL A   1      43.424  24.317  27.386  1.00  0.00     0.261 C 
BRANCH  23  24
ATOM     24  O   UNL A   1      42.161  24.462  26.736  1.00  0.00    -0.460 OA
BRANCH  24  25
ATOM     25  C   UNL A   1      41.883  25.678  26.207  1.00  0.00     0.338 C 
ATOM     26  O   UNL A   1      41.804  25.970  25.025  1.00  0.00    -0.246 OA
BRANCH  25  27
ATOM     27  C   UNL A   1      41.495  26.557  27.327  1.00  0.00     0.060 A 
ATOM     28  C   UNL A   1      42.145  27.788  27.510  1.00  0.00     0.016 A 
ATOM     29  C   UNL A   1      40.467  26.162  28.182  1.00  0.00     0.016 A 
ATOM     30  C   UNL A   1      41.779  28.620  28.572  1.00  0.00     0.010 A 
ATOM     31  C   UNL A   1      40.118  26.982  29.252  1.00  0.00     0.010 A 
ATOM     32  C   UNL A   1      40.790  28.200  29.471  1.00  0.00    -0.014 A 
BRANCH  32  33
ATOM     33  C   UNL A   1      40.571  28.895  30.760  1.00  0.00     0.031 A 
ATOM     34  C   UNL A   1      39.508  29.955  30.814  1.00  0.00     0.074 A 
ATOM     35  C   UNL A   1      41.344  28.655  31.834  1.00  0.00     0.049 A 
ATOM     36  N   UNL A   1      39.256  30.837  31.745  1.00  0.00    -0.248 NA
ATOM     37  C   UNL A   1      38.618  30.039  29.643  1.00  0.00     0.031 C 
ATOM     38  C   UNL A   1      42.364  27.614  31.933  1.00  0.00     0.029 A 
ATOM     39  N   UNL A   1      41.399  29.302  33.044  1.00  0.00    -0.354 N 
ATOM     40  C   UNL A   1      38.199  31.599  31.261  1.00  0.00     0.074 A 
ATOM     41  C   UNL A   1      37.876  31.091  29.946  1.00  0.00     0.031 C 
ATOM     42  C   UNL A   1      42.959  27.704  33.135  1.00  0.00     0.029 A 
ATOM     43  C   UNL A   1      42.400  28.841  33.865  1.00  0.00     0.049 A 
ATOM     44  H   UNL A   1      40.782  30.026  33.297  1.00  0.00     0.167 HD
ATOM     45  C   UNL A   1      37.558  32.633  31.857  1.00  0.00     0.031 A 
ATOM     46  C   UNL A   1      42.836  29.309  35.054  1.00  0.00     0.031 A 
ATOM     47  C   UNL A   1      37.910  33.155  33.151  1.00  0.00     0.049 A 
ATOM     48  C   UNL A   1      42.180  30.527  35.656  1.00  0.00     0.074 A 
ATOM     49  C   UNL A   1      37.327  34.198  33.847  1.00  0.00     0.029 A 
ATOM     50  N   UNL A   1      38.951  32.680  33.938  1.00  0.00    -0.354 N 
ATOM     51  N   UNL A   1      41.181  31.242  35.195  1.00  0.00    -0.248 NA
ATOM     52  C   UNL A   1      42.713  30.999  36.943  1.00  0.00     0.031 C 
ATOM     53  C   UNL A   1      38.055  34.397  35.025  1.00  0.00     0.029 A 
ATOM     54  C   UNL A   1      39.042  33.426  35.101  1.00  0.00     0.049 A 
ATOM     55  H   UNL A   1      39.537  31.924  33.704  1.00  0.00     0.167 HD
ATOM     56  C   UNL A   1      40.938  32.221  36.155  1.00  0.00     0.074 A 
ATOM     57  C   UNL A   1      41.897  32.006  37.220  1.00  0.00     0.031 C 
ATOM     58  C   UNL A   1      39.998  33.200  36.158  1.00  0.00     0.031 A 
BRANCH  45  59
ATOM     59  C   UNL A   1      36.454  33.298  31.076  1.00  0.00    -0.014 A 
ATOM     60  C   UNL A   1      36.695  33.891  29.823  1.00  0.00     0.010 A 
ATOM     61  C   UNL A   1      35.156  33.348  31.615  1.00  0.00     0.010 A 
ATOM     62  C   UNL A   1      35.677  34.578  29.156  1.00  0.00     0.020 A 
ATOM     63  C   UNL A   1      34.125  34.002  30.934  1.00  0.00     0.020 A 
ATOM     64  C   UNL A   1      34.400  34.637  29.722  1.00  0.00     0.054 A 
BRANCH  64  65
ATOM     65  S   UNL A   1      33.105  35.556  28.847  1.00  0.00     0.124 S 
ATOM     66  O   UNL A   1      32.333  36.115  29.955  1.00  0.00    -0.237 OA
ATOM     67  O   UNL A   1      33.870  36.523  28.065  1.00  0.00    -0.237 OA
ATOM     68  O   UNL A   1      32.417  34.531  28.066  1.00  0.00    -0.744 OA
ENDBRANCH  64  65
ENDBRANCH  45  59
BRANCH  46  69
ATOM     69  C   UNL A   1      43.952  28.618  35.755  1.00  0.00    -0.014 A 
ATOM     70  C   UNL A   1      43.680  27.595  36.680  1.00  0.00     0.010 A 
ATOM     71  C   UNL A   1      45.293  28.955  35.486  1.00  0.00     0.010 A 
ATOM     72  C   UNL A   1      44.723  26.921  37.321  1.00  0.00     0.020 A 
ATOM     73  C   UNL A   1      46.339  28.264  36.104  1.00  0.00     0.020 A 
ATOM     74  C   UNL A   1      46.047  27.252  37.020  1.00  0.00     0.054 A 
BRANCH  74  75
ATOM     75  S   UNL A   1      47.380  26.302  37.804  1.00  0.00     0.124 S 
ATOM     76  O   UNL A   1      48.472  26.463  36.848  1.00  0.00    -0.237 OA
ATOM     77  O   UNL A   1      47.548  26.994  39.079  1.00  0.00    -0.237 OA
ATOM     78  O   UNL A   1      46.828  24.953  37.904  1.00  0.00    -0.744 OA
ENDBRANCH  74  75
ENDBRANCH  46  69
BRANCH  58  79
ATOM     79  C   UNL A   1      39.905  34.084  37.377  1.00  0.00    -0.014 A 
ATOM     80  C   UNL A   1      40.697  35.237  37.520  1.00  0.00     0.010 A 
ATOM     81  C   UNL A   1      38.943  33.791  38.363  1.00  0.00     0.010 A 
ATOM     82  C   UNL A   1      40.544  36.066  38.636  1.00  0.00     0.020 A 
ATOM     83  C   UNL A   1      38.765  34.633  39.463  1.00  0.00     0.020 A 
ATOM     84  C   UNL A   1      39.575  35.761  39.599  1.00  0.00     0.054 A 
BRANCH  84  85
ATOM     85  S   UNL A   1      39.355  36.887  41.004  1.00  0.00     0.124 S 
ATOM     86  O   UNL A   1      38.446  37.888  40.453  1.00  0.00    -0.237 OA
ATOM     87  O   UNL A   1      38.784  36.014  42.026  1.00  0.00    -0.237 OA
ATOM     88  O   UNL A   1      40.709  37.362  41.285  1.00  0.00    -0.744 OA
ENDBRANCH  84  85
ENDBRANCH  58  79
ENDBRANCH  32  33
ENDBRANCH  25  27
ENDBRANCH  24  25
ENDBRANCH  23  24
ENDBRANCH  22  23
ENDBRANCH  21  22
ENDBRANCH  20  21
ENDBRANCH   1  20
TORSDOF 23
ENDMDL
MODEL 2
REMARK VINA RESULT:      -8.2      4.765      7.245
REMARK SMILES CC(C)Cc1ccc([C@@H](C)C(=O)OCCOCCOCCOC(=O)c2ccc(-c3c4nc(c(-c5ccc(S(=O)(=O)[O-])cc5)c5ccc([nH]5)c(-c5ccc(S(=O)(=O)[O-])cc5)c5nc(c(-c6ccc(S(=O)(=O)[O-])cc6)c6ccc3[nH]6)C=C5)C=C4)cc2)cc1
REMARK SMILES IDX 17 1 16 2 15 3 14 4 13 5 11 6 12 7 9 8 10 9 8 10 5 11 6 12
REMARK SMILES IDX 86 13 7 14 85 15 4 16 2 17 1 18 3 19 18 20 19 21 20 22 21 23
REMARK SMILES IDX 22 24 23 25 24 26 25 27 26 28 84 29 27 30 83 31 28 32 29 33
REMARK SMILES IDX 30 34 77 35 31 36 82 37 76 38 78 39 32 40 81 41 75 42 74 43
REMARK SMILES IDX 33 45 63 46 44 47 62 48 45 49 48 50 61 51 79 52 46 53 47 54
REMARK SMILES IDX 60 56 80 57 49 58 34 59 35 60 43 61 36 62 42 63 37 64 38 65
REMARK SMILES IDX 39 66 40 67 41 68 64 69 65 70 73 71 66 72 72 73 67 74 68 75
REMARK SMILES IDX 69 76 70 77 71 78 50 79 51 80 59 81 52 82 58 83 53 84 54 85
REMARK SMILES IDX 55 86 56 87 57 88
REMARK H PARENT 78 44 48 55
REMARK Flexibility Score: inf
ROOT
ATOM      1  C   UNL A   1      40.177  20.961  25.985  1.00  0.00     0.188 C 
ENDROOT
BRANCH   1   2
ATOM      2  O   UNL A   1      39.986  21.782  27.130  1.00  0.00    -0.376 OA
BRANCH   2   3
ATOM      3  C   UNL A   1      40.327  23.161  27.056  1.00  0.00     0.202 C 
BRANCH   3   4
ATOM      4  C   UNL A   1      39.271  24.225  27.403  1.00  0.00     0.261 C 
BRANCH   4   5
ATOM      5  O   UNL A   1      39.651  25.596  27.142  1.00  0.00    -0.463 OA
BRANCH   5   6
ATOM      6  C   UNL A   1      40.061  26.324  28.212  1.00  0.00     0.313 C 
ATOM      7  O   UNL A   1      40.865  25.898  29.042  1.00  0.00    -0.252 OA
BRANCH   6   8
ATOM      8  C   UNL A   1      39.492  27.741  28.340  1.00  0.00     0.126 C 
ATOM      9  C   UNL A   1      40.083  28.599  27.222  1.00  0.00     0.025 C 
BRANCH   8  10
ATOM     10  C   UNL A   1      39.534  28.505  29.664  1.00  0.00    -0.034 A 
ATOM     11  C   UNL A   1      39.659  30.033  32.073  1.00  0.00    -0.048 A 
ATOM     12  C   UNL A   1      38.876  28.872  31.983  1.00  0.00     0.004 A 
ATOM     13  C   UNL A   1      40.399  30.414  30.950  1.00  0.00     0.004 A 
ATOM     14  C   UNL A   1      38.812  28.119  30.797  1.00  0.00     0.005 A 
ATOM     15  C   UNL A   1      40.350  29.652  29.771  1.00  0.00     0.005 A 
BRANCH  11  16
ATOM     16  C   UNL A   1      39.729  30.833  33.358  1.00  0.00     0.038 C 
BRANCH  16  17
ATOM     17  C   UNL A   1      41.085  30.825  34.100  1.00  0.00    -0.013 C 
ATOM     18  C   UNL A   1      41.161  31.883  35.199  1.00  0.00     0.008 C 
ATOM     19  C   UNL A   1      41.332  29.450  34.733  1.00  0.00     0.008 C 
ENDBRANCH  16  17
ENDBRANCH  11  16
ENDBRANCH   8  10
ENDBRANCH   6   8
ENDBRANCH   5   6
ENDBRANCH   4   5
ENDBRANCH   3   4
ENDBRANCH   2   3
ENDBRANCH   1   2
BRANCH   1  20
ATOM     20  C   UNL A   1      40.937  19.634  26.137  1.00  0.00     0.188 C 
BRANCH  20  21
ATOM     21  O   UNL A   1      42.163  19.551  25.459  1.00  0.00    -0.376 OA
BRANCH  21  22
ATOM     22  C   UNL A   1      43.184  20.491  25.699  1.00  0.00     0.202 C 
BRANCH  22  23
ATOM     23  C   UNL A   1      44.468  20.626  24.865  1.00  0.00     0.261 C 
BRANCH  23  24
ATOM     24  O   UNL A   1      45.337  21.727  25.132  1.00  0.00    -0.460 OA
BRANCH  24  25
ATOM     25  C   UNL A   1      44.955  22.936  24.653  1.00  0.00     0.338 C 
ATOM     26  O   UNL A   1      44.593  23.201  23.518  1.00  0.00    -0.246 OA
BRANCH  25  27
ATOM     27  C   UNL A   1      44.867  23.850  25.808  1.00  0.00     0.060 A 
ATOM     28  C   UNL A   1      46.037  24.382  26.373  1.00  0.00     0.016 A 
ATOM     29  C   UNL A   1      43.614  24.193  26.314  1.00  0.00     0.016 A 
ATOM     30  C   UNL A   1      45.954  25.247  27.468  1.00  0.00     0.010 A 
ATOM     31  C   UNL A   1      43.534  25.039  27.418  1.00  0.00     0.010 A 
ATOM     32  C   UNL A   1      44.701  25.546  28.019  1.00  0.00    -0.014 A 
BRANCH  32  33
ATOM     33  C   UNL A   1      44.575  26.209  29.337  1.00  0.00     0.031 A 
ATOM     34  C   UNL A   1      44.356  27.696  29.356  1.00  0.00     0.074 A 
ATOM     35  C   UNL A   1      44.729  25.532  30.488  1.00  0.00     0.049 A 
ATOM     36  N   UNL A   1      44.412  28.534  30.357  1.00  0.00    -0.248 NA
ATOM     37  C   UNL A   1      44.048  28.321  28.058  1.00  0.00     0.031 C 
ATOM     38  C   UNL A   1      44.884  24.085  30.609  1.00  0.00     0.029 A 
ATOM     39  N   UNL A   1      44.808  25.993  31.780  1.00  0.00    -0.354 N 
ATOM     40  C   UNL A   1      44.176  29.788  29.807  1.00  0.00     0.074 A 
ATOM     41  C   UNL A   1      44.001  29.602  28.384  1.00  0.00     0.031 C 
ATOM     42  C   UNL A   1      45.057  23.776  31.907  1.00  0.00     0.029 A 
ATOM     43  C   UNL A   1      45.080  25.007  32.696  1.00  0.00     0.049 A 
ATOM     44  H   UNL A   1      44.682  26.938  32.024  1.00  0.00     0.167 HD
ATOM     45  C   UNL A   1      44.115  30.989  30.432  1.00  0.00     0.031 A 
ATOM     46  C   UNL A   1      45.353  25.094  34.015  1.00  0.00     0.031 A 
ATOM     47  C   UNL A   1      44.325  31.169  31.843  1.00  0.00     0.049 A 
ATOM     48  C   UNL A   1      45.385  26.450  34.676  1.00  0.00     0.074 A 
ATOM     49  C   UNL A   1      44.286  32.340  32.578  1.00  0.00     0.029 A 
ATOM     50  N   UNL A   1      44.630  30.148  32.734  1.00  0.00    -0.354 N 
ATOM     51  N   UNL A   1      45.161  27.632  34.152  1.00  0.00    -0.248 NA
ATOM     52  C   UNL A   1      45.708  26.481  36.110  1.00  0.00     0.031 C 
ATOM     53  C   UNL A   1      44.631  32.037  33.900  1.00  0.00     0.029 A 
ATOM     54  C   UNL A   1      44.806  30.666  34.005  1.00  0.00     0.049 A 
ATOM     55  H   UNL A   1      44.708  29.196  32.496  1.00  0.00     0.167 HD
ATOM     56  C   UNL A   1      45.272  28.541  35.200  1.00  0.00     0.074 A 
ATOM     57  C   UNL A   1      45.586  27.772  36.387  1.00  0.00     0.031 C 
ATOM     58  C   UNL A   1      45.114  29.889  35.182  1.00  0.00     0.031 A 
BRANCH  45  59
ATOM     59  C   UNL A   1      43.869  32.200  29.569  1.00  0.00    -0.014 A 
ATOM     60  C   UNL A   1      42.642  32.888  29.602  1.00  0.00     0.010 A 
ATOM     61  C   UNL A   1      44.877  32.646  28.695  1.00  0.00     0.010 A 
ATOM     62  C   UNL A   1      42.404  33.955  28.731  1.00  0.00     0.020 A 
ATOM     63  C   UNL A   1      44.657  33.736  27.849  1.00  0.00     0.020 A 
ATOM     64  C   UNL A   1      43.411  34.366  27.853  1.00  0.00     0.054 A 
BRANCH  64  65
ATOM     65  S   UNL A   1      43.067  35.736  26.717  1.00  0.00     0.124 S 
ATOM     66  O   UNL A   1      44.245  36.581  26.899  1.00  0.00    -0.237 OA
ATOM     67  O   UNL A   1      42.970  35.064  25.424  1.00  0.00    -0.237 OA
ATOM     68  O   UNL A   1      41.815  36.298  27.218  1.00  0.00    -0.744 OA
ENDBRANCH  64  65
ENDBRANCH  45  59
BRANCH  46  69
ATOM     69  C   UNL A   1      45.615  23.856  34.799  1.00  0.00    -0.014 A 
ATOM     70  C   UNL A   1      46.873  23.233  34.736  1.00  0.00     0.010 A 
ATOM     71  C   UNL A   1      44.623  23.308  35.635  1.00  0.00     0.010 A 
ATOM     72  C   UNL A   1      47.137  22.087  35.493  1.00  0.00     0.020 A 
ATOM     73  C   UNL A   1      44.892  22.178  36.414  1.00  0.00     0.020 A 
ATOM     74  C   UNL A   1      46.148  21.574  36.335  1.00  0.00     0.054 A 
BRANCH  74  75
ATOM     75  S   UNL A   1      46.546  20.136  37.369  1.00  0.00     0.124 S 
ATOM     76  O   UNL A   1      46.029  20.544  38.672  1.00  0.00    -0.237 OA
ATOM     77  O   UNL A   1      45.813  19.062  36.704  1.00  0.00    -0.237 OA
ATOM     78  O   UNL A   1      48.001  20.038  37.274  1.00  0.00    -0.744 OA
ENDBRANCH  74  75
ENDBRANCH  46  69
BRANCH  58  79
ATOM     79  C   UNL A   1      45.213  30.628  36.493  1.00  0.00    -0.014 A 
ATOM     80  C   UNL A   1      46.421  31.194  36.937  1.00  0.00     0.010 A 
ATOM     81  C   UNL A   1      44.047  30.825  37.258  1.00  0.00     0.010 A 
ATOM     82  C   UNL A   1      46.465  31.923  38.131  1.00  0.00     0.020 A 
ATOM     83  C   UNL A   1      44.079  31.579  38.434  1.00  0.00     0.020 A 
ATOM     84  C   UNL A   1      45.292  32.114  38.869  1.00  0.00     0.054 A 
BRANCH  84  85
ATOM     85  S   UNL A   1      45.363  33.115  40.380  1.00  0.00     0.124 S 
ATOM     86  O   UNL A   1      45.326  34.474  39.848  1.00  0.00    -0.237 OA
ATOM     87  O   UNL A   1      44.168  32.690  41.102  1.00  0.00    -0.237 OA
ATOM     88  O   UNL A   1      46.630  32.723  40.997  1.00  0.00    -0.744 OA
ENDBRANCH  84  85
ENDBRANCH  58  79
ENDBRANCH  32  33
ENDBRANCH  25  27
ENDBRANCH  24  25
ENDBRANCH  23  24
ENDBRANCH  22  23
ENDBRANCH  21  22
ENDBRANCH  20  21
ENDBRANCH   1  20
TORSDOF 23
ENDMDL
MODEL 3
REMARK VINA RESULT:      -7.9      6.301     10.243
REMARK SMILES CC(C)Cc1ccc([C@@H](C)C(=O)OCCOCCOCCOC(=O)c2ccc(-c3c4nc(c(-c5ccc(S(=O)(=O)[O-])cc5)c5ccc([nH]5)c(-c5ccc(S(=O)(=O)[O-])cc5)c5nc(c(-c6ccc(S(=O)(=O)[O-])cc6)c6ccc3[nH]6)C=C5)C=C4)cc2)cc1
REMARK SMILES IDX 17 1 16 2 15 3 14 4 13 5 11 6 12 7 9 8 10 9 8 10 5 11 6 12
REMARK SMILES IDX 86 13 7 14 85 15 4 16 2 17 1 18 3 19 18 20 19 21 20 22 21 23
REMARK SMILES IDX 22 24 23 25 24 26 25 27 26 28 84 29 27 30 83 31 28 32 29 33
REMARK SMILES IDX 30 34 77 35 31 36 82 37 76 38 78 39 32 40 81 41 75 42 74 43
REMARK SMILES IDX 33 45 63 46 44 47 62 48 45 49 48 50 61 51 79 52 46 53 47 54
REMARK SMILES IDX 60 56 80 57 49 58 34 59 35 60 43 61 36 62 42 63 37 64 38 65
REMARK SMILES IDX 39 66 40 67 41 68 64 69 65 70 73 71 66 72 72 73 67 74 68 75
REMARK SMILES IDX 69 76 70 77 71 78 50 79 51 80 59 81 52 82 58 83 53 84 54 85
REMARK SMILES IDX 55 86 56 87 57 88
REMARK H PARENT 78 44 48 55
REMARK Flexibility Score: inf
ROOT
ATOM      1  C   UNL A   1      35.144  32.900  31.440  1.00  0.00     0.188 C 
ENDROOT
BRANCH   1   2
ATOM      2  O   UNL A   1      34.293  32.559  30.353  1.00  0.00    -0.376 OA
BRANCH   2   3
ATOM      3  C   UNL A   1      34.507  33.175  29.088  1.00  0.00     0.202 C 
BRANCH   3   4
ATOM      4  C   UNL A   1      35.149  32.365  27.948  1.00  0.00     0.261 C 
BRANCH   4   5
ATOM      5  O   UNL A   1      34.227  31.710  27.046  1.00  0.00    -0.463 OA
BRANCH   5   6
ATOM      6  C   UNL A   1      34.073  30.371  27.207  1.00  0.00     0.313 C 
ATOM      7  O   UNL A   1      34.764  29.707  27.980  1.00  0.00    -0.252 OA
BRANCH   6   8
ATOM      8  C   UNL A   1      32.961  29.703  26.390  1.00  0.00     0.126 C 
ATOM      9  C   UNL A   1      31.792  29.399  27.327  1.00  0.00     0.025 C 
BRANCH   8  10
ATOM     10  C   UNL A   1      33.242  28.495  25.494  1.00  0.00    -0.034 A 
ATOM     11  C   UNL A   1      33.718  26.165  23.915  1.00  0.00    -0.048 A 
ATOM     12  C   UNL A   1      33.671  27.443  23.337  1.00  0.00     0.004 A 
ATOM     13  C   UNL A   1      33.546  26.063  25.298  1.00  0.00     0.004 A 
ATOM     14  C   UNL A   1      33.435  28.592  24.112  1.00  0.00     0.005 A 
ATOM     15  C   UNL A   1      33.328  27.212  26.076  1.00  0.00     0.005 A 
BRANCH  11  16
ATOM     16  C   UNL A   1      33.983  24.934  23.071  1.00  0.00     0.038 C 
BRANCH  16  17
ATOM     17  C   UNL A   1      32.831  24.468  22.154  1.00  0.00    -0.013 C 
ATOM     18  C   UNL A   1      32.607  25.404  20.967  1.00  0.00     0.008 C 
ATOM     19  C   UNL A   1      33.121  23.061  21.614  1.00  0.00     0.008 C 
ENDBRANCH  16  17
ENDBRANCH  11  16
ENDBRANCH   8  10
ENDBRANCH   6   8
ENDBRANCH   5   6
ENDBRANCH   4   5
ENDBRANCH   3   4
ENDBRANCH   2   3
ENDBRANCH   1   2
BRANCH   1  20
ATOM     20  C   UNL A   1      36.186  31.879  31.921  1.00  0.00     0.188 C 
BRANCH  20  21
ATOM     21  O   UNL A   1      35.888  30.533  31.662  1.00  0.00    -0.376 OA
BRANCH  21  22
ATOM     22  C   UNL A   1      36.907  29.621  31.323  1.00  0.00     0.202 C 
BRANCH  22  23
ATOM     23  C   UNL A   1      37.211  29.132  29.898  1.00  0.00     0.261 C 
BRANCH  23  24
ATOM     24  O   UNL A   1      37.789  30.054  28.974  1.00  0.00    -0.460 OA
BRANCH  24  25
ATOM     25  C   UNL A   1      39.118  29.931  28.741  1.00  0.00     0.338 C 
ATOM     26  O   UNL A   1      39.658  29.278  27.864  1.00  0.00    -0.246 OA
BRANCH  25  27
ATOM     27  C   UNL A   1      39.802  30.894  29.627  1.00  0.00     0.060 A 
ATOM     28  C   UNL A   1      39.178  32.107  29.959  1.00  0.00     0.016 A 
ATOM     29  C   UNL A   1      41.057  30.576  30.142  1.00  0.00     0.016 A 
ATOM     30  C   UNL A   1      39.826  33.020  30.796  1.00  0.00     0.010 A 
ATOM     31  C   UNL A   1      41.711  31.495  30.959  1.00  0.00     0.010 A 
ATOM     32  C   UNL A   1      41.114  32.732  31.266  1.00  0.00    -0.014 A 
BRANCH  32  33
ATOM     33  C   UNL A   1      41.954  33.772  31.905  1.00  0.00     0.031 A 
ATOM     34  C   UNL A   1      41.976  33.832  33.407  1.00  0.00     0.074 A 
ATOM     35  C   UNL A   1      42.616  34.691  31.181  1.00  0.00     0.049 A 
ATOM     36  N   UNL A   1      42.458  34.753  34.197  1.00  0.00    -0.248 NA
ATOM     37  C   UNL A   1      41.349  32.698  34.108  1.00  0.00     0.031 C 
ATOM     38  C   UNL A   1      42.726  34.708  29.724  1.00  0.00     0.029 A 
ATOM     39  N   UNL A   1      43.301  35.810  31.587  1.00  0.00    -0.354 N 
ATOM     40  C   UNL A   1      42.168  34.327  35.488  1.00  0.00     0.074 A 
ATOM     41  C   UNL A   1      41.447  33.079  35.371  1.00  0.00     0.031 C 
ATOM     42  C   UNL A   1      43.425  35.797  29.356  1.00  0.00     0.029 A 
ATOM     43  C   UNL A   1      43.760  36.578  30.546  1.00  0.00     0.049 A 
ATOM     44  H   UNL A   1      43.448  36.038  32.533  1.00  0.00     0.167 HD
ATOM     45  C   UNL A   1      42.471  34.924  36.665  1.00  0.00     0.031 A 
ATOM     46  C   UNL A   1      44.350  37.792  30.553  1.00  0.00     0.031 A 
ATOM     47  C   UNL A   1      43.158  36.184  36.771  1.00  0.00     0.049 A 
ATOM     48  C   UNL A   1      44.587  38.493  31.867  1.00  0.00     0.074 A 
ATOM     49  C   UNL A   1      43.516  36.878  37.913  1.00  0.00     0.029 A 
ATOM     50  N   UNL A   1      43.580  36.947  35.690  1.00  0.00    -0.354 N 
ATOM     51  N   UNL A   1      44.311  38.085  33.084  1.00  0.00    -0.248 NA
ATOM     52  C   UNL A   1      45.216  39.821  31.807  1.00  0.00     0.031 C 
ATOM     53  C   UNL A   1      44.094  38.090  37.523  1.00  0.00     0.029 A 
ATOM     54  C   UNL A   1      44.170  38.116  36.139  1.00  0.00     0.049 A 
ATOM     55  H   UNL A   1      43.474  36.694  34.745  1.00  0.00     0.167 HD
ATOM     56  C   UNL A   1      44.773  39.085  33.935  1.00  0.00     0.074 A 
ATOM     57  C   UNL A   1      45.343  40.118  33.093  1.00  0.00     0.031 C 
ATOM     58  C   UNL A   1      44.739  39.136  35.291  1.00  0.00     0.031 A 
BRANCH  45  59
ATOM     59  C   UNL A   1      42.000  34.241  37.923  1.00  0.00    -0.014 A 
ATOM     60  C   UNL A   1      40.746  34.532  38.491  1.00  0.00     0.010 A 
ATOM     61  C   UNL A   1      42.836  33.305  38.559  1.00  0.00     0.010 A 
ATOM     62  C   UNL A   1      40.366  33.951  39.705  1.00  0.00     0.020 A 
ATOM     63  C   UNL A   1      42.444  32.694  39.754  1.00  0.00     0.020 A 
ATOM     64  C   UNL A   1      41.222  33.043  40.333  1.00  0.00     0.054 A 
BRANCH  64  65
ATOM     65  S   UNL A   1      40.715  32.325  41.919  1.00  0.00     0.124 S 
ATOM     66  O   UNL A   1      41.154  30.939  41.774  1.00  0.00    -0.237 OA
ATOM     67  O   UNL A   1      41.464  33.123  42.885  1.00  0.00    -0.237 OA
ATOM     68  O   UNL A   1      39.267  32.520  41.941  1.00  0.00    -0.744 OA
ENDBRANCH  64  65
ENDBRANCH  45  59
BRANCH  46  69
ATOM     69  C   UNL A   1      44.764  38.420  29.268  1.00  0.00    -0.014 A 
ATOM     70  C   UNL A   1      43.849  39.195  28.534  1.00  0.00     0.010 A 
ATOM     71  C   UNL A   1      46.078  38.274  28.782  1.00  0.00     0.010 A 
ATOM     72  C   UNL A   1      44.237  39.812  27.342  1.00  0.00     0.020 A 
ATOM     73  C   UNL A   1      46.478  38.914  27.605  1.00  0.00     0.020 A 
ATOM     74  C   UNL A   1      45.553  39.677  26.891  1.00  0.00     0.054 A 
BRANCH  74  75
ATOM     75  S   UNL A   1      46.051  40.560  25.385  1.00  0.00     0.124 S 
ATOM     76  O   UNL A   1      44.776  41.086  24.904  1.00  0.00    -0.237 OA
ATOM     77  O   UNL A   1      46.991  41.551  25.901  1.00  0.00    -0.237 OA
ATOM     78  O   UNL A   1      46.650  39.516  24.557  1.00  0.00    -0.744 OA
ENDBRANCH  74  75
ENDBRANCH  46  69
BRANCH  58  79
ATOM     79  C   UNL A   1      45.391  40.316  35.969  1.00  0.00    -0.014 A 
ATOM     80  C   UNL A   1      46.765  40.335  36.265  1.00  0.00     0.010 A 
ATOM     81  C   UNL A   1      44.618  41.461  36.242  1.00  0.00     0.010 A 
ATOM     82  C   UNL A   1      47.348  41.469  36.842  1.00  0.00     0.020 A 
ATOM     83  C   UNL A   1      45.202  42.607  36.787  1.00  0.00     0.020 A 
ATOM     84  C   UNL A   1      46.563  42.600  37.095  1.00  0.00     0.054 A 
BRANCH  84  85
ATOM     85  S   UNL A   1      47.356  44.078  37.785  1.00  0.00     0.124 S 
ATOM     86  O   UNL A   1      47.922  43.567  39.031  1.00  0.00    -0.237 OA
ATOM     87  O   UNL A   1      48.326  44.431  36.753  1.00  0.00    -0.237 OA
ATOM     88  O   UNL A   1      46.252  45.023  37.945  1.00  0.00    -0.744 OA
ENDBRANCH  84  85
ENDBRANCH  58  79
ENDBRANCH  32  33
ENDBRANCH  25  27
ENDBRANCH  24  25
ENDBRANCH  23  24
ENDBRANCH  22  23
ENDBRANCH  21  22
ENDBRANCH  20  21
ENDBRANCH   1  20
TORSDOF 23
ENDMDL
