MODEL 1
REMARK VINA RESULT:      -8.3      0.000      0.000
REMARK SMILES CCC[N@@H+](CC1CC[NH2+]CC1)[C@@H](CC)C(=O)OCCOCCOCCOC(=O)c1ccc(-c2c3nc(c(-c4ccc(S(=O)(=O)[O-])cc4)c4ccc([nH]4)c(-c4ccc(S(=O)(=O)[O-])cc4)c4nc(c(-c5ccc(S(=O)(=O)[O-])cc5)c5ccc2[nH]5)C=C4)C=C3)cc1
REMARK SMILES IDX 21 1 20 2 19 3 18 4 17 5 15 6 16 7 12 8 4 9 3 11 2 12 1 13
REMARK SMILES IDX 5 14 6 15 7 16 11 17 8 18 10 19 9 20 13 23 14 24 22 25 23 26
REMARK SMILES IDX 24 27 25 28 26 29 27 30 28 31 29 32 30 33 88 34 31 35 87 36
REMARK SMILES IDX 32 37 33 38 34 39 81 40 35 41 86 42 80 43 82 44 36 45 85 46
REMARK SMILES IDX 79 47 78 48 37 50 67 51 48 52 66 53 49 54 52 55 65 56 83 57
REMARK SMILES IDX 50 58 51 59 64 61 84 62 53 63 38 64 39 65 47 66 40 67 46 68
REMARK SMILES IDX 41 69 42 70 43 71 44 72 45 73 68 74 69 75 77 76 70 77 76 78
REMARK SMILES IDX 71 79 72 80 73 81 74 82 75 83 54 84 55 85 63 86 56 87 62 88
REMARK SMILES IDX 57 89 58 90 59 91 60 92 61 93
REMARK H PARENT 4 10 9 21 9 22 82 49 52 60
REMARK Flexibility Score: inf
ROOT
ATOM      1  C   UNL A   1      34.906  22.643  25.284  1.00  0.00     0.188 C 
ENDROOT
BRANCH   1   2
ATOM      2  O   UNL A   1      33.532  22.808  24.965  1.00  0.00    -0.376 OA
BRANCH   2   3
ATOM      3  C   UNL A   1      32.595  22.346  25.956  1.00  0.00     0.202 C 
BRANCH   3   4
ATOM      4  C   UNL A   1      31.094  22.720  25.856  1.00  0.00     0.261 C 
BRANCH   4   5
ATOM      5  O   UNL A   1      30.780  23.698  24.839  1.00  0.00    -0.459 OA
BRANCH   5   6
ATOM      6  C   UNL A   1      30.580  24.981  25.262  1.00  0.00     0.364 C 
ATOM      7  O   UNL A   1      30.493  25.303  26.443  1.00  0.00    -0.245 OA
BRANCH   6   8
ATOM      8  C   UNL A   1      30.516  26.000  24.102  1.00  0.00     0.294 C 
BRANCH   8   9
ATOM      9  N   UNL A   1      30.466  27.442  24.505  1.00  0.00    -0.323 N 
ATOM     10  H   UNL A   1      30.109  27.255  25.442  1.00  0.00     0.348 HD
BRANCH   9  11
ATOM     11  C   UNL A   1      31.642  28.245  24.874  1.00  0.00     0.262 C 
BRANCH  11  12
ATOM     12  C   UNL A   1      33.151  27.891  24.926  1.00  0.00     0.058 C 
ATOM     13  C   UNL A   1      33.813  27.198  26.088  1.00  0.00     0.010 C 
ENDBRANCH  11  12
ENDBRANCH   9  11
BRANCH   9  14
ATOM     14  C   UNL A   1      29.562  28.253  23.615  1.00  0.00     0.266 C 
BRANCH  14  15
ATOM     15  C   UNL A   1      29.815  29.706  23.046  1.00  0.00     0.055 C 
ATOM     16  C   UNL A   1      29.245  30.869  23.873  1.00  0.00     0.071 C 
ATOM     17  C   UNL A   1      29.618  30.017  21.558  1.00  0.00     0.071 C 
ATOM     18  C   UNL A   1      27.847  31.318  23.482  1.00  0.00     0.261 C 
ATOM     19  C   UNL A   1      28.204  30.444  21.185  1.00  0.00     0.261 C 
ATOM     20  N   UNL A   1      27.639  31.482  22.043  1.00  0.00    -0.346 N 
ATOM     21  H   UNL A   1      28.054  32.372  21.768  1.00  0.00     0.346 HD
ATOM     22  H   UNL A   1      26.630  31.427  21.907  1.00  0.00     0.346 HD
ENDBRANCH  14  15
ENDBRANCH   9  14
ENDBRANCH   8   9
BRANCH   8  23
ATOM     23  C   UNL A   1      31.362  25.476  22.943  1.00  0.00     0.074 C 
ATOM     24  C   UNL A   1      31.716  26.384  21.794  1.00  0.00     0.011 C 
ENDBRANCH   8  23
ENDBRANCH   6   8
ENDBRANCH   5   6
ENDBRANCH   4   5
ENDBRANCH   3   4
ENDBRANCH   2   3
ENDBRANCH   1   2
BRANCH   1  25
ATOM     25  C   UNL A   1      35.846  21.858  24.373  1.00  0.00     0.188 C 
BRANCH  25  26
ATOM     26  O   UNL A   1      36.597  20.790  24.923  1.00  0.00    -0.376 OA
BRANCH  26  27
ATOM     27  C   UNL A   1      37.827  21.138  25.540  1.00  0.00     0.202 C 
BRANCH  27  28
ATOM     28  C   UNL A   1      39.003  20.156  25.411  1.00  0.00     0.261 C 
BRANCH  28  29
ATOM     29  O   UNL A   1      40.307  20.735  25.625  1.00  0.00    -0.460 OA
BRANCH  29  30
ATOM     30  C   UNL A   1      40.778  20.695  26.900  1.00  0.00     0.338 C 
ATOM     31  O   UNL A   1      40.645  19.784  27.708  1.00  0.00    -0.246 OA
BRANCH  30  32
ATOM     32  C   UNL A   1      41.695  21.836  27.114  1.00  0.00     0.060 A 
ATOM     33  C   UNL A   1      42.397  21.955  28.328  1.00  0.00     0.016 A 
ATOM     34  C   UNL A   1      41.824  22.809  26.130  1.00  0.00     0.016 A 
ATOM     35  C   UNL A   1      43.250  23.037  28.549  1.00  0.00     0.010 A 
ATOM     36  C   UNL A   1      42.639  23.916  26.371  1.00  0.00     0.010 A 
ATOM     37  C   UNL A   1      43.342  24.042  27.584  1.00  0.00    -0.014 A 
BRANCH  37  38
ATOM     38  C   UNL A   1      44.015  25.323  27.891  1.00  0.00     0.031 A 
ATOM     39  C   UNL A   1      43.174  26.455  28.409  1.00  0.00     0.074 A 
ATOM     40  C   UNL A   1      45.330  25.492  27.667  1.00  0.00     0.049 A 
ATOM     41  N   UNL A   1      43.484  27.715  28.562  1.00  0.00    -0.248 NA
ATOM     42  C   UNL A   1      41.793  26.118  28.794  1.00  0.00     0.031 C 
ATOM     43  C   UNL A   1      46.259  24.448  27.242  1.00  0.00     0.029 A 
ATOM     44  N   UNL A   1      46.101  26.625  27.739  1.00  0.00    -0.354 N 
ATOM     45  C   UNL A   1      42.329  28.327  29.035  1.00  0.00     0.074 A 
ATOM     46  C   UNL A   1      41.312  27.304  29.133  1.00  0.00     0.031 C 
ATOM     47  C   UNL A   1      47.473  24.996  27.058  1.00  0.00     0.029 A 
ATOM     48  C   UNL A   1      47.391  26.436  27.301  1.00  0.00     0.049 A 
ATOM     49  H   UNL A   1      45.765  27.488  28.073  1.00  0.00     0.167 HD
ATOM     50  C   UNL A   1      42.136  29.630  29.349  1.00  0.00     0.031 A 
ATOM     51  C   UNL A   1      48.372  27.332  27.075  1.00  0.00     0.031 A 
ATOM     52  C   UNL A   1      43.151  30.641  29.222  1.00  0.00     0.049 A 
ATOM     53  C   UNL A   1      48.102  28.795  27.326  1.00  0.00     0.074 A 
ATOM     54  C   UNL A   1      43.065  31.989  29.523  1.00  0.00     0.029 A 
ATOM     55  N   UNL A   1      44.433  30.418  28.741  1.00  0.00    -0.354 N 
ATOM     56  N   UNL A   1      47.014  29.367  27.789  1.00  0.00    -0.248 NA
ATOM     57  C   UNL A   1      49.189  29.734  27.016  1.00  0.00     0.031 C 
ATOM     58  C   UNL A   1      44.272  32.592  29.157  1.00  0.00     0.029 A 
ATOM     59  C   UNL A   1      45.135  31.610  28.694  1.00  0.00     0.049 A 
ATOM     60  H   UNL A   1      44.791  29.541  28.471  1.00  0.00     0.167 HD
ATOM     61  C   UNL A   1      47.293  30.729  27.842  1.00  0.00     0.074 A 
ATOM     62  C   UNL A   1      48.659  30.892  27.388  1.00  0.00     0.031 C 
ATOM     63  C   UNL A   1      46.493  31.754  28.230  1.00  0.00     0.031 A 
BRANCH  50  64
ATOM     64  C   UNL A   1      40.761  30.038  29.806  1.00  0.00    -0.014 A 
ATOM     65  C   UNL A   1      40.435  30.123  31.171  1.00  0.00     0.010 A 
ATOM     66  C   UNL A   1      39.783  30.371  28.849  1.00  0.00     0.010 A 
ATOM     67  C   UNL A   1      39.148  30.495  31.571  1.00  0.00     0.020 A 
ATOM     68  C   UNL A   1      38.505  30.772  29.244  1.00  0.00     0.020 A 
ATOM     69  C   UNL A   1      38.191  30.817  30.604  1.00  0.00     0.054 A 
BRANCH  69  70
ATOM     70  S   UNL A   1      36.537  31.319  31.152  1.00  0.00     0.124 S 
ATOM     71  O   UNL A   1      36.142  30.192  31.992  1.00  0.00    -0.237 OA
ATOM     72  O   UNL A   1      36.803  32.569  31.862  1.00  0.00    -0.237 OA
ATOM     73  O   UNL A   1      35.784  31.461  29.908  1.00  0.00    -0.744 OA
ENDBRANCH  69  70
ENDBRANCH  50  64
BRANCH  51  74
ATOM     74  C   UNL A   1      49.688  26.880  26.540  1.00  0.00    -0.014 A 
ATOM     75  C   UNL A   1      50.742  26.560  27.412  1.00  0.00     0.010 A 
ATOM     76  C   UNL A   1      49.893  26.765  25.152  1.00  0.00     0.010 A 
ATOM     77  C   UNL A   1      51.978  26.143  26.907  1.00  0.00     0.020 A 
ATOM     78  C   UNL A   1      51.117  26.319  24.644  1.00  0.00     0.020 A 
ATOM     79  C   UNL A   1      52.156  26.019  25.526  1.00  0.00     0.054 A 
BRANCH  79  80
ATOM     80  S   UNL A   1      53.749  25.416  24.902  1.00  0.00     0.124 S 
ATOM     81  O   UNL A   1      54.662  25.800  25.973  1.00  0.00    -0.237 OA
ATOM     82  O   UNL A   1      53.508  23.982  24.759  1.00  0.00    -0.237 OA
ATOM     83  O   UNL A   1      53.921  26.139  23.643  1.00  0.00    -0.744 OA
ENDBRANCH  79  80
ENDBRANCH  51  74
BRANCH  63  84
ATOM     84  C   UNL A   1      47.072  33.145  28.193  1.00  0.00    -0.014 A 
ATOM     85  C   UNL A   1      46.934  33.959  27.055  1.00  0.00     0.010 A 
ATOM     86  C   UNL A   1      47.695  33.672  29.340  1.00  0.00     0.010 A 
ATOM     87  C   UNL A   1      47.429  35.265  27.056  1.00  0.00     0.020 A 
ATOM     88  C   UNL A   1      48.163  34.988  29.356  1.00  0.00     0.020 A 
ATOM     89  C   UNL A   1      48.035  35.774  28.209  1.00  0.00     0.054 A 
BRANCH  89  90
ATOM     90  S   UNL A   1      48.612  37.493  28.202  1.00  0.00     0.124 S 
ATOM     91  O   UNL A   1      48.047  38.001  26.956  1.00  0.00    -0.237 OA
ATOM     92  O   UNL A   1      48.023  38.033  29.426  1.00  0.00    -0.237 OA
ATOM     93  O   UNL A   1      50.068  37.372  28.220  1.00  0.00    -0.744 OA
ENDBRANCH  89  90
ENDBRANCH  63  84
ENDBRANCH  37  38
ENDBRANCH  30  32
ENDBRANCH  29  30
ENDBRANCH  28  29
ENDBRANCH  27  28
ENDBRANCH  26  27
ENDBRANCH  25  26
ENDBRANCH   1  25
TORSDOF 26
ENDMDL
MODEL 2
REMARK VINA RESULT:      -8.1      1.497      2.815
REMARK SMILES CCC[N@@H+](CC1CC[NH2+]CC1)[C@@H](CC)C(=O)OCCOCCOCCOC(=O)c1ccc(-c2c3nc(c(-c4ccc(S(=O)(=O)[O-])cc4)c4ccc([nH]4)c(-c4ccc(S(=O)(=O)[O-])cc4)c4nc(c(-c5ccc(S(=O)(=O)[O-])cc5)c5ccc2[nH]5)C=C4)C=C3)cc1
REMARK SMILES IDX 21 1 20 2 19 3 18 4 17 5 15 6 16 7 12 8 4 9 3 11 2 12 1 13
REMARK SMILES IDX 5 14 6 15 7 16 11 17 8 18 10 19 9 20 13 23 14 24 22 25 23 26
REMARK SMILES IDX 24 27 25 28 26 29 27 30 28 31 29 32 30 33 88 34 31 35 87 36
REMARK SMILES IDX 32 37 33 38 34 39 81 40 35 41 86 42 80 43 82 44 36 45 85 46
REMARK SMILES IDX 79 47 78 48 37 50 67 51 48 52 66 53 49 54 52 55 65 56 83 57
REMARK SMILES IDX 50 58 51 59 64 61 84 62 53 63 38 64 39 65 47 66 40 67 46 68
REMARK SMILES IDX 41 69 42 70 43 71 44 72 45 73 68 74 69 75 77 76 70 77 76 78
REMARK SMILES IDX 71 79 72 80 73 81 74 82 75 83 54 84 55 85 63 86 56 87 62 88
REMARK SMILES IDX 57 89 58 90 59 91 60 92 61 93
REMARK H PARENT 4 10 9 21 9 22 82 49 52 60
REMARK Flexibility Score: inf
ROOT
ATOM      1  C   UNL A   1      36.455  23.611  24.114  1.00  0.00     0.188 C 
ENDROOT
BRANCH   1   2
ATOM      2  O   UNL A   1      35.480  23.209  23.164  1.00  0.00    -0.376 OA
BRANCH   2   3
ATOM      3  C   UNL A   1      34.336  24.073  23.030  1.00  0.00     0.202 C 
BRANCH   3   4
ATOM      4  C   UNL A   1      33.125  23.933  23.988  1.00  0.00     0.261 C 
BRANCH   4   5
ATOM      5  O   UNL A   1      31.839  24.192  23.381  1.00  0.00    -0.459 OA
BRANCH   5   6
ATOM      6  C   UNL A   1      31.622  25.460  22.920  1.00  0.00     0.364 C 
ATOM      7  O   UNL A   1      31.750  25.789  21.745  1.00  0.00    -0.245 OA
BRANCH   6   8
ATOM      8  C   UNL A   1      31.157  26.435  24.024  1.00  0.00     0.294 C 
BRANCH   8   9
ATOM      9  N   UNL A   1      31.318  27.893  23.715  1.00  0.00    -0.323 N 
ATOM     10  H   UNL A   1      31.593  27.743  22.744  1.00  0.00     0.348 HD
BRANCH   9  11
ATOM     11  C   UNL A   1      30.201  28.822  23.485  1.00  0.00     0.262 C 
BRANCH  11  12
ATOM     12  C   UNL A   1      29.854  29.732  22.279  1.00  0.00     0.058 C 
ATOM     13  C   UNL A   1      29.100  31.031  22.394  1.00  0.00     0.010 C 
ENDBRANCH  11  12
ENDBRANCH   9  11
BRANCH   9  14
ATOM     14  C   UNL A   1      32.350  28.552  24.590  1.00  0.00     0.266 C 
BRANCH  14  15
ATOM     15  C   UNL A   1      32.450  28.510  26.167  1.00  0.00     0.055 C 
ATOM     16  C   UNL A   1      31.804  29.682  26.921  1.00  0.00     0.071 C 
ATOM     17  C   UNL A   1      33.764  28.140  26.865  1.00  0.00     0.071 C 
ATOM     18  C   UNL A   1      32.732  30.848  27.223  1.00  0.00     0.261 C 
ATOM     19  C   UNL A   1      34.687  29.320  27.139  1.00  0.00     0.261 C 
ATOM     20  N   UNL A   1      34.035  30.466  27.767  1.00  0.00    -0.346 N 
ATOM     21  H   UNL A   1      33.908  30.247  28.755  1.00  0.00     0.346 HD
ATOM     22  H   UNL A   1      34.648  31.260  27.585  1.00  0.00     0.346 HD
ENDBRANCH  14  15
ENDBRANCH   9  14
ENDBRANCH   8   9
BRANCH   8  23
ATOM     23  C   UNL A   1      29.924  25.848  24.709  1.00  0.00     0.074 C 
ATOM     24  C   UNL A   1      30.017  25.329  26.120  1.00  0.00     0.011 C 
ENDBRANCH   8  23
ENDBRANCH   6   8
ENDBRANCH   5   6
ENDBRANCH   4   5
ENDBRANCH   3   4
ENDBRANCH   2   3
ENDBRANCH   1   2
BRANCH   1  25
ATOM     25  C   UNL A   1      36.669  22.838  25.412  1.00  0.00     0.188 C 
BRANCH  25  26
ATOM     26  O   UNL A   1      36.236  21.491  25.483  1.00  0.00    -0.376 OA
BRANCH  26  27
ATOM     27  C   UNL A   1      37.234  20.498  25.301  1.00  0.00     0.202 C 
BRANCH  27  28
ATOM     28  C   UNL A   1      38.706  20.939  25.337  1.00  0.00     0.261 C 
BRANCH  28  29
ATOM     29  O   UNL A   1      39.264  21.093  26.658  1.00  0.00    -0.460 OA
BRANCH  29  30
ATOM     30  C   UNL A   1      40.621  21.072  26.742  1.00  0.00     0.338 C 
ATOM     31  O   UNL A   1      41.371  20.183  26.358  1.00  0.00    -0.246 OA
BRANCH  30  32
ATOM     32  C   UNL A   1      41.101  22.405  27.165  1.00  0.00     0.060 A 
ATOM     33  C   UNL A   1      40.948  23.513  26.309  1.00  0.00     0.016 A 
ATOM     34  C   UNL A   1      41.742  22.549  28.391  1.00  0.00     0.016 A 
ATOM     35  C   UNL A   1      41.414  24.772  26.690  1.00  0.00     0.010 A 
ATOM     36  C   UNL A   1      42.253  23.798  28.749  1.00  0.00     0.010 A 
ATOM     37  C   UNL A   1      42.103  24.908  27.896  1.00  0.00    -0.014 A 
BRANCH  37  38
ATOM     38  C   UNL A   1      42.842  26.152  28.206  1.00  0.00     0.031 A 
ATOM     39  C   UNL A   1      42.060  27.331  28.710  1.00  0.00     0.074 A 
ATOM     40  C   UNL A   1      44.167  26.247  27.995  1.00  0.00     0.049 A 
ATOM     41  N   UNL A   1      42.436  28.572  28.862  1.00  0.00    -0.248 NA
ATOM     42  C   UNL A   1      40.659  27.072  29.082  1.00  0.00     0.031 C 
ATOM     43  C   UNL A   1      45.041  25.152  27.583  1.00  0.00     0.029 A 
ATOM     44  N   UNL A   1      44.998  27.337  28.071  1.00  0.00    -0.354 N 
ATOM     45  C   UNL A   1      41.313  29.249  29.321  1.00  0.00     0.074 A 
ATOM     46  C   UNL A   1      40.240  28.284  29.412  1.00  0.00     0.031 C 
ATOM     47  C   UNL A   1      46.286  25.632  27.410  1.00  0.00     0.029 A 
ATOM     48  C   UNL A   1      46.280  27.075  27.646  1.00  0.00     0.049 A 
ATOM     49  H   UNL A   1      44.707  28.218  28.397  1.00  0.00     0.167 HD
ATOM     50  C   UNL A   1      41.188  30.562  29.628  1.00  0.00     0.031 A 
ATOM     51  C   UNL A   1      47.312  27.915  27.427  1.00  0.00     0.031 A 
ATOM     52  C   UNL A   1      42.259  31.515  29.508  1.00  0.00     0.049 A 
ATOM     53  C   UNL A   1      47.120  29.392  27.670  1.00  0.00     0.074 A 
ATOM     54  C   UNL A   1      42.244  32.866  29.803  1.00  0.00     0.029 A 
ATOM     55  N   UNL A   1      43.531  31.220  29.041  1.00  0.00    -0.354 N 
ATOM     56  N   UNL A   1      46.060  30.024  28.120  1.00  0.00    -0.248 NA
ATOM     57  C   UNL A   1      48.260  30.268  27.368  1.00  0.00     0.031 C 
ATOM     58  C   UNL A   1      43.486  33.401  29.447  1.00  0.00     0.029 A 
ATOM     59  C   UNL A   1      44.298  32.371  28.998  1.00  0.00     0.049 A 
ATOM     60  H   UNL A   1      43.843  30.323  28.778  1.00  0.00     0.167 HD
ATOM     61  C   UNL A   1      46.413  31.369  28.171  1.00  0.00     0.074 A 
ATOM     62  C   UNL A   1      47.790  31.455  27.730  1.00  0.00     0.031 C 
ATOM     63  C   UNL A   1      45.666  32.438  28.547  1.00  0.00     0.031 A 
BRANCH  50  64
ATOM     64  C   UNL A   1      39.833  31.047  30.069  1.00  0.00    -0.014 A 
ATOM     65  C   UNL A   1      38.877  31.500  29.142  1.00  0.00     0.010 A 
ATOM     66  C   UNL A   1      39.500  31.024  31.437  1.00  0.00     0.010 A 
ATOM     67  C   UNL A   1      37.629  31.955  29.577  1.00  0.00     0.020 A 
ATOM     68  C   UNL A   1      38.244  31.449  31.874  1.00  0.00     0.020 A 
ATOM     69  C   UNL A   1      37.321  31.928  30.941  1.00  0.00     0.054 A 
BRANCH  69  70
ATOM     70  S   UNL A   1      35.685  32.502  31.473  1.00  0.00     0.124 S 
ATOM     71  O   UNL A   1      35.839  33.953  31.409  1.00  0.00    -0.237 OA
ATOM     72  O   UNL A   1      34.800  31.919  30.466  1.00  0.00    -0.237 OA
ATOM     73  O   UNL A   1      35.542  31.951  32.818  1.00  0.00    -0.744 OA
ENDBRANCH  69  70
ENDBRANCH  50  64
BRANCH  51  74
ATOM     74  C   UNL A   1      48.606  27.389  26.908  1.00  0.00    -0.014 A 
ATOM     75  C   UNL A   1      48.899  27.442  25.534  1.00  0.00     0.010 A 
ATOM     76  C   UNL A   1      49.555  26.832  27.786  1.00  0.00     0.010 A 
ATOM     77  C   UNL A   1      50.110  26.941  25.048  1.00  0.00     0.020 A 
ATOM     78  C   UNL A   1      50.780  26.358  27.307  1.00  0.00     0.020 A 
ATOM     79  C   UNL A   1      51.047  26.408  25.938  1.00  0.00     0.054 A 
BRANCH  79  80
ATOM     80  S   UNL A   1      52.636  25.823  25.288  1.00  0.00     0.124 S 
ATOM     81  O   UNL A   1      52.457  25.991  23.849  1.00  0.00    -0.237 OA
ATOM     82  O   UNL A   1      53.588  26.733  25.919  1.00  0.00    -0.237 OA
ATOM     83  O   UNL A   1      52.709  24.438  25.752  1.00  0.00    -0.744 OA
ENDBRANCH  79  80
ENDBRANCH  51  74
BRANCH  63  84
ATOM     84  C   UNL A   1      46.322  33.795  28.511  1.00  0.00    -0.014 A 
ATOM     85  C   UNL A   1      46.223  34.619  27.376  1.00  0.00     0.010 A 
ATOM     86  C   UNL A   1      46.980  34.282  29.656  1.00  0.00     0.010 A 
ATOM     87  C   UNL A   1      46.789  35.896  27.379  1.00  0.00     0.020 A 
ATOM     88  C   UNL A   1      47.521  35.571  29.674  1.00  0.00     0.020 A 
ATOM     89  C   UNL A   1      47.429  36.367  28.530  1.00  0.00     0.054 A 
BRANCH  89  90
ATOM     90  S   UNL A   1      48.101  38.051  28.525  1.00  0.00     0.124 S 
ATOM     91  O   UNL A   1      49.510  37.818  28.226  1.00  0.00    -0.237 OA
ATOM     92  O   UNL A   1      47.332  38.698  27.464  1.00  0.00    -0.237 OA
ATOM     93  O   UNL A   1      47.824  38.541  29.873  1.00  0.00    -0.744 OA
ENDBRANCH  89  90
ENDBRANCH  63  84
ENDBRANCH  37  38
ENDBRANCH  30  32
ENDBRANCH  29  30
ENDBRANCH  28  29
ENDBRANCH  27  28
ENDBRANCH  26  27
ENDBRANCH  25  26
ENDBRANCH   1  25
TORSDOF 26
ENDMDL
MODEL 3
REMARK VINA RESULT:      -8.0      6.157      8.860
REMARK SMILES CCC[N@@H+](CC1CC[NH2+]CC1)[C@@H](CC)C(=O)OCCOCCOCCOC(=O)c1ccc(-c2c3nc(c(-c4ccc(S(=O)(=O)[O-])cc4)c4ccc([nH]4)c(-c4ccc(S(=O)(=O)[O-])cc4)c4nc(c(-c5ccc(S(=O)(=O)[O-])cc5)c5ccc2[nH]5)C=C4)C=C3)cc1
REMARK SMILES IDX 21 1 20 2 19 3 18 4 17 5 15 6 16 7 12 8 4 9 3 11 2 12 1 13
REMARK SMILES IDX 5 14 6 15 7 16 11 17 8 18 10 19 9 20 13 23 14 24 22 25 23 26
REMARK SMILES IDX 24 27 25 28 26 29 27 30 28 31 29 32 30 33 88 34 31 35 87 36
REMARK SMILES IDX 32 37 33 38 34 39 81 40 35 41 86 42 80 43 82 44 36 45 85 46
REMARK SMILES IDX 79 47 78 48 37 50 67 51 48 52 66 53 49 54 52 55 65 56 83 57
REMARK SMILES IDX 50 58 51 59 64 61 84 62 53 63 38 64 39 65 47 66 40 67 46 68
REMARK SMILES IDX 41 69 42 70 43 71 44 72 45 73 68 74 69 75 77 76 70 77 76 78
REMARK SMILES IDX 71 79 72 80 73 81 74 82 75 83 54 84 55 85 63 86 56 87 62 88
REMARK SMILES IDX 57 89 58 90 59 91 60 92 61 93
REMARK H PARENT 4 10 9 21 9 22 82 49 52 60
REMARK Flexibility Score: inf
ROOT
ATOM      1  C   UNL A   1      39.129  21.905  25.692  1.00  0.00     0.188 C 
ENDROOT
BRANCH   1   2
ATOM      2  O   UNL A   1      37.795  21.762  26.158  1.00  0.00    -0.376 OA
BRANCH   2   3
ATOM      3  C   UNL A   1      36.805  21.461  25.156  1.00  0.00     0.202 C 
BRANCH   3   4
ATOM      4  C   UNL A   1      35.525  22.325  25.028  1.00  0.00     0.261 C 
BRANCH   4   5
ATOM      5  O   UNL A   1      34.462  21.722  24.257  1.00  0.00    -0.459 OA
BRANCH   5   6
ATOM      6  C   UNL A   1      33.185  21.961  24.681  1.00  0.00     0.364 C 
ATOM      7  O   UNL A   1      32.250  21.188  24.498  1.00  0.00    -0.245 OA
BRANCH   6   8
ATOM      8  C   UNL A   1      33.042  23.291  25.455  1.00  0.00     0.294 C 
BRANCH   8   9
ATOM      9  N   UNL A   1      32.643  24.481  24.636  1.00  0.00    -0.323 N 
ATOM     10  H   UNL A   1      31.956  23.973  24.079  1.00  0.00     0.348 HD
BRANCH   9  11
ATOM     11  C   UNL A   1      31.777  25.568  25.116  1.00  0.00     0.262 C 
BRANCH  11  12
ATOM     12  C   UNL A   1      30.256  25.615  25.411  1.00  0.00     0.058 C 
ATOM     13  C   UNL A   1      29.235  26.211  24.477  1.00  0.00     0.010 C 
ENDBRANCH  11  12
ENDBRANCH   9  11
BRANCH   9  14
ATOM     14  C   UNL A   1      33.801  25.061  23.868  1.00  0.00     0.266 C 
BRANCH  14  15
ATOM     15  C   UNL A   1      33.747  26.083  22.663  1.00  0.00     0.055 C 
ATOM     16  C   UNL A   1      33.639  27.569  23.037  1.00  0.00     0.071 C 
ATOM     17  C   UNL A   1      32.860  25.817  21.441  1.00  0.00     0.071 C 
ATOM     18  C   UNL A   1      32.223  28.113  23.129  1.00  0.00     0.261 C 
ATOM     19  C   UNL A   1      31.439  26.351  21.564  1.00  0.00     0.261 C 
ATOM     20  N   UNL A   1      31.350  27.737  22.016  1.00  0.00    -0.346 N 
ATOM     21  H   UNL A   1      31.581  28.337  21.224  1.00  0.00     0.346 HD
ATOM     22  H   UNL A   1      30.400  27.848  22.368  1.00  0.00     0.346 HD
ENDBRANCH  14  15
ENDBRANCH   9  14
ENDBRANCH   8   9
BRANCH   8  23
ATOM     23  C   UNL A   1      32.477  22.992  26.842  1.00  0.00     0.074 C 
ATOM     24  C   UNL A   1      33.303  22.238  27.850  1.00  0.00     0.011 C 
ENDBRANCH   8  23
ENDBRANCH   6   8
ENDBRANCH   5   6
ENDBRANCH   4   5
ENDBRANCH   3   4
ENDBRANCH   2   3
ENDBRANCH   1   2
BRANCH   1  25
ATOM     25  C   UNL A   1      40.290  22.124  26.657  1.00  0.00     0.188 C 
BRANCH  25  26
ATOM     26  O   UNL A   1      40.121  23.023  27.738  1.00  0.00    -0.376 OA
BRANCH  26  27
ATOM     27  C   UNL A   1      41.068  24.076  27.836  1.00  0.00     0.202 C 
BRANCH  27  28
ATOM     28  C   UNL A   1      41.394  24.875  26.564  1.00  0.00     0.261 C 
BRANCH  28  29
ATOM     29  O   UNL A   1      40.490  25.962  26.279  1.00  0.00    -0.460 OA
BRANCH  29  30
ATOM     30  C   UNL A   1      41.042  27.204  26.231  1.00  0.00     0.338 C 
ATOM     31  O   UNL A   1      41.473  27.782  25.241  1.00  0.00    -0.246 OA
BRANCH  30  32
ATOM     32  C   UNL A   1      40.841  27.875  27.533  1.00  0.00     0.060 A 
ATOM     33  C   UNL A   1      41.688  28.931  27.919  1.00  0.00     0.016 A 
ATOM     34  C   UNL A   1      39.840  27.429  28.390  1.00  0.00     0.016 A 
ATOM     35  C   UNL A   1      41.519  29.559  29.154  1.00  0.00     0.010 A 
ATOM     36  C   UNL A   1      39.705  28.024  29.645  1.00  0.00     0.010 A 
ATOM     37  C   UNL A   1      40.550  29.079  30.036  1.00  0.00    -0.014 A 
BRANCH  37  38
ATOM     38  C   UNL A   1      40.521  29.533  31.444  1.00  0.00     0.031 A 
ATOM     39  C   UNL A   1      39.442  30.495  31.853  1.00  0.00     0.074 A 
ATOM     40  C   UNL A   1      41.460  29.142  32.323  1.00  0.00     0.049 A 
ATOM     41  N   UNL A   1      39.320  31.184  32.957  1.00  0.00    -0.248 NA
ATOM     42  C   UNL A   1      38.361  30.716  30.877  1.00  0.00     0.031 C 
ATOM     43  C   UNL A   1      42.507  28.156  32.063  1.00  0.00     0.029 A 
ATOM     44  N   UNL A   1      41.697  29.560  33.609  1.00  0.00    -0.354 N 
ATOM     45  C   UNL A   1      38.165  31.940  32.798  1.00  0.00     0.074 A 
ATOM     46  C   UNL A   1      37.630  31.634  31.489  1.00  0.00     0.031 C 
ATOM     47  C   UNL A   1      43.297  28.067  33.147  1.00  0.00     0.029 A 
ATOM     48  C   UNL A   1      42.843  29.028  34.152  1.00  0.00     0.049 A 
ATOM     49  H   UNL A   1      41.105  30.178  34.094  1.00  0.00     0.167 HD
ATOM     50  C   UNL A   1      37.609  32.819  33.665  1.00  0.00     0.031 A 
ATOM     51  C   UNL A   1      43.476  29.322  35.306  1.00  0.00     0.031 A 
ATOM     52  C   UNL A   1      38.167  33.131  34.953  1.00  0.00     0.049 A 
ATOM     53  C   UNL A   1      42.900  30.385  36.208  1.00  0.00     0.074 A 
ATOM     54  C   UNL A   1      37.679  33.998  35.915  1.00  0.00     0.029 A 
ATOM     55  N   UNL A   1      39.347  32.600  35.453  1.00  0.00    -0.354 N 
ATOM     56  N   UNL A   1      41.798  31.085  36.061  1.00  0.00    -0.248 NA
ATOM     57  C   UNL A   1      43.655  30.702  37.428  1.00  0.00     0.031 C 
ATOM     58  C   UNL A   1      38.600  34.043  36.965  1.00  0.00     0.029 A 
ATOM     59  C   UNL A   1      39.627  33.152  36.691  1.00  0.00     0.049 A 
ATOM     60  H   UNL A   1      39.904  31.929  34.995  1.00  0.00     0.167 HD
ATOM     61  C   UNL A   1      41.722  31.912  37.178  1.00  0.00     0.074 A 
ATOM     62  C   UNL A   1      42.873  31.608  38.001  1.00  0.00     0.031 C 
ATOM     63  C   UNL A   1      40.784  32.842  37.494  1.00  0.00     0.031 A 
BRANCH  50  64
ATOM     64  C   UNL A   1      36.364  33.541  33.221  1.00  0.00    -0.014 A 
ATOM     65  C   UNL A   1      36.429  34.792  32.582  1.00  0.00     0.010 A 
ATOM     66  C   UNL A   1      35.107  32.942  33.422  1.00  0.00     0.010 A 
ATOM     67  C   UNL A   1      35.260  35.448  32.188  1.00  0.00     0.020 A 
ATOM     68  C   UNL A   1      33.936  33.579  33.003  1.00  0.00     0.020 A 
ATOM     69  C   UNL A   1      34.020  34.837  32.402  1.00  0.00     0.054 A 
BRANCH  69  70
ATOM     70  S   UNL A   1      32.522  35.701  31.858  1.00  0.00     0.124 S 
ATOM     71  O   UNL A   1      32.875  37.098  32.095  1.00  0.00    -0.237 OA
ATOM     72  O   UNL A   1      32.419  35.308  30.455  1.00  0.00    -0.237 OA
ATOM     73  O   UNL A   1      31.476  35.168  32.729  1.00  0.00    -0.744 OA
ENDBRANCH  69  70
ENDBRANCH  50  64
BRANCH  51  74
ATOM     74  C   UNL A   1      44.752  28.636  35.653  1.00  0.00    -0.014 A 
ATOM     75  C   UNL A   1      45.986  29.169  35.241  1.00  0.00     0.010 A 
ATOM     76  C   UNL A   1      44.741  27.444  36.402  1.00  0.00     0.010 A 
ATOM     77  C   UNL A   1      47.182  28.519  35.562  1.00  0.00     0.020 A 
ATOM     78  C   UNL A   1      45.937  26.808  36.752  1.00  0.00     0.020 A 
ATOM     79  C   UNL A   1      47.150  27.346  36.322  1.00  0.00     0.054 A 
BRANCH  79  80
ATOM     80  S   UNL A   1      48.720  26.558  36.777  1.00  0.00     0.124 S 
ATOM     81  O   UNL A   1      48.398  25.141  36.650  1.00  0.00    -0.237 OA
ATOM     82  O   UNL A   1      49.641  27.091  35.776  1.00  0.00    -0.237 OA
ATOM     83  O   UNL A   1      48.957  27.026  38.142  1.00  0.00    -0.744 OA
ENDBRANCH  79  80
ENDBRANCH  51  74
BRANCH  63  84
ATOM     84  C   UNL A   1      40.955  33.592  38.790  1.00  0.00    -0.014 A 
ATOM     85  C   UNL A   1      40.482  33.062  40.003  1.00  0.00     0.010 A 
ATOM     86  C   UNL A   1      41.665  34.807  38.804  1.00  0.00     0.010 A 
ATOM     87  C   UNL A   1      40.697  33.744  41.203  1.00  0.00     0.020 A 
ATOM     88  C   UNL A   1      41.910  35.477  40.006  1.00  0.00     0.020 A 
ATOM     89  C   UNL A   1      41.414  34.944  41.198  1.00  0.00     0.054 A 
BRANCH  89  90
ATOM     90  S   UNL A   1      41.731  35.776  42.778  1.00  0.00     0.124 S 
ATOM     91  O   UNL A   1      42.643  34.846  43.437  1.00  0.00    -0.237 OA
ATOM     92  O   UNL A   1      42.321  37.045  42.359  1.00  0.00    -0.237 OA
ATOM     93  O   UNL A   1      40.407  35.883  43.387  1.00  0.00    -0.744 OA
ENDBRANCH  89  90
ENDBRANCH  63  84
ENDBRANCH  37  38
ENDBRANCH  30  32
ENDBRANCH  29  30
ENDBRANCH  28  29
ENDBRANCH  27  28
ENDBRANCH  26  27
ENDBRANCH  25  26
ENDBRANCH   1  25
TORSDOF 26
ENDMDL
