MODEL 1
REMARK VINA RESULT:     -10.0      0.000      0.000
REMARK SMILES C[NH2+]C[C@H]1CCCN(c2ccc(C(=O)OCCOCCOCCOC(=O)c3ccc(-c4c5nc(c(-c6ccc(S(=O)(=O)[O-])cc6)c6ccc([nH]6)c(-c6ccc(S(=O)(=O)[O-])cc6)c6nc(c(-c7ccc(S(=O)(=O)[O-])cc7)c7ccc4[nH]7)C=C6)C=C5)cc3)c(F)c2F)C1
REMARK SMILES IDX 19 1 18 2 17 3 16 4 15 5 13 6 14 7 12 8 9 9 10 10 89 11
REMARK SMILES IDX 11 12 87 13 90 14 88 15 8 16 4 17 5 18 91 19 6 20 7 21 3 22
REMARK SMILES IDX 2 23 1 24 20 27 21 28 22 29 23 30 24 31 25 32 26 33 27 34
REMARK SMILES IDX 28 35 86 36 29 37 85 38 30 39 31 40 32 41 79 42 33 43 84 44
REMARK SMILES IDX 78 45 80 46 34 47 83 48 77 49 76 50 35 52 65 53 46 54 64 55
REMARK SMILES IDX 47 56 50 57 63 58 81 59 48 60 49 61 62 63 82 64 51 65 36 66
REMARK SMILES IDX 37 67 45 68 38 69 44 70 39 71 40 72 41 73 42 74 43 75 66 76
REMARK SMILES IDX 67 77 75 78 68 79 74 80 69 81 70 82 71 83 72 84 73 85 52 86
REMARK SMILES IDX 53 87 61 88 54 89 60 90 55 91 56 92 57 93 58 94 59 95
REMARK H PARENT 2 25 2 26 80 51 50 62
REMARK Flexibility Score: inf
ROOT
ATOM      1  C   UNL A   1      32.017  30.154  26.004  1.00  0.00     0.188 C 
ENDROOT
BRANCH   1   2
ATOM      2  O   UNL A   1      32.050  28.976  25.225  1.00  0.00    -0.376 OA
BRANCH   2   3
ATOM      3  C   UNL A   1      31.795  29.030  23.830  1.00  0.00     0.202 C 
BRANCH   3   4
ATOM      4  C   UNL A   1      30.414  28.785  23.201  1.00  0.00     0.261 C 
BRANCH   4   5
ATOM      5  O   UNL A   1      30.152  27.450  22.756  1.00  0.00    -0.460 OA
BRANCH   5   6
ATOM      6  C   UNL A   1      29.459  26.677  23.627  1.00  0.00     0.341 C 
ATOM      7  O   UNL A   1      28.261  26.712  23.849  1.00  0.00    -0.246 OA
BRANCH   6   8
ATOM      8  C   UNL A   1      30.315  25.605  24.153  1.00  0.00     0.099 A 
ATOM      9  C   UNL A   1      31.849  23.435  25.103  1.00  0.00     0.076 A 
ATOM     10  C   UNL A   1      31.545  23.559  23.739  1.00  0.00     0.030 A 
ATOM     11  C   UNL A   1      31.406  24.460  25.962  1.00  0.00     0.182 A 
ATOM     12  C   UNL A   1      30.764  24.617  23.267  1.00  0.00     0.021 A 
ATOM     13  C   UNL A   1      30.658  25.540  25.494  1.00  0.00     0.175 A 
ATOM     14  F   UNL A   1      31.705  24.411  27.271  1.00  0.00    -0.201 F 
ATOM     15  F   UNL A   1      30.254  26.486  26.356  1.00  0.00    -0.203 F 
BRANCH   9  16
ATOM     16  N   UNL A   1      32.514  22.308  25.547  1.00  0.00    -0.369 N 
ATOM     17  C   UNL A   1      34.862  21.675  25.156  1.00  0.00     0.064 C 
ATOM     18  C   UNL A   1      34.362  20.258  24.828  1.00  0.00     0.013 C 
ATOM     19  C   UNL A   1      33.874  22.404  26.078  1.00  0.00     0.126 C 
ATOM     20  C   UNL A   1      32.928  20.274  24.292  1.00  0.00     0.022 C 
ATOM     21  C   UNL A   1      31.987  20.977  25.270  1.00  0.00     0.116 C 
BRANCH  17  22
ATOM     22  C   UNL A   1      36.301  21.724  25.714  1.00  0.00     0.265 C 
BRANCH  22  23
ATOM     23  N   UNL A   1      36.747  22.972  26.335  1.00  0.00    -0.348 N 
ATOM     24  C   UNL A   1      38.079  23.377  25.905  1.00  0.00     0.330 C 
ATOM     25  H   UNL A   1      36.088  23.712  26.090  1.00  0.00     0.346 HD
ATOM     26  H   UNL A   1      36.784  22.817  27.343  1.00  0.00     0.346 HD
ENDBRANCH  22  23
ENDBRANCH  17  22
ENDBRANCH   9  16
ENDBRANCH   6   8
ENDBRANCH   5   6
ENDBRANCH   4   5
ENDBRANCH   3   4
ENDBRANCH   2   3
ENDBRANCH   1   2
BRANCH   1  27
ATOM     27  C   UNL A   1      32.976  30.300  27.202  1.00  0.00     0.188 C 
BRANCH  27  28
ATOM     28  O   UNL A   1      33.399  31.579  27.611  1.00  0.00    -0.376 OA
BRANCH  28  29
ATOM     29  C   UNL A   1      34.773  31.850  27.825  1.00  0.00     0.202 C 
BRANCH  29  30
ATOM     30  C   UNL A   1      35.647  31.227  28.930  1.00  0.00     0.261 C 
BRANCH  30  31
ATOM     31  O   UNL A   1      36.299  29.986  28.650  1.00  0.00    -0.460 OA
BRANCH  31  32
ATOM     32  C   UNL A   1      36.939  29.417  29.698  1.00  0.00     0.338 C 
ATOM     33  O   UNL A   1      36.455  29.089  30.775  1.00  0.00    -0.246 OA
BRANCH  32  34
ATOM     34  C   UNL A   1      38.309  29.071  29.288  1.00  0.00     0.060 A 
ATOM     35  C   UNL A   1      39.181  28.516  30.235  1.00  0.00     0.016 A 
ATOM     36  C   UNL A   1      38.739  29.316  27.984  1.00  0.00     0.016 A 
ATOM     37  C   UNL A   1      40.491  28.203  29.878  1.00  0.00     0.010 A 
ATOM     38  C   UNL A   1      40.060  29.026  27.636  1.00  0.00     0.010 A 
ATOM     39  C   UNL A   1      40.948  28.486  28.585  1.00  0.00    -0.014 A 
BRANCH  39  40
ATOM     40  C   UNL A   1      42.387  28.350  28.257  1.00  0.00     0.031 A 
ATOM     41  C   UNL A   1      43.294  29.528  28.470  1.00  0.00     0.074 A 
ATOM     42  C   UNL A   1      42.880  27.196  27.772  1.00  0.00     0.049 A 
ATOM     43  N   UNL A   1      44.563  29.660  28.183  1.00  0.00    -0.248 NA
ATOM     44  C   UNL A   1      42.685  30.718  29.088  1.00  0.00     0.031 C 
ATOM     45  C   UNL A   1      42.111  25.971  27.559  1.00  0.00     0.029 A 
ATOM     46  N   UNL A   1      44.147  26.877  27.354  1.00  0.00    -0.354 N 
ATOM     47  C   UNL A   1      44.906  30.948  28.577  1.00  0.00     0.074 A 
ATOM     48  C   UNL A   1      43.703  31.567  29.093  1.00  0.00     0.031 C 
ATOM     49  C   UNL A   1      42.919  25.038  27.026  1.00  0.00     0.029 A 
ATOM     50  C   UNL A   1      44.249  25.613  26.825  1.00  0.00     0.049 A 
ATOM     51  H   UNL A   1      44.910  27.494  27.427  1.00  0.00     0.167 HD
ATOM     52  C   UNL A   1      46.113  31.559  28.519  1.00  0.00     0.031 A 
ATOM     53  C   UNL A   1      45.284  25.001  26.213  1.00  0.00     0.031 A 
ATOM     54  C   UNL A   1      47.297  30.952  27.969  1.00  0.00     0.049 A 
ATOM     55  C   UNL A   1      46.595  25.729  26.073  1.00  0.00     0.074 A 
ATOM     56  C   UNL A   1      48.569  31.488  27.866  1.00  0.00     0.029 A 
ATOM     57  N   UNL A   1      47.353  29.681  27.417  1.00  0.00    -0.354 N 
ATOM     58  N   UNL A   1      46.915  26.938  26.475  1.00  0.00    -0.248 NA
ATOM     59  C   UNL A   1      47.688  25.011  25.403  1.00  0.00     0.031 C 
ATOM     60  C   UNL A   1      49.377  30.565  27.193  1.00  0.00     0.029 A 
ATOM     61  C   UNL A   1      48.629  29.426  26.943  1.00  0.00     0.049 A 
ATOM     62  H   UNL A   1      46.597  29.052  27.370  1.00  0.00     0.167 HD
ATOM     63  C   UNL A   1      48.251  27.115  26.125  1.00  0.00     0.074 A 
ATOM     64  C   UNL A   1      48.683  25.883  25.496  1.00  0.00     0.031 C 
ATOM     65  C   UNL A   1      49.046  28.198  26.310  1.00  0.00     0.031 A 
BRANCH  52  66
ATOM     66  C   UNL A   1      46.194  32.975  29.026  1.00  0.00    -0.014 A 
ATOM     67  C   UNL A   1      45.828  34.064  28.212  1.00  0.00     0.010 A 
ATOM     68  C   UNL A   1      46.632  33.223  30.340  1.00  0.00     0.010 A 
ATOM     69  C   UNL A   1      45.953  35.374  28.683  1.00  0.00     0.020 A 
ATOM     70  C   UNL A   1      46.727  34.531  30.825  1.00  0.00     0.020 A 
ATOM     71  C   UNL A   1      46.407  35.598  29.985  1.00  0.00     0.054 A 
BRANCH  71  72
ATOM     72  S   UNL A   1      46.562  37.309  30.568  1.00  0.00     0.124 S 
ATOM     73  O   UNL A   1      47.895  37.303  31.165  1.00  0.00    -0.237 OA
ATOM     74  O   UNL A   1      46.432  38.079  29.333  1.00  0.00    -0.237 OA
ATOM     75  O   UNL A   1      45.458  37.457  31.512  1.00  0.00    -0.744 OA
ENDBRANCH  71  72
ENDBRANCH  52  66
BRANCH  53  76
ATOM     76  C   UNL A   1      45.104  23.631  25.656  1.00  0.00    -0.014 A 
ATOM     77  C   UNL A   1      44.503  23.435  24.402  1.00  0.00     0.010 A 
ATOM     78  C   UNL A   1      45.557  22.512  26.380  1.00  0.00     0.010 A 
ATOM     79  C   UNL A   1      44.355  22.144  23.882  1.00  0.00     0.020 A 
ATOM     80  C   UNL A   1      45.439  21.224  25.851  1.00  0.00     0.020 A 
ATOM     81  C   UNL A   1      44.833  21.047  24.608  1.00  0.00     0.054 A 
BRANCH  81  82
ATOM     82  S   UNL A   1      44.696  19.391  23.878  1.00  0.00     0.124 S 
ATOM     83  O   UNL A   1      43.582  18.819  24.629  1.00  0.00    -0.237 OA
ATOM     84  O   UNL A   1      44.428  19.690  22.474  1.00  0.00    -0.237 OA
ATOM     85  O   UNL A   1      46.003  18.793  24.142  1.00  0.00    -0.744 OA
ENDBRANCH  81  82
ENDBRANCH  53  76
BRANCH  65  86
ATOM     86  C   UNL A   1      50.481  28.099  25.852  1.00  0.00    -0.014 A 
ATOM     87  C   UNL A   1      51.490  27.614  26.704  1.00  0.00     0.010 A 
ATOM     88  C   UNL A   1      50.811  28.434  24.525  1.00  0.00     0.010 A 
ATOM     89  C   UNL A   1      52.805  27.492  26.245  1.00  0.00     0.020 A 
ATOM     90  C   UNL A   1      52.118  28.285  24.055  1.00  0.00     0.020 A 
ATOM     91  C   UNL A   1      53.110  27.826  24.922  1.00  0.00     0.054 A 
BRANCH  91  92
ATOM     92  S   UNL A   1      54.814  27.611  24.338  1.00  0.00     0.124 S 
ATOM     93  O   UNL A   1      55.208  26.368  24.997  1.00  0.00    -0.237 OA
ATOM     94  O   UNL A   1      54.647  27.528  22.889  1.00  0.00    -0.237 OA
ATOM     95  O   UNL A   1      55.499  28.810  24.812  1.00  0.00    -0.744 OA
ENDBRANCH  91  92
ENDBRANCH  65  86
ENDBRANCH  39  40
ENDBRANCH  32  34
ENDBRANCH  31  32
ENDBRANCH  30  31
ENDBRANCH  29  30
ENDBRANCH  28  29
ENDBRANCH  27  28
ENDBRANCH   1  27
TORSDOF 23
ENDMDL
MODEL 2
REMARK VINA RESULT:      -9.7      1.795      2.411
REMARK SMILES C[NH2+]C[C@H]1CCCN(c2ccc(C(=O)OCCOCCOCCOC(=O)c3ccc(-c4c5nc(c(-c6ccc(S(=O)(=O)[O-])cc6)c6ccc([nH]6)c(-c6ccc(S(=O)(=O)[O-])cc6)c6nc(c(-c7ccc(S(=O)(=O)[O-])cc7)c7ccc4[nH]7)C=C6)C=C5)cc3)c(F)c2F)C1
REMARK SMILES IDX 19 1 18 2 17 3 16 4 15 5 13 6 14 7 12 8 9 9 10 10 89 11
REMARK SMILES IDX 11 12 87 13 90 14 88 15 8 16 4 17 5 18 91 19 6 20 7 21 3 22
REMARK SMILES IDX 2 23 1 24 20 27 21 28 22 29 23 30 24 31 25 32 26 33 27 34
REMARK SMILES IDX 28 35 86 36 29 37 85 38 30 39 31 40 32 41 79 42 33 43 84 44
REMARK SMILES IDX 78 45 80 46 34 47 83 48 77 49 76 50 35 52 65 53 46 54 64 55
REMARK SMILES IDX 47 56 50 57 63 58 81 59 48 60 49 61 62 63 82 64 51 65 36 66
REMARK SMILES IDX 37 67 45 68 38 69 44 70 39 71 40 72 41 73 42 74 43 75 66 76
REMARK SMILES IDX 67 77 75 78 68 79 74 80 69 81 70 82 71 83 72 84 73 85 52 86
REMARK SMILES IDX 53 87 61 88 54 89 60 90 55 91 56 92 57 93 58 94 59 95
REMARK H PARENT 2 25 2 26 80 51 50 62
REMARK Flexibility Score: inf
ROOT
ATOM      1  C   UNL A   1      31.935  29.196  25.181  1.00  0.00     0.188 C 
ENDROOT
BRANCH   1   2
ATOM      2  O   UNL A   1      31.028  30.194  24.760  1.00  0.00    -0.376 OA
BRANCH   2   3
ATOM      3  C   UNL A   1      29.979  29.878  23.860  1.00  0.00     0.202 C 
BRANCH   3   4
ATOM      4  C   UNL A   1      30.199  29.484  22.391  1.00  0.00     0.261 C 
BRANCH   4   5
ATOM      5  O   UNL A   1      30.253  28.079  22.117  1.00  0.00    -0.460 OA
BRANCH   5   6
ATOM      6  C   UNL A   1      29.711  27.285  23.071  1.00  0.00     0.341 C 
ATOM      7  O   UNL A   1      28.562  27.306  23.480  1.00  0.00    -0.246 OA
BRANCH   6   8
ATOM      8  C   UNL A   1      30.643  26.210  23.434  1.00  0.00     0.099 A 
ATOM      9  C   UNL A   1      32.497  24.244  24.248  1.00  0.00     0.076 A 
ATOM     10  C   UNL A   1      31.568  24.775  25.154  1.00  0.00     0.030 A 
ATOM     11  C   UNL A   1      32.431  24.691  22.913  1.00  0.00     0.182 A 
ATOM     12  C   UNL A   1      30.664  25.766  24.762  1.00  0.00     0.021 A 
ATOM     13  C   UNL A   1      31.508  25.652  22.505  1.00  0.00     0.175 A 
ATOM     14  F   UNL A   1      33.272  24.184  21.996  1.00  0.00    -0.201 F 
ATOM     15  F   UNL A   1      31.491  26.049  21.223  1.00  0.00    -0.203 F 
BRANCH   9  16
ATOM     16  N   UNL A   1      33.456  23.359  24.705  1.00  0.00    -0.369 N 
ATOM     17  C   UNL A   1      33.117  21.144  25.727  1.00  0.00     0.064 C 
ATOM     18  C   UNL A   1      34.148  21.548  26.796  1.00  0.00     0.013 C 
ATOM     19  C   UNL A   1      33.344  21.928  24.426  1.00  0.00     0.126 C 
ATOM     20  C   UNL A   1      34.189  23.065  26.999  1.00  0.00     0.022 C 
ATOM     21  C   UNL A   1      34.456  23.784  25.676  1.00  0.00     0.116 C 
BRANCH  17  22
ATOM     22  C   UNL A   1      33.038  19.624  25.468  1.00  0.00     0.265 C 
BRANCH  22  23
ATOM     23  N   UNL A   1      34.278  18.930  25.116  1.00  0.00    -0.348 N 
ATOM     24  C   UNL A   1      34.084  17.899  24.105  1.00  0.00     0.330 C 
ATOM     25  H   UNL A   1      34.944  19.614  24.758  1.00  0.00     0.346 HD
ATOM     26  H   UNL A   1      34.622  18.470  25.960  1.00  0.00     0.346 HD
ENDBRANCH  22  23
ENDBRANCH  17  22
ENDBRANCH   9  16
ENDBRANCH   6   8
ENDBRANCH   5   6
ENDBRANCH   4   5
ENDBRANCH   3   4
ENDBRANCH   2   3
ENDBRANCH   1   2
BRANCH   1  27
ATOM     27  C   UNL A   1      32.008  28.816  26.674  1.00  0.00     0.188 C 
BRANCH  27  28
ATOM     28  O   UNL A   1      33.241  28.446  27.244  1.00  0.00    -0.376 OA
BRANCH  28  29
ATOM     29  C   UNL A   1      34.401  29.229  27.026  1.00  0.00     0.202 C 
BRANCH  29  30
ATOM     30  C   UNL A   1      34.839  30.436  27.876  1.00  0.00     0.261 C 
BRANCH  30  31
ATOM     31  O   UNL A   1      35.548  30.180  29.090  1.00  0.00    -0.460 OA
BRANCH  31  32
ATOM     32  C   UNL A   1      36.545  31.049  29.375  1.00  0.00     0.338 C 
ATOM     33  O   UNL A   1      36.439  32.164  29.872  1.00  0.00    -0.246 OA
BRANCH  32  34
ATOM     34  C   UNL A   1      37.837  30.378  29.163  1.00  0.00     0.060 A 
ATOM     35  C   UNL A   1      38.724  30.257  30.241  1.00  0.00     0.016 A 
ATOM     36  C   UNL A   1      38.181  29.894  27.901  1.00  0.00     0.016 A 
ATOM     37  C   UNL A   1      39.965  29.648  30.059  1.00  0.00     0.010 A 
ATOM     38  C   UNL A   1      39.435  29.307  27.714  1.00  0.00     0.010 A 
ATOM     39  C   UNL A   1      40.340  29.198  28.787  1.00  0.00    -0.014 A 
BRANCH  39  40
ATOM     40  C   UNL A   1      41.728  28.739  28.539  1.00  0.00     0.031 A 
ATOM     41  C   UNL A   1      42.839  29.750  28.556  1.00  0.00     0.074 A 
ATOM     42  C   UNL A   1      41.995  27.443  28.298  1.00  0.00     0.049 A 
ATOM     43  N   UNL A   1      44.110  29.588  28.292  1.00  0.00    -0.248 NA
ATOM     44  C   UNL A   1      42.466  31.127  28.917  1.00  0.00     0.031 C 
ATOM     45  C   UNL A   1      41.010  26.363  28.294  1.00  0.00     0.029 A 
ATOM     46  N   UNL A   1      43.179  26.823  27.990  1.00  0.00    -0.354 N 
ATOM     47  C   UNL A   1      44.689  30.842  28.446  1.00  0.00     0.074 A 
ATOM     48  C   UNL A   1      43.624  31.759  28.796  1.00  0.00     0.031 C 
ATOM     49  C   UNL A   1      41.629  25.212  27.974  1.00  0.00     0.029 A 
ATOM     50  C   UNL A   1      43.042  25.484  27.713  1.00  0.00     0.049 A 
ATOM     51  H   UNL A   1      44.045  27.291  27.970  1.00  0.00     0.167 HD
ATOM     52  C   UNL A   1      45.988  31.198  28.314  1.00  0.00     0.031 A 
ATOM     53  C   UNL A   1      43.943  24.587  27.263  1.00  0.00     0.031 A 
ATOM     54  C   UNL A   1      47.037  30.290  27.930  1.00  0.00     0.049 A 
ATOM     55  C   UNL A   1      45.367  25.021  27.032  1.00  0.00     0.074 A 
ATOM     56  C   UNL A   1      48.387  30.553  27.769  1.00  0.00     0.029 A 
ATOM     57  N   UNL A   1      46.853  28.948  27.630  1.00  0.00    -0.354 N 
ATOM     58  N   UNL A   1      45.907  26.204  27.209  1.00  0.00    -0.248 NA
ATOM     59  C   UNL A   1      46.304  23.998  26.546  1.00  0.00     0.031 C 
ATOM     60  C   UNL A   1      49.006  29.385  27.310  1.00  0.00     0.029 A 
ATOM     61  C   UNL A   1      48.057  28.377  27.255  1.00  0.00     0.049 A 
ATOM     62  H   UNL A   1      45.993  28.472  27.677  1.00  0.00     0.167 HD
ATOM     63  C   UNL A   1      47.252  26.061  26.876  1.00  0.00     0.074 A 
ATOM     64  C   UNL A   1      47.445  24.674  26.507  1.00  0.00     0.031 C 
ATOM     65  C   UNL A   1      48.237  26.995  26.880  1.00  0.00     0.031 A 
BRANCH  52  66
ATOM     66  C   UNL A   1      46.333  32.646  28.548  1.00  0.00    -0.014 A 
ATOM     67  C   UNL A   1      46.281  33.586  27.501  1.00  0.00     0.010 A 
ATOM     68  C   UNL A   1      46.708  33.077  29.834  1.00  0.00     0.010 A 
ATOM     69  C   UNL A   1      46.649  34.916  27.725  1.00  0.00     0.020 A 
ATOM     70  C   UNL A   1      47.044  34.414  30.068  1.00  0.00     0.020 A 
ATOM     71  C   UNL A   1      47.034  35.319  29.006  1.00  0.00     0.054 A 
BRANCH  71  72
ATOM     72  S   UNL A   1      47.509  37.051  29.265  1.00  0.00     0.124 S 
ATOM     73  O   UNL A   1      48.690  37.168  28.413  1.00  0.00    -0.237 OA
ATOM     74  O   UNL A   1      46.329  37.777  28.805  1.00  0.00    -0.237 OA
ATOM     75  O   UNL A   1      47.767  37.130  30.700  1.00  0.00    -0.744 OA
ENDBRANCH  71  72
ENDBRANCH  52  66
BRANCH  53  76
ATOM     76  C   UNL A   1      43.509  23.192  26.969  1.00  0.00    -0.014 A 
ATOM     77  C   UNL A   1      43.696  22.631  25.695  1.00  0.00     0.010 A 
ATOM     78  C   UNL A   1      42.920  22.410  27.981  1.00  0.00     0.010 A 
ATOM     79  C   UNL A   1      43.299  21.314  25.436  1.00  0.00     0.020 A 
ATOM     80  C   UNL A   1      42.550  21.085  27.735  1.00  0.00     0.020 A 
ATOM     81  C   UNL A   1      42.737  20.547  26.462  1.00  0.00     0.054 A 
BRANCH  81  82
ATOM     82  S   UNL A   1      42.299  18.819  26.121  1.00  0.00     0.124 S 
ATOM     83  O   UNL A   1      43.205  18.486  25.027  1.00  0.00    -0.237 OA
ATOM     84  O   UNL A   1      42.581  18.168  27.398  1.00  0.00    -0.237 OA
ATOM     85  O   UNL A   1      40.883  18.889  25.764  1.00  0.00    -0.744 OA
ENDBRANCH  81  82
ENDBRANCH  53  76
BRANCH  65  86
ATOM     86  C   UNL A   1      49.626  26.548  26.498  1.00  0.00    -0.014 A 
ATOM     87  C   UNL A   1      50.477  25.922  27.428  1.00  0.00     0.010 A 
ATOM     88  C   UNL A   1      50.062  26.697  25.167  1.00  0.00     0.010 A 
ATOM     89  C   UNL A   1      51.745  25.479  27.041  1.00  0.00     0.020 A 
ATOM     90  C   UNL A   1      51.317  26.228  24.770  1.00  0.00     0.020 A 
ATOM     91  C   UNL A   1      52.156  25.632  25.713  1.00  0.00     0.054 A 
BRANCH  91  92
ATOM     92  S   UNL A   1      53.786  25.003  25.225  1.00  0.00     0.124 S 
ATOM     93  O   UNL A   1      54.619  25.407  26.355  1.00  0.00    -0.237 OA
ATOM     94  O   UNL A   1      53.549  23.567  25.100  1.00  0.00    -0.237 OA
ATOM     95  O   UNL A   1      54.065  25.694  23.969  1.00  0.00    -0.744 OA
ENDBRANCH  91  92
ENDBRANCH  65  86
ENDBRANCH  39  40
ENDBRANCH  32  34
ENDBRANCH  31  32
ENDBRANCH  30  31
ENDBRANCH  29  30
ENDBRANCH  28  29
ENDBRANCH  27  28
ENDBRANCH   1  27
TORSDOF 23
ENDMDL
MODEL 3
REMARK VINA RESULT:      -9.5      1.817      8.077
REMARK SMILES C[NH2+]C[C@H]1CCCN(c2ccc(C(=O)OCCOCCOCCOC(=O)c3ccc(-c4c5nc(c(-c6ccc(S(=O)(=O)[O-])cc6)c6ccc([nH]6)c(-c6ccc(S(=O)(=O)[O-])cc6)c6nc(c(-c7ccc(S(=O)(=O)[O-])cc7)c7ccc4[nH]7)C=C6)C=C5)cc3)c(F)c2F)C1
REMARK SMILES IDX 19 1 18 2 17 3 16 4 15 5 13 6 14 7 12 8 9 9 10 10 89 11
REMARK SMILES IDX 11 12 87 13 90 14 88 15 8 16 4 17 5 18 91 19 6 20 7 21 3 22
REMARK SMILES IDX 2 23 1 24 20 27 21 28 22 29 23 30 24 31 25 32 26 33 27 34
REMARK SMILES IDX 28 35 86 36 29 37 85 38 30 39 31 40 32 41 79 42 33 43 84 44
REMARK SMILES IDX 78 45 80 46 34 47 83 48 77 49 76 50 35 52 65 53 46 54 64 55
REMARK SMILES IDX 47 56 50 57 63 58 81 59 48 60 49 61 62 63 82 64 51 65 36 66
REMARK SMILES IDX 37 67 45 68 38 69 44 70 39 71 40 72 41 73 42 74 43 75 66 76
REMARK SMILES IDX 67 77 75 78 68 79 74 80 69 81 70 82 71 83 72 84 73 85 52 86
REMARK SMILES IDX 53 87 61 88 54 89 60 90 55 91 56 92 57 93 58 94 59 95
REMARK H PARENT 2 25 2 26 80 51 50 62
REMARK Flexibility Score: inf
ROOT
ATOM      1  C   UNL A   1      32.709  30.460  26.773  1.00  0.00     0.188 C 
ENDROOT
BRANCH   1   2
ATOM      2  O   UNL A   1      32.961  29.432  25.838  1.00  0.00    -0.376 OA
BRANCH   2   3
ATOM      3  C   UNL A   1      32.364  29.467  24.552  1.00  0.00     0.202 C 
BRANCH   3   4
ATOM      4  C   UNL A   1      30.849  29.393  24.308  1.00  0.00     0.261 C 
BRANCH   4   5
ATOM      5  O   UNL A   1      30.431  28.644  23.161  1.00  0.00    -0.460 OA
BRANCH   5   6
ATOM      6  C   UNL A   1      29.812  27.470  23.434  1.00  0.00     0.341 C 
ATOM      7  O   UNL A   1      28.611  27.267  23.490  1.00  0.00    -0.246 OA
BRANCH   6   8
ATOM      8  C   UNL A   1      30.787  26.370  23.456  1.00  0.00     0.099 A 
ATOM      9  C   UNL A   1      32.584  24.196  23.367  1.00  0.00     0.076 A 
ATOM     10  C   UNL A   1      32.450  25.065  22.274  1.00  0.00     0.030 A 
ATOM     11  C   UNL A   1      31.828  24.485  24.521  1.00  0.00     0.182 A 
ATOM     12  C   UNL A   1      31.544  26.128  22.304  1.00  0.00     0.021 A 
ATOM     13  C   UNL A   1      30.949  25.566  24.573  1.00  0.00     0.175 A 
ATOM     14  F   UNL A   1      31.949  23.707  25.610  1.00  0.00    -0.201 F 
ATOM     15  F   UNL A   1      30.247  25.792  25.694  1.00  0.00    -0.203 F 
BRANCH   9  16
ATOM     16  N   UNL A   1      33.396  23.084  23.250  1.00  0.00    -0.369 N 
ATOM     17  C   UNL A   1      33.120  20.882  24.317  1.00  0.00     0.064 C 
ATOM     18  C   UNL A   1      34.618  20.932  24.667  1.00  0.00     0.013 C 
ATOM     19  C   UNL A   1      32.816  21.751  23.088  1.00  0.00     0.126 C 
ATOM     20  C   UNL A   1      35.120  22.372  24.801  1.00  0.00     0.022 C 
ATOM     21  C   UNL A   1      34.823  23.173  23.533  1.00  0.00     0.116 C 
BRANCH  17  22
ATOM     22  C   UNL A   1      32.557  19.453  24.156  1.00  0.00     0.265 C 
BRANCH  22  23
ATOM     23  N   UNL A   1      33.317  18.353  24.751  1.00  0.00    -0.348 N 
ATOM     24  C   UNL A   1      32.582  17.655  25.798  1.00  0.00     0.330 C 
ATOM     25  H   UNL A   1      33.550  17.683  24.017  1.00  0.00     0.346 HD
ATOM     26  H   UNL A   1      34.153  18.753  25.178  1.00  0.00     0.346 HD
ENDBRANCH  22  23
ENDBRANCH  17  22
ENDBRANCH   9  16
ENDBRANCH   6   8
ENDBRANCH   5   6
ENDBRANCH   4   5
ENDBRANCH   3   4
ENDBRANCH   2   3
ENDBRANCH   1   2
BRANCH   1  27
ATOM     27  C   UNL A   1      33.880  31.063  27.575  1.00  0.00     0.188 C 
BRANCH  27  28
ATOM     28  O   UNL A   1      33.758  32.349  28.136  1.00  0.00    -0.376 OA
BRANCH  28  29
ATOM     29  C   UNL A   1      34.848  32.946  28.815  1.00  0.00     0.202 C 
BRANCH  29  30
ATOM     30  C   UNL A   1      35.364  32.541  30.209  1.00  0.00     0.261 C 
BRANCH  30  31
ATOM     31  O   UNL A   1      35.973  31.257  30.352  1.00  0.00    -0.460 OA
BRANCH  31  32
ATOM     32  C   UNL A   1      36.927  31.169  31.309  1.00  0.00     0.338 C 
ATOM     33  O   UNL A   1      36.792  31.362  32.511  1.00  0.00    -0.246 OA
BRANCH  32  34
ATOM     34  C   UNL A   1      38.152  30.617  30.710  1.00  0.00     0.060 A 
ATOM     35  C   UNL A   1      39.223  30.277  31.548  1.00  0.00     0.016 A 
ATOM     36  C   UNL A   1      38.253  30.460  29.328  1.00  0.00     0.016 A 
ATOM     37  C   UNL A   1      40.404  29.777  31.003  1.00  0.00     0.010 A 
ATOM     38  C   UNL A   1      39.447  29.983  28.781  1.00  0.00     0.010 A 
ATOM     39  C   UNL A   1      40.535  29.656  29.614  1.00  0.00    -0.014 A 
BRANCH  39  40
ATOM     40  C   UNL A   1      41.849  29.323  29.015  1.00  0.00     0.031 A 
ATOM     41  C   UNL A   1      42.093  27.919  28.539  1.00  0.00     0.074 A 
ATOM     42  C   UNL A   1      42.813  30.254  28.901  1.00  0.00     0.049 A 
ATOM     43  N   UNL A   1      43.185  27.387  28.056  1.00  0.00    -0.248 NA
ATOM     44  C   UNL A   1      40.952  26.993  28.621  1.00  0.00     0.031 C 
ATOM     45  C   UNL A   1      42.684  31.657  29.289  1.00  0.00     0.029 A 
ATOM     46  N   UNL A   1      44.101  30.147  28.440  1.00  0.00    -0.354 N 
ATOM     47  C   UNL A   1      42.869  26.061  27.783  1.00  0.00     0.074 A 
ATOM     48  C   UNL A   1      41.492  25.864  28.185  1.00  0.00     0.031 C 
ATOM     49  C   UNL A   1      43.858  32.277  29.071  1.00  0.00     0.029 A 
ATOM     50  C   UNL A   1      44.828  31.306  28.567  1.00  0.00     0.049 A 
ATOM     51  H   UNL A   1      44.469  29.319  28.054  1.00  0.00     0.167 HD
ATOM     52  C   UNL A   1      43.651  25.096  27.243  1.00  0.00     0.031 A 
ATOM     53  C   UNL A   1      46.135  31.548  28.339  1.00  0.00     0.031 A 
ATOM     54  C   UNL A   1      45.030  25.287  26.881  1.00  0.00     0.049 A 
ATOM     55  C   UNL A   1      47.014  30.439  27.826  1.00  0.00     0.074 A 
ATOM     56  C   UNL A   1      45.909  24.373  26.325  1.00  0.00     0.029 A 
ATOM     57  N   UNL A   1      45.739  26.468  27.051  1.00  0.00    -0.354 N 
ATOM     58  N   UNL A   1      46.696  29.196  27.545  1.00  0.00    -0.248 NA
ATOM     59  C   UNL A   1      48.429  30.763  27.592  1.00  0.00     0.031 C 
ATOM     60  C   UNL A   1      47.164  24.982  26.220  1.00  0.00     0.029 A 
ATOM     61  C   UNL A   1      47.050  26.298  26.641  1.00  0.00     0.049 A 
ATOM     62  H   UNL A   1      45.364  27.304  27.410  1.00  0.00     0.167 HD
ATOM     63  C   UNL A   1      47.865  28.599  27.082  1.00  0.00     0.074 A 
ATOM     64  C   UNL A   1      48.892  29.621  27.103  1.00  0.00     0.031 C 
ATOM     65  C   UNL A   1      48.068  27.320  26.675  1.00  0.00     0.031 A 
BRANCH  52  66
ATOM     66  C   UNL A   1      43.034  23.734  27.055  1.00  0.00    -0.014 A 
ATOM     67  C   UNL A   1      42.570  23.311  25.795  1.00  0.00     0.010 A 
ATOM     68  C   UNL A   1      42.924  22.860  28.152  1.00  0.00     0.010 A 
ATOM     69  C   UNL A   1      41.959  22.063  25.649  1.00  0.00     0.020 A 
ATOM     70  C   UNL A   1      42.344  21.597  28.001  1.00  0.00     0.020 A 
ATOM     71  C   UNL A   1      41.845  21.216  26.755  1.00  0.00     0.054 A 
BRANCH  71  72
ATOM     72  S   UNL A   1      41.044  19.603  26.535  1.00  0.00     0.124 S 
ATOM     73  O   UNL A   1      40.838  19.180  27.918  1.00  0.00    -0.237 OA
ATOM     74  O   UNL A   1      39.831  19.947  25.798  1.00  0.00    -0.237 OA
ATOM     75  O   UNL A   1      42.028  18.826  25.786  1.00  0.00    -0.744 OA
ENDBRANCH  71  72
ENDBRANCH  52  66
BRANCH  53  76
ATOM     76  C   UNL A   1      46.695  32.898  28.632  1.00  0.00    -0.014 A 
ATOM     77  C   UNL A   1      47.144  33.229  29.921  1.00  0.00     0.010 A 
ATOM     78  C   UNL A   1      46.798  33.855  27.605  1.00  0.00     0.010 A 
ATOM     79  C   UNL A   1      47.684  34.494  30.179  1.00  0.00     0.020 A 
ATOM     80  C   UNL A   1      47.365  35.109  27.852  1.00  0.00     0.020 A 
ATOM     81  C   UNL A   1      47.798  35.422  29.140  1.00  0.00     0.054 A 
BRANCH  81  82
ATOM     82  S   UNL A   1      48.569  37.029  29.484  1.00  0.00     0.124 S 
ATOM     83  O   UNL A   1      49.227  37.329  28.216  1.00  0.00    -0.237 OA
ATOM     84  O   UNL A   1      47.417  37.864  29.813  1.00  0.00    -0.237 OA
ATOM     85  O   UNL A   1      49.465  36.745  30.603  1.00  0.00    -0.744 OA
ENDBRANCH  81  82
ENDBRANCH  53  76
BRANCH  65  86
ATOM     86  C   UNL A   1      49.448  26.952  26.189  1.00  0.00    -0.014 A 
ATOM     87  C   UNL A   1      50.413  26.417  27.061  1.00  0.00     0.010 A 
ATOM     88  C   UNL A   1      49.760  27.081  24.822  1.00  0.00     0.010 A 
ATOM     89  C   UNL A   1      51.672  26.044  26.581  1.00  0.00     0.020 A 
ATOM     90  C   UNL A   1      51.006  26.682  24.333  1.00  0.00     0.020 A 
ATOM     91  C   UNL A   1      51.960  26.177  25.218  1.00  0.00     0.054 A 
BRANCH  91  92
ATOM     92  S   UNL A   1      53.583  25.638  24.612  1.00  0.00     0.124 S 
ATOM     93  O   UNL A   1      54.477  26.618  25.225  1.00  0.00    -0.237 OA
ATOM     94  O   UNL A   1      53.685  24.279  25.138  1.00  0.00    -0.237 OA
ATOM     95  O   UNL A   1      53.461  25.731  23.160  1.00  0.00    -0.744 OA
ENDBRANCH  91  92
ENDBRANCH  65  86
ENDBRANCH  39  40
ENDBRANCH  32  34
ENDBRANCH  31  32
ENDBRANCH  30  31
ENDBRANCH  29  30
ENDBRANCH  28  29
ENDBRANCH  27  28
ENDBRANCH   1  27
TORSDOF 23
ENDMDL
