MODEL 1
REMARK VINA RESULT:      -9.7      0.000      0.000
REMARK SMILES CC(C)CC(=O)N[C@@H](CC(=O)OCCOCCOCCOC(=O)c1ccc(-c2c3nc(c(-c4ccc(S(=O)(=O)[O-])cc4)c4ccc([nH]4)c(-c4ccc(S(=O)(=O)[O-])cc4)c4nc(c(-c5ccc(S(=O)(=O)[O-])cc5)c5ccc2[nH]5)C=C4)C=C3)cc1)c1ccccc1Cl
REMARK SMILES IDX 16 1 15 2 14 3 13 4 12 5 10 6 11 7 9 8 8 9 7 10 5 11 6 12
REMARK SMILES IDX 4 14 2 15 1 16 3 17 84 18 85 19 89 20 86 21 88 22 90 23
REMARK SMILES IDX 87 24 17 25 18 26 19 27 20 28 21 29 22 30 23 31 24 32 25 33
REMARK SMILES IDX 83 34 26 35 82 36 27 37 28 38 29 39 76 40 30 41 81 42 75 43
REMARK SMILES IDX 77 44 31 45 80 46 74 47 73 48 32 50 62 51 43 52 61 53 44 54
REMARK SMILES IDX 47 55 60 56 78 57 45 58 46 59 59 61 79 62 48 63 33 64 34 65
REMARK SMILES IDX 42 66 35 67 41 68 36 69 37 70 38 71 39 72 40 73 63 74 64 75
REMARK SMILES IDX 72 76 65 77 71 78 66 79 67 80 68 81 69 82 70 83 49 84 50 85
REMARK SMILES IDX 58 86 51 87 57 88 52 89 53 90 54 91 55 92 56 93
REMARK H PARENT 7 13 77 49 47 60
REMARK Flexibility Score: inf
ROOT
ATOM      1  C   UNL A   1      40.047  21.428  26.489  1.00  0.00     0.188 C 
ENDROOT
BRANCH   1   2
ATOM      2  O   UNL A   1      39.256  22.582  26.233  1.00  0.00    -0.376 OA
BRANCH   2   3
ATOM      3  C   UNL A   1      37.865  22.454  26.006  1.00  0.00     0.202 C 
BRANCH   3   4
ATOM      4  C   UNL A   1      37.460  21.987  24.608  1.00  0.00     0.261 C 
BRANCH   4   5
ATOM      5  O   UNL A   1      36.172  21.341  24.539  1.00  0.00    -0.463 OA
BRANCH   5   6
ATOM      6  C   UNL A   1      35.111  22.180  24.414  1.00  0.00     0.308 C 
ATOM      7  O   UNL A   1      35.042  23.098  23.605  1.00  0.00    -0.252 OA
BRANCH   6   8
ATOM      8  C   UNL A   1      34.077  22.014  25.493  1.00  0.00     0.152 C 
BRANCH   8   9
ATOM      9  C   UNL A   1      32.688  21.401  25.215  1.00  0.00     0.125 C 
BRANCH   9  10
ATOM     10  N   UNL A   1      31.773  21.785  26.276  1.00  0.00    -0.349 N 
ATOM     11  C   UNL A   1      31.063  22.950  26.386  1.00  0.00     0.220 C 
ATOM     12  O   UNL A   1      30.564  23.249  27.471  1.00  0.00    -0.275 OA
ATOM     13  H   UNL A   1      31.650  21.131  27.001  1.00  0.00     0.164 HD
BRANCH  11  14
ATOM     14  C   UNL A   1      30.861  23.824  25.155  1.00  0.00     0.103 C 
BRANCH  14  15
ATOM     15  C   UNL A   1      31.875  24.967  24.974  1.00  0.00    -0.008 C 
ATOM     16  C   UNL A   1      31.965  25.516  23.552  1.00  0.00     0.008 C 
ATOM     17  C   UNL A   1      31.501  26.118  25.912  1.00  0.00     0.008 C 
ENDBRANCH  14  15
ENDBRANCH  11  14
ENDBRANCH   9  10
BRANCH   9  18
ATOM     18  C   UNL A   1      32.537  19.998  24.611  1.00  0.00    -0.006 A 
ATOM     19  C   UNL A   1      32.891  18.903  25.434  1.00  0.00     0.007 A 
ATOM     20  C   UNL A   1      32.317  19.699  23.244  1.00  0.00     0.046 A 
ATOM     21  C   UNL A   1      33.044  17.607  24.927  1.00  0.00     0.000 A 
ATOM     22  C   UNL A   1      32.436  18.384  22.753  1.00  0.00     0.021 A 
ATOM     23  Cl  UNL A   1      31.935  20.869  22.030  1.00  0.00    -0.084 Cl
ATOM     24  C   UNL A   1      32.802  17.340  23.590  1.00  0.00     0.002 A 
ENDBRANCH   9  18
ENDBRANCH   8   9
ENDBRANCH   6   8
ENDBRANCH   5   6
ENDBRANCH   4   5
ENDBRANCH   3   4
ENDBRANCH   2   3
ENDBRANCH   1   2
BRANCH   1  25
ATOM     25  C   UNL A   1      41.568  21.445  26.242  1.00  0.00     0.188 C 
BRANCH  25  26
ATOM     26  O   UNL A   1      42.107  22.476  25.426  1.00  0.00    -0.376 OA
BRANCH  26  27
ATOM     27  C   UNL A   1      42.497  23.672  26.092  1.00  0.00     0.202 C 
BRANCH  27  28
ATOM     28  C   UNL A   1      42.821  24.828  25.149  1.00  0.00     0.261 C 
BRANCH  28  29
ATOM     29  O   UNL A   1      41.912  25.926  25.365  1.00  0.00    -0.460 OA
BRANCH  29  30
ATOM     30  C   UNL A   1      42.460  27.142  25.148  1.00  0.00     0.338 C 
ATOM     31  O   UNL A   1      43.225  27.441  24.248  1.00  0.00    -0.246 OA
BRANCH  30  32
ATOM     32  C   UNL A   1      42.008  28.125  26.153  1.00  0.00     0.060 A 
ATOM     33  C   UNL A   1      42.914  28.975  26.788  1.00  0.00     0.016 A 
ATOM     34  C   UNL A   1      40.707  28.012  26.641  1.00  0.00     0.016 A 
ATOM     35  C   UNL A   1      42.566  29.587  27.999  1.00  0.00     0.010 A 
ATOM     36  C   UNL A   1      40.343  28.681  27.813  1.00  0.00     0.010 A 
ATOM     37  C   UNL A   1      41.294  29.401  28.556  1.00  0.00    -0.014 A 
BRANCH  37  38
ATOM     38  C   UNL A   1      40.990  29.782  29.971  1.00  0.00     0.031 A 
ATOM     39  C   UNL A   1      39.769  30.634  30.254  1.00  0.00     0.074 A 
ATOM     40  C   UNL A   1      41.734  29.364  31.014  1.00  0.00     0.049 A 
ATOM     41  N   UNL A   1      39.467  31.329  31.322  1.00  0.00    -0.248 NA
ATOM     42  C   UNL A   1      38.765  30.725  29.180  1.00  0.00     0.031 C 
ATOM     43  C   UNL A   1      42.867  28.443  30.945  1.00  0.00     0.029 A 
ATOM     44  N   UNL A   1      41.636  29.668  32.353  1.00  0.00    -0.354 N 
ATOM     45  C   UNL A   1      38.293  32.012  31.012  1.00  0.00     0.074 A 
ATOM     46  C   UNL A   1      37.927  31.629  29.666  1.00  0.00     0.031 C 
ATOM     47  C   UNL A   1      43.337  28.230  32.185  1.00  0.00     0.029 A 
ATOM     48  C   UNL A   1      42.614  29.085  33.123  1.00  0.00     0.049 A 
ATOM     49  H   UNL A   1      40.932  30.248  32.724  1.00  0.00     0.167 HD
ATOM     50  C   UNL A   1      37.596  32.891  31.773  1.00  0.00     0.031 A 
ATOM     51  C   UNL A   1      42.942  29.262  34.419  1.00  0.00     0.031 A 
ATOM     52  C   UNL A   1      37.929  33.218  33.135  1.00  0.00     0.049 A 
ATOM     53  C   UNL A   1      42.184  30.269  35.242  1.00  0.00     0.074 A 
ATOM     54  C   UNL A   1      37.309  34.120  33.984  1.00  0.00     0.029 A 
ATOM     55  N   UNL A   1      38.953  32.628  33.859  1.00  0.00    -0.354 N 
ATOM     56  N   UNL A   1      41.170  31.024  34.894  1.00  0.00    -0.248 NA
ATOM     57  C   UNL A   1      42.635  30.465  36.627  1.00  0.00     0.031 C 
ATOM     58  C   UNL A   1      37.978  34.094  35.214  1.00  0.00     0.029 A 
ATOM     59  C   UNL A   1      38.981  33.142  35.144  1.00  0.00     0.049 A 
ATOM     60  H   UNL A   1      39.570  31.945  33.510  1.00  0.00     0.167 HD
ATOM     61  C   UNL A   1      40.854  31.776  36.021  1.00  0.00     0.074 A 
ATOM     62  C   UNL A   1      41.769  31.369  37.066  1.00  0.00     0.031 C 
ATOM     63  C   UNL A   1      39.897  32.724  36.174  1.00  0.00     0.031 A 
BRANCH  50  64
ATOM     64  C   UNL A   1      36.445  33.617  31.125  1.00  0.00    -0.014 A 
ATOM     65  C   UNL A   1      35.209  33.786  31.772  1.00  0.00     0.010 A 
ATOM     66  C   UNL A   1      36.622  34.163  29.839  1.00  0.00     0.010 A 
ATOM     67  C   UNL A   1      34.157  34.448  31.127  1.00  0.00     0.020 A 
ATOM     68  C   UNL A   1      35.585  34.850  29.202  1.00  0.00     0.020 A 
ATOM     69  C   UNL A   1      34.351  34.969  29.843  1.00  0.00     0.054 A 
BRANCH  69  70
ATOM     70  S   UNL A   1      32.976  35.827  29.028  1.00  0.00     0.124 S 
ATOM     71  O   UNL A   1      33.677  36.849  28.254  1.00  0.00    -0.237 OA
ATOM     72  O   UNL A   1      32.352  34.765  28.243  1.00  0.00    -0.237 OA
ATOM     73  O   UNL A   1      32.172  36.330  30.139  1.00  0.00    -0.744 OA
ENDBRANCH  69  70
ENDBRANCH  50  64
BRANCH  51  74
ATOM     74  C   UNL A   1      44.097  28.522  35.000  1.00  0.00    -0.014 A 
ATOM     75  C   UNL A   1      43.916  27.267  35.607  1.00  0.00     0.010 A 
ATOM     76  C   UNL A   1      45.393  29.068  34.933  1.00  0.00     0.010 A 
ATOM     77  C   UNL A   1      45.009  26.573  36.137  1.00  0.00     0.020 A 
ATOM     78  C   UNL A   1      46.492  28.363  35.430  1.00  0.00     0.020 A 
ATOM     79  C   UNL A   1      46.290  27.122  36.038  1.00  0.00     0.054 A 
BRANCH  79  80
ATOM     80  S   UNL A   1      47.707  26.173  36.660  1.00  0.00     0.124 S 
ATOM     81  O   UNL A   1      48.641  27.231  37.028  1.00  0.00    -0.237 OA
ATOM     82  O   UNL A   1      47.124  25.427  37.771  1.00  0.00    -0.237 OA
ATOM     83  O   UNL A   1      48.100  25.359  35.511  1.00  0.00    -0.744 OA
ENDBRANCH  79  80
ENDBRANCH  51  74
BRANCH  63  84
ATOM     84  C   UNL A   1      39.759  33.348  37.537  1.00  0.00    -0.014 A 
ATOM     85  C   UNL A   1      40.566  34.429  37.932  1.00  0.00     0.010 A 
ATOM     86  C   UNL A   1      38.789  32.852  38.428  1.00  0.00     0.010 A 
ATOM     87  C   UNL A   1      40.435  34.976  39.212  1.00  0.00     0.020 A 
ATOM     88  C   UNL A   1      38.639  33.411  39.699  1.00  0.00     0.020 A 
ATOM     89  C   UNL A   1      39.478  34.458  40.091  1.00  0.00     0.054 A 
BRANCH  89  90
ATOM     90  S   UNL A   1      39.317  35.189  41.742  1.00  0.00     0.124 S 
ATOM     91  O   UNL A   1      40.310  36.258  41.699  1.00  0.00    -0.237 OA
ATOM     92  O   UNL A   1      37.923  35.625  41.769  1.00  0.00    -0.237 OA
ATOM     93  O   UNL A   1      39.634  34.081  42.642  1.00  0.00    -0.744 OA
ENDBRANCH  89  90
ENDBRANCH  63  84
ENDBRANCH  37  38
ENDBRANCH  30  32
ENDBRANCH  29  30
ENDBRANCH  28  29
ENDBRANCH  27  28
ENDBRANCH  26  27
ENDBRANCH  25  26
ENDBRANCH   1  25
TORSDOF 25
ENDMDL
MODEL 2
REMARK VINA RESULT:      -9.1      5.389     10.694
REMARK SMILES CC(C)CC(=O)N[C@@H](CC(=O)OCCOCCOCCOC(=O)c1ccc(-c2c3nc(c(-c4ccc(S(=O)(=O)[O-])cc4)c4ccc([nH]4)c(-c4ccc(S(=O)(=O)[O-])cc4)c4nc(c(-c5ccc(S(=O)(=O)[O-])cc5)c5ccc2[nH]5)C=C4)C=C3)cc1)c1ccccc1Cl
REMARK SMILES IDX 16 1 15 2 14 3 13 4 12 5 10 6 11 7 9 8 8 9 7 10 5 11 6 12
REMARK SMILES IDX 4 14 2 15 1 16 3 17 84 18 85 19 89 20 86 21 88 22 90 23
REMARK SMILES IDX 87 24 17 25 18 26 19 27 20 28 21 29 22 30 23 31 24 32 25 33
REMARK SMILES IDX 83 34 26 35 82 36 27 37 28 38 29 39 76 40 30 41 81 42 75 43
REMARK SMILES IDX 77 44 31 45 80 46 74 47 73 48 32 50 62 51 43 52 61 53 44 54
REMARK SMILES IDX 47 55 60 56 78 57 45 58 46 59 59 61 79 62 48 63 33 64 34 65
REMARK SMILES IDX 42 66 35 67 41 68 36 69 37 70 38 71 39 72 40 73 63 74 64 75
REMARK SMILES IDX 72 76 65 77 71 78 66 79 67 80 68 81 69 82 70 83 49 84 50 85
REMARK SMILES IDX 58 86 51 87 57 88 52 89 53 90 54 91 55 92 56 93
REMARK H PARENT 7 13 77 49 47 60
REMARK Flexibility Score: inf
ROOT
ATOM      1  C   UNL A   1      36.056  21.449  24.847  1.00  0.00     0.188 C 
ENDROOT
BRANCH   1   2
ATOM      2  O   UNL A   1      34.992  21.091  25.719  1.00  0.00    -0.376 OA
BRANCH   2   3
ATOM      3  C   UNL A   1      33.958  20.237  25.266  1.00  0.00     0.202 C 
BRANCH   3   4
ATOM      4  C   UNL A   1      32.557  20.846  25.239  1.00  0.00     0.261 C 
BRANCH   4   5
ATOM      5  O   UNL A   1      32.522  22.283  25.360  1.00  0.00    -0.463 OA
BRANCH   5   6
ATOM      6  C   UNL A   1      31.776  22.922  24.422  1.00  0.00     0.308 C 
ATOM      7  O   UNL A   1      31.910  22.782  23.212  1.00  0.00    -0.252 OA
BRANCH   6   8
ATOM      8  C   UNL A   1      30.872  23.983  24.987  1.00  0.00     0.152 C 
BRANCH   8   9
ATOM      9  C   UNL A   1      31.092  25.486  24.712  1.00  0.00     0.125 C 
BRANCH   9  10
ATOM     10  N   UNL A   1      31.326  25.685  23.293  1.00  0.00    -0.349 N 
ATOM     11  C   UNL A   1      31.166  26.839  22.573  1.00  0.00     0.220 C 
ATOM     12  O   UNL A   1      31.123  26.778  21.344  1.00  0.00    -0.275 OA
ATOM     13  H   UNL A   1      31.636  24.897  22.789  1.00  0.00     0.164 HD
BRANCH  11  14
ATOM     14  C   UNL A   1      31.099  28.174  23.302  1.00  0.00     0.103 C 
BRANCH  14  15
ATOM     15  C   UNL A   1      29.748  28.905  23.231  1.00  0.00    -0.008 C 
ATOM     16  C   UNL A   1      29.566  29.783  21.995  1.00  0.00     0.008 C 
ATOM     17  C   UNL A   1      28.619  27.871  23.256  1.00  0.00     0.008 C 
ENDBRANCH  14  15
ENDBRANCH  11  14
ENDBRANCH   9  10
BRANCH   9  18
ATOM     18  C   UNL A   1      31.861  26.376  25.698  1.00  0.00    -0.006 A 
ATOM     19  C   UNL A   1      31.096  27.257  26.499  1.00  0.00     0.007 A 
ATOM     20  C   UNL A   1      33.262  26.585  25.715  1.00  0.00     0.046 A 
ATOM     21  C   UNL A   1      31.680  28.291  27.240  1.00  0.00     0.000 A 
ATOM     22  C   UNL A   1      33.841  27.604  26.496  1.00  0.00     0.021 A 
ATOM     23  Cl  UNL A   1      34.402  25.684  24.778  1.00  0.00    -0.084 Cl
ATOM     24  C   UNL A   1      33.054  28.457  27.255  1.00  0.00     0.002 A 
ENDBRANCH   9  18
ENDBRANCH   8   9
ENDBRANCH   6   8
ENDBRANCH   5   6
ENDBRANCH   4   5
ENDBRANCH   3   4
ENDBRANCH   2   3
ENDBRANCH   1   2
BRANCH   1  25
ATOM     25  C   UNL A   1      37.275  20.523  24.670  1.00  0.00     0.188 C 
BRANCH  25  26
ATOM     26  O   UNL A   1      38.427  20.766  25.465  1.00  0.00    -0.376 OA
BRANCH  26  27
ATOM     27  C   UNL A   1      39.372  19.705  25.551  1.00  0.00     0.202 C 
BRANCH  27  28
ATOM     28  C   UNL A   1      40.543  19.992  26.488  1.00  0.00     0.261 C 
BRANCH  28  29
ATOM     29  O   UNL A   1      41.708  19.247  26.084  1.00  0.00    -0.460 OA
BRANCH  29  30
ATOM     30  C   UNL A   1      42.812  20.006  25.913  1.00  0.00     0.338 C 
ATOM     31  O   UNL A   1      43.885  19.634  25.470  1.00  0.00    -0.246 OA
BRANCH  30  32
ATOM     32  C   UNL A   1      42.575  21.405  26.325  1.00  0.00     0.060 A 
ATOM     33  C   UNL A   1      42.272  22.391  25.386  1.00  0.00     0.016 A 
ATOM     34  C   UNL A   1      42.911  21.770  27.627  1.00  0.00     0.016 A 
ATOM     35  C   UNL A   1      42.458  23.741  25.706  1.00  0.00     0.010 A 
ATOM     36  C   UNL A   1      43.029  23.121  27.963  1.00  0.00     0.010 A 
ATOM     37  C   UNL A   1      42.896  24.121  26.982  1.00  0.00    -0.014 A 
BRANCH  37  38
ATOM     38  C   UNL A   1      43.390  25.504  27.268  1.00  0.00     0.031 A 
ATOM     39  C   UNL A   1      44.838  25.841  26.971  1.00  0.00     0.074 A 
ATOM     40  C   UNL A   1      42.591  26.480  27.740  1.00  0.00     0.049 A 
ATOM     41  N   UNL A   1      45.565  26.843  27.397  1.00  0.00    -0.248 NA
ATOM     42  C   UNL A   1      45.564  24.911  26.089  1.00  0.00     0.031 C 
ATOM     43  C   UNL A   1      41.150  26.375  27.967  1.00  0.00     0.029 A 
ATOM     44  N   UNL A   1      42.890  27.770  28.114  1.00  0.00    -0.354 N 
ATOM     45  C   UNL A   1      46.852  26.612  26.916  1.00  0.00     0.074 A 
ATOM     46  C   UNL A   1      46.799  25.388  26.146  1.00  0.00     0.031 C 
ATOM     47  C   UNL A   1      40.687  27.556  28.407  1.00  0.00     0.029 A 
ATOM     48  C   UNL A   1      41.811  28.467  28.601  1.00  0.00     0.049 A 
ATOM     49  H   UNL A   1      43.793  28.157  28.039  1.00  0.00     0.167 HD
ATOM     50  C   UNL A   1      47.976  27.343  27.112  1.00  0.00     0.031 A 
ATOM     51  C   UNL A   1      41.734  29.674  29.199  1.00  0.00     0.031 A 
ATOM     52  C   UNL A   1      48.009  28.594  27.823  1.00  0.00     0.049 A 
ATOM     53  C   UNL A   1      42.995  30.458  29.446  1.00  0.00     0.074 A 
ATOM     54  C   UNL A   1      49.100  29.399  28.107  1.00  0.00     0.029 A 
ATOM     55  N   UNL A   1      46.893  29.241  28.332  1.00  0.00    -0.354 N 
ATOM     56  N   UNL A   1      44.230  30.159  29.121  1.00  0.00    -0.248 NA
ATOM     57  C   UNL A   1      42.851  31.733  30.163  1.00  0.00     0.031 C 
ATOM     58  C   UNL A   1      48.645  30.519  28.814  1.00  0.00     0.029 A 
ATOM     59  C   UNL A   1      47.267  30.435  28.924  1.00  0.00     0.049 A 
ATOM     60  H   UNL A   1      45.970  28.901  28.279  1.00  0.00     0.167 HD
ATOM     61  C   UNL A   1      45.009  31.214  29.585  1.00  0.00     0.074 A 
ATOM     62  C   UNL A   1      44.104  32.168  30.191  1.00  0.00     0.031 C 
ATOM     63  C   UNL A   1      46.354  31.375  29.521  1.00  0.00     0.031 A 
BRANCH  50  64
ATOM     64  C   UNL A   1      49.278  26.771  26.612  1.00  0.00    -0.014 A 
ATOM     65  C   UNL A   1      49.996  25.805  27.336  1.00  0.00     0.010 A 
ATOM     66  C   UNL A   1      49.779  27.204  25.369  1.00  0.00     0.010 A 
ATOM     67  C   UNL A   1      51.213  25.315  26.848  1.00  0.00     0.020 A 
ATOM     68  C   UNL A   1      50.978  26.696  24.863  1.00  0.00     0.020 A 
ATOM     69  C   UNL A   1      51.699  25.770  25.617  1.00  0.00     0.054 A 
BRANCH  69  70
ATOM     70  S   UNL A   1      53.276  25.117  25.001  1.00  0.00     0.124 S 
ATOM     71  O   UNL A   1      53.174  25.390  23.569  1.00  0.00    -0.237 OA
ATOM     72  O   UNL A   1      54.261  25.918  25.723  1.00  0.00    -0.237 OA
ATOM     73  O   UNL A   1      53.236  23.704  25.371  1.00  0.00    -0.744 OA
ENDBRANCH  69  70
ENDBRANCH  50  64
BRANCH  51  74
ATOM     74  C   UNL A   1      40.418  30.181  29.681  1.00  0.00    -0.014 A 
ATOM     75  C   UNL A   1      39.353  30.380  28.786  1.00  0.00     0.010 A 
ATOM     76  C   UNL A   1      40.222  30.453  31.048  1.00  0.00     0.010 A 
ATOM     77  C   UNL A   1      38.116  30.842  29.249  1.00  0.00     0.020 A 
ATOM     78  C   UNL A   1      38.979  30.883  31.519  1.00  0.00     0.020 A 
ATOM     79  C   UNL A   1      37.936  31.083  30.614  1.00  0.00     0.054 A 
BRANCH  79  80
ATOM     80  S   UNL A   1      36.303  31.607  31.208  1.00  0.00     0.124 S 
ATOM     81  O   UNL A   1      35.881  30.450  31.990  1.00  0.00    -0.237 OA
ATOM     82  O   UNL A   1      36.617  32.810  31.975  1.00  0.00    -0.237 OA
ATOM     83  O   UNL A   1      35.553  31.842  29.976  1.00  0.00    -0.744 OA
ENDBRANCH  79  80
ENDBRANCH  51  74
BRANCH  63  84
ATOM     84  C   UNL A   1      46.920  32.654  30.078  1.00  0.00    -0.014 A 
ATOM     85  C   UNL A   1      47.336  32.748  31.417  1.00  0.00     0.010 A 
ATOM     86  C   UNL A   1      47.055  33.773  29.235  1.00  0.00     0.010 A 
ATOM     87  C   UNL A   1      47.837  33.954  31.916  1.00  0.00     0.020 A 
ATOM     88  C   UNL A   1      47.577  34.972  29.724  1.00  0.00     0.020 A 
ATOM     89  C   UNL A   1      47.947  35.062  31.068  1.00  0.00     0.054 A 
BRANCH  89  90
ATOM     90  S   UNL A   1      48.609  36.613  31.732  1.00  0.00     0.124 S 
ATOM     91  O   UNL A   1      48.567  37.486  30.562  1.00  0.00    -0.237 OA
ATOM     92  O   UNL A   1      47.663  36.941  32.796  1.00  0.00    -0.237 OA
ATOM     93  O   UNL A   1      49.949  36.249  32.189  1.00  0.00    -0.744 OA
ENDBRANCH  89  90
ENDBRANCH  63  84
ENDBRANCH  37  38
ENDBRANCH  30  32
ENDBRANCH  29  30
ENDBRANCH  28  29
ENDBRANCH  27  28
ENDBRANCH  26  27
ENDBRANCH  25  26
ENDBRANCH   1  25
TORSDOF 25
ENDMDL
MODEL 3
REMARK VINA RESULT:      -8.8      2.504      4.229
REMARK SMILES CC(C)CC(=O)N[C@@H](CC(=O)OCCOCCOCCOC(=O)c1ccc(-c2c3nc(c(-c4ccc(S(=O)(=O)[O-])cc4)c4ccc([nH]4)c(-c4ccc(S(=O)(=O)[O-])cc4)c4nc(c(-c5ccc(S(=O)(=O)[O-])cc5)c5ccc2[nH]5)C=C4)C=C3)cc1)c1ccccc1Cl
REMARK SMILES IDX 16 1 15 2 14 3 13 4 12 5 10 6 11 7 9 8 8 9 7 10 5 11 6 12
REMARK SMILES IDX 4 14 2 15 1 16 3 17 84 18 85 19 89 20 86 21 88 22 90 23
REMARK SMILES IDX 87 24 17 25 18 26 19 27 20 28 21 29 22 30 23 31 24 32 25 33
REMARK SMILES IDX 83 34 26 35 82 36 27 37 28 38 29 39 76 40 30 41 81 42 75 43
REMARK SMILES IDX 77 44 31 45 80 46 74 47 73 48 32 50 62 51 43 52 61 53 44 54
REMARK SMILES IDX 47 55 60 56 78 57 45 58 46 59 59 61 79 62 48 63 33 64 34 65
REMARK SMILES IDX 42 66 35 67 41 68 36 69 37 70 38 71 39 72 40 73 63 74 64 75
REMARK SMILES IDX 72 76 65 77 71 78 66 79 67 80 68 81 69 82 70 83 49 84 50 85
REMARK SMILES IDX 58 86 51 87 57 88 52 89 53 90 54 91 55 92 56 93
REMARK H PARENT 7 13 77 49 47 60
REMARK Flexibility Score: inf
ROOT
ATOM      1  C   UNL A   1      39.953  24.313  26.791  1.00  0.00     0.188 C 
ENDROOT
BRANCH   1   2
ATOM      2  O   UNL A   1      38.531  24.316  26.829  1.00  0.00    -0.376 OA
BRANCH   2   3
ATOM      3  C   UNL A   1      37.790  23.861  25.712  1.00  0.00     0.202 C 
BRANCH   3   4
ATOM      4  C   UNL A   1      36.930  22.620  25.945  1.00  0.00     0.261 C 
BRANCH   4   5
ATOM      5  O   UNL A   1      35.516  22.820  25.746  1.00  0.00    -0.463 OA
BRANCH   5   6
ATOM      6  C   UNL A   1      35.039  22.415  24.540  1.00  0.00     0.308 C 
ATOM      7  O   UNL A   1      35.073  23.089  23.517  1.00  0.00    -0.252 OA
BRANCH   6   8
ATOM      8  C   UNL A   1      34.280  21.118  24.593  1.00  0.00     0.152 C 
BRANCH   8   9
ATOM      9  C   UNL A   1      32.743  21.057  24.471  1.00  0.00     0.125 C 
BRANCH   9  10
ATOM     10  N   UNL A   1      32.382  20.111  23.430  1.00  0.00    -0.349 N 
ATOM     11  C   UNL A   1      32.367  18.744  23.511  1.00  0.00     0.220 C 
ATOM     12  O   UNL A   1      32.322  18.082  22.474  1.00  0.00    -0.275 OA
ATOM     13  H   UNL A   1      32.118  20.498  22.564  1.00  0.00     0.164 HD
BRANCH  11  14
ATOM     14  C   UNL A   1      32.351  18.074  24.879  1.00  0.00     0.103 C 
BRANCH  14  15
ATOM     15  C   UNL A   1      33.508  17.099  25.157  1.00  0.00    -0.008 C 
ATOM     16  C   UNL A   1      33.180  15.633  24.884  1.00  0.00     0.008 C 
ATOM     17  C   UNL A   1      34.710  17.492  24.295  1.00  0.00     0.008 C 
ENDBRANCH  14  15
ENDBRANCH  11  14
ENDBRANCH   9  10
BRANCH   9  18
ATOM     18  C   UNL A   1      31.875  22.312  24.631  1.00  0.00    -0.006 A 
ATOM     19  C   UNL A   1      31.357  22.890  23.448  1.00  0.00     0.007 A 
ATOM     20  C   UNL A   1      31.743  23.089  25.809  1.00  0.00     0.046 A 
ATOM     21  C   UNL A   1      30.776  24.164  23.432  1.00  0.00     0.000 A 
ATOM     22  C   UNL A   1      31.121  24.353  25.786  1.00  0.00     0.021 A 
ATOM     23  Cl  UNL A   1      32.348  22.632  27.362  1.00  0.00    -0.084 Cl
ATOM     24  C   UNL A   1      30.641  24.892  24.602  1.00  0.00     0.002 A 
ENDBRANCH   9  18
ENDBRANCH   8   9
ENDBRANCH   6   8
ENDBRANCH   5   6
ENDBRANCH   4   5
ENDBRANCH   3   4
ENDBRANCH   2   3
ENDBRANCH   1   2
BRANCH   1  25
ATOM     25  C   UNL A   1      40.765  25.301  27.651  1.00  0.00     0.188 C 
BRANCH  25  26
ATOM     26  O   UNL A   1      41.802  26.044  27.026  1.00  0.00    -0.376 OA
BRANCH  26  27
ATOM     27  C   UNL A   1      42.219  25.593  25.741  1.00  0.00     0.202 C 
BRANCH  27  28
ATOM     28  C   UNL A   1      43.704  25.251  25.657  1.00  0.00     0.261 C 
BRANCH  28  29
ATOM     29  O   UNL A   1      44.423  25.850  26.753  1.00  0.00    -0.460 OA
BRANCH  29  30
ATOM     30  C   UNL A   1      44.777  24.975  27.720  1.00  0.00     0.338 C 
ATOM     31  O   UNL A   1      45.027  23.792  27.568  1.00  0.00    -0.246 OA
BRANCH  30  32
ATOM     32  C   UNL A   1      44.846  25.629  29.042  1.00  0.00     0.060 A 
ATOM     33  C   UNL A   1      44.398  24.978  30.192  1.00  0.00     0.016 A 
ATOM     34  C   UNL A   1      45.126  26.994  29.084  1.00  0.00     0.016 A 
ATOM     35  C   UNL A   1      44.080  25.721  31.336  1.00  0.00     0.010 A 
ATOM     36  C   UNL A   1      44.872  27.721  30.250  1.00  0.00     0.010 A 
ATOM     37  C   UNL A   1      44.258  27.111  31.359  1.00  0.00    -0.014 A 
BRANCH  37  38
ATOM     38  C   UNL A   1      43.657  27.965  32.431  1.00  0.00     0.031 A 
ATOM     39  C   UNL A   1      42.321  28.632  32.175  1.00  0.00     0.074 A 
ATOM     40  C   UNL A   1      44.236  28.135  33.636  1.00  0.00     0.049 A 
ATOM     41  N   UNL A   1      41.753  29.630  32.803  1.00  0.00    -0.248 NA
ATOM     42  C   UNL A   1      41.529  28.109  31.047  1.00  0.00     0.031 C 
ATOM     43  C   UNL A   1      45.454  27.476  34.104  1.00  0.00     0.029 A 
ATOM     44  N   UNL A   1      43.859  28.925  34.698  1.00  0.00    -0.354 N 
ATOM     45  C   UNL A   1      40.590  29.916  32.091  1.00  0.00     0.074 A 
ATOM     46  C   UNL A   1      40.523  28.970  30.999  1.00  0.00     0.031 C 
ATOM     47  C   UNL A   1      45.707  27.862  35.365  1.00  0.00     0.029 A 
ATOM     48  C   UNL A   1      44.735  28.879  35.757  1.00  0.00     0.049 A 
ATOM     49  H   UNL A   1      43.040  29.472  34.699  1.00  0.00     0.167 HD
ATOM     50  C   UNL A   1      39.673  30.889  32.317  1.00  0.00     0.031 A 
ATOM     51  C   UNL A   1      44.795  29.613  36.887  1.00  0.00     0.031 A 
ATOM     52  C   UNL A   1      39.710  31.784  33.443  1.00  0.00     0.049 A 
ATOM     53  C   UNL A   1      43.794  30.715  37.107  1.00  0.00     0.074 A 
ATOM     54  C   UNL A   1      38.850  32.826  33.749  1.00  0.00     0.029 A 
ATOM     55  N   UNL A   1      40.640  31.721  34.469  1.00  0.00    -0.354 N 
ATOM     56  N   UNL A   1      42.786  31.078  36.350  1.00  0.00    -0.248 NA
ATOM     57  C   UNL A   1      43.956  31.522  38.325  1.00  0.00     0.031 C 
ATOM     58  C   UNL A   1      39.279  33.411  34.946  1.00  0.00     0.029 A 
ATOM     59  C   UNL A   1      40.374  32.701  35.410  1.00  0.00     0.049 A 
ATOM     60  H   UNL A   1      41.381  31.075  34.521  1.00  0.00     0.167 HD
ATOM     61  C   UNL A   1      42.188  32.150  37.006  1.00  0.00     0.074 A 
ATOM     62  C   UNL A   1      42.932  32.360  38.230  1.00  0.00     0.031 C 
ATOM     63  C   UNL A   1      41.122  32.896  36.625  1.00  0.00     0.031 A 
BRANCH  50  64
ATOM     64  C   UNL A   1      38.591  31.082  31.286  1.00  0.00    -0.014 A 
ATOM     65  C   UNL A   1      37.353  30.423  31.369  1.00  0.00     0.010 A 
ATOM     66  C   UNL A   1      38.820  31.971  30.217  1.00  0.00     0.010 A 
ATOM     67  C   UNL A   1      36.382  30.613  30.379  1.00  0.00     0.020 A 
ATOM     68  C   UNL A   1      37.842  32.186  29.242  1.00  0.00     0.020 A 
ATOM     69  C   UNL A   1      36.636  31.488  29.318  1.00  0.00     0.054 A 
BRANCH  69  70
ATOM     70  S   UNL A   1      35.362  31.723  28.048  1.00  0.00     0.124 S 
ATOM     71  O   UNL A   1      34.145  31.789  28.855  1.00  0.00    -0.237 OA
ATOM     72  O   UNL A   1      35.763  32.977  27.416  1.00  0.00    -0.237 OA
ATOM     73  O   UNL A   1      35.488  30.537  27.205  1.00  0.00    -0.744 OA
ENDBRANCH  69  70
ENDBRANCH  50  64
BRANCH  51  74
ATOM     74  C   UNL A   1      45.896  29.381  37.864  1.00  0.00    -0.014 A 
ATOM     75  C   UNL A   1      45.750  28.446  38.903  1.00  0.00     0.010 A 
ATOM     76  C   UNL A   1      47.107  30.088  37.747  1.00  0.00     0.010 A 
ATOM     77  C   UNL A   1      46.794  28.223  39.807  1.00  0.00     0.020 A 
ATOM     78  C   UNL A   1      48.164  29.845  38.627  1.00  0.00     0.020 A 
ATOM     79  C   UNL A   1      47.997  28.920  39.659  1.00  0.00     0.054 A 
BRANCH  79  80
ATOM     80  S   UNL A   1      49.368  28.562  40.792  1.00  0.00     0.124 S 
ATOM     81  O   UNL A   1      49.192  27.135  41.039  1.00  0.00    -0.237 OA
ATOM     82  O   UNL A   1      50.538  28.929  39.999  1.00  0.00    -0.237 OA
ATOM     83  O   UNL A   1      49.101  29.435  41.934  1.00  0.00    -0.744 OA
ENDBRANCH  79  80
ENDBRANCH  51  74
BRANCH  63  84
ATOM     84  C   UNL A   1      40.668  33.977  37.569  1.00  0.00    -0.014 A 
ATOM     85  C   UNL A   1      39.794  33.699  38.634  1.00  0.00     0.010 A 
ATOM     86  C   UNL A   1      41.145  35.290  37.395  1.00  0.00     0.010 A 
ATOM     87  C   UNL A   1      39.369  34.725  39.483  1.00  0.00     0.020 A 
ATOM     88  C   UNL A   1      40.741  36.312  38.256  1.00  0.00     0.020 A 
ATOM     89  C   UNL A   1      39.839  36.028  39.284  1.00  0.00     0.054 A 
BRANCH  89  90
ATOM     90  S   UNL A   1      39.284  37.342  40.403  1.00  0.00     0.124 S 
ATOM     91  O   UNL A   1      38.451  38.157  39.523  1.00  0.00    -0.237 OA
ATOM     92  O   UNL A   1      38.568  36.603  41.441  1.00  0.00    -0.237 OA
ATOM     93  O   UNL A   1      40.528  37.971  40.840  1.00  0.00    -0.744 OA
ENDBRANCH  89  90
ENDBRANCH  63  84
ENDBRANCH  37  38
ENDBRANCH  30  32
ENDBRANCH  29  30
ENDBRANCH  28  29
ENDBRANCH  27  28
ENDBRANCH  26  27
ENDBRANCH  25  26
ENDBRANCH   1  25
TORSDOF 25
ENDMDL
