MODEL 1
REMARK VINA RESULT:      -5.8      0.000      0.000
REMARK SMILES Cc1ccc(OCCC[N@H+]2CCCC[C@@H]2C(=O)OCCOCCOCCOC(=O)c2ccc(-c3c4nc(c(-c5ccc(S(=O)(=O)[O-])cc5)c5ccc([nH]5)c(-c5ccc(S(=O)(=O)[O-])cc5)c5nc(c(-c6ccc(S(=O)(=O)[O-])cc6)c6ccc3[nH]6)C=C5)C=C4)cc2)cc1C
REMARK SMILES IDX 22 1 21 2 20 3 19 4 18 5 16 6 17 7 15 8 10 9 11 10 12 12
REMARK SMILES IDX 14 13 13 14 9 15 8 16 7 17 6 18 5 19 1 20 2 21 3 22 91 23
REMARK SMILES IDX 4 24 90 25 92 26 23 27 24 28 25 29 26 30 27 31 28 32 29 33
REMARK SMILES IDX 30 34 31 35 89 36 32 37 88 38 33 39 34 40 35 41 82 42 36 43
REMARK SMILES IDX 87 44 81 45 83 46 37 47 86 48 80 49 79 50 38 52 68 53 49 54
REMARK SMILES IDX 67 55 50 56 53 57 66 58 84 59 51 60 52 61 65 63 85 64 54 65
REMARK SMILES IDX 39 66 40 67 48 68 41 69 47 70 42 71 43 72 44 73 45 74 46 75
REMARK SMILES IDX 69 76 70 77 78 78 71 79 77 80 72 81 73 82 74 83 75 84 76 85
REMARK SMILES IDX 55 86 56 87 64 88 57 89 63 90 58 91 59 92 60 93 61 94 62 95
REMARK H PARENT 10 11 83 51 53 62
REMARK Flexibility Score: inf
ROOT
ATOM      1  C   UNL A   1      47.806  27.407  26.181  1.00  0.00     0.188 C 
ENDROOT
BRANCH   1   2
ATOM      2  O   UNL A   1      47.126  27.050  27.382  1.00  0.00    -0.376 OA
BRANCH   2   3
ATOM      3  C   UNL A   1      47.976  26.833  28.502  1.00  0.00     0.202 C 
BRANCH   3   4
ATOM      4  C   UNL A   1      47.242  26.710  29.835  1.00  0.00     0.261 C 
BRANCH   4   5
ATOM      5  O   UNL A   1      47.727  27.381  31.027  1.00  0.00    -0.459 OA
BRANCH   5   6
ATOM      6  C   UNL A   1      48.665  28.364  31.061  1.00  0.00     0.364 C 
ATOM      7  O   UNL A   1      49.850  28.237  30.833  1.00  0.00    -0.245 OA
BRANCH   6   8
ATOM      8  C   UNL A   1      48.050  29.724  31.392  1.00  0.00     0.295 C 
ATOM      9  N   UNL A   1      48.336  30.734  30.320  1.00  0.00    -0.323 N 
ATOM     10  C   UNL A   1      47.854  32.063  30.768  1.00  0.00     0.262 C 
ATOM     11  H   UNL A   1      49.341  30.753  30.146  1.00  0.00     0.348 HD
ATOM     12  C   UNL A   1      48.401  32.493  32.132  1.00  0.00     0.062 C 
ATOM     13  C   UNL A   1      48.549  30.115  32.793  1.00  0.00     0.078 C 
ATOM     14  C   UNL A   1      48.041  31.481  33.207  1.00  0.00     0.013 C 
BRANCH   9  15
ATOM     15  C   UNL A   1      47.625  30.374  29.057  1.00  0.00     0.266 C 
BRANCH  15  16
ATOM     16  C   UNL A   1      46.574  31.393  28.566  1.00  0.00     0.103 C 
BRANCH  16  17
ATOM     17  C   UNL A   1      45.152  30.863  28.347  1.00  0.00     0.235 C 
BRANCH  17  18
ATOM     18  O   UNL A   1      44.557  30.307  29.542  1.00  0.00    -0.493 OA
BRANCH  18  19
ATOM     19  C   UNL A   1      44.007  31.268  30.350  1.00  0.00     0.119 A 
ATOM     20  C   UNL A   1      41.999  33.865  33.129  1.00  0.00     0.044 C 
ATOM     21  C   UNL A   1      42.738  33.068  32.088  1.00  0.00    -0.048 A 
ATOM     22  C   UNL A   1      43.890  32.373  32.485  1.00  0.00     0.007 A 
ATOM     23  C   UNL A   1      42.316  32.980  30.746  1.00  0.00    -0.045 A 
ATOM     24  C   UNL A   1      44.535  31.504  31.610  1.00  0.00     0.047 A 
ATOM     25  C   UNL A   1      42.955  32.059  29.885  1.00  0.00     0.050 A 
ATOM     26  C   UNL A   1      41.185  33.827  30.227  1.00  0.00     0.045 C 
ENDBRANCH  18  19
ENDBRANCH  17  18
ENDBRANCH  16  17
ENDBRANCH  15  16
ENDBRANCH   9  15
ENDBRANCH   6   8
ENDBRANCH   5   6
ENDBRANCH   4   5
ENDBRANCH   3   4
ENDBRANCH   2   3
ENDBRANCH   1   2
BRANCH   1  27
ATOM     27  C   UNL A   1      48.077  26.180  25.306  1.00  0.00     0.188 C 
BRANCH  27  28
ATOM     28  O   UNL A   1      47.353  24.978  25.581  1.00  0.00    -0.376 OA
BRANCH  28  29
ATOM     29  C   UNL A   1      46.040  24.855  25.053  1.00  0.00     0.202 C 
BRANCH  29  30
ATOM     30  C   UNL A   1      44.929  24.545  26.065  1.00  0.00     0.261 C 
BRANCH  30  31
ATOM     31  O   UNL A   1      44.045  25.649  26.336  1.00  0.00    -0.460 OA
BRANCH  31  32
ATOM     32  C   UNL A   1      42.756  25.291  26.556  1.00  0.00     0.338 C 
ATOM     33  O   UNL A   1      42.234  24.231  26.250  1.00  0.00    -0.246 OA
BRANCH  32  34
ATOM     34  C   UNL A   1      42.040  26.313  27.353  1.00  0.00     0.060 A 
ATOM     35  C   UNL A   1      42.591  27.600  27.390  1.00  0.00     0.016 A 
ATOM     36  C   UNL A   1      40.956  25.989  28.173  1.00  0.00     0.016 A 
ATOM     37  C   UNL A   1      42.134  28.537  28.316  1.00  0.00     0.010 A 
ATOM     38  C   UNL A   1      40.507  26.927  29.116  1.00  0.00     0.010 A 
ATOM     39  C   UNL A   1      41.145  28.176  29.239  1.00  0.00    -0.014 A 
BRANCH  39  40
ATOM     40  C   UNL A   1      41.014  28.984  30.481  1.00  0.00     0.031 A 
ATOM     41  C   UNL A   1      39.888  29.989  30.558  1.00  0.00     0.074 A 
ATOM     42  C   UNL A   1      41.807  28.789  31.550  1.00  0.00     0.049 A 
ATOM     43  N   UNL A   1      39.549  30.782  31.542  1.00  0.00    -0.248 NA
ATOM     44  C   UNL A   1      39.029  30.112  29.367  1.00  0.00     0.031 C 
ATOM     45  C   UNL A   1      42.902  27.825  31.636  1.00  0.00     0.029 A 
ATOM     46  N   UNL A   1      41.803  29.403  32.780  1.00  0.00    -0.354 N 
ATOM     47  C   UNL A   1      38.452  31.505  31.084  1.00  0.00     0.074 A 
ATOM     48  C   UNL A   1      38.195  31.076  29.727  1.00  0.00     0.031 C 
ATOM     49  C   UNL A   1      43.474  27.922  32.851  1.00  0.00     0.029 A 
ATOM     50  C   UNL A   1      42.797  28.965  33.622  1.00  0.00     0.049 A 
ATOM     51  H   UNL A   1      41.148  30.092  33.034  1.00  0.00     0.167 HD
ATOM     52  C   UNL A   1      37.715  32.439  31.730  1.00  0.00     0.031 A 
ATOM     53  C   UNL A   1      43.131  29.369  34.865  1.00  0.00     0.031 A 
ATOM     54  C   UNL A   1      37.948  32.865  33.083  1.00  0.00     0.049 A 
ATOM     55  C   UNL A   1      42.316  30.440  35.550  1.00  0.00     0.074 A 
ATOM     56  C   UNL A   1      37.226  33.781  33.830  1.00  0.00     0.029 A 
ATOM     57  N   UNL A   1      38.974  32.409  33.891  1.00  0.00    -0.354 N 
ATOM     58  N   UNL A   1      41.258  31.081  35.115  1.00  0.00    -0.248 NA
ATOM     59  C   UNL A   1      42.735  30.826  36.907  1.00  0.00     0.031 C 
ATOM     60  C   UNL A   1      37.850  33.918  35.073  1.00  0.00     0.029 A 
ATOM     61  C   UNL A   1      38.923  33.043  35.121  1.00  0.00     0.049 A 
ATOM     62  H   UNL A   1      39.643  31.734  33.630  1.00  0.00     0.167 HD
ATOM     63  C   UNL A   1      40.869  31.922  36.155  1.00  0.00     0.074 A 
ATOM     64  C   UNL A   1      41.792  31.693  37.247  1.00  0.00     0.031 C 
ATOM     65  C   UNL A   1      39.841  32.805  36.204  1.00  0.00     0.031 A 
BRANCH  52  66
ATOM     66  C   UNL A   1      36.594  33.095  30.970  1.00  0.00    -0.014 A 
ATOM     67  C   UNL A   1      35.253  32.930  31.360  1.00  0.00     0.010 A 
ATOM     68  C   UNL A   1      36.897  33.947  29.893  1.00  0.00     0.010 A 
ATOM     69  C   UNL A   1      34.233  33.594  30.674  1.00  0.00     0.020 A 
ATOM     70  C   UNL A   1      35.883  34.631  29.220  1.00  0.00     0.020 A 
ATOM     71  C   UNL A   1      34.556  34.443  29.611  1.00  0.00     0.054 A 
BRANCH  71  72
ATOM     72  S   UNL A   1      33.219  35.342  28.777  1.00  0.00     0.124 S 
ATOM     73  O   UNL A   1      32.543  34.271  28.051  1.00  0.00    -0.237 OA
ATOM     74  O   UNL A   1      32.470  35.912  29.895  1.00  0.00    -0.237 OA
ATOM     75  O   UNL A   1      33.921  36.314  27.943  1.00  0.00    -0.744 OA
ENDBRANCH  71  72
ENDBRANCH  52  66
BRANCH  53  76
ATOM     76  C   UNL A   1      44.319  28.788  35.551  1.00  0.00    -0.014 A 
ATOM     77  C   UNL A   1      45.603  29.328  35.361  1.00  0.00     0.010 A 
ATOM     78  C   UNL A   1      44.173  27.642  36.354  1.00  0.00     0.010 A 
ATOM     79  C   UNL A   1      46.723  28.711  35.926  1.00  0.00     0.020 A 
ATOM     80  C   UNL A   1      45.287  27.039  36.945  1.00  0.00     0.020 A 
ATOM     81  C   UNL A   1      46.557  27.566  36.711  1.00  0.00     0.054 A 
BRANCH  81  82
ATOM     82  S   UNL A   1      48.021  26.785  37.447  1.00  0.00     0.124 S 
ATOM     83  O   UNL A   1      47.593  26.578  38.826  1.00  0.00    -0.237 OA
ATOM     84  O   UNL A   1      48.173  25.576  36.642  1.00  0.00    -0.237 OA
ATOM     85  O   UNL A   1      49.070  27.785  37.259  1.00  0.00    -0.744 OA
ENDBRANCH  81  82
ENDBRANCH  53  76
BRANCH  65  86
ATOM     86  C   UNL A   1      39.626  33.557  37.491  1.00  0.00    -0.014 A 
ATOM     87  C   UNL A   1      38.759  33.074  38.488  1.00  0.00     0.010 A 
ATOM     88  C   UNL A   1      40.328  34.755  37.720  1.00  0.00     0.010 A 
ATOM     89  C   UNL A   1      38.558  33.801  39.665  1.00  0.00     0.020 A 
ATOM     90  C   UNL A   1      40.153  35.470  38.907  1.00  0.00     0.020 A 
ATOM     91  C   UNL A   1      39.250  35.000  39.863  1.00  0.00     0.054 A 
BRANCH  91  92
ATOM     92  S   UNL A   1      38.980  35.926  41.400  1.00  0.00     0.124 S 
ATOM     93  O   UNL A   1      40.157  35.562  42.183  1.00  0.00    -0.237 OA
ATOM     94  O   UNL A   1      38.937  37.312  40.939  1.00  0.00    -0.237 OA
ATOM     95  O   UNL A   1      37.712  35.404  41.900  1.00  0.00    -0.744 OA
ENDBRANCH  91  92
ENDBRANCH  65  86
ENDBRANCH  39  40
ENDBRANCH  32  34
ENDBRANCH  31  32
ENDBRANCH  30  31
ENDBRANCH  29  30
ENDBRANCH  28  29
ENDBRANCH  27  28
ENDBRANCH   1  27
TORSDOF 25
ENDMDL
MODEL 2
REMARK VINA RESULT:      -5.5      6.519     11.216
REMARK SMILES Cc1ccc(OCCC[N@H+]2CCCC[C@@H]2C(=O)OCCOCCOCCOC(=O)c2ccc(-c3c4nc(c(-c5ccc(S(=O)(=O)[O-])cc5)c5ccc([nH]5)c(-c5ccc(S(=O)(=O)[O-])cc5)c5nc(c(-c6ccc(S(=O)(=O)[O-])cc6)c6ccc3[nH]6)C=C5)C=C4)cc2)cc1C
REMARK SMILES IDX 22 1 21 2 20 3 19 4 18 5 16 6 17 7 15 8 10 9 11 10 12 12
REMARK SMILES IDX 14 13 13 14 9 15 8 16 7 17 6 18 5 19 1 20 2 21 3 22 91 23
REMARK SMILES IDX 4 24 90 25 92 26 23 27 24 28 25 29 26 30 27 31 28 32 29 33
REMARK SMILES IDX 30 34 31 35 89 36 32 37 88 38 33 39 34 40 35 41 82 42 36 43
REMARK SMILES IDX 87 44 81 45 83 46 37 47 86 48 80 49 79 50 38 52 68 53 49 54
REMARK SMILES IDX 67 55 50 56 53 57 66 58 84 59 51 60 52 61 65 63 85 64 54 65
REMARK SMILES IDX 39 66 40 67 48 68 41 69 47 70 42 71 43 72 44 73 45 74 46 75
REMARK SMILES IDX 69 76 70 77 78 78 71 79 77 80 72 81 73 82 74 83 75 84 76 85
REMARK SMILES IDX 55 86 56 87 64 88 57 89 63 90 58 91 59 92 60 93 61 94 62 95
REMARK H PARENT 10 11 83 51 53 62
REMARK Flexibility Score: inf
ROOT
ATOM      1  C   UNL A   1      40.584  24.350  26.135  1.00  0.00     0.188 C 
ENDROOT
BRANCH   1   2
ATOM      2  O   UNL A   1      39.803  24.080  27.297  1.00  0.00    -0.376 OA
BRANCH   2   3
ATOM      3  C   UNL A   1      38.443  24.486  27.204  1.00  0.00     0.202 C 
BRANCH   3   4
ATOM      4  C   UNL A   1      37.639  23.755  26.131  1.00  0.00     0.261 C 
BRANCH   4   5
ATOM      5  O   UNL A   1      36.188  23.714  26.174  1.00  0.00    -0.459 OA
BRANCH   5   6
ATOM      6  C   UNL A   1      35.414  22.629  25.909  1.00  0.00     0.364 C 
ATOM      7  O   UNL A   1      35.778  21.472  25.896  1.00  0.00    -0.245 OA
BRANCH   6   8
ATOM      8  C   UNL A   1      33.959  23.019  25.651  1.00  0.00     0.295 C 
ATOM      9  N   UNL A   1      33.628  24.349  26.260  1.00  0.00    -0.323 N 
ATOM     10  C   UNL A   1      32.173  24.600  26.115  1.00  0.00     0.262 C 
ATOM     11  H   UNL A   1      33.897  24.336  27.244  1.00  0.00     0.348 HD
ATOM     12  C   UNL A   1      31.294  23.474  26.666  1.00  0.00     0.062 C 
ATOM     13  C   UNL A   1      33.085  21.853  26.142  1.00  0.00     0.078 C 
ATOM     14  C   UNL A   1      31.609  22.153  25.984  1.00  0.00     0.013 C 
BRANCH   9  15
ATOM     15  C   UNL A   1      34.368  25.444  25.564  1.00  0.00     0.266 C 
BRANCH  15  16
ATOM     16  C   UNL A   1      33.971  25.692  24.093  1.00  0.00     0.103 C 
BRANCH  16  17
ATOM     17  C   UNL A   1      33.509  27.110  23.734  1.00  0.00     0.235 C 
BRANCH  17  18
ATOM     18  O   UNL A   1      32.832  27.186  22.459  1.00  0.00    -0.493 OA
BRANCH  18  19
ATOM     19  C   UNL A   1      31.569  27.707  22.568  1.00  0.00     0.119 A 
ATOM     20  C   UNL A   1      27.790  29.599  23.370  1.00  0.00     0.044 C 
ATOM     21  C   UNL A   1      29.046  28.858  23.000  1.00  0.00    -0.048 A 
ATOM     22  C   UNL A   1      30.059  29.567  22.337  1.00  0.00     0.007 A 
ATOM     23  C   UNL A   1      29.253  27.496  23.303  1.00  0.00    -0.045 A 
ATOM     24  C   UNL A   1      31.299  28.983  22.096  1.00  0.00     0.047 A 
ATOM     25  C   UNL A   1      30.532  26.934  23.093  1.00  0.00     0.050 A 
ATOM     26  C   UNL A   1      28.146  26.647  23.867  1.00  0.00     0.045 C 
ENDBRANCH  18  19
ENDBRANCH  17  18
ENDBRANCH  16  17
ENDBRANCH  15  16
ENDBRANCH   9  15
ENDBRANCH   6   8
ENDBRANCH   5   6
ENDBRANCH   4   5
ENDBRANCH   3   4
ENDBRANCH   2   3
ENDBRANCH   1   2
BRANCH   1  27
ATOM     27  C   UNL A   1      42.040  23.916  26.328  1.00  0.00     0.188 C 
BRANCH  27  28
ATOM     28  O   UNL A   1      42.974  24.195  25.282  1.00  0.00    -0.376 OA
BRANCH  28  29
ATOM     29  C   UNL A   1      43.730  23.112  24.758  1.00  0.00     0.202 C 
BRANCH  29  30
ATOM     30  C   UNL A   1      44.625  22.363  25.755  1.00  0.00     0.261 C 
BRANCH  30  31
ATOM     31  O   UNL A   1      45.792  23.095  26.173  1.00  0.00    -0.460 OA
BRANCH  31  32
ATOM     32  C   UNL A   1      45.669  23.698  27.380  1.00  0.00     0.338 C 
ATOM     33  O   UNL A   1      45.351  23.165  28.431  1.00  0.00    -0.246 OA
BRANCH  32  34
ATOM     34  C   UNL A   1      46.100  25.114  27.323  1.00  0.00     0.060 A 
ATOM     35  C   UNL A   1      46.664  25.661  28.483  1.00  0.00     0.016 A 
ATOM     36  C   UNL A   1      45.815  25.933  26.227  1.00  0.00     0.016 A 
ATOM     37  C   UNL A   1      46.848  27.038  28.595  1.00  0.00     0.010 A 
ATOM     38  C   UNL A   1      45.985  27.321  26.347  1.00  0.00     0.010 A 
ATOM     39  C   UNL A   1      46.433  27.882  27.559  1.00  0.00    -0.014 A 
BRANCH  39  40
ATOM     40  C   UNL A   1      46.194  29.316  27.872  1.00  0.00     0.031 A 
ATOM     41  C   UNL A   1      44.912  29.681  28.585  1.00  0.00     0.074 A 
ATOM     42  C   UNL A   1      47.109  30.269  27.617  1.00  0.00     0.049 A 
ATOM     43  N   UNL A   1      44.494  30.853  28.994  1.00  0.00    -0.248 NA
ATOM     44  C   UNL A   1      43.980  28.579  28.877  1.00  0.00     0.031 C 
ATOM     45  C   UNL A   1      48.407  30.058  26.978  1.00  0.00     0.029 A 
ATOM     46  N   UNL A   1      47.077  31.620  27.874  1.00  0.00    -0.354 N 
ATOM     47  C   UNL A   1      43.249  30.628  29.575  1.00  0.00     0.074 A 
ATOM     48  C   UNL A   1      42.968  29.216  29.446  1.00  0.00     0.031 C 
ATOM     49  C   UNL A   1      49.042  31.240  26.881  1.00  0.00     0.029 A 
ATOM     50  C   UNL A   1      48.192  32.293  27.434  1.00  0.00     0.049 A 
ATOM     51  H   UNL A   1      46.327  32.062  28.332  1.00  0.00     0.167 HD
ATOM     52  C   UNL A   1      42.414  31.511  30.170  1.00  0.00     0.031 A 
ATOM     53  C   UNL A   1      48.485  33.610  27.463  1.00  0.00     0.031 A 
ATOM     54  C   UNL A   1      42.687  32.914  30.320  1.00  0.00     0.049 A 
ATOM     55  C   UNL A   1      47.518  34.580  28.099  1.00  0.00     0.074 A 
ATOM     56  C   UNL A   1      41.910  33.877  30.943  1.00  0.00     0.029 A 
ATOM     57  N   UNL A   1      43.817  33.557  29.845  1.00  0.00    -0.354 N 
ATOM     58  N   UNL A   1      46.366  34.342  28.679  1.00  0.00    -0.248 NA
ATOM     59  C   UNL A   1      47.905  36.000  28.098  1.00  0.00     0.031 C 
ATOM     60  C   UNL A   1      42.548  35.113  30.798  1.00  0.00     0.029 A 
ATOM     61  C   UNL A   1      43.748  34.908  30.137  1.00  0.00     0.049 A 
ATOM     62  H   UNL A   1      44.559  33.118  29.369  1.00  0.00     0.167 HD
ATOM     63  C   UNL A   1      45.909  35.575  29.137  1.00  0.00     0.074 A 
ATOM     64  C   UNL A   1      46.917  36.553  28.785  1.00  0.00     0.031 C 
ATOM     65  C   UNL A   1      44.758  35.873  29.790  1.00  0.00     0.031 A 
BRANCH  52  66
ATOM     66  C   UNL A   1      41.099  30.992  30.684  1.00  0.00    -0.014 A 
ATOM     67  C   UNL A   1      40.897  30.742  32.053  1.00  0.00     0.010 A 
ATOM     68  C   UNL A   1      40.027  30.823  29.789  1.00  0.00     0.010 A 
ATOM     69  C   UNL A   1      39.650  30.315  32.515  1.00  0.00     0.020 A 
ATOM     70  C   UNL A   1      38.772  30.419  30.251  1.00  0.00     0.020 A 
ATOM     71  C   UNL A   1      38.595  30.160  31.611  1.00  0.00     0.054 A 
BRANCH  71  72
ATOM     72  S   UNL A   1      36.969  29.664  32.245  1.00  0.00     0.124 S 
ATOM     73  O   UNL A   1      37.303  28.490  33.046  1.00  0.00    -0.237 OA
ATOM     74  O   UNL A   1      36.548  30.841  33.002  1.00  0.00    -0.237 OA
ATOM     75  O   UNL A   1      36.193  29.395  31.037  1.00  0.00    -0.744 OA
ENDBRANCH  71  72
ENDBRANCH  52  66
BRANCH  53  76
ATOM     76  C   UNL A   1      49.740  34.115  26.840  1.00  0.00    -0.014 A 
ATOM     77  C   UNL A   1      49.777  34.496  25.487  1.00  0.00     0.010 A 
ATOM     78  C   UNL A   1      50.929  34.155  27.592  1.00  0.00     0.010 A 
ATOM     79  C   UNL A   1      50.984  34.868  24.887  1.00  0.00     0.020 A 
ATOM     80  C   UNL A   1      52.132  34.555  27.004  1.00  0.00     0.020 A 
ATOM     81  C   UNL A   1      52.155  34.890  25.650  1.00  0.00     0.054 A 
BRANCH  81  82
ATOM     82  S   UNL A   1      53.711  35.387  24.859  1.00  0.00     0.124 S 
ATOM     83  O   UNL A   1      53.295  36.541  24.069  1.00  0.00    -0.237 OA
ATOM     84  O   UNL A   1      54.570  35.677  26.003  1.00  0.00    -0.237 OA
ATOM     85  O   UNL A   1      54.093  34.204  24.089  1.00  0.00    -0.744 OA
ENDBRANCH  81  82
ENDBRANCH  53  76
BRANCH  65  86
ATOM     86  C   UNL A   1      44.544  37.304  30.211  1.00  0.00    -0.014 A 
ATOM     87  C   UNL A   1      45.020  37.785  31.445  1.00  0.00     0.010 A 
ATOM     88  C   UNL A   1      43.880  38.191  29.343  1.00  0.00     0.010 A 
ATOM     89  C   UNL A   1      44.789  39.111  31.824  1.00  0.00     0.020 A 
ATOM     90  C   UNL A   1      43.673  39.524  29.705  1.00  0.00     0.020 A 
ATOM     91  C   UNL A   1      44.109  39.970  30.954  1.00  0.00     0.054 A 
BRANCH  91  92
ATOM     92  S   UNL A   1      43.824  41.688  31.462  1.00  0.00     0.124 S 
ATOM     93  O   UNL A   1      43.593  42.348  30.180  1.00  0.00    -0.237 OA
ATOM     94  O   UNL A   1      42.656  41.579  32.333  1.00  0.00    -0.237 OA
ATOM     95  O   UNL A   1      45.064  42.059  32.139  1.00  0.00    -0.744 OA
ENDBRANCH  91  92
ENDBRANCH  65  86
ENDBRANCH  39  40
ENDBRANCH  32  34
ENDBRANCH  31  32
ENDBRANCH  30  31
ENDBRANCH  29  30
ENDBRANCH  28  29
ENDBRANCH  27  28
ENDBRANCH   1  27
TORSDOF 25
ENDMDL
MODEL 3
REMARK VINA RESULT:      -5.5      5.728     14.485
REMARK SMILES Cc1ccc(OCCC[N@H+]2CCCC[C@@H]2C(=O)OCCOCCOCCOC(=O)c2ccc(-c3c4nc(c(-c5ccc(S(=O)(=O)[O-])cc5)c5ccc([nH]5)c(-c5ccc(S(=O)(=O)[O-])cc5)c5nc(c(-c6ccc(S(=O)(=O)[O-])cc6)c6ccc3[nH]6)C=C5)C=C4)cc2)cc1C
REMARK SMILES IDX 22 1 21 2 20 3 19 4 18 5 16 6 17 7 15 8 10 9 11 10 12 12
REMARK SMILES IDX 14 13 13 14 9 15 8 16 7 17 6 18 5 19 1 20 2 21 3 22 91 23
REMARK SMILES IDX 4 24 90 25 92 26 23 27 24 28 25 29 26 30 27 31 28 32 29 33
REMARK SMILES IDX 30 34 31 35 89 36 32 37 88 38 33 39 34 40 35 41 82 42 36 43
REMARK SMILES IDX 87 44 81 45 83 46 37 47 86 48 80 49 79 50 38 52 68 53 49 54
REMARK SMILES IDX 67 55 50 56 53 57 66 58 84 59 51 60 52 61 65 63 85 64 54 65
REMARK SMILES IDX 39 66 40 67 48 68 41 69 47 70 42 71 43 72 44 73 45 74 46 75
REMARK SMILES IDX 69 76 70 77 78 78 71 79 77 80 72 81 73 82 74 83 75 84 76 85
REMARK SMILES IDX 55 86 56 87 64 88 57 89 63 90 58 91 59 92 60 93 61 94 62 95
REMARK H PARENT 10 11 83 51 53 62
REMARK Flexibility Score: inf
ROOT
ATOM      1  C   UNL A   1      39.096  34.310  34.042  1.00  0.00     0.188 C 
ENDROOT
BRANCH   1   2
ATOM      2  O   UNL A   1      38.355  33.582  35.018  1.00  0.00    -0.376 OA
BRANCH   2   3
ATOM      3  C   UNL A   1      37.318  32.765  34.486  1.00  0.00     0.202 C 
BRANCH   3   4
ATOM      4  C   UNL A   1      37.591  32.238  33.079  1.00  0.00     0.261 C 
BRANCH   4   5
ATOM      5  O   UNL A   1      36.759  31.205  32.488  1.00  0.00    -0.459 OA
BRANCH   5   6
ATOM      6  C   UNL A   1      37.205  30.063  31.902  1.00  0.00     0.364 C 
ATOM      7  O   UNL A   1      37.037  28.933  32.310  1.00  0.00    -0.245 OA
BRANCH   6   8
ATOM      8  C   UNL A   1      37.943  30.346  30.594  1.00  0.00     0.295 C 
ATOM      9  N   UNL A   1      37.255  29.709  29.423  1.00  0.00    -0.323 N 
ATOM     10  C   UNL A   1      38.096  29.884  28.214  1.00  0.00     0.262 C 
ATOM     11  H   UNL A   1      37.111  28.719  29.625  1.00  0.00     0.348 HD
ATOM     12  C   UNL A   1      39.533  29.386  28.383  1.00  0.00     0.062 C 
ATOM     13  C   UNL A   1      39.404  29.909  30.796  1.00  0.00     0.078 C 
ATOM     14  C   UNL A   1      40.224  30.096  29.536  1.00  0.00     0.013 C 
BRANCH   9  15
ATOM     15  C   UNL A   1      35.931  30.356  29.176  1.00  0.00     0.266 C 
BRANCH  15  16
ATOM     16  C   UNL A   1      35.954  31.601  28.263  1.00  0.00     0.103 C 
BRANCH  16  17
ATOM     17  C   UNL A   1      34.607  32.286  28.001  1.00  0.00     0.235 C 
BRANCH  17  18
ATOM     18  O   UNL A   1      34.710  33.723  27.874  1.00  0.00    -0.493 OA
BRANCH  18  19
ATOM     19  C   UNL A   1      34.206  34.383  28.964  1.00  0.00     0.119 A 
ATOM     20  C   UNL A   1      33.040  36.823  32.309  1.00  0.00     0.044 C 
ATOM     21  C   UNL A   1      33.363  35.874  31.187  1.00  0.00    -0.048 A 
ATOM     22  C   UNL A   1      32.967  36.228  29.889  1.00  0.00     0.007 A 
ATOM     23  C   UNL A   1      34.056  34.661  31.382  1.00  0.00    -0.045 A 
ATOM     24  C   UNL A   1      33.361  35.469  28.790  1.00  0.00     0.047 A 
ATOM     25  C   UNL A   1      34.486  33.927  30.253  1.00  0.00     0.050 A 
ATOM     26  C   UNL A   1      34.365  34.154  32.765  1.00  0.00     0.045 C 
ENDBRANCH  18  19
ENDBRANCH  17  18
ENDBRANCH  16  17
ENDBRANCH  15  16
ENDBRANCH   9  15
ENDBRANCH   6   8
ENDBRANCH   5   6
ENDBRANCH   4   5
ENDBRANCH   3   4
ENDBRANCH   2   3
ENDBRANCH   1   2
BRANCH   1  27
ATOM     27  C   UNL A   1      40.580  33.930  34.070  1.00  0.00     0.188 C 
BRANCH  27  28
ATOM     28  O   UNL A   1      41.386  34.260  32.936  1.00  0.00    -0.376 OA
BRANCH  28  29
ATOM     29  C   UNL A   1      40.725  34.656  31.742  1.00  0.00     0.202 C 
BRANCH  29  30
ATOM     30  C   UNL A   1      41.368  34.196  30.427  1.00  0.00     0.261 C 
BRANCH  30  31
ATOM     31  O   UNL A   1      42.462  35.018  29.979  1.00  0.00    -0.460 OA
BRANCH  31  32
ATOM     32  C   UNL A   1      42.526  35.178  28.635  1.00  0.00     0.338 C 
ATOM     33  O   UNL A   1      42.144  36.148  27.999  1.00  0.00    -0.246 OA
BRANCH  32  34
ATOM     34  C   UNL A   1      43.251  34.059  27.991  1.00  0.00     0.060 A 
ATOM     35  C   UNL A   1      43.652  32.997  28.812  1.00  0.00     0.016 A 
ATOM     36  C   UNL A   1      43.675  34.116  26.661  1.00  0.00     0.016 A 
ATOM     37  C   UNL A   1      44.557  32.046  28.344  1.00  0.00     0.010 A 
ATOM     38  C   UNL A   1      44.599  33.168  26.195  1.00  0.00     0.010 A 
ATOM     39  C   UNL A   1      45.098  32.174  27.059  1.00  0.00    -0.014 A 
BRANCH  39  40
ATOM     40  C   UNL A   1      46.371  31.467  26.758  1.00  0.00     0.031 A 
ATOM     41  C   UNL A   1      47.642  32.284  26.718  1.00  0.00     0.074 A 
ATOM     42  C   UNL A   1      46.432  30.132  26.605  1.00  0.00     0.049 A 
ATOM     43  N   UNL A   1      48.874  31.893  26.510  1.00  0.00    -0.248 NA
ATOM     44  C   UNL A   1      47.505  33.733  26.944  1.00  0.00     0.031 C 
ATOM     45  C   UNL A   1      45.296  29.213  26.664  1.00  0.00     0.029 A 
ATOM     46  N   UNL A   1      47.513  29.315  26.368  1.00  0.00    -0.354 N 
ATOM     47  C   UNL A   1      49.652  33.046  26.566  1.00  0.00     0.074 A 
ATOM     48  C   UNL A   1      48.754  34.154  26.803  1.00  0.00     0.031 C 
ATOM     49  C   UNL A   1      45.740  27.960  26.455  1.00  0.00     0.029 A 
ATOM     50  C   UNL A   1      47.184  27.988  26.231  1.00  0.00     0.049 A 
ATOM     51  H   UNL A   1      48.436  29.651  26.305  1.00  0.00     0.167 HD
ATOM     52  C   UNL A   1      50.993  33.177  26.440  1.00  0.00     0.031 A 
ATOM     53  C   UNL A   1      47.959  26.921  25.945  1.00  0.00     0.031 A 
ATOM     54  C   UNL A   1      51.900  32.084  26.220  1.00  0.00     0.049 A 
ATOM     55  C   UNL A   1      49.448  27.101  25.771  1.00  0.00     0.074 A 
ATOM     56  C   UNL A   1      53.280  32.123  26.116  1.00  0.00     0.029 A 
ATOM     57  N   UNL A   1      51.524  30.761  26.070  1.00  0.00    -0.354 N 
ATOM     58  N   UNL A   1      50.168  28.193  25.869  1.00  0.00    -0.248 NA
ATOM     59  C   UNL A   1      50.231  25.893  25.465  1.00  0.00     0.031 C 
ATOM     60  C   UNL A   1      53.734  30.828  25.850  1.00  0.00     0.029 A 
ATOM     61  C   UNL A   1      52.642  29.976  25.848  1.00  0.00     0.049 A 
ATOM     62  H   UNL A   1      50.598  30.427  26.115  1.00  0.00     0.167 HD
ATOM     63  C   UNL A   1      51.488  27.796  25.667  1.00  0.00     0.074 A 
ATOM     64  C   UNL A   1      51.470  26.363  25.462  1.00  0.00     0.031 C 
ATOM     65  C   UNL A   1      52.616  28.550  25.652  1.00  0.00     0.031 A 
BRANCH  52  66
ATOM     66  C   UNL A   1      51.569  34.566  26.507  1.00  0.00    -0.014 A 
ATOM     67  C   UNL A   1      51.945  35.142  27.732  1.00  0.00     0.010 A 
ATOM     68  C   UNL A   1      51.803  35.273  25.314  1.00  0.00     0.010 A 
ATOM     69  C   UNL A   1      52.531  36.410  27.764  1.00  0.00     0.020 A 
ATOM     70  C   UNL A   1      52.409  36.531  25.340  1.00  0.00     0.020 A 
ATOM     71  C   UNL A   1      52.762  37.094  26.567  1.00  0.00     0.054 A 
BRANCH  71  72
ATOM     72  S   UNL A   1      53.580  38.712  26.632  1.00  0.00     0.124 S 
ATOM     73  O   UNL A   1      52.718  39.449  27.551  1.00  0.00    -0.237 OA
ATOM     74  O   UNL A   1      54.907  38.380  27.145  1.00  0.00    -0.237 OA
ATOM     75  O   UNL A   1      53.550  39.171  25.246  1.00  0.00    -0.744 OA
ENDBRANCH  71  72
ENDBRANCH  52  66
BRANCH  53  76
ATOM     76  C   UNL A   1      47.348  25.574  25.766  1.00  0.00    -0.014 A 
ATOM     77  C   UNL A   1      47.172  25.022  24.485  1.00  0.00     0.010 A 
ATOM     78  C   UNL A   1      46.880  24.863  26.886  1.00  0.00     0.010 A 
ATOM     79  C   UNL A   1      46.503  23.804  24.324  1.00  0.00     0.020 A 
ATOM     80  C   UNL A   1      46.237  23.632  26.732  1.00  0.00     0.020 A 
ATOM     81  C   UNL A   1      46.035  23.120  25.450  1.00  0.00     0.054 A 
BRANCH  81  82
ATOM     82  S   UNL A   1      45.179  21.536  25.223  1.00  0.00     0.124 S 
ATOM     83  O   UNL A   1      44.725  21.632  23.840  1.00  0.00    -0.237 OA
ATOM     84  O   UNL A   1      46.239  20.564  25.476  1.00  0.00    -0.237 OA
ATOM     85  O   UNL A   1      44.124  21.572  26.234  1.00  0.00    -0.744 OA
ENDBRANCH  81  82
ENDBRANCH  53  76
BRANCH  65  86
ATOM     86  C   UNL A   1      53.929  27.839  25.454  1.00  0.00    -0.014 A 
ATOM     87  C   UNL A   1      54.542  27.768  24.190  1.00  0.00     0.010 A 
ATOM     88  C   UNL A   1      54.576  27.256  26.560  1.00  0.00     0.010 A 
ATOM     89  C   UNL A   1      55.750  27.083  24.027  1.00  0.00     0.020 A 
ATOM     90  C   UNL A   1      55.798  26.595  26.406  1.00  0.00     0.020 A 
ATOM     91  C   UNL A   1      56.366  26.493  25.135  1.00  0.00     0.054 A 
BRANCH  91  92
ATOM     92  S   UNL A   1      57.935  25.613  24.903  1.00  0.00     0.124 S 
ATOM     93  O   UNL A   1      58.908  26.608  25.347  1.00  0.00    -0.237 OA
ATOM     94  O   UNL A   1      57.785  24.449  25.774  1.00  0.00    -0.237 OA
ATOM     95  O   UNL A   1      57.957  25.314  23.474  1.00  0.00    -0.744 OA
ENDBRANCH  91  92
ENDBRANCH  65  86
ENDBRANCH  39  40
ENDBRANCH  32  34
ENDBRANCH  31  32
ENDBRANCH  30  31
ENDBRANCH  29  30
ENDBRANCH  28  29
ENDBRANCH  27  28
ENDBRANCH   1  27
TORSDOF 25
ENDMDL
