MODEL 1
REMARK VINA RESULT:     -10.1      0.000      0.000
REMARK SMILES CC[C@@H](C(=O)OCCOCCOCCOC(=O)c1ccc(-c2c3nc(c(-c4ccc(S(=O)(=O)[O-])cc4)c4ccc([nH]4)c(-c4ccc(S(=O)(=O)[O-])cc4)c4nc(c(-c5ccc(S(=O)(=O)[O-])cc5)c5ccc2[nH]5)C=C4)C=C3)cc1)N1C(=O)/C(=C/C(C)=C/c2ccccc2)SC1=S
REMARK SMILES IDX 10 1 9 2 8 3 7 4 6 5 4 6 5 7 3 8 2 9 1 10 78 11 79 12 93 13
REMARK SMILES IDX 80 14 81 15 92 16 94 17 82 18 83 19 84 20 85 21 86 22 87 23
REMARK SMILES IDX 91 24 88 25 90 26 89 27 11 28 12 29 13 30 14 31 15 32 16 33
REMARK SMILES IDX 17 34 18 35 19 36 77 37 20 38 76 39 21 40 22 41 23 42 70 43
REMARK SMILES IDX 24 44 75 45 69 46 71 47 25 48 74 49 68 50 67 51 26 53 56 54
REMARK SMILES IDX 37 55 55 56 38 57 41 58 54 59 72 60 39 61 40 62 53 64 73 65
REMARK SMILES IDX 42 66 27 67 28 68 36 69 29 70 35 71 30 72 31 73 32 74 33 75
REMARK SMILES IDX 34 76 57 77 58 78 66 79 59 80 65 81 60 82 61 83 62 84 63 85
REMARK SMILES IDX 64 86 43 87 44 88 52 89 45 90 51 91 46 92 47 93 48 94 49 95
REMARK SMILES IDX 50 96
REMARK H PARENT 71 52 41 63
REMARK Flexibility Score: inf
ROOT
ATOM      1  C   UNL A   1      33.992  27.307  24.542  1.00  0.00     0.188 C 
ENDROOT
BRANCH   1   2
ATOM      2  O   UNL A   1      33.887  26.045  25.155  1.00  0.00    -0.376 OA
BRANCH   2   3
ATOM      3  C   UNL A   1      34.853  25.043  24.888  1.00  0.00     0.202 C 
BRANCH   3   4
ATOM      4  C   UNL A   1      35.636  24.243  25.954  1.00  0.00     0.261 C 
BRANCH   4   5
ATOM      5  O   UNL A   1      35.035  23.029  26.416  1.00  0.00    -0.462 OA
BRANCH   5   6
ATOM      6  C   UNL A   1      34.459  22.231  25.477  1.00  0.00     0.329 C 
ATOM      7  O   UNL A   1      35.089  21.588  24.644  1.00  0.00    -0.250 OA
BRANCH   6   8
ATOM      8  C   UNL A   1      32.922  22.153  25.610  1.00  0.00     0.201 C 
BRANCH   8   9
ATOM      9  C   UNL A   1      32.341  20.703  25.590  1.00  0.00     0.034 C 
ATOM     10  C   UNL A   1      32.416  19.899  24.304  1.00  0.00     0.007 C 
ENDBRANCH   8   9
BRANCH   8  11
ATOM     11  N   UNL A   1      32.069  23.070  24.782  1.00  0.00    -0.278 N 
ATOM     12  C   UNL A   1      31.322  24.016  25.483  1.00  0.00     0.266 C 
ATOM     13  C   UNL A   1      32.057  23.264  23.413  1.00  0.00     0.149 C 
ATOM     14  O   UNL A   1      31.345  24.204  26.692  1.00  0.00    -0.268 OA
ATOM     15  C   UNL A   1      30.564  24.894  24.566  1.00  0.00     0.080 C 
ATOM     16  S   UNL A   1      30.682  24.281  22.977  1.00  0.00    -0.054 SA
ATOM     17  S   UNL A   1      33.112  22.758  22.229  1.00  0.00    -0.052 S 
ATOM     18  C   UNL A   1      30.060  26.048  25.026  1.00  0.00     0.024 C 
BRANCH  18  19
ATOM     19  C   UNL A   1      29.531  27.173  24.276  1.00  0.00    -0.049 C 
ATOM     20  C   UNL A   1      28.081  27.103  23.872  1.00  0.00     0.044 C 
ATOM     21  C   UNL A   1      30.278  28.275  24.105  1.00  0.00     0.011 C 
BRANCH  21  22
ATOM     22  C   UNL A   1      29.885  29.459  23.365  1.00  0.00    -0.025 A 
ATOM     23  C   UNL A   1      29.564  30.579  24.113  1.00  0.00     0.008 A 
ATOM     24  C   UNL A   1      29.727  29.468  21.976  1.00  0.00     0.008 A 
ATOM     25  C   UNL A   1      29.046  31.682  23.468  1.00  0.00     0.001 A 
ATOM     26  C   UNL A   1      29.198  30.591  21.341  1.00  0.00     0.001 A 
ATOM     27  C   UNL A   1      28.835  31.699  22.094  1.00  0.00     0.000 A 
ENDBRANCH  21  22
ENDBRANCH  18  19
ENDBRANCH   8  11
ENDBRANCH   6   8
ENDBRANCH   5   6
ENDBRANCH   4   5
ENDBRANCH   3   4
ENDBRANCH   2   3
ENDBRANCH   1   2
BRANCH   1  28
ATOM     28  C   UNL A   1      33.541  28.499  25.397  1.00  0.00     0.188 C 
BRANCH  28  29
ATOM     29  O   UNL A   1      33.084  28.307  26.722  1.00  0.00    -0.376 OA
BRANCH  29  30
ATOM     30  C   UNL A   1      32.210  29.268  27.290  1.00  0.00     0.202 C 
BRANCH  30  31
ATOM     31  C   UNL A   1      32.336  30.775  26.988  1.00  0.00     0.261 C 
BRANCH  31  32
ATOM     32  O   UNL A   1      33.654  31.301  26.763  1.00  0.00    -0.460 OA
BRANCH  32  33
ATOM     33  C   UNL A   1      34.229  31.908  27.837  1.00  0.00     0.338 C 
ATOM     34  O   UNL A   1      33.679  32.634  28.640  1.00  0.00    -0.246 OA
BRANCH  33  35
ATOM     35  C   UNL A   1      35.608  31.387  28.029  1.00  0.00     0.060 A 
ATOM     36  C   UNL A   1      35.875  30.044  27.708  1.00  0.00     0.016 A 
ATOM     37  C   UNL A   1      36.607  32.177  28.596  1.00  0.00     0.016 A 
ATOM     38  C   UNL A   1      37.115  29.474  28.012  1.00  0.00     0.010 A 
ATOM     39  C   UNL A   1      37.842  31.598  28.922  1.00  0.00     0.010 A 
ATOM     40  C   UNL A   1      38.085  30.229  28.684  1.00  0.00    -0.014 A 
BRANCH  40  41
ATOM     41  C   UNL A   1      39.190  29.534  29.412  1.00  0.00     0.031 A 
ATOM     42  C   UNL A   1      39.360  29.871  30.877  1.00  0.00     0.074 A 
ATOM     43  C   UNL A   1      40.038  28.675  28.809  1.00  0.00     0.049 A 
ATOM     44  N   UNL A   1      40.206  29.389  31.749  1.00  0.00    -0.248 NA
ATOM     45  C   UNL A   1      38.459  30.901  31.428  1.00  0.00     0.031 C 
ATOM     46  C   UNL A   1      39.966  28.268  27.409  1.00  0.00     0.029 A 
ATOM     47  N   UNL A   1      41.137  27.993  29.291  1.00  0.00    -0.354 N 
ATOM     48  C   UNL A   1      39.964  30.082  32.933  1.00  0.00     0.074 A 
ATOM     49  C   UNL A   1      38.905  31.026  32.669  1.00  0.00     0.031 C 
ATOM     50  C   UNL A   1      40.985  27.429  27.143  1.00  0.00     0.029 A 
ATOM     51  C   UNL A   1      41.814  27.249  28.339  1.00  0.00     0.049 A 
ATOM     52  H   UNL A   1      41.417  28.034  30.235  1.00  0.00     0.167 HD
ATOM     53  C   UNL A   1      40.575  29.946  34.133  1.00  0.00     0.031 A 
ATOM     54  C   UNL A   1      42.951  26.507  28.443  1.00  0.00     0.031 A 
ATOM     55  C   UNL A   1      41.614  28.990  34.396  1.00  0.00     0.049 A 
ATOM     56  C   UNL A   1      43.529  26.339  29.847  1.00  0.00     0.074 A 
ATOM     57  C   UNL A   1      42.280  28.742  35.584  1.00  0.00     0.029 A 
ATOM     58  N   UNL A   1      42.138  28.125  33.451  1.00  0.00    -0.354 N 
ATOM     59  N   UNL A   1      43.064  26.771  31.000  1.00  0.00    -0.248 NA
ATOM     60  C   UNL A   1      44.732  25.505  29.984  1.00  0.00     0.031 C 
ATOM     61  C   UNL A   1      43.247  27.762  35.343  1.00  0.00     0.029 A 
ATOM     62  C   UNL A   1      43.143  27.364  34.020  1.00  0.00     0.049 A 
ATOM     63  H   UNL A   1      41.841  28.061  32.515  1.00  0.00     0.167 HD
ATOM     64  C   UNL A   1      43.857  26.167  31.977  1.00  0.00     0.074 A 
ATOM     65  C   UNL A   1      44.746  25.265  31.284  1.00  0.00     0.031 C 
ATOM     66  C   UNL A   1      43.916  26.379  33.318  1.00  0.00     0.031 A 
BRANCH  53  67
ATOM     67  C   UNL A   1      40.168  30.876  35.245  1.00  0.00    -0.014 A 
ATOM     68  C   UNL A   1      40.987  31.944  35.649  1.00  0.00     0.010 A 
ATOM     69  C   UNL A   1      38.907  30.712  35.849  1.00  0.00     0.010 A 
ATOM     70  C   UNL A   1      40.561  32.818  36.654  1.00  0.00     0.020 A 
ATOM     71  C   UNL A   1      38.466  31.600  36.833  1.00  0.00     0.020 A 
ATOM     72  C   UNL A   1      39.303  32.643  37.237  1.00  0.00     0.054 A 
BRANCH  72  73
ATOM     73  S   UNL A   1      38.755  33.822  38.500  1.00  0.00     0.124 S 
ATOM     74  O   UNL A   1      37.400  33.355  38.782  1.00  0.00    -0.237 OA
ATOM     75  O   UNL A   1      39.726  33.615  39.572  1.00  0.00    -0.237 OA
ATOM     76  O   UNL A   1      38.840  35.117  37.829  1.00  0.00    -0.744 OA
ENDBRANCH  72  73
ENDBRANCH  53  67
BRANCH  54  77
ATOM     77  C   UNL A   1      43.539  25.747  27.260  1.00  0.00    -0.014 A 
ATOM     78  C   UNL A   1      44.601  26.284  26.494  1.00  0.00     0.010 A 
ATOM     79  C   UNL A   1      43.131  24.444  26.919  1.00  0.00     0.010 A 
ATOM     80  C   UNL A   1      45.299  25.539  25.536  1.00  0.00     0.020 A 
ATOM     81  C   UNL A   1      43.863  23.661  26.004  1.00  0.00     0.020 A 
ATOM     82  C   UNL A   1      44.969  24.205  25.352  1.00  0.00     0.054 A 
BRANCH  82  83
ATOM     83  S   UNL A   1      46.065  23.182  24.333  1.00  0.00     0.124 S 
ATOM     84  O   UNL A   1      45.160  22.655  23.317  1.00  0.00    -0.237 OA
ATOM     85  O   UNL A   1      47.038  24.164  23.858  1.00  0.00    -0.237 OA
ATOM     86  O   UNL A   1      46.584  22.196  25.277  1.00  0.00    -0.744 OA
ENDBRANCH  82  83
ENDBRANCH  54  77
BRANCH  66  87
ATOM     87  C   UNL A   1      44.905  25.555  34.111  1.00  0.00    -0.014 A 
ATOM     88  C   UNL A   1      44.553  24.293  34.627  1.00  0.00     0.010 A 
ATOM     89  C   UNL A   1      46.204  26.044  34.342  1.00  0.00     0.010 A 
ATOM     90  C   UNL A   1      45.437  23.588  35.446  1.00  0.00     0.020 A 
ATOM     91  C   UNL A   1      47.111  25.316  35.118  1.00  0.00     0.020 A 
ATOM     92  C   UNL A   1      46.708  24.109  35.695  1.00  0.00     0.054 A 
BRANCH  92  93
ATOM     93  S   UNL A   1      47.830  23.181  36.773  1.00  0.00     0.124 S 
ATOM     94  O   UNL A   1      46.941  22.774  37.857  1.00  0.00    -0.237 OA
ATOM     95  O   UNL A   1      48.294  22.103  35.903  1.00  0.00    -0.237 OA
ATOM     96  O   UNL A   1      48.850  24.161  37.137  1.00  0.00    -0.744 OA
ENDBRANCH  92  93
ENDBRANCH  66  87
ENDBRANCH  40  41
ENDBRANCH  33  35
ENDBRANCH  32  33
ENDBRANCH  31  32
ENDBRANCH  30  31
ENDBRANCH  29  30
ENDBRANCH  28  29
ENDBRANCH   1  28
TORSDOF 24
ENDMDL
MODEL 2
REMARK VINA RESULT:      -9.5      3.213      8.801
REMARK SMILES CC[C@@H](C(=O)OCCOCCOCCOC(=O)c1ccc(-c2c3nc(c(-c4ccc(S(=O)(=O)[O-])cc4)c4ccc([nH]4)c(-c4ccc(S(=O)(=O)[O-])cc4)c4nc(c(-c5ccc(S(=O)(=O)[O-])cc5)c5ccc2[nH]5)C=C4)C=C3)cc1)N1C(=O)/C(=C/C(C)=C/c2ccccc2)SC1=S
REMARK SMILES IDX 10 1 9 2 8 3 7 4 6 5 4 6 5 7 3 8 2 9 1 10 78 11 79 12 93 13
REMARK SMILES IDX 80 14 81 15 92 16 94 17 82 18 83 19 84 20 85 21 86 22 87 23
REMARK SMILES IDX 91 24 88 25 90 26 89 27 11 28 12 29 13 30 14 31 15 32 16 33
REMARK SMILES IDX 17 34 18 35 19 36 77 37 20 38 76 39 21 40 22 41 23 42 70 43
REMARK SMILES IDX 24 44 75 45 69 46 71 47 25 48 74 49 68 50 67 51 26 53 56 54
REMARK SMILES IDX 37 55 55 56 38 57 41 58 54 59 72 60 39 61 40 62 53 64 73 65
REMARK SMILES IDX 42 66 27 67 28 68 36 69 29 70 35 71 30 72 31 73 32 74 33 75
REMARK SMILES IDX 34 76 57 77 58 78 66 79 59 80 65 81 60 82 61 83 62 84 63 85
REMARK SMILES IDX 64 86 43 87 44 88 52 89 45 90 51 91 46 92 47 93 48 94 49 95
REMARK SMILES IDX 50 96
REMARK H PARENT 71 52 41 63
REMARK Flexibility Score: inf
ROOT
ATOM      1  C   UNL A   1      33.645  26.959  25.568  1.00  0.00     0.188 C 
ENDROOT
BRANCH   1   2
ATOM      2  O   UNL A   1      33.471  25.719  26.210  1.00  0.00    -0.376 OA
BRANCH   2   3
ATOM      3  C   UNL A   1      34.399  24.671  25.991  1.00  0.00     0.202 C 
BRANCH   3   4
ATOM      4  C   UNL A   1      34.473  23.353  26.798  1.00  0.00     0.261 C 
BRANCH   4   5
ATOM      5  O   UNL A   1      33.768  22.231  26.260  1.00  0.00    -0.462 OA
BRANCH   5   6
ATOM      6  C   UNL A   1      33.710  22.131  24.905  1.00  0.00     0.329 C 
ATOM      7  O   UNL A   1      34.675  21.867  24.195  1.00  0.00    -0.250 OA
BRANCH   6   8
ATOM      8  C   UNL A   1      32.282  22.309  24.346  1.00  0.00     0.201 C 
BRANCH   8   9
ATOM      9  C   UNL A   1      31.748  21.090  23.527  1.00  0.00     0.034 C 
ATOM     10  C   UNL A   1      32.005  21.041  22.031  1.00  0.00     0.007 C 
ENDBRANCH   8   9
BRANCH   8  11
ATOM     11  N   UNL A   1      31.919  23.597  23.665  1.00  0.00    -0.278 N 
ATOM     12  C   UNL A   1      30.876  24.324  24.238  1.00  0.00     0.266 C 
ATOM     13  C   UNL A   1      32.588  24.286  22.670  1.00  0.00     0.149 C 
ATOM     14  O   UNL A   1      30.279  24.042  25.268  1.00  0.00    -0.268 OA
ATOM     15  C   UNL A   1      30.642  25.594  23.517  1.00  0.00     0.080 C 
ATOM     16  S   UNL A   1      31.573  25.606  22.085  1.00  0.00    -0.054 SA
ATOM     17  S   UNL A   1      34.118  24.088  22.045  1.00  0.00    -0.052 S 
ATOM     18  C   UNL A   1      29.921  26.560  24.102  1.00  0.00     0.024 C 
BRANCH  18  19
ATOM     19  C   UNL A   1      29.789  27.955  23.720  1.00  0.00    -0.049 C 
ATOM     20  C   UNL A   1      31.026  28.809  23.816  1.00  0.00     0.044 C 
ATOM     21  C   UNL A   1      28.648  28.391  23.163  1.00  0.00     0.011 C 
BRANCH  21  22
ATOM     22  C   UNL A   1      28.373  29.755  22.754  1.00  0.00    -0.025 A 
ATOM     23  C   UNL A   1      28.380  30.007  21.392  1.00  0.00     0.008 A 
ATOM     24  C   UNL A   1      28.210  30.803  23.665  1.00  0.00     0.008 A 
ATOM     25  C   UNL A   1      28.269  31.311  20.957  1.00  0.00     0.001 A 
ATOM     26  C   UNL A   1      28.103  32.116  23.207  1.00  0.00     0.001 A 
ATOM     27  C   UNL A   1      28.153  32.375  21.844  1.00  0.00     0.000 A 
ENDBRANCH  21  22
ENDBRANCH  18  19
ENDBRANCH   8  11
ENDBRANCH   6   8
ENDBRANCH   5   6
ENDBRANCH   4   5
ENDBRANCH   3   4
ENDBRANCH   2   3
ENDBRANCH   1   2
BRANCH   1  28
ATOM     28  C   UNL A   1      33.628  28.188  26.487  1.00  0.00     0.188 C 
BRANCH  28  29
ATOM     29  O   UNL A   1      32.502  28.473  27.293  1.00  0.00    -0.376 OA
BRANCH  29  30
ATOM     30  C   UNL A   1      31.937  29.773  27.245  1.00  0.00     0.202 C 
BRANCH  30  31
ATOM     31  C   UNL A   1      32.747  31.006  26.794  1.00  0.00     0.261 C 
BRANCH  31  32
ATOM     32  O   UNL A   1      33.843  31.423  27.625  1.00  0.00    -0.460 OA
BRANCH  32  33
ATOM     33  C   UNL A   1      33.775  32.705  28.075  1.00  0.00     0.338 C 
ATOM     34  O   UNL A   1      32.946  33.538  27.770  1.00  0.00    -0.246 OA
BRANCH  33  35
ATOM     35  C   UNL A   1      34.752  32.901  29.179  1.00  0.00     0.060 A 
ATOM     36  C   UNL A   1      35.866  33.729  28.958  1.00  0.00     0.016 A 
ATOM     37  C   UNL A   1      34.623  32.217  30.387  1.00  0.00     0.016 A 
ATOM     38  C   UNL A   1      36.884  33.822  29.913  1.00  0.00     0.010 A 
ATOM     39  C   UNL A   1      35.655  32.292  31.334  1.00  0.00     0.010 A 
ATOM     40  C   UNL A   1      36.818  33.049  31.080  1.00  0.00    -0.014 A 
BRANCH  40  41
ATOM     41  C   UNL A   1      38.063  32.782  31.861  1.00  0.00     0.031 A 
ATOM     42  C   UNL A   1      39.143  31.980  31.169  1.00  0.00     0.074 A 
ATOM     43  C   UNL A   1      38.229  33.185  33.139  1.00  0.00     0.049 A 
ATOM     44  N   UNL A   1      40.331  31.640  31.596  1.00  0.00    -0.248 NA
ATOM     45  C   UNL A   1      38.836  31.487  29.813  1.00  0.00     0.031 C 
ATOM     46  C   UNL A   1      37.263  33.969  33.902  1.00  0.00     0.029 A 
ATOM     47  N   UNL A   1      39.264  32.984  34.028  1.00  0.00    -0.354 N 
ATOM     48  C   UNL A   1      40.890  30.866  30.584  1.00  0.00     0.074 A 
ATOM     49  C   UNL A   1      39.913  30.772  29.526  1.00  0.00     0.031 C 
ATOM     50  C   UNL A   1      37.741  34.161  35.147  1.00  0.00     0.029 A 
ATOM     51  C   UNL A   1      39.039  33.495  35.296  1.00  0.00     0.049 A 
ATOM     52  H   UNL A   1      40.095  32.515  33.782  1.00  0.00     0.167 HD
ATOM     53  C   UNL A   1      42.110  30.281  30.541  1.00  0.00     0.031 A 
ATOM     54  C   UNL A   1      39.804  33.437  36.421  1.00  0.00     0.031 A 
ATOM     55  C   UNL A   1      43.087  30.394  31.587  1.00  0.00     0.049 A 
ATOM     56  C   UNL A   1      41.198  32.832  36.265  1.00  0.00     0.074 A 
ATOM     57  C   UNL A   1      44.368  29.871  31.634  1.00  0.00     0.029 A 
ATOM     58  N   UNL A   1      42.887  31.080  32.773  1.00  0.00    -0.354 N 
ATOM     59  N   UNL A   1      41.803  32.393  35.182  1.00  0.00    -0.248 NA
ATOM     60  C   UNL A   1      42.055  32.800  37.459  1.00  0.00     0.031 C 
ATOM     61  C   UNL A   1      44.923  30.196  32.875  1.00  0.00     0.029 A 
ATOM     62  C   UNL A   1      44.008  30.966  33.574  1.00  0.00     0.049 A 
ATOM     63  H   UNL A   1      42.069  31.575  33.010  1.00  0.00     0.167 HD
ATOM     64  C   UNL A   1      43.123  32.144  35.560  1.00  0.00     0.074 A 
ATOM     65  C   UNL A   1      43.248  32.588  36.929  1.00  0.00     0.031 C 
ATOM     66  C   UNL A   1      44.135  31.539  34.884  1.00  0.00     0.031 A 
BRANCH  53  67
ATOM     67  C   UNL A   1      42.447  29.431  29.345  1.00  0.00    -0.014 A 
ATOM     68  C   UNL A   1      42.198  28.047  29.330  1.00  0.00     0.010 A 
ATOM     69  C   UNL A   1      42.961  30.046  28.188  1.00  0.00     0.010 A 
ATOM     70  C   UNL A   1      42.480  27.291  28.189  1.00  0.00     0.020 A 
ATOM     71  C   UNL A   1      43.216  29.299  27.035  1.00  0.00     0.020 A 
ATOM     72  C   UNL A   1      42.983  27.923  27.048  1.00  0.00     0.054 A 
BRANCH  72  73
ATOM     73  S   UNL A   1      43.289  26.927  25.563  1.00  0.00     0.124 S 
ATOM     74  O   UNL A   1      42.882  27.840  24.498  1.00  0.00    -0.237 OA
ATOM     75  O   UNL A   1      44.723  26.661  25.649  1.00  0.00    -0.237 OA
ATOM     76  O   UNL A   1      42.431  25.758  25.744  1.00  0.00    -0.744 OA
ENDBRANCH  72  73
ENDBRANCH  53  67
BRANCH  54  77
ATOM     77  C   UNL A   1      39.373  34.078  37.734  1.00  0.00    -0.014 A 
ATOM     78  C   UNL A   1      38.672  33.340  38.718  1.00  0.00     0.010 A 
ATOM     79  C   UNL A   1      39.722  35.395  38.084  1.00  0.00     0.010 A 
ATOM     80  C   UNL A   1      38.437  33.828  40.009  1.00  0.00     0.020 A 
ATOM     81  C   UNL A   1      39.550  35.877  39.397  1.00  0.00     0.020 A 
ATOM     82  C   UNL A   1      38.946  35.070  40.360  1.00  0.00     0.054 A 
BRANCH  82  83
ATOM     83  S   UNL A   1      38.895  35.556  42.106  1.00  0.00     0.124 S 
ATOM     84  O   UNL A   1      39.870  34.659  42.718  1.00  0.00    -0.237 OA
ATOM     85  O   UNL A   1      39.290  36.961  42.039  1.00  0.00    -0.237 OA
ATOM     86  O   UNL A   1      37.505  35.316  42.484  1.00  0.00    -0.744 OA
ENDBRANCH  82  83
ENDBRANCH  54  77
BRANCH  66  87
ATOM     87  C   UNL A   1      45.468  31.416  35.587  1.00  0.00    -0.014 A 
ATOM     88  C   UNL A   1      45.725  30.362  36.485  1.00  0.00     0.010 A 
ATOM     89  C   UNL A   1      46.480  32.363  35.346  1.00  0.00     0.010 A 
ATOM     90  C   UNL A   1      46.918  30.317  37.207  1.00  0.00     0.020 A 
ATOM     91  C   UNL A   1      47.699  32.292  36.028  1.00  0.00     0.020 A 
ATOM     92  C   UNL A   1      47.894  31.289  36.982  1.00  0.00     0.054 A 
BRANCH  92  93
ATOM     93  S   UNL A   1      49.429  31.216  37.943  1.00  0.00     0.124 S 
ATOM     94  O   UNL A   1      49.805  29.812  37.807  1.00  0.00    -0.237 OA
ATOM     95  O   UNL A   1      50.291  32.168  37.245  1.00  0.00    -0.237 OA
ATOM     96  O   UNL A   1      49.017  31.626  39.283  1.00  0.00    -0.744 OA
ENDBRANCH  92  93
ENDBRANCH  66  87
ENDBRANCH  40  41
ENDBRANCH  33  35
ENDBRANCH  32  33
ENDBRANCH  31  32
ENDBRANCH  30  31
ENDBRANCH  29  30
ENDBRANCH  28  29
ENDBRANCH   1  28
TORSDOF 24
ENDMDL
MODEL 3
REMARK VINA RESULT:      -8.8      3.415      9.670
REMARK SMILES CC[C@@H](C(=O)OCCOCCOCCOC(=O)c1ccc(-c2c3nc(c(-c4ccc(S(=O)(=O)[O-])cc4)c4ccc([nH]4)c(-c4ccc(S(=O)(=O)[O-])cc4)c4nc(c(-c5ccc(S(=O)(=O)[O-])cc5)c5ccc2[nH]5)C=C4)C=C3)cc1)N1C(=O)/C(=C/C(C)=C/c2ccccc2)SC1=S
REMARK SMILES IDX 10 1 9 2 8 3 7 4 6 5 4 6 5 7 3 8 2 9 1 10 78 11 79 12 93 13
REMARK SMILES IDX 80 14 81 15 92 16 94 17 82 18 83 19 84 20 85 21 86 22 87 23
REMARK SMILES IDX 91 24 88 25 90 26 89 27 11 28 12 29 13 30 14 31 15 32 16 33
REMARK SMILES IDX 17 34 18 35 19 36 77 37 20 38 76 39 21 40 22 41 23 42 70 43
REMARK SMILES IDX 24 44 75 45 69 46 71 47 25 48 74 49 68 50 67 51 26 53 56 54
REMARK SMILES IDX 37 55 55 56 38 57 41 58 54 59 72 60 39 61 40 62 53 64 73 65
REMARK SMILES IDX 42 66 27 67 28 68 36 69 29 70 35 71 30 72 31 73 32 74 33 75
REMARK SMILES IDX 34 76 57 77 58 78 66 79 59 80 65 81 60 82 61 83 62 84 63 85
REMARK SMILES IDX 64 86 43 87 44 88 52 89 45 90 51 91 46 92 47 93 48 94 49 95
REMARK SMILES IDX 50 96
REMARK H PARENT 71 52 41 63
REMARK Flexibility Score: inf
ROOT
ATOM      1  C   UNL A   1      33.879  29.056  24.381  1.00  0.00     0.188 C 
ENDROOT
BRANCH   1   2
ATOM      2  O   UNL A   1      33.736  28.096  23.362  1.00  0.00    -0.376 OA
BRANCH   2   3
ATOM      3  C   UNL A   1      33.168  28.464  22.116  1.00  0.00     0.202 C 
BRANCH   3   4
ATOM      4  C   UNL A   1      31.781  29.119  21.920  1.00  0.00     0.261 C 
BRANCH   4   5
ATOM      5  O   UNL A   1      30.641  28.269  22.085  1.00  0.00    -0.462 OA
BRANCH   5   6
ATOM      6  C   UNL A   1      30.336  27.888  23.354  1.00  0.00     0.329 C 
ATOM      7  O   UNL A   1      30.328  28.650  24.316  1.00  0.00    -0.250 OA
BRANCH   6   8
ATOM      8  C   UNL A   1      29.922  26.404  23.457  1.00  0.00     0.201 C 
BRANCH   8   9
ATOM      9  C   UNL A   1      28.452  26.170  23.932  1.00  0.00     0.034 C 
ATOM     10  C   UNL A   1      27.439  27.289  23.764  1.00  0.00     0.007 C 
ENDBRANCH   8   9
BRANCH   8  11
ATOM     11  N   UNL A   1      30.850  25.430  24.124  1.00  0.00    -0.278 N 
ATOM     12  C   UNL A   1      31.838  24.869  23.318  1.00  0.00     0.266 C 
ATOM     13  C   UNL A   1      31.011  25.150  25.468  1.00  0.00     0.149 C 
ATOM     14  O   UNL A   1      32.054  25.140  22.144  1.00  0.00    -0.268 OA
ATOM     15  C   UNL A   1      32.721  23.969  24.091  1.00  0.00     0.080 C 
ATOM     16  S   UNL A   1      32.067  23.747  25.652  1.00  0.00    -0.054 SA
ATOM     17  S   UNL A   1      30.439  25.929  26.824  1.00  0.00    -0.052 S 
ATOM     18  C   UNL A   1      33.903  23.604  23.576  1.00  0.00     0.024 C 
BRANCH  18  19
ATOM     19  C   UNL A   1      35.028  22.970  24.239  1.00  0.00    -0.049 C 
ATOM     20  C   UNL A   1      34.913  21.494  24.518  1.00  0.00     0.044 C 
ATOM     21  C   UNL A   1      36.164  23.658  24.436  1.00  0.00     0.011 C 
BRANCH  21  22
ATOM     22  C   UNL A   1      37.353  23.158  25.099  1.00  0.00    -0.025 A 
ATOM     23  C   UNL A   1      37.689  21.836  24.855  1.00  0.00     0.008 A 
ATOM     24  C   UNL A   1      38.082  23.913  26.023  1.00  0.00     0.008 A 
ATOM     25  C   UNL A   1      38.723  21.271  25.572  1.00  0.00     0.001 A 
ATOM     26  C   UNL A   1      39.122  23.323  26.741  1.00  0.00     0.001 A 
ATOM     27  C   UNL A   1      39.432  21.987  26.529  1.00  0.00     0.000 A 
ENDBRANCH  21  22
ENDBRANCH  18  19
ENDBRANCH   8  11
ENDBRANCH   6   8
ENDBRANCH   5   6
ENDBRANCH   4   5
ENDBRANCH   3   4
ENDBRANCH   2   3
ENDBRANCH   1   2
BRANCH   1  28
ATOM     28  C   UNL A   1      33.924  28.499  25.811  1.00  0.00     0.188 C 
BRANCH  28  29
ATOM     29  O   UNL A   1      32.738  28.342  26.564  1.00  0.00    -0.376 OA
BRANCH  29  30
ATOM     30  C   UNL A   1      32.239  29.449  27.296  1.00  0.00     0.202 C 
BRANCH  30  31
ATOM     31  C   UNL A   1      32.589  30.905  26.923  1.00  0.00     0.261 C 
BRANCH  31  32
ATOM     32  O   UNL A   1      33.816  31.447  27.437  1.00  0.00    -0.460 OA
BRANCH  32  33
ATOM     33  C   UNL A   1      33.740  32.727  27.895  1.00  0.00     0.338 C 
ATOM     34  O   UNL A   1      32.882  33.543  27.626  1.00  0.00    -0.246 OA
BRANCH  33  35
ATOM     35  C   UNL A   1      34.752  32.938  28.963  1.00  0.00     0.060 A 
ATOM     36  C   UNL A   1      35.869  33.745  28.686  1.00  0.00     0.016 A 
ATOM     37  C   UNL A   1      34.653  32.286  30.192  1.00  0.00     0.016 A 
ATOM     38  C   UNL A   1      36.917  33.849  29.606  1.00  0.00     0.010 A 
ATOM     39  C   UNL A   1      35.715  32.372  31.104  1.00  0.00     0.010 A 
ATOM     40  C   UNL A   1      36.879  33.108  30.795  1.00  0.00    -0.014 A 
BRANCH  40  41
ATOM     41  C   UNL A   1      38.144  32.844  31.543  1.00  0.00     0.031 A 
ATOM     42  C   UNL A   1      39.111  31.859  30.923  1.00  0.00     0.074 A 
ATOM     43  C   UNL A   1      38.422  33.408  32.738  1.00  0.00     0.049 A 
ATOM     44  N   UNL A   1      40.292  31.479  31.336  1.00  0.00    -0.248 NA
ATOM     45  C   UNL A   1      38.680  31.207  29.671  1.00  0.00     0.031 C 
ATOM     46  C   UNL A   1      37.572  34.376  33.425  1.00  0.00     0.029 A 
ATOM     47  N   UNL A   1      39.491  33.245  33.594  1.00  0.00    -0.354 N 
ATOM     48  C   UNL A   1      40.722  30.522  30.421  1.00  0.00     0.074 A 
ATOM     49  C   UNL A   1      39.677  30.366  29.439  1.00  0.00     0.031 C 
ATOM     50  C   UNL A   1      38.141  34.700  34.602  1.00  0.00     0.029 A 
ATOM     51  C   UNL A   1      39.388  33.949  34.783  1.00  0.00     0.049 A 
ATOM     52  H   UNL A   1      40.264  32.673  33.378  1.00  0.00     0.167 HD
ATOM     53  C   UNL A   1      41.886  29.830  30.404  1.00  0.00     0.031 A 
ATOM     54  C   UNL A   1      40.214  33.983  35.864  1.00  0.00     0.031 A 
ATOM     55  C   UNL A   1      42.932  30.004  31.372  1.00  0.00     0.049 A 
ATOM     56  C   UNL A   1      41.542  33.241  35.729  1.00  0.00     0.074 A 
ATOM     57  C   UNL A   1      44.167  29.381  31.431  1.00  0.00     0.029 A 
ATOM     58  N   UNL A   1      42.862  30.866  32.452  1.00  0.00    -0.354 N 
ATOM     59  N   UNL A   1      42.041  32.599  34.693  1.00  0.00    -0.248 NA
ATOM     60  C   UNL A   1      42.467  33.303  36.871  1.00  0.00     0.031 C 
ATOM     61  C   UNL A   1      44.823  29.828  32.581  1.00  0.00     0.029 A 
ATOM     62  C   UNL A   1      44.019  30.768  33.204  1.00  0.00     0.049 A 
ATOM     63  H   UNL A   1      42.104  31.461  32.655  1.00  0.00     0.167 HD
ATOM     64  C   UNL A   1      43.358  32.291  35.038  1.00  0.00     0.074 A 
ATOM     65  C   UNL A   1      43.603  32.912  36.318  1.00  0.00     0.031 C 
ATOM     66  C   UNL A   1      44.273  31.508  34.408  1.00  0.00     0.031 A 
BRANCH  53  67
ATOM     67  C   UNL A   1      42.077  28.792  29.330  1.00  0.00    -0.014 A 
ATOM     68  C   UNL A   1      41.753  27.441  29.546  1.00  0.00     0.010 A 
ATOM     69  C   UNL A   1      42.527  29.194  28.059  1.00  0.00     0.010 A 
ATOM     70  C   UNL A   1      41.900  26.508  28.516  1.00  0.00     0.020 A 
ATOM     71  C   UNL A   1      42.647  28.270  27.018  1.00  0.00     0.020 A 
ATOM     72  C   UNL A   1      42.342  26.929  27.258  1.00  0.00     0.054 A 
BRANCH  72  73
ATOM     73  S   UNL A   1      42.471  25.706  25.925  1.00  0.00     0.124 S 
ATOM     74  O   UNL A   1      41.235  25.939  25.181  1.00  0.00    -0.237 OA
ATOM     75  O   UNL A   1      43.700  26.107  25.243  1.00  0.00    -0.237 OA
ATOM     76  O   UNL A   1      42.543  24.428  26.629  1.00  0.00    -0.744 OA
ENDBRANCH  72  73
ENDBRANCH  53  67
BRANCH  54  77
ATOM     77  C   UNL A   1      39.920  34.840  37.089  1.00  0.00    -0.014 A 
ATOM     78  C   UNL A   1      39.218  34.317  38.202  1.00  0.00     0.010 A 
ATOM     79  C   UNL A   1      40.400  36.156  37.226  1.00  0.00     0.010 A 
ATOM     80  C   UNL A   1      39.104  35.002  39.417  1.00  0.00     0.020 A 
ATOM     81  C   UNL A   1      40.349  36.831  38.461  1.00  0.00     0.020 A 
ATOM     82  C   UNL A   1      39.738  36.227  39.559  1.00  0.00     0.054 A 
BRANCH  82  83
ATOM     83  S   UNL A   1      39.833  36.957  41.216  1.00  0.00     0.124 S 
ATOM     84  O   UNL A   1      39.004  38.153  41.089  1.00  0.00    -0.237 OA
ATOM     85  O   UNL A   1      39.274  35.893  42.047  1.00  0.00    -0.237 OA
ATOM     86  O   UNL A   1      41.260  37.206  41.396  1.00  0.00    -0.744 OA
ENDBRANCH  82  83
ENDBRANCH  54  77
BRANCH  66  87
ATOM     87  C   UNL A   1      45.633  31.368  35.054  1.00  0.00    -0.014 A 
ATOM     88  C   UNL A   1      46.691  32.235  34.720  1.00  0.00     0.010 A 
ATOM     89  C   UNL A   1      45.858  30.360  36.010  1.00  0.00     0.010 A 
ATOM     90  C   UNL A   1      47.969  32.031  35.242  1.00  0.00     0.020 A 
ATOM     91  C   UNL A   1      47.124  30.186  36.576  1.00  0.00     0.020 A 
ATOM     92  C   UNL A   1      48.180  31.000  36.160  1.00  0.00     0.054 A 
BRANCH  92  93
ATOM     93  S   UNL A   1      49.852  30.748  36.812  1.00  0.00     0.124 S 
ATOM     94  O   UNL A   1      49.587  30.439  38.214  1.00  0.00    -0.237 OA
ATOM     95  O   UNL A   1      50.347  29.634  36.006  1.00  0.00    -0.237 OA
ATOM     96  O   UNL A   1      50.515  32.027  36.569  1.00  0.00    -0.744 OA
ENDBRANCH  92  93
ENDBRANCH  66  87
ENDBRANCH  40  41
ENDBRANCH  33  35
ENDBRANCH  32  33
ENDBRANCH  31  32
ENDBRANCH  30  31
ENDBRANCH  29  30
ENDBRANCH  28  29
ENDBRANCH   1  28
TORSDOF 24
ENDMDL
