MODEL 1
REMARK VINA RESULT:      -9.0      0.000      0.000
REMARK SMILES C[C@H]([C@@H](C)C(=O)OCCOCCOCCOC(=O)c1ccc(-c2c3nc(c(-c4ccc(S(=O)(=O)[O-])cc4)c4ccc([nH]4)c(-c4ccc(S(=O)(=O)[O-])cc4)c4nc(c(-c5ccc(S(=O)(=O)[O-])cc5)c5ccc2[nH]5)C=C4)C=C3)cc1)[N@@H+]1CCC[C@@H]1C1CCCC1
REMARK SMILES IDX 11 1 10 2 9 3 8 4 7 5 5 6 6 7 3 8 4 9 2 10 1 11 79 12 80 13
REMARK SMILES IDX 83 14 81 16 82 17 84 18 85 19 88 20 86 21 87 22 12 23 13 24
REMARK SMILES IDX 14 25 15 26 16 27 17 28 18 29 19 30 20 31 78 32 21 33 77 34
REMARK SMILES IDX 22 35 23 36 24 37 71 38 25 39 76 40 70 41 72 42 26 43 75 44
REMARK SMILES IDX 69 45 68 46 27 48 57 49 38 50 56 51 39 52 42 53 55 54 73 55
REMARK SMILES IDX 40 56 41 57 54 59 74 60 43 61 28 62 29 63 37 64 30 65 36 66
REMARK SMILES IDX 31 67 32 68 33 69 34 70 35 71 58 72 59 73 67 74 60 75 66 76
REMARK SMILES IDX 61 77 62 78 63 79 64 80 65 81 44 82 45 83 53 84 46 85 52 86
REMARK SMILES IDX 47 87 48 88 49 89 50 90 51 91
REMARK H PARENT 79 15 72 47 42 58
REMARK Flexibility Score: inf
ROOT
ATOM      1  C   UNL A   1      33.557  28.594  27.048  1.00  0.00     0.188 C 
ENDROOT
BRANCH   1   2
ATOM      2  O   UNL A   1      32.781  28.620  25.860  1.00  0.00    -0.376 OA
BRANCH   2   3
ATOM      3  C   UNL A   1      31.531  27.929  25.886  1.00  0.00     0.202 C 
BRANCH   3   4
ATOM      4  C   UNL A   1      31.557  26.498  25.328  1.00  0.00     0.261 C 
BRANCH   4   5
ATOM      5  O   UNL A   1      32.248  26.343  24.057  1.00  0.00    -0.463 OA
BRANCH   5   6
ATOM      6  C   UNL A   1      33.257  25.409  24.132  1.00  0.00     0.314 C 
ATOM      7  O   UNL A   1      34.143  25.494  24.982  1.00  0.00    -0.252 OA
BRANCH   6   8
ATOM      8  C   UNL A   1      33.131  24.174  23.186  1.00  0.00     0.154 C 
ATOM      9  C   UNL A   1      32.760  24.762  21.804  1.00  0.00     0.026 C 
BRANCH   8  10
ATOM     10  C   UNL A   1      32.205  23.008  23.699  1.00  0.00     0.195 C 
ATOM     11  C   UNL A   1      32.169  21.856  22.653  1.00  0.00     0.076 C 
BRANCH  10  12
ATOM     12  N   UNL A   1      32.408  22.245  24.958  1.00  0.00    -0.329 N 
ATOM     13  C   UNL A   1      31.382  22.549  25.976  1.00  0.00     0.262 C 
ATOM     14  C   UNL A   1      33.614  21.868  25.719  1.00  0.00     0.187 C 
ATOM     15  H   UNL A   1      32.433  21.439  24.334  1.00  0.00     0.348 HD
ATOM     16  C   UNL A   1      32.158  23.337  27.001  1.00  0.00     0.067 C 
ATOM     17  C   UNL A   1      33.470  22.579  27.079  1.00  0.00     0.071 C 
BRANCH  14  18
ATOM     18  C   UNL A   1      35.003  21.863  25.079  1.00  0.00     0.047 C 
ATOM     19  C   UNL A   1      36.062  22.696  25.766  1.00  0.00     0.010 C 
ATOM     20  C   UNL A   1      35.802  20.554  25.049  1.00  0.00     0.010 C 
ATOM     21  C   UNL A   1      37.243  22.513  24.845  1.00  0.00     0.001 C 
ATOM     22  C   UNL A   1      37.252  20.999  24.747  1.00  0.00     0.001 C 
ENDBRANCH  14  18
ENDBRANCH  10  12
ENDBRANCH   8  10
ENDBRANCH   6   8
ENDBRANCH   5   6
ENDBRANCH   4   5
ENDBRANCH   3   4
ENDBRANCH   2   3
ENDBRANCH   1   2
BRANCH   1  23
ATOM     23  C   UNL A   1      34.865  29.381  27.004  1.00  0.00     0.188 C 
BRANCH  23  24
ATOM     24  O   UNL A   1      34.776  30.535  27.834  1.00  0.00    -0.376 OA
BRANCH  24  25
ATOM     25  C   UNL A   1      33.499  31.173  27.770  1.00  0.00     0.202 C 
BRANCH  25  26
ATOM     26  C   UNL A   1      33.657  32.663  27.450  1.00  0.00     0.261 C 
BRANCH  26  27
ATOM     27  O   UNL A   1      32.708  33.520  28.119  1.00  0.00    -0.460 OA
BRANCH  27  28
ATOM     28  C   UNL A   1      33.212  34.569  28.813  1.00  0.00     0.338 C 
ATOM     29  O   UNL A   1      32.769  35.708  28.798  1.00  0.00    -0.246 OA
BRANCH  28  30
ATOM     30  C   UNL A   1      34.338  34.116  29.682  1.00  0.00     0.060 A 
ATOM     31  C   UNL A   1      35.652  34.373  29.274  1.00  0.00     0.016 A 
ATOM     32  C   UNL A   1      34.127  33.444  30.894  1.00  0.00     0.016 A 
ATOM     33  C   UNL A   1      36.735  34.018  30.094  1.00  0.00     0.010 A 
ATOM     34  C   UNL A   1      35.215  33.052  31.695  1.00  0.00     0.010 A 
ATOM     35  C   UNL A   1      36.532  33.343  31.310  1.00  0.00    -0.014 A 
BRANCH  35  36
ATOM     36  C   UNL A   1      37.695  32.773  32.056  1.00  0.00     0.031 A 
ATOM     37  C   UNL A   1      38.423  31.613  31.438  1.00  0.00     0.074 A 
ATOM     38  C   UNL A   1      38.118  33.246  33.247  1.00  0.00     0.049 A 
ATOM     39  N   UNL A   1      39.472  30.967  31.876  1.00  0.00    -0.248 NA
ATOM     40  C   UNL A   1      37.891  31.109  30.162  1.00  0.00     0.031 C 
ATOM     41  C   UNL A   1      37.521  34.360  33.967  1.00  0.00     0.029 A 
ATOM     42  N   UNL A   1      39.155  32.858  34.066  1.00  0.00    -0.354 N 
ATOM     43  C   UNL A   1      39.732  29.991  30.926  1.00  0.00     0.074 A 
ATOM     44  C   UNL A   1      38.730  30.124  29.890  1.00  0.00     0.031 C 
ATOM     45  C   UNL A   1      38.224  34.613  35.082  1.00  0.00     0.029 A 
ATOM     46  C   UNL A   1      39.278  33.613  35.214  1.00  0.00     0.049 A 
ATOM     47  H   UNL A   1      39.757  32.109  33.850  1.00  0.00     0.167 HD
ATOM     48  C   UNL A   1      40.700  29.045  30.920  1.00  0.00     0.031 A 
ATOM     49  C   UNL A   1      40.113  33.494  36.270  1.00  0.00     0.031 A 
ATOM     50  C   UNL A   1      41.635  28.836  31.988  1.00  0.00     0.049 A 
ATOM     51  C   UNL A   1      41.108  32.359  36.290  1.00  0.00     0.074 A 
ATOM     52  C   UNL A   1      42.623  27.872  32.084  1.00  0.00     0.029 A 
ATOM     53  N   UNL A   1      41.679  29.574  33.160  1.00  0.00    -0.354 N 
ATOM     54  N   UNL A   1      41.359  31.466  35.362  1.00  0.00    -0.248 NA
ATOM     55  C   UNL A   1      41.921  32.205  37.506  1.00  0.00     0.031 C 
ATOM     56  C   UNL A   1      43.218  27.982  33.344  1.00  0.00     0.029 A 
ATOM     57  C   UNL A   1      42.656  29.066  34.001  1.00  0.00     0.049 A 
ATOM     58  H   UNL A   1      41.102  30.345  33.365  1.00  0.00     0.167 HD
ATOM     59  C   UNL A   1      42.376  30.664  35.872  1.00  0.00     0.074 A 
ATOM     60  C   UNL A   1      42.705  31.185  37.181  1.00  0.00     0.031 C 
ATOM     61  C   UNL A   1      42.981  29.593  35.303  1.00  0.00     0.031 A 
BRANCH  48  62
ATOM     62  C   UNL A   1      40.723  28.115  29.741  1.00  0.00    -0.014 A 
ATOM     63  C   UNL A   1      39.844  27.020  29.661  1.00  0.00     0.010 A 
ATOM     64  C   UNL A   1      41.652  28.331  28.707  1.00  0.00     0.010 A 
ATOM     65  C   UNL A   1      39.924  26.131  28.588  1.00  0.00     0.020 A 
ATOM     66  C   UNL A   1      41.715  27.460  27.618  1.00  0.00     0.020 A 
ATOM     67  C   UNL A   1      40.863  26.355  27.576  1.00  0.00     0.054 A 
BRANCH  67  68
ATOM     68  S   UNL A   1      40.943  25.185  26.194  1.00  0.00     0.124 S 
ATOM     69  O   UNL A   1      39.559  24.722  26.112  1.00  0.00    -0.237 OA
ATOM     70  O   UNL A   1      41.390  26.027  25.088  1.00  0.00    -0.237 OA
ATOM     71  O   UNL A   1      41.908  24.184  26.643  1.00  0.00    -0.744 OA
ENDBRANCH  67  68
ENDBRANCH  48  62
BRANCH  49  72
ATOM     72  C   UNL A   1      40.026  34.431  37.433  1.00  0.00    -0.014 A 
ATOM     73  C   UNL A   1      39.061  34.243  38.441  1.00  0.00     0.010 A 
ATOM     74  C   UNL A   1      40.876  35.551  37.516  1.00  0.00     0.010 A 
ATOM     75  C   UNL A   1      38.933  35.163  39.490  1.00  0.00     0.020 A 
ATOM     76  C   UNL A   1      40.774  36.455  38.580  1.00  0.00     0.020 A 
ATOM     77  C   UNL A   1      39.794  36.262  39.555  1.00  0.00     0.054 A 
BRANCH  77  78
ATOM     78  S   UNL A   1      39.636  37.421  40.944  1.00  0.00     0.124 S 
ATOM     79  O   UNL A   1      39.244  36.536  42.037  1.00  0.00    -0.237 OA
ATOM     80  O   UNL A   1      40.982  37.984  41.036  1.00  0.00    -0.237 OA
ATOM     81  O   UNL A   1      38.608  38.356  40.494  1.00  0.00    -0.744 OA
ENDBRANCH  77  78
ENDBRANCH  49  72
BRANCH  61  82
ATOM     82  C   UNL A   1      44.101  28.928  36.062  1.00  0.00    -0.014 A 
ATOM     83  C   UNL A   1      45.422  29.406  35.998  1.00  0.00     0.010 A 
ATOM     84  C   UNL A   1      43.804  27.851  36.919  1.00  0.00     0.010 A 
ATOM     85  C   UNL A   1      46.429  28.802  36.759  1.00  0.00     0.020 A 
ATOM     86  C   UNL A   1      44.801  27.266  37.704  1.00  0.00     0.020 A 
ATOM     87  C   UNL A   1      46.111  27.739  37.610  1.00  0.00     0.054 A 
BRANCH  87  88
ATOM     88  S   UNL A   1      47.423  27.012  38.630  1.00  0.00     0.124 S 
ATOM     89  O   UNL A   1      48.454  26.722  37.638  1.00  0.00    -0.237 OA
ATOM     90  O   UNL A   1      47.735  28.090  39.565  1.00  0.00    -0.237 OA
ATOM     91  O   UNL A   1      46.788  25.840  39.229  1.00  0.00    -0.744 OA
ENDBRANCH  87  88
ENDBRANCH  61  82
ENDBRANCH  35  36
ENDBRANCH  28  30
ENDBRANCH  27  28
ENDBRANCH  26  27
ENDBRANCH  25  26
ENDBRANCH  24  25
ENDBRANCH  23  24
ENDBRANCH   1  23
TORSDOF 23
ENDMDL
MODEL 2
REMARK VINA RESULT:      -8.7      1.013      2.158
REMARK SMILES C[C@H]([C@@H](C)C(=O)OCCOCCOCCOC(=O)c1ccc(-c2c3nc(c(-c4ccc(S(=O)(=O)[O-])cc4)c4ccc([nH]4)c(-c4ccc(S(=O)(=O)[O-])cc4)c4nc(c(-c5ccc(S(=O)(=O)[O-])cc5)c5ccc2[nH]5)C=C4)C=C3)cc1)[N@@H+]1CCC[C@@H]1C1CCCC1
REMARK SMILES IDX 11 1 10 2 9 3 8 4 7 5 5 6 6 7 3 8 4 9 2 10 1 11 79 12 80 13
REMARK SMILES IDX 83 14 81 16 82 17 84 18 85 19 88 20 86 21 87 22 12 23 13 24
REMARK SMILES IDX 14 25 15 26 16 27 17 28 18 29 19 30 20 31 78 32 21 33 77 34
REMARK SMILES IDX 22 35 23 36 24 37 71 38 25 39 76 40 70 41 72 42 26 43 75 44
REMARK SMILES IDX 69 45 68 46 27 48 57 49 38 50 56 51 39 52 42 53 55 54 73 55
REMARK SMILES IDX 40 56 41 57 54 59 74 60 43 61 28 62 29 63 37 64 30 65 36 66
REMARK SMILES IDX 31 67 32 68 33 69 34 70 35 71 58 72 59 73 67 74 60 75 66 76
REMARK SMILES IDX 61 77 62 78 63 79 64 80 65 81 44 82 45 83 53 84 46 85 52 86
REMARK SMILES IDX 47 87 48 88 49 89 50 90 51 91
REMARK H PARENT 79 15 72 47 42 58
REMARK Flexibility Score: inf
ROOT
ATOM      1  C   UNL A   1      33.490  28.833  27.005  1.00  0.00     0.188 C 
ENDROOT
BRANCH   1   2
ATOM      2  O   UNL A   1      32.077  28.908  27.133  1.00  0.00    -0.376 OA
BRANCH   2   3
ATOM      3  C   UNL A   1      31.397  27.713  27.517  1.00  0.00     0.202 C 
BRANCH   3   4
ATOM      4  C   UNL A   1      31.016  26.771  26.366  1.00  0.00     0.261 C 
BRANCH   4   5
ATOM      5  O   UNL A   1      32.095  25.925  25.877  1.00  0.00    -0.463 OA
BRANCH   5   6
ATOM      6  C   UNL A   1      32.200  24.758  26.599  1.00  0.00     0.314 C 
ATOM      7  O   UNL A   1      31.241  24.307  27.226  1.00  0.00    -0.252 OA
BRANCH   6   8
ATOM      8  C   UNL A   1      33.541  23.972  26.457  1.00  0.00     0.154 C 
ATOM      9  C   UNL A   1      34.502  24.945  25.733  1.00  0.00     0.026 C 
BRANCH   8  10
ATOM     10  C   UNL A   1      33.431  22.532  25.829  1.00  0.00     0.195 C 
ATOM     11  C   UNL A   1      33.364  21.462  26.957  1.00  0.00     0.076 C 
BRANCH  10  12
ATOM     12  N   UNL A   1      32.339  22.072  24.933  1.00  0.00    -0.329 N 
ATOM     13  C   UNL A   1      32.239  20.600  24.871  1.00  0.00     0.262 C 
ATOM     14  C   UNL A   1      31.840  22.553  23.631  1.00  0.00     0.187 C 
ATOM     15  H   UNL A   1      31.766  22.703  25.493  1.00  0.00     0.348 HD
ATOM     16  C   UNL A   1      32.733  20.293  23.480  1.00  0.00     0.067 C 
ATOM     17  C   UNL A   1      32.089  21.389  22.650  1.00  0.00     0.071 C 
BRANCH  14  18
ATOM     18  C   UNL A   1      32.134  23.965  23.125  1.00  0.00     0.047 C 
ATOM     19  C   UNL A   1      32.895  24.066  21.822  1.00  0.00     0.010 C 
ATOM     20  C   UNL A   1      30.964  24.867  22.715  1.00  0.00     0.010 C 
ATOM     21  C   UNL A   1      33.061  25.560  21.678  1.00  0.00     0.001 C 
ATOM     22  C   UNL A   1      31.622  25.992  21.884  1.00  0.00     0.001 C 
ENDBRANCH  14  18
ENDBRANCH  10  12
ENDBRANCH   8  10
ENDBRANCH   6   8
ENDBRANCH   5   6
ENDBRANCH   4   5
ENDBRANCH   3   4
ENDBRANCH   2   3
ENDBRANCH   1   2
BRANCH   1  23
ATOM     23  C   UNL A   1      34.177  30.096  26.489  1.00  0.00     0.188 C 
BRANCH  23  24
ATOM     24  O   UNL A   1      34.716  30.843  27.576  1.00  0.00    -0.376 OA
BRANCH  24  25
ATOM     25  C   UNL A   1      33.736  31.631  28.254  1.00  0.00     0.202 C 
BRANCH  25  26
ATOM     26  C   UNL A   1      33.527  32.967  27.534  1.00  0.00     0.261 C 
BRANCH  26  27
ATOM     27  O   UNL A   1      32.761  33.934  28.283  1.00  0.00    -0.460 OA
BRANCH  27  28
ATOM     28  C   UNL A   1      33.441  34.979  28.813  1.00  0.00     0.338 C 
ATOM     29  O   UNL A   1      33.155  36.159  28.668  1.00  0.00    -0.246 OA
BRANCH  28  30
ATOM     30  C   UNL A   1      34.546  34.482  29.685  1.00  0.00     0.060 A 
ATOM     31  C   UNL A   1      35.861  34.547  29.212  1.00  0.00     0.016 A 
ATOM     32  C   UNL A   1      34.312  33.956  30.963  1.00  0.00     0.016 A 
ATOM     33  C   UNL A   1      36.933  34.147  30.028  1.00  0.00     0.010 A 
ATOM     34  C   UNL A   1      35.383  33.518  31.764  1.00  0.00     0.010 A 
ATOM     35  C   UNL A   1      36.707  33.617  31.310  1.00  0.00    -0.014 A 
BRANCH  35  36
ATOM     36  C   UNL A   1      37.830  32.989  32.071  1.00  0.00     0.031 A 
ATOM     37  C   UNL A   1      38.496  31.784  31.469  1.00  0.00     0.074 A 
ATOM     38  C   UNL A   1      38.268  33.447  33.262  1.00  0.00     0.049 A 
ATOM     39  N   UNL A   1      39.504  31.084  31.921  1.00  0.00    -0.248 NA
ATOM     40  C   UNL A   1      37.948  31.300  30.192  1.00  0.00     0.031 C 
ATOM     41  C   UNL A   1      37.729  34.599  33.968  1.00  0.00     0.029 A 
ATOM     42  N   UNL A   1      39.276  33.008  34.094  1.00  0.00    -0.354 N 
ATOM     43  C   UNL A   1      39.716  30.087  30.981  1.00  0.00     0.074 A 
ATOM     44  C   UNL A   1      38.733  30.268  29.935  1.00  0.00     0.031 C 
ATOM     45  C   UNL A   1      38.436  34.821  35.088  1.00  0.00     0.029 A 
ATOM     46  C   UNL A   1      39.431  33.765  35.237  1.00  0.00     0.049 A 
ATOM     47  H   UNL A   1      39.836  32.225  33.888  1.00  0.00     0.167 HD
ATOM     48  C   UNL A   1      40.629  29.088  30.991  1.00  0.00     0.031 A 
ATOM     49  C   UNL A   1      40.249  33.608  36.301  1.00  0.00     0.031 A 
ATOM     50  C   UNL A   1      41.543  28.835  32.069  1.00  0.00     0.049 A 
ATOM     51  C   UNL A   1      41.178  32.419  36.339  1.00  0.00     0.074 A 
ATOM     52  C   UNL A   1      42.474  27.819  32.181  1.00  0.00     0.029 A 
ATOM     53  N   UNL A   1      41.618  29.580  33.236  1.00  0.00    -0.354 N 
ATOM     54  N   UNL A   1      41.386  31.505  35.420  1.00  0.00    -0.248 NA
ATOM     55  C   UNL A   1      41.971  32.230  37.563  1.00  0.00     0.031 C 
ATOM     56  C   UNL A   1      43.064  27.906  33.446  1.00  0.00     0.029 A 
ATOM     57  C   UNL A   1      42.558  29.025  34.089  1.00  0.00     0.049 A 
ATOM     58  H   UNL A   1      41.084  30.384  33.430  1.00  0.00     0.167 HD
ATOM     59  C   UNL A   1      42.352  30.652  35.945  1.00  0.00     0.074 A 
ATOM     60  C   UNL A   1      42.699  31.164  37.253  1.00  0.00     0.031 C 
ATOM     61  C   UNL A   1      42.901  29.543  35.390  1.00  0.00     0.031 A 
BRANCH  48  62
ATOM     62  C   UNL A   1      40.610  28.149  29.819  1.00  0.00    -0.014 A 
ATOM     63  C   UNL A   1      39.716  27.064  29.772  1.00  0.00     0.010 A 
ATOM     64  C   UNL A   1      41.514  28.345  28.760  1.00  0.00     0.010 A 
ATOM     65  C   UNL A   1      39.757  26.166  28.704  1.00  0.00     0.020 A 
ATOM     66  C   UNL A   1      41.538  27.465  27.677  1.00  0.00     0.020 A 
ATOM     67  C   UNL A   1      40.672  26.370  27.666  1.00  0.00     0.054 A 
BRANCH  67  68
ATOM     68  S   UNL A   1      40.701  25.188  26.293  1.00  0.00     0.124 S 
ATOM     69  O   UNL A   1      41.604  24.158  26.802  1.00  0.00    -0.237 OA
ATOM     70  O   UNL A   1      39.299  24.794  26.180  1.00  0.00    -0.237 OA
ATOM     71  O   UNL A   1      41.219  25.970  25.173  1.00  0.00    -0.744 OA
ENDBRANCH  67  68
ENDBRANCH  48  62
BRANCH  49  72
ATOM     72  C   UNL A   1      40.205  34.558  37.455  1.00  0.00    -0.014 A 
ATOM     73  C   UNL A   1      39.301  34.363  38.518  1.00  0.00     0.010 A 
ATOM     74  C   UNL A   1      41.033  35.697  37.478  1.00  0.00     0.010 A 
ATOM     75  C   UNL A   1      39.210  35.293  39.561  1.00  0.00     0.020 A 
ATOM     76  C   UNL A   1      40.970  36.612  38.536  1.00  0.00     0.020 A 
ATOM     77  C   UNL A   1      40.049  36.411  39.565  1.00  0.00     0.054 A 
BRANCH  77  78
ATOM     78  S   UNL A   1      39.942  37.584  40.947  1.00  0.00     0.124 S 
ATOM     79  O   UNL A   1      39.159  38.670  40.366  1.00  0.00    -0.237 OA
ATOM     80  O   UNL A   1      39.267  36.796  41.976  1.00  0.00    -0.237 OA
ATOM     81  O   UNL A   1      41.339  37.902  41.234  1.00  0.00    -0.744 OA
ENDBRANCH  77  78
ENDBRANCH  49  72
BRANCH  61  82
ATOM     82  C   UNL A   1      43.975  28.823  36.164  1.00  0.00    -0.014 A 
ATOM     83  C   UNL A   1      43.687  27.696  36.955  1.00  0.00     0.010 A 
ATOM     84  C   UNL A   1      45.313  29.241  36.031  1.00  0.00     0.010 A 
ATOM     85  C   UNL A   1      44.714  27.016  37.616  1.00  0.00     0.020 A 
ATOM     86  C   UNL A   1      46.346  28.545  36.665  1.00  0.00     0.020 A 
ATOM     87  C   UNL A   1      46.038  27.443  37.464  1.00  0.00     0.054 A 
BRANCH  87  88
ATOM     88  S   UNL A   1      47.359  26.508  38.284  1.00  0.00     0.124 S 
ATOM     89  O   UNL A   1      48.351  26.385  37.220  1.00  0.00    -0.237 OA
ATOM     90  O   UNL A   1      47.730  27.385  39.392  1.00  0.00    -0.237 OA
ATOM     91  O   UNL A   1      46.709  25.260  38.676  1.00  0.00    -0.744 OA
ENDBRANCH  87  88
ENDBRANCH  61  82
ENDBRANCH  35  36
ENDBRANCH  28  30
ENDBRANCH  27  28
ENDBRANCH  26  27
ENDBRANCH  25  26
ENDBRANCH  24  25
ENDBRANCH  23  24
ENDBRANCH   1  23
TORSDOF 23
ENDMDL
MODEL 3
REMARK VINA RESULT:      -8.7      6.451     11.894
REMARK SMILES C[C@H]([C@@H](C)C(=O)OCCOCCOCCOC(=O)c1ccc(-c2c3nc(c(-c4ccc(S(=O)(=O)[O-])cc4)c4ccc([nH]4)c(-c4ccc(S(=O)(=O)[O-])cc4)c4nc(c(-c5ccc(S(=O)(=O)[O-])cc5)c5ccc2[nH]5)C=C4)C=C3)cc1)[N@@H+]1CCC[C@@H]1C1CCCC1
REMARK SMILES IDX 11 1 10 2 9 3 8 4 7 5 5 6 6 7 3 8 4 9 2 10 1 11 79 12 80 13
REMARK SMILES IDX 83 14 81 16 82 17 84 18 85 19 88 20 86 21 87 22 12 23 13 24
REMARK SMILES IDX 14 25 15 26 16 27 17 28 18 29 19 30 20 31 78 32 21 33 77 34
REMARK SMILES IDX 22 35 23 36 24 37 71 38 25 39 76 40 70 41 72 42 26 43 75 44
REMARK SMILES IDX 69 45 68 46 27 48 57 49 38 50 56 51 39 52 42 53 55 54 73 55
REMARK SMILES IDX 40 56 41 57 54 59 74 60 43 61 28 62 29 63 37 64 30 65 36 66
REMARK SMILES IDX 31 67 32 68 33 69 34 70 35 71 58 72 59 73 67 74 60 75 66 76
REMARK SMILES IDX 61 77 62 78 63 79 64 80 65 81 44 82 45 83 53 84 46 85 52 86
REMARK SMILES IDX 47 87 48 88 49 89 50 90 51 91
REMARK H PARENT 79 15 72 47 42 58
REMARK Flexibility Score: inf
ROOT
ATOM      1  C   UNL A   1      38.173  23.846  26.305  1.00  0.00     0.188 C 
ENDROOT
BRANCH   1   2
ATOM      2  O   UNL A   1      37.602  23.591  25.030  1.00  0.00    -0.376 OA
BRANCH   2   3
ATOM      3  C   UNL A   1      36.198  23.809  24.894  1.00  0.00     0.202 C 
BRANCH   3   4
ATOM      4  C   UNL A   1      35.316  22.565  25.074  1.00  0.00     0.261 C 
BRANCH   4   5
ATOM      5  O   UNL A   1      33.896  22.833  25.239  1.00  0.00    -0.463 OA
BRANCH   5   6
ATOM      6  C   UNL A   1      33.122  22.003  24.458  1.00  0.00     0.314 C 
ATOM      7  O   UNL A   1      33.179  20.780  24.577  1.00  0.00    -0.252 OA
BRANCH   6   8
ATOM      8  C   UNL A   1      32.077  22.699  23.531  1.00  0.00     0.154 C 
ATOM      9  C   UNL A   1      32.524  22.354  22.091  1.00  0.00     0.026 C 
BRANCH   8  10
ATOM     10  C   UNL A   1      31.817  24.226  23.813  1.00  0.00     0.195 C 
ATOM     11  C   UNL A   1      30.401  24.629  23.308  1.00  0.00     0.076 C 
BRANCH  10  12
ATOM     12  N   UNL A   1      31.833  24.862  25.157  1.00  0.00    -0.329 N 
ATOM     13  C   UNL A   1      30.849  24.259  26.080  1.00  0.00     0.262 C 
ATOM     14  C   UNL A   1      31.985  26.259  25.605  1.00  0.00     0.187 C 
ATOM     15  H   UNL A   1      32.833  24.666  25.114  1.00  0.00     0.348 HD
ATOM     16  C   UNL A   1      29.811  25.345  26.210  1.00  0.00     0.067 C 
ATOM     17  C   UNL A   1      30.656  26.602  26.308  1.00  0.00     0.071 C 
BRANCH  14  18
ATOM     18  C   UNL A   1      32.594  27.333  24.704  1.00  0.00     0.047 C 
ATOM     19  C   UNL A   1      33.871  26.960  23.983  1.00  0.00     0.010 C 
ATOM     20  C   UNL A   1      31.819  27.790  23.462  1.00  0.00     0.010 C 
ATOM     21  C   UNL A   1      34.208  28.247  23.270  1.00  0.00     0.001 C 
ATOM     22  C   UNL A   1      32.875  28.518  22.599  1.00  0.00     0.001 C 
ENDBRANCH  14  18
ENDBRANCH  10  12
ENDBRANCH   8  10
ENDBRANCH   6   8
ENDBRANCH   5   6
ENDBRANCH   4   5
ENDBRANCH   3   4
ENDBRANCH   2   3
ENDBRANCH   1   2
BRANCH   1  23
ATOM     23  C   UNL A   1      39.537  23.207  26.561  1.00  0.00     0.188 C 
BRANCH  23  24
ATOM     24  O   UNL A   1      39.384  21.824  26.869  1.00  0.00    -0.376 OA
BRANCH  24  25
ATOM     25  C   UNL A   1      39.336  20.995  25.707  1.00  0.00     0.202 C 
BRANCH  25  26
ATOM     26  C   UNL A   1      39.880  19.597  26.020  1.00  0.00     0.261 C 
BRANCH  26  27
ATOM     27  O   UNL A   1      41.146  19.297  25.394  1.00  0.00    -0.460 OA
BRANCH  27  28
ATOM     28  C   UNL A   1      42.239  19.285  26.195  1.00  0.00     0.338 C 
ATOM     29  O   UNL A   1      42.822  18.283  26.585  1.00  0.00    -0.246 OA
BRANCH  28  30
ATOM     30  C   UNL A   1      42.694  20.681  26.462  1.00  0.00     0.060 A 
ATOM     31  C   UNL A   1      43.106  21.475  25.386  1.00  0.00     0.016 A 
ATOM     32  C   UNL A   1      42.722  21.226  27.753  1.00  0.00     0.016 A 
ATOM     33  C   UNL A   1      43.481  22.813  25.589  1.00  0.00     0.010 A 
ATOM     34  C   UNL A   1      43.138  22.554  27.960  1.00  0.00     0.010 A 
ATOM     35  C   UNL A   1      43.514  23.367  26.881  1.00  0.00    -0.014 A 
BRANCH  35  36
ATOM     36  C   UNL A   1      44.129  24.710  27.106  1.00  0.00     0.031 A 
ATOM     37  C   UNL A   1      43.230  25.826  27.559  1.00  0.00     0.074 A 
ATOM     38  C   UNL A   1      45.442  24.966  26.922  1.00  0.00     0.049 A 
ATOM     39  N   UNL A   1      43.531  27.065  27.846  1.00  0.00    -0.248 NA
ATOM     40  C   UNL A   1      41.801  25.501  27.698  1.00  0.00     0.031 C 
ATOM     41  C   UNL A   1      46.434  23.995  26.490  1.00  0.00     0.029 A 
ATOM     42  N   UNL A   1      46.176  26.121  27.081  1.00  0.00    -0.354 N 
ATOM     43  C   UNL A   1      42.334  27.664  28.209  1.00  0.00     0.074 A 
ATOM     44  C   UNL A   1      41.301  26.656  28.104  1.00  0.00     0.031 C 
ATOM     45  C   UNL A   1      47.651  24.561  26.474  1.00  0.00     0.029 A 
ATOM     46  C   UNL A   1      47.520  25.975  26.806  1.00  0.00     0.049 A 
ATOM     47  H   UNL A   1      45.776  26.974  27.368  1.00  0.00     0.167 HD
ATOM     48  C   UNL A   1      42.099  28.946  28.574  1.00  0.00     0.031 A 
ATOM     49  C   UNL A   1      48.525  26.879  26.781  1.00  0.00     0.031 A 
ATOM     50  C   UNL A   1      43.095  29.981  28.584  1.00  0.00     0.049 A 
ATOM     51  C   UNL A   1      48.214  28.325  27.081  1.00  0.00     0.074 A 
ATOM     52  C   UNL A   1      42.935  31.318  28.900  1.00  0.00     0.029 A 
ATOM     53  N   UNL A   1      44.423  29.807  28.230  1.00  0.00    -0.354 N 
ATOM     54  N   UNL A   1      47.077  28.863  27.457  1.00  0.00    -0.248 NA
ATOM     55  C   UNL A   1      49.315  29.289  26.939  1.00  0.00     0.031 C 
ATOM     56  C   UNL A   1      44.152  31.968  28.669  1.00  0.00     0.029 A 
ATOM     57  C   UNL A   1      45.089  31.020  28.288  1.00  0.00     0.049 A 
ATOM     58  H   UNL A   1      44.834  28.949  27.976  1.00  0.00     0.167 HD
ATOM     59  C   UNL A   1      47.336  30.221  27.621  1.00  0.00     0.074 A 
ATOM     60  C   UNL A   1      48.737  30.420  27.320  1.00  0.00     0.031 C 
ATOM     61  C   UNL A   1      46.486  31.211  27.990  1.00  0.00     0.031 A 
BRANCH  48  62
ATOM     62  C   UNL A   1      40.679  29.300  28.910  1.00  0.00    -0.014 A 
ATOM     63  C   UNL A   1      40.247  29.380  30.246  1.00  0.00     0.010 A 
ATOM     64  C   UNL A   1      39.761  29.538  27.872  1.00  0.00     0.010 A 
ATOM     65  C   UNL A   1      38.908  29.649  30.537  1.00  0.00     0.020 A 
ATOM     66  C   UNL A   1      38.428  29.836  28.160  1.00  0.00     0.020 A 
ATOM     67  C   UNL A   1      38.007  29.869  29.490  1.00  0.00     0.054 A 
BRANCH  67  68
ATOM     68  S   UNL A   1      36.275  30.217  29.898  1.00  0.00     0.124 S 
ATOM     69  O   UNL A   1      35.569  29.526  28.821  1.00  0.00    -0.237 OA
ATOM     70  O   UNL A   1      36.134  29.624  31.225  1.00  0.00    -0.237 OA
ATOM     71  O   UNL A   1      36.196  31.676  29.858  1.00  0.00    -0.744 OA
ENDBRANCH  67  68
ENDBRANCH  48  62
BRANCH  49  72
ATOM     72  C   UNL A   1      49.917  26.476  26.411  1.00  0.00    -0.014 A 
ATOM     73  C   UNL A   1      50.364  26.567  25.078  1.00  0.00     0.010 A 
ATOM     74  C   UNL A   1      50.792  25.949  27.380  1.00  0.00     0.010 A 
ATOM     75  C   UNL A   1      51.643  26.121  24.721  1.00  0.00     0.020 A 
ATOM     76  C   UNL A   1      52.083  25.533  27.033  1.00  0.00     0.020 A 
ATOM     77  C   UNL A   1      52.496  25.609  25.702  1.00  0.00     0.054 A 
BRANCH  77  78
ATOM     78  S   UNL A   1      54.164  25.072  25.224  1.00  0.00     0.124 S 
ATOM     79  O   UNL A   1      53.965  23.650  24.965  1.00  0.00    -0.237 OA
ATOM     80  O   UNL A   1      54.434  25.898  24.049  1.00  0.00    -0.237 OA
ATOM     81  O   UNL A   1      54.975  25.389  26.397  1.00  0.00    -0.744 OA
ENDBRANCH  77  78
ENDBRANCH  49  72
BRANCH  61  82
ATOM     82  C   UNL A   1      47.046  32.603  28.140  1.00  0.00    -0.014 A 
ATOM     83  C   UNL A   1      47.030  33.525  27.079  1.00  0.00     0.010 A 
ATOM     84  C   UNL A   1      47.526  33.016  29.397  1.00  0.00     0.010 A 
ATOM     85  C   UNL A   1      47.505  34.826  27.266  1.00  0.00     0.020 A 
ATOM     86  C   UNL A   1      47.972  34.325  29.597  1.00  0.00     0.020 A 
ATOM     87  C   UNL A   1      47.969  35.220  28.526  1.00  0.00     0.054 A 
BRANCH  87  88
ATOM     88  S   UNL A   1      48.525  36.931  28.758  1.00  0.00     0.124 S 
ATOM     89  O   UNL A   1      49.790  36.942  28.029  1.00  0.00    -0.237 OA
ATOM     90  O   UNL A   1      47.443  37.703  28.153  1.00  0.00    -0.237 OA
ATOM     91  O   UNL A   1      48.643  37.064  30.208  1.00  0.00    -0.744 OA
ENDBRANCH  87  88
ENDBRANCH  61  82
ENDBRANCH  35  36
ENDBRANCH  28  30
ENDBRANCH  27  28
ENDBRANCH  26  27
ENDBRANCH  25  26
ENDBRANCH  24  25
ENDBRANCH  23  24
ENDBRANCH   1  23
TORSDOF 23
ENDMDL
