MODEL 1
REMARK VINA RESULT:     -10.2      0.000      0.000
REMARK SMILES CC(C)C[C@H](NC(=O)[C@H]1N2C(=O)c3ccccc3[C@@H]2SC1(C)C)C(=O)N[C@@H](C)C(=O)OCCOCCOCCOC(=O)c1ccc(-c2c3nc(c(-c4ccc(S(=O)(=O)[O-])cc4)c4ccc([nH]4)c(-c4ccc(S(=O)(=O)[O-])cc4)c4nc(c(-c5ccc(S(=O)(=O)[O-])cc5)c5ccc2[nH]5)C=C4)C=C3)cc1
REMARK SMILES IDX 35 1 34 2 33 3 32 4 31 5 29 6 30 7 27 8 28 9 26 10 24 11
REMARK SMILES IDX 25 12 5 14 4 15 2 16 1 17 3 18 6 19 7 20 8 22 9 23 10 24
REMARK SMILES IDX 21 25 11 26 19 27 20 28 22 29 23 30 12 31 13 32 18 33 14 34
REMARK SMILES IDX 17 35 15 36 16 37 36 38 37 39 38 40 39 41 40 42 41 43 42 44
REMARK SMILES IDX 43 45 44 46 102 47 45 48 101 49 46 50 47 51 48 52 95 53
REMARK SMILES IDX 49 54 100 55 94 56 96 57 50 58 99 59 93 60 92 61 51 63 81 64
REMARK SMILES IDX 62 65 80 66 63 67 66 68 79 69 97 70 64 71 65 72 78 74 98 75
REMARK SMILES IDX 67 76 52 77 53 78 61 79 54 80 60 81 55 82 56 83 57 84 58 85
REMARK SMILES IDX 59 86 82 87 83 88 91 89 84 90 90 91 85 92 86 93 87 94 88 95
REMARK SMILES IDX 89 96 68 97 69 98 77 99 70 100 76 101 71 102 72 103 73 104
REMARK SMILES IDX 74 105 75 106
REMARK H PARENT 26 13 6 21 96 62 66 73
REMARK Flexibility Score: inf
ROOT
ATOM      1  C   UNL A   1      33.675  31.052  27.568  1.00  0.00     0.188 C 
ENDROOT
BRANCH   1   2
ATOM      2  O   UNL A   1      32.677  31.854  26.988  1.00  0.00    -0.376 OA
BRANCH   2   3
ATOM      3  C   UNL A   1      31.533  31.186  26.487  1.00  0.00     0.202 C 
BRANCH   3   4
ATOM      4  C   UNL A   1      31.637  30.302  25.227  1.00  0.00     0.261 C 
BRANCH   4   5
ATOM      5  O   UNL A   1      30.988  28.998  25.305  1.00  0.00    -0.462 OA
BRANCH   5   6
ATOM      6  C   UNL A   1      30.490  28.519  24.124  1.00  0.00     0.328 C 
ATOM      7  O   UNL A   1      30.241  29.242  23.162  1.00  0.00    -0.250 OA
BRANCH   6   8
ATOM      8  C   UNL A   1      30.317  26.958  24.039  1.00  0.00     0.189 C 
ATOM      9  C   UNL A   1      28.805  26.738  24.018  1.00  0.00     0.043 C 
BRANCH   8  10
ATOM     10  N   UNL A   1      30.908  26.111  25.093  1.00  0.00    -0.341 N 
ATOM     11  C   UNL A   1      32.096  25.478  25.317  1.00  0.00     0.243 C 
ATOM     12  O   UNL A   1      32.137  24.852  26.390  1.00  0.00    -0.273 OA
ATOM     13  H   UNL A   1      30.275  25.962  25.833  1.00  0.00     0.164 HD
BRANCH  11  14
ATOM     14  C   UNL A   1      33.452  25.611  24.517  1.00  0.00     0.171 C 
BRANCH  14  15
ATOM     15  C   UNL A   1      33.755  27.140  24.186  1.00  0.00     0.038 C 
BRANCH  15  16
ATOM     16  C   UNL A   1      33.943  27.533  22.648  1.00  0.00    -0.015 C 
ATOM     17  C   UNL A   1      32.887  27.076  21.628  1.00  0.00     0.007 C 
ATOM     18  C   UNL A   1      33.871  29.038  22.432  1.00  0.00     0.007 C 
ENDBRANCH  15  16
ENDBRANCH  14  15
BRANCH  14  19
ATOM     19  N   UNL A   1      33.663  24.667  23.392  1.00  0.00    -0.342 N 
ATOM     20  C   UNL A   1      33.844  23.293  23.311  1.00  0.00     0.244 C 
ATOM     21  H   UNL A   1      33.677  25.112  22.513  1.00  0.00     0.164 HD
ATOM     22  O   UNL A   1      33.856  22.845  22.157  1.00  0.00    -0.273 OA
BRANCH  20  23
ATOM     23  C   UNL A   1      33.995  22.293  24.547  1.00  0.00     0.191 C 
ATOM     24  N   UNL A   1      33.638  20.857  24.260  1.00  0.00    -0.309 N 
ATOM     25  C   UNL A   1      35.443  22.201  25.120  1.00  0.00     0.042 C 
ATOM     26  C   UNL A   1      32.575  20.149  24.849  1.00  0.00     0.256 C 
ATOM     27  C   UNL A   1      34.756  19.969  24.058  1.00  0.00     0.176 C 
ATOM     28  S   UNL A   1      35.835  20.446  25.419  1.00  0.00    -0.123 SA
ATOM     29  C   UNL A   1      36.483  22.431  24.018  1.00  0.00     0.026 C 
ATOM     30  C   UNL A   1      35.523  22.809  26.531  1.00  0.00     0.026 C 
ATOM     31  O   UNL A   1      31.577  20.589  25.345  1.00  0.00    -0.269 OA
ATOM     32  C   UNL A   1      32.996  18.707  24.900  1.00  0.00     0.046 A 
ATOM     33  C   UNL A   1      34.268  18.611  24.354  1.00  0.00    -0.002 A 
ATOM     34  C   UNL A   1      32.449  17.624  25.558  1.00  0.00     0.014 A 
ATOM     35  C   UNL A   1      35.024  17.445  24.385  1.00  0.00     0.007 A 
ATOM     36  C   UNL A   1      33.212  16.442  25.634  1.00  0.00     0.001 A 
ATOM     37  C   UNL A   1      34.486  16.351  25.046  1.00  0.00     0.000 A 
ENDBRANCH  20  23
ENDBRANCH  14  19
ENDBRANCH  11  14
ENDBRANCH   8  10
ENDBRANCH   6   8
ENDBRANCH   5   6
ENDBRANCH   4   5
ENDBRANCH   3   4
ENDBRANCH   2   3
ENDBRANCH   1   2
BRANCH   1  38
ATOM     38  C   UNL A   1      34.851  31.754  28.275  1.00  0.00     0.188 C 
BRANCH  38  39
ATOM     39  O   UNL A   1      34.600  32.784  29.207  1.00  0.00    -0.376 OA
BRANCH  39  40
ATOM     40  C   UNL A   1      35.464  32.842  30.340  1.00  0.00     0.202 C 
BRANCH  40  41
ATOM     41  C   UNL A   1      35.477  31.693  31.369  1.00  0.00     0.261 C 
BRANCH  41  42
ATOM     42  O   UNL A   1      36.731  31.554  32.083  1.00  0.00    -0.460 OA
BRANCH  42  43
ATOM     43  C   UNL A   1      37.331  30.341  31.919  1.00  0.00     0.338 C 
ATOM     44  O   UNL A   1      36.805  29.265  32.164  1.00  0.00    -0.246 OA
BRANCH  43  45
ATOM     45  C   UNL A   1      38.675  30.432  31.260  1.00  0.00     0.060 A 
ATOM     46  C   UNL A   1      39.802  29.917  31.893  1.00  0.00     0.016 A 
ATOM     47  C   UNL A   1      38.791  30.721  29.901  1.00  0.00     0.016 A 
ATOM     48  C   UNL A   1      40.997  29.710  31.167  1.00  0.00     0.010 A 
ATOM     49  C   UNL A   1      39.940  30.438  29.160  1.00  0.00     0.010 A 
ATOM     50  C   UNL A   1      41.076  29.929  29.773  1.00  0.00    -0.014 A 
BRANCH  50  51
ATOM     51  C   UNL A   1      42.266  29.526  28.957  1.00  0.00     0.031 A 
ATOM     52  C   UNL A   1      43.425  30.467  28.689  1.00  0.00     0.074 A 
ATOM     53  C   UNL A   1      42.292  28.314  28.359  1.00  0.00     0.049 A 
ATOM     54  N   UNL A   1      44.608  30.180  28.198  1.00  0.00    -0.248 NA
ATOM     55  C   UNL A   1      43.234  31.907  28.937  1.00  0.00     0.031 C 
ATOM     56  C   UNL A   1      41.172  27.372  28.296  1.00  0.00     0.029 A 
ATOM     57  N   UNL A   1      43.311  27.648  27.711  1.00  0.00    -0.354 N 
ATOM     58  C   UNL A   1      45.293  31.387  28.120  1.00  0.00     0.074 A 
ATOM     59  C   UNL A   1      44.355  32.427  28.461  1.00  0.00     0.031 C 
ATOM     60  C   UNL A   1      41.591  26.220  27.751  1.00  0.00     0.029 A 
ATOM     61  C   UNL A   1      43.010  26.336  27.415  1.00  0.00     0.049 A 
ATOM     62  H   UNL A   1      44.170  28.070  27.481  1.00  0.00     0.167 HD
ATOM     63  C   UNL A   1      46.608  31.613  27.885  1.00  0.00     0.031 A 
ATOM     64  C   UNL A   1      43.792  25.319  26.990  1.00  0.00     0.031 A 
ATOM     65  C   UNL A   1      47.550  30.575  27.575  1.00  0.00     0.049 A 
ATOM     66  C   UNL A   1      45.271  25.550  26.808  1.00  0.00     0.074 A 
ATOM     67  C   UNL A   1      48.923  30.674  27.445  1.00  0.00     0.029 A 
ATOM     68  N   UNL A   1      47.218  29.250  27.350  1.00  0.00    -0.354 N 
ATOM     69  N   UNL A   1      45.959  26.654  26.977  1.00  0.00    -0.248 NA
ATOM     70  C   UNL A   1      46.089  24.393  26.412  1.00  0.00     0.031 C 
ATOM     71  C   UNL A   1      49.415  29.421  27.077  1.00  0.00     0.029 A 
ATOM     72  C   UNL A   1      48.357  28.524  27.056  1.00  0.00     0.049 A 
ATOM     73  H   UNL A   1      46.307  28.880  27.393  1.00  0.00     0.167 HD
ATOM     74  C   UNL A   1      47.289  26.315  26.742  1.00  0.00     0.074 A 
ATOM     75  C   UNL A   1      47.315  24.902  26.435  1.00  0.00     0.031 C 
ATOM     76  C   UNL A   1      48.387  27.110  26.776  1.00  0.00     0.031 A 
BRANCH  63  77
ATOM     77  C   UNL A   1      47.133  33.015  28.078  1.00  0.00    -0.014 A 
ATOM     78  C   UNL A   1      47.220  33.590  29.358  1.00  0.00     0.010 A 
ATOM     79  C   UNL A   1      47.427  33.812  26.953  1.00  0.00     0.010 A 
ATOM     80  C   UNL A   1      47.572  34.936  29.507  1.00  0.00     0.020 A 
ATOM     81  C   UNL A   1      47.816  35.144  27.100  1.00  0.00     0.020 A 
ATOM     82  C   UNL A   1      47.862  35.705  28.376  1.00  0.00     0.054 A 
BRANCH  82  83
ATOM     83  S   UNL A   1      48.290  37.456  28.582  1.00  0.00     0.124 S 
ATOM     84  O   UNL A   1      49.204  37.681  27.467  1.00  0.00    -0.237 OA
ATOM     85  O   UNL A   1      46.989  38.113  28.479  1.00  0.00    -0.237 OA
ATOM     86  O   UNL A   1      48.897  37.504  29.910  1.00  0.00    -0.744 OA
ENDBRANCH  82  83
ENDBRANCH  63  77
BRANCH  64  87
ATOM     87  C   UNL A   1      43.208  23.950  26.857  1.00  0.00    -0.014 A 
ATOM     88  C   UNL A   1      43.007  23.133  27.983  1.00  0.00     0.010 A 
ATOM     89  C   UNL A   1      42.903  23.434  25.583  1.00  0.00     0.010 A 
ATOM     90  C   UNL A   1      42.557  21.816  27.836  1.00  0.00     0.020 A 
ATOM     91  C   UNL A   1      42.421  22.130  25.433  1.00  0.00     0.020 A 
ATOM     92  C   UNL A   1      42.277  21.319  26.559  1.00  0.00     0.054 A 
BRANCH  92  93
ATOM     93  S   UNL A   1      41.748  19.591  26.390  1.00  0.00     0.124 S 
ATOM     94  O   UNL A   1      40.299  19.732  26.271  1.00  0.00    -0.237 OA
ATOM     95  O   UNL A   1      42.442  19.164  25.179  1.00  0.00    -0.237 OA
ATOM     96  O   UNL A   1      42.214  18.967  27.626  1.00  0.00    -0.744 OA
ENDBRANCH  92  93
ENDBRANCH  64  87
BRANCH  76  97
ATOM     97  C   UNL A   1      49.740  26.510  26.487  1.00  0.00    -0.014 A 
ATOM     98  C   UNL A   1      50.545  26.068  27.556  1.00  0.00     0.010 A 
ATOM     99  C   UNL A   1      50.292  26.568  25.196  1.00  0.00     0.010 A 
ATOM    100  C   UNL A   1      51.892  25.760  27.351  1.00  0.00     0.020 A 
ATOM    101  C   UNL A   1      51.631  26.227  24.982  1.00  0.00     0.020 A 
ATOM    102  C   UNL A   1      52.431  25.861  26.067  1.00  0.00     0.054 A 
BRANCH 102 103
ATOM    103  S   UNL A   1      54.202  25.546  25.838  1.00  0.00     0.124 S 
ATOM    104  O   UNL A   1      54.629  25.196  27.190  1.00  0.00    -0.237 OA
ATOM    105  O   UNL A   1      54.211  24.451  24.872  1.00  0.00    -0.237 OA
ATOM    106  O   UNL A   1      54.715  26.818  25.332  1.00  0.00    -0.744 OA
ENDBRANCH 102 103
ENDBRANCH  76  97
ENDBRANCH  50  51
ENDBRANCH  43  45
ENDBRANCH  42  43
ENDBRANCH  41  42
ENDBRANCH  40  41
ENDBRANCH  39  40
ENDBRANCH  38  39
ENDBRANCH   1  38
TORSDOF 26
ENDMDL
MODEL 2
REMARK VINA RESULT:      -9.7      5.662     11.117
REMARK SMILES CC(C)C[C@H](NC(=O)[C@H]1N2C(=O)c3ccccc3[C@@H]2SC1(C)C)C(=O)N[C@@H](C)C(=O)OCCOCCOCCOC(=O)c1ccc(-c2c3nc(c(-c4ccc(S(=O)(=O)[O-])cc4)c4ccc([nH]4)c(-c4ccc(S(=O)(=O)[O-])cc4)c4nc(c(-c5ccc(S(=O)(=O)[O-])cc5)c5ccc2[nH]5)C=C4)C=C3)cc1
REMARK SMILES IDX 35 1 34 2 33 3 32 4 31 5 29 6 30 7 27 8 28 9 26 10 24 11
REMARK SMILES IDX 25 12 5 14 4 15 2 16 1 17 3 18 6 19 7 20 8 22 9 23 10 24
REMARK SMILES IDX 21 25 11 26 19 27 20 28 22 29 23 30 12 31 13 32 18 33 14 34
REMARK SMILES IDX 17 35 15 36 16 37 36 38 37 39 38 40 39 41 40 42 41 43 42 44
REMARK SMILES IDX 43 45 44 46 102 47 45 48 101 49 46 50 47 51 48 52 95 53
REMARK SMILES IDX 49 54 100 55 94 56 96 57 50 58 99 59 93 60 92 61 51 63 81 64
REMARK SMILES IDX 62 65 80 66 63 67 66 68 79 69 97 70 64 71 65 72 78 74 98 75
REMARK SMILES IDX 67 76 52 77 53 78 61 79 54 80 60 81 55 82 56 83 57 84 58 85
REMARK SMILES IDX 59 86 82 87 83 88 91 89 84 90 90 91 85 92 86 93 87 94 88 95
REMARK SMILES IDX 89 96 68 97 69 98 77 99 70 100 76 101 71 102 72 103 73 104
REMARK SMILES IDX 74 105 75 106
REMARK H PARENT 26 13 6 21 96 62 66 73
REMARK Flexibility Score: inf
ROOT
ATOM      1  C   UNL A   1      35.238  33.880  31.146  1.00  0.00     0.188 C 
ENDROOT
BRANCH   1   2
ATOM      2  O   UNL A   1      36.036  33.824  32.302  1.00  0.00    -0.376 OA
BRANCH   2   3
ATOM      3  C   UNL A   1      37.288  34.485  32.246  1.00  0.00     0.202 C 
BRANCH   3   4
ATOM      4  C   UNL A   1      38.130  34.445  30.953  1.00  0.00     0.261 C 
BRANCH   4   5
ATOM      5  O   UNL A   1      39.572  34.311  31.135  1.00  0.00    -0.462 OA
BRANCH   5   6
ATOM      6  C   UNL A   1      40.328  34.562  30.022  1.00  0.00     0.328 C 
ATOM      7  O   UNL A   1      39.914  35.212  29.065  1.00  0.00    -0.250 OA
BRANCH   6   8
ATOM      8  C   UNL A   1      41.805  34.023  30.065  1.00  0.00     0.189 C 
ATOM      9  C   UNL A   1      41.865  33.164  31.327  1.00  0.00     0.043 C 
BRANCH   8  10
ATOM     10  N   UNL A   1      42.922  34.986  30.090  1.00  0.00    -0.341 N 
ATOM     11  C   UNL A   1      44.089  35.181  29.410  1.00  0.00     0.243 C 
ATOM     12  O   UNL A   1      44.738  36.167  29.797  1.00  0.00    -0.273 OA
ATOM     13  H   UNL A   1      42.790  35.674  30.782  1.00  0.00     0.164 HD
BRANCH  11  14
ATOM     14  C   UNL A   1      44.599  34.463  28.098  1.00  0.00     0.171 C 
BRANCH  14  15
ATOM     15  C   UNL A   1      44.608  35.483  26.873  1.00  0.00     0.038 C 
BRANCH  15  16
ATOM     16  C   UNL A   1      46.027  35.858  26.242  1.00  0.00    -0.015 C 
ATOM     17  C   UNL A   1      47.154  36.336  27.173  1.00  0.00     0.007 C 
ATOM     18  C   UNL A   1      46.710  34.650  25.617  1.00  0.00     0.007 C 
ENDBRANCH  15  16
ENDBRANCH  14  15
BRANCH  14  19
ATOM     19  N   UNL A   1      44.032  33.125  27.800  1.00  0.00    -0.342 N 
ATOM     20  C   UNL A   1      44.413  31.829  28.116  1.00  0.00     0.244 C 
ATOM     21  H   UNL A   1      43.207  33.167  27.263  1.00  0.00     0.164 HD
ATOM     22  O   UNL A   1      43.592  30.959  27.792  1.00  0.00    -0.273 OA
BRANCH  20  23
ATOM     23  C   UNL A   1      45.758  31.402  28.865  1.00  0.00     0.191 C 
ATOM     24  N   UNL A   1      45.745  30.025  29.477  1.00  0.00    -0.309 N 
ATOM     25  C   UNL A   1      47.020  31.381  27.948  1.00  0.00     0.042 C 
ATOM     26  C   UNL A   1      45.839  29.744  30.852  1.00  0.00     0.256 C 
ATOM     27  C   UNL A   1      46.440  29.007  28.728  1.00  0.00     0.176 C 
ATOM     28  S   UNL A   1      47.965  29.864  28.302  1.00  0.00    -0.123 SA
ATOM     29  C   UNL A   1      46.642  31.024  26.506  1.00  0.00     0.026 C 
ATOM     30  C   UNL A   1      48.009  32.493  28.336  1.00  0.00     0.026 C 
ATOM     31  O   UNL A   1      45.568  30.461  31.774  1.00  0.00    -0.269 OA
ATOM     32  C   UNL A   1      46.514  28.407  30.972  1.00  0.00     0.046 A 
ATOM     33  C   UNL A   1      46.796  27.952  29.692  1.00  0.00    -0.002 A 
ATOM     34  C   UNL A   1      47.048  27.754  32.065  1.00  0.00     0.014 A 
ATOM     35  C   UNL A   1      47.559  26.818  29.438  1.00  0.00     0.007 A 
ATOM     36  C   UNL A   1      47.855  26.623  31.830  1.00  0.00     0.001 A 
ATOM     37  C   UNL A   1      48.102  26.155  30.527  1.00  0.00     0.000 A 
ENDBRANCH  20  23
ENDBRANCH  14  19
ENDBRANCH  11  14
ENDBRANCH   8  10
ENDBRANCH   6   8
ENDBRANCH   5   6
ENDBRANCH   4   5
ENDBRANCH   3   4
ENDBRANCH   2   3
ENDBRANCH   1   2
BRANCH   1  38
ATOM     38  C   UNL A   1      33.931  34.694  31.205  1.00  0.00     0.188 C 
BRANCH  38  39
ATOM     39  O   UNL A   1      33.176  34.902  30.031  1.00  0.00    -0.376 OA
BRANCH  39  40
ATOM     40  C   UNL A   1      33.822  34.593  28.797  1.00  0.00     0.202 C 
BRANCH  40  41
ATOM     41  C   UNL A   1      33.389  33.358  27.980  1.00  0.00     0.261 C 
BRANCH  41  42
ATOM     42  O   UNL A   1      33.816  32.095  28.549  1.00  0.00    -0.460 OA
BRANCH  42  43
ATOM     43  C   UNL A   1      34.242  31.187  27.626  1.00  0.00     0.338 C 
ATOM     44  O   UNL A   1      33.623  30.874  26.619  1.00  0.00    -0.246 OA
BRANCH  43  45
ATOM     45  C   UNL A   1      35.637  30.697  27.879  1.00  0.00     0.060 A 
ATOM     46  C   UNL A   1      36.679  31.603  28.044  1.00  0.00     0.016 A 
ATOM     47  C   UNL A   1      35.875  29.382  28.274  1.00  0.00     0.016 A 
ATOM     48  C   UNL A   1      37.914  31.182  28.589  1.00  0.00     0.010 A 
ATOM     49  C   UNL A   1      37.061  28.978  28.893  1.00  0.00     0.010 A 
ATOM     50  C   UNL A   1      38.113  29.866  29.063  1.00  0.00    -0.014 A 
BRANCH  50  51
ATOM     51  C   UNL A   1      39.338  29.456  29.822  1.00  0.00     0.031 A 
ATOM     52  C   UNL A   1      39.595  29.897  31.251  1.00  0.00     0.074 A 
ATOM     53  C   UNL A   1      40.302  28.736  29.206  1.00  0.00     0.049 A 
ATOM     54  N   UNL A   1      40.490  29.437  32.094  1.00  0.00    -0.248 NA
ATOM     55  C   UNL A   1      38.813  31.022  31.791  1.00  0.00     0.031 C 
ATOM     56  C   UNL A   1      40.349  28.428  27.774  1.00  0.00     0.029 A 
ATOM     57  N   UNL A   1      41.418  28.102  29.710  1.00  0.00    -0.354 N 
ATOM     58  C   UNL A   1      40.342  30.188  33.255  1.00  0.00     0.074 A 
ATOM     59  C   UNL A   1      39.390  31.230  32.965  1.00  0.00     0.031 C 
ATOM     60  C   UNL A   1      41.364  27.583  27.536  1.00  0.00     0.029 A 
ATOM     61  C   UNL A   1      42.050  27.289  28.793  1.00  0.00     0.049 A 
ATOM     62  H   UNL A   1      41.734  28.220  30.635  1.00  0.00     0.167 HD
ATOM     63  C   UNL A   1      40.869  29.976  34.485  1.00  0.00     0.031 A 
ATOM     64  C   UNL A   1      43.020  26.362  28.949  1.00  0.00     0.031 A 
ATOM     65  C   UNL A   1      41.793  28.920  34.784  1.00  0.00     0.049 A 
ATOM     66  C   UNL A   1      43.548  26.068  30.332  1.00  0.00     0.074 A 
ATOM     67  C   UNL A   1      42.288  28.537  36.017  1.00  0.00     0.029 A 
ATOM     68  N   UNL A   1      42.357  28.076  33.843  1.00  0.00    -0.354 N 
ATOM     69  N   UNL A   1      43.218  26.624  31.473  1.00  0.00    -0.248 NA
ATOM     70  C   UNL A   1      44.553  25.001  30.456  1.00  0.00     0.031 C 
ATOM     71  C   UNL A   1      43.203  27.503  35.813  1.00  0.00     0.029 A 
ATOM     72  C   UNL A   1      43.217  27.189  34.463  1.00  0.00     0.049 A 
ATOM     73  H   UNL A   1      42.173  28.104  32.876  1.00  0.00     0.167 HD
ATOM     74  C   UNL A   1      43.948  25.951  32.450  1.00  0.00     0.074 A 
ATOM     75  C   UNL A   1      44.725  24.937  31.770  1.00  0.00     0.031 C 
ATOM     76  C   UNL A   1      43.971  26.161  33.789  1.00  0.00     0.031 A 
BRANCH  63  77
ATOM     77  C   UNL A   1      40.364  30.823  35.628  1.00  0.00    -0.014 A 
ATOM     78  C   UNL A   1      39.040  30.710  36.090  1.00  0.00     0.010 A 
ATOM     79  C   UNL A   1      41.187  31.833  36.167  1.00  0.00     0.010 A 
ATOM     80  C   UNL A   1      38.547  31.599  37.051  1.00  0.00     0.020 A 
ATOM     81  C   UNL A   1      40.710  32.697  37.153  1.00  0.00     0.020 A 
ATOM     82  C   UNL A   1      39.384  32.590  37.572  1.00  0.00     0.054 A 
BRANCH  82  83
ATOM     83  S   UNL A   1      38.724  33.754  38.796  1.00  0.00     0.124 S 
ATOM     84  O   UNL A   1      39.490  34.963  38.515  1.00  0.00    -0.237 OA
ATOM     85  O   UNL A   1      37.306  33.806  38.450  1.00  0.00    -0.237 OA
ATOM     86  O   UNL A   1      39.019  33.108  40.073  1.00  0.00    -0.744 OA
ENDBRANCH  82  83
ENDBRANCH  63  77
BRANCH  64  87
ATOM     87  C   UNL A   1      43.443  25.537  27.777  1.00  0.00    -0.014 A 
ATOM     88  C   UNL A   1      42.802  24.322  27.474  1.00  0.00     0.010 A 
ATOM     89  C   UNL A   1      44.536  25.941  26.988  1.00  0.00     0.010 A 
ATOM     90  C   UNL A   1      43.273  23.509  26.438  1.00  0.00     0.020 A 
ATOM     91  C   UNL A   1      44.990  25.147  25.929  1.00  0.00     0.020 A 
ATOM     92  C   UNL A   1      44.372  23.922  25.679  1.00  0.00     0.054 A 
BRANCH  92  93
ATOM     93  S   UNL A   1      44.997  22.823  24.376  1.00  0.00     0.124 S 
ATOM     94  O   UNL A   1      43.797  22.596  23.575  1.00  0.00    -0.237 OA
ATOM     95  O   UNL A   1      46.032  23.636  23.745  1.00  0.00    -0.237 OA
ATOM     96  O   UNL A   1      45.484  21.659  25.112  1.00  0.00    -0.744 OA
ENDBRANCH  92  93
ENDBRANCH  64  87
BRANCH  76  97
ATOM     97  C   UNL A   1      44.847  25.293  34.656  1.00  0.00    -0.014 A 
ATOM     98  C   UNL A   1      44.313  24.120  35.227  1.00  0.00     0.010 A 
ATOM     99  C   UNL A   1      46.118  25.733  35.066  1.00  0.00     0.010 A 
ATOM    100  C   UNL A   1      45.001  23.444  36.237  1.00  0.00     0.020 A 
ATOM    101  C   UNL A   1      46.825  25.038  36.052  1.00  0.00     0.020 A 
ATOM    102  C   UNL A   1      46.246  23.920  36.656  1.00  0.00     0.054 A 
BRANCH 102 103
ATOM    103  S   UNL A   1      47.081  23.082  38.031  1.00  0.00     0.124 S 
ATOM    104  O   UNL A   1      47.247  24.165  38.996  1.00  0.00    -0.237 OA
ATOM    105  O   UNL A   1      46.122  22.046  38.405  1.00  0.00    -0.237 OA
ATOM    106  O   UNL A   1      48.319  22.587  37.430  1.00  0.00    -0.744 OA
ENDBRANCH 102 103
ENDBRANCH  76  97
ENDBRANCH  50  51
ENDBRANCH  43  45
ENDBRANCH  42  43
ENDBRANCH  41  42
ENDBRANCH  40  41
ENDBRANCH  39  40
ENDBRANCH  38  39
ENDBRANCH   1  38
TORSDOF 26
ENDMDL
MODEL 3
REMARK VINA RESULT:      -9.0      8.355     12.827
REMARK SMILES CC(C)C[C@H](NC(=O)[C@H]1N2C(=O)c3ccccc3[C@@H]2SC1(C)C)C(=O)N[C@@H](C)C(=O)OCCOCCOCCOC(=O)c1ccc(-c2c3nc(c(-c4ccc(S(=O)(=O)[O-])cc4)c4ccc([nH]4)c(-c4ccc(S(=O)(=O)[O-])cc4)c4nc(c(-c5ccc(S(=O)(=O)[O-])cc5)c5ccc2[nH]5)C=C4)C=C3)cc1
REMARK SMILES IDX 35 1 34 2 33 3 32 4 31 5 29 6 30 7 27 8 28 9 26 10 24 11
REMARK SMILES IDX 25 12 5 14 4 15 2 16 1 17 3 18 6 19 7 20 8 22 9 23 10 24
REMARK SMILES IDX 21 25 11 26 19 27 20 28 22 29 23 30 12 31 13 32 18 33 14 34
REMARK SMILES IDX 17 35 15 36 16 37 36 38 37 39 38 40 39 41 40 42 41 43 42 44
REMARK SMILES IDX 43 45 44 46 102 47 45 48 101 49 46 50 47 51 48 52 95 53
REMARK SMILES IDX 49 54 100 55 94 56 96 57 50 58 99 59 93 60 92 61 51 63 81 64
REMARK SMILES IDX 62 65 80 66 63 67 66 68 79 69 97 70 64 71 65 72 78 74 98 75
REMARK SMILES IDX 67 76 52 77 53 78 61 79 54 80 60 81 55 82 56 83 57 84 58 85
REMARK SMILES IDX 59 86 82 87 83 88 91 89 84 90 90 91 85 92 86 93 87 94 88 95
REMARK SMILES IDX 89 96 68 97 69 98 77 99 70 100 76 101 71 102 72 103 73 104
REMARK SMILES IDX 74 105 75 106
REMARK H PARENT 26 13 6 21 96 62 66 73
REMARK Flexibility Score: inf
ROOT
ATOM      1  C   UNL A   1      34.883  30.144  27.364  1.00  0.00     0.188 C 
ENDROOT
BRANCH   1   2
ATOM      2  O   UNL A   1      33.749  30.001  26.546  1.00  0.00    -0.376 OA
BRANCH   2   3
ATOM      3  C   UNL A   1      33.610  28.772  25.855  1.00  0.00     0.202 C 
BRANCH   3   4
ATOM      4  C   UNL A   1      32.336  28.480  25.036  1.00  0.00     0.261 C 
BRANCH   4   5
ATOM      5  O   UNL A   1      31.815  27.121  25.127  1.00  0.00    -0.462 OA
BRANCH   5   6
ATOM      6  C   UNL A   1      31.841  26.403  23.962  1.00  0.00     0.328 C 
ATOM      7  O   UNL A   1      32.697  26.567  23.096  1.00  0.00    -0.250 OA
BRANCH   6   8
ATOM      8  C   UNL A   1      30.739  25.290  23.821  1.00  0.00     0.189 C 
ATOM      9  C   UNL A   1      29.417  26.057  23.802  1.00  0.00     0.043 C 
BRANCH   8  10
ATOM     10  N   UNL A   1      30.658  24.225  24.839  1.00  0.00    -0.341 N 
ATOM     11  C   UNL A   1      30.998  22.907  24.935  1.00  0.00     0.243 C 
ATOM     12  O   UNL A   1      30.726  22.396  26.035  1.00  0.00    -0.273 OA
ATOM     13  H   UNL A   1      30.249  24.553  25.673  1.00  0.00     0.164 HD
BRANCH  11  14
ATOM     14  C   UNL A   1      31.857  22.034  23.937  1.00  0.00     0.171 C 
BRANCH  14  15
ATOM     15  C   UNL A   1      32.202  20.621  24.589  1.00  0.00     0.038 C 
BRANCH  15  16
ATOM     16  C   UNL A   1      33.084  19.609  23.721  1.00  0.00    -0.015 C 
ATOM     17  C   UNL A   1      34.069  18.674  24.442  1.00  0.00     0.007 C 
ATOM     18  C   UNL A   1      32.226  18.573  23.008  1.00  0.00     0.007 C 
ENDBRANCH  15  16
ENDBRANCH  14  15
BRANCH  14  19
ATOM     19  N   UNL A   1      32.991  22.708  23.259  1.00  0.00    -0.342 N 
ATOM     20  C   UNL A   1      34.334  22.876  23.570  1.00  0.00     0.244 C 
ATOM     21  H   UNL A   1      32.737  23.126  22.405  1.00  0.00     0.164 HD
ATOM     22  O   UNL A   1      35.007  23.397  22.670  1.00  0.00    -0.273 OA
BRANCH  20  23
ATOM     23  C   UNL A   1      35.044  22.433  24.930  1.00  0.00     0.191 C 
ATOM     24  N   UNL A   1      36.550  22.517  24.927  1.00  0.00    -0.309 N 
ATOM     25  C   UNL A   1      34.634  23.285  26.171  1.00  0.00     0.042 C 
ATOM     26  C   UNL A   1      37.426  21.424  25.051  1.00  0.00     0.256 C 
ATOM     27  C   UNL A   1      37.108  23.662  25.603  1.00  0.00     0.176 C 
ATOM     28  S   UNL A   1      36.139  23.683  27.121  1.00  0.00    -0.123 SA
ATOM     29  C   UNL A   1      34.297  24.723  25.761  1.00  0.00     0.026 C 
ATOM     30  C   UNL A   1      33.815  22.452  27.172  1.00  0.00     0.026 C 
ATOM     31  O   UNL A   1      37.212  20.272  24.803  1.00  0.00    -0.269 OA
ATOM     32  C   UNL A   1      38.665  21.942  25.726  1.00  0.00     0.046 A 
ATOM     33  C   UNL A   1      38.484  23.295  25.977  1.00  0.00    -0.002 A 
ATOM     34  C   UNL A   1      39.740  21.279  26.282  1.00  0.00     0.014 A 
ATOM     35  C   UNL A   1      39.370  24.054  26.732  1.00  0.00     0.007 A 
ATOM     36  C   UNL A   1      40.634  22.022  27.080  1.00  0.00     0.001 A 
ATOM     37  C   UNL A   1      40.453  23.400  27.297  1.00  0.00     0.000 A 
ENDBRANCH  20  23
ENDBRANCH  14  19
ENDBRANCH  11  14
ENDBRANCH   8  10
ENDBRANCH   6   8
ENDBRANCH   5   6
ENDBRANCH   4   5
ENDBRANCH   3   4
ENDBRANCH   2   3
ENDBRANCH   1   2
BRANCH   1  38
ATOM     38  C   UNL A   1      35.027  31.439  28.187  1.00  0.00     0.188 C 
BRANCH  38  39
ATOM     39  O   UNL A   1      33.972  32.375  28.218  1.00  0.00    -0.376 OA
BRANCH  39  40
ATOM     40  C   UNL A   1      34.206  33.573  28.956  1.00  0.00     0.202 C 
BRANCH  40  41
ATOM     41  C   UNL A   1      35.571  33.815  29.634  1.00  0.00     0.261 C 
BRANCH  41  42
ATOM     42  O   UNL A   1      35.652  33.310  30.991  1.00  0.00    -0.460 OA
BRANCH  42  43
ATOM     43  C   UNL A   1      36.829  32.684  31.279  1.00  0.00     0.338 C 
ATOM     44  O   UNL A   1      37.610  32.252  30.444  1.00  0.00    -0.246 OA
BRANCH  43  45
ATOM     45  C   UNL A   1      37.163  32.699  32.741  1.00  0.00     0.060 A 
ATOM     46  C   UNL A   1      37.395  31.507  33.419  1.00  0.00     0.016 A 
ATOM     47  C   UNL A   1      37.564  33.874  33.375  1.00  0.00     0.016 A 
ATOM     48  C   UNL A   1      38.011  31.516  34.692  1.00  0.00     0.010 A 
ATOM     49  C   UNL A   1      38.251  33.885  34.591  1.00  0.00     0.010 A 
ATOM     50  C   UNL A   1      38.489  32.707  35.284  1.00  0.00    -0.014 A 
BRANCH  50  51
ATOM     51  C   UNL A   1      39.318  32.713  36.532  1.00  0.00     0.031 A 
ATOM     52  C   UNL A   1      38.703  32.751  37.918  1.00  0.00     0.074 A 
ATOM     53  C   UNL A   1      40.666  32.769  36.443  1.00  0.00     0.049 A 
ATOM     54  N   UNL A   1      39.288  32.533  39.072  1.00  0.00    -0.248 NA
ATOM     55  C   UNL A   1      37.287  33.137  38.049  1.00  0.00     0.031 C 
ATOM     56  C   UNL A   1      41.429  32.986  35.211  1.00  0.00     0.029 A 
ATOM     57  N   UNL A   1      41.642  32.619  37.406  1.00  0.00    -0.354 N 
ATOM     58  C   UNL A   1      38.306  32.718  40.040  1.00  0.00     0.074 A 
ATOM     59  C   UNL A   1      37.136  33.216  39.362  1.00  0.00     0.031 C 
ATOM     60  C   UNL A   1      42.738  32.846  35.470  1.00  0.00     0.029 A 
ATOM     61  C   UNL A   1      42.917  32.536  36.888  1.00  0.00     0.049 A 
ATOM     62  H   UNL A   1      41.447  32.578  38.370  1.00  0.00     0.167 HD
ATOM     63  C   UNL A   1      38.333  32.410  41.358  1.00  0.00     0.031 A 
ATOM     64  C   UNL A   1      44.088  32.184  37.463  1.00  0.00     0.031 A 
ATOM     65  C   UNL A   1      39.488  31.885  42.029  1.00  0.00     0.049 A 
ATOM     66  C   UNL A   1      44.103  31.761  38.911  1.00  0.00     0.074 A 
ATOM     67  C   UNL A   1      39.588  31.419  43.327  1.00  0.00     0.029 A 
ATOM     68  N   UNL A   1      40.741  31.752  41.455  1.00  0.00    -0.354 N 
ATOM     69  N   UNL A   1      43.106  31.705  39.763  1.00  0.00    -0.248 NA
ATOM     70  C   UNL A   1      45.391  31.320  39.470  1.00  0.00     0.031 C 
ATOM     71  C   UNL A   1      40.919  31.066  43.559  1.00  0.00     0.029 A 
ATOM     72  C   UNL A   1      41.629  31.236  42.380  1.00  0.00     0.049 A 
ATOM     73  H   UNL A   1      40.965  31.989  40.526  1.00  0.00     0.167 HD
ATOM     74  C   UNL A   1      43.641  31.192  40.942  1.00  0.00     0.074 A 
ATOM     75  C   UNL A   1      45.043  30.938  40.692  1.00  0.00     0.031 C 
ATOM     76  C   UNL A   1      43.020  30.957  42.124  1.00  0.00     0.031 A 
BRANCH  63  77
ATOM     77  C   UNL A   1      37.044  32.510  42.137  1.00  0.00    -0.014 A 
ATOM     78  C   UNL A   1      36.701  33.686  42.830  1.00  0.00     0.010 A 
ATOM     79  C   UNL A   1      36.223  31.373  42.281  1.00  0.00     0.010 A 
ATOM     80  C   UNL A   1      35.577  33.715  43.662  1.00  0.00     0.020 A 
ATOM     81  C   UNL A   1      35.080  31.411  43.080  1.00  0.00     0.020 A 
ATOM     82  C   UNL A   1      34.777  32.575  43.786  1.00  0.00     0.054 A 
BRANCH  82  83
ATOM     83  S   UNL A   1      33.339  32.618  44.890  1.00  0.00     0.124 S 
ATOM     84  O   UNL A   1      33.141  31.204  45.192  1.00  0.00    -0.237 OA
ATOM     85  O   UNL A   1      33.815  33.443  45.997  1.00  0.00    -0.237 OA
ATOM     86  O   UNL A   1      32.298  33.234  44.070  1.00  0.00    -0.744 OA
ENDBRANCH  82  83
ENDBRANCH  63  77
BRANCH  64  87
ATOM     87  C   UNL A   1      45.316  32.072  36.620  1.00  0.00    -0.014 A 
ATOM     88  C   UNL A   1      46.161  33.177  36.416  1.00  0.00     0.010 A 
ATOM     89  C   UNL A   1      45.614  30.861  35.965  1.00  0.00     0.010 A 
ATOM     90  C   UNL A   1      47.250  33.088  35.542  1.00  0.00     0.020 A 
ATOM     91  C   UNL A   1      46.721  30.758  35.117  1.00  0.00     0.020 A 
ATOM     92  C   UNL A   1      47.517  31.881  34.889  1.00  0.00     0.054 A 
BRANCH  92  93
ATOM     93  S   UNL A   1      48.902  31.808  33.718  1.00  0.00     0.124 S 
ATOM     94  O   UNL A   1      48.567  32.885  32.790  1.00  0.00    -0.237 OA
ATOM     95  O   UNL A   1      50.056  32.053  34.578  1.00  0.00    -0.237 OA
ATOM     96  O   UNL A   1      48.815  30.459  33.165  1.00  0.00    -0.744 OA
ENDBRANCH  92  93
ENDBRANCH  64  87
BRANCH  76  97
ATOM     97  C   UNL A   1      43.814  30.387  43.273  1.00  0.00    -0.014 A 
ATOM     98  C   UNL A   1      43.914  28.989  43.419  1.00  0.00     0.010 A 
ATOM     99  C   UNL A   1      44.284  31.217  44.305  1.00  0.00     0.010 A 
ATOM    100  C   UNL A   1      44.406  28.432  44.602  1.00  0.00     0.020 A 
ATOM    101  C   UNL A   1      44.809  30.662  45.477  1.00  0.00     0.020 A 
ATOM    102  C   UNL A   1      44.832  29.274  45.631  1.00  0.00     0.054 A 
BRANCH 102 103
ATOM    103  S   UNL A   1      45.381  28.532  47.192  1.00  0.00     0.124 S 
ATOM    104  O   UNL A   1      46.676  29.174  47.399  1.00  0.00    -0.237 OA
ATOM    105  O   UNL A   1      44.327  28.926  48.123  1.00  0.00    -0.237 OA
ATOM    106  O   UNL A   1      45.435  27.102  46.893  1.00  0.00    -0.744 OA
ENDBRANCH 102 103
ENDBRANCH  76  97
ENDBRANCH  50  51
ENDBRANCH  43  45
ENDBRANCH  42  43
ENDBRANCH  41  42
ENDBRANCH  40  41
ENDBRANCH  39  40
ENDBRANCH  38  39
ENDBRANCH   1  38
TORSDOF 26
ENDMDL
