MODEL 1
REMARK VINA RESULT:      -7.4      0.000      0.000
REMARK SMILES COc1ccc(/C=C/c2cc(OC)cc(OC)c2/C=C/C(=O)OCCOCCOCCOC(=O)c2ccc(-c3c4nc(c(-c5ccc(S(=O)(=O)[O-])cc5)c5ccc([nH]5)c(-c5ccc(S(=O)(=O)[O-])cc5)c5nc(c(-c6ccc(S(=O)(=O)[O-])cc6)c6ccc3[nH]6)C=C5)C=C4)cc2)cc1
REMARK SMILES IDX 27 1 26 2 25 3 24 4 23 5 21 6 22 7 20 8 19 9 18 10 9 11
REMARK SMILES IDX 10 12 11 13 15 14 14 15 8 16 7 17 6 18 3 19 4 20 96 21 5 22
REMARK SMILES IDX 95 23 2 24 1 25 12 26 13 27 16 28 17 29 28 30 29 31 30 32
REMARK SMILES IDX 31 33 32 34 33 35 34 36 35 37 36 38 94 39 37 40 93 41 38 42
REMARK SMILES IDX 39 43 40 44 87 45 41 46 92 47 86 48 88 49 42 50 91 51 85 52
REMARK SMILES IDX 84 53 43 55 73 56 54 57 72 58 55 59 58 60 71 61 89 62 56 63
REMARK SMILES IDX 57 64 70 66 90 67 59 68 44 69 45 70 53 71 46 72 52 73 47 74
REMARK SMILES IDX 48 75 49 76 50 77 51 78 74 79 75 80 83 81 76 82 82 83 77 84
REMARK SMILES IDX 78 85 79 86 80 87 81 88 60 89 61 90 69 91 62 92 68 93 63 94
REMARK SMILES IDX 64 95 65 96 66 97 67 98
REMARK H PARENT 88 54 58 65
REMARK Flexibility Score: inf
ROOT
ATOM      1  C   UNL A   1      33.796  34.928  31.852  1.00  0.00     0.188 C 
ENDROOT
BRANCH   1   2
ATOM      2  O   UNL A   1      33.727  34.110  33.016  1.00  0.00    -0.376 OA
BRANCH   2   3
ATOM      3  C   UNL A   1      34.880  33.996  33.845  1.00  0.00     0.202 C 
BRANCH   3   4
ATOM      4  C   UNL A   1      36.176  33.399  33.270  1.00  0.00     0.261 C 
BRANCH   4   5
ATOM      5  O   UNL A   1      37.228  34.349  33.023  1.00  0.00    -0.460 OA
BRANCH   5   6
ATOM      6  C   UNL A   1      37.998  34.101  31.935  1.00  0.00     0.330 C 
ATOM      7  O   UNL A   1      37.650  34.208  30.768  1.00  0.00    -0.247 OA
BRANCH   6   8
ATOM      8  C   UNL A   1      39.386  33.723  32.284  1.00  0.00     0.094 C 
ATOM      9  C   UNL A   1      40.201  32.981  31.521  1.00  0.00     0.020 C 
BRANCH   9  10
ATOM     10  C   UNL A   1      41.594  32.646  31.888  1.00  0.00     0.024 A 
ATOM     11  C   UNL A   1      42.639  33.491  31.431  1.00  0.00    -0.011 A 
ATOM     12  C   UNL A   1      43.968  33.231  31.805  1.00  0.00     0.055 A 
ATOM     13  C   UNL A   1      44.295  32.134  32.602  1.00  0.00     0.123 A 
ATOM     14  C   UNL A   1      41.943  31.520  32.665  1.00  0.00     0.130 A 
ATOM     15  C   UNL A   1      43.281  31.282  33.025  1.00  0.00     0.093 A 
BRANCH  11  16
ATOM     16  C   UNL A   1      42.435  34.629  30.510  1.00  0.00     0.009 C 
ATOM     17  C   UNL A   1      43.364  35.059  29.642  1.00  0.00     0.009 C 
BRANCH  17  18
ATOM     18  C   UNL A   1      43.238  36.267  28.813  1.00  0.00    -0.025 A 
ATOM     19  C   UNL A   1      42.890  38.526  27.171  1.00  0.00     0.118 A 
ATOM     20  C   UNL A   1      43.722  38.589  28.287  1.00  0.00     0.047 A 
ATOM     21  C   UNL A   1      42.254  37.329  26.852  1.00  0.00     0.047 A 
ATOM     22  C   UNL A   1      43.883  37.472  29.112  1.00  0.00     0.012 A 
ATOM     23  C   UNL A   1      42.422  36.209  27.674  1.00  0.00     0.012 A 
BRANCH  19  24
ATOM     24  O   UNL A   1      42.797  39.671  26.427  1.00  0.00    -0.497 OA
ATOM     25  C   UNL A   1      41.671  40.482  26.754  1.00  0.00     0.278 C 
ENDBRANCH  19  24
ENDBRANCH  17  18
ENDBRANCH  11  16
BRANCH  13  26
ATOM     26  O   UNL A   1      45.625  32.022  32.898  1.00  0.00    -0.497 OA
ATOM     27  C   UNL A   1      46.229  33.117  33.578  1.00  0.00     0.278 C 
ENDBRANCH  13  26
BRANCH  14  28
ATOM     28  O   UNL A   1      41.061  30.630  33.225  1.00  0.00    -0.496 OA
ATOM     29  C   UNL A   1      41.597  29.732  34.193  1.00  0.00     0.278 C 
ENDBRANCH  14  28
ENDBRANCH   9  10
ENDBRANCH   6   8
ENDBRANCH   5   6
ENDBRANCH   4   5
ENDBRANCH   3   4
ENDBRANCH   2   3
ENDBRANCH   1   2
BRANCH   1  30
ATOM     30  C   UNL A   1      34.053  34.268  30.483  1.00  0.00     0.188 C 
BRANCH  30  31
ATOM     31  O   UNL A   1      34.227  32.870  30.546  1.00  0.00    -0.376 OA
BRANCH  31  32
ATOM     32  C   UNL A   1      35.368  32.322  29.904  1.00  0.00     0.202 C 
BRANCH  32  33
ATOM     33  C   UNL A   1      35.964  30.974  30.363  1.00  0.00     0.261 C 
BRANCH  33  34
ATOM     34  O   UNL A   1      37.243  30.598  29.834  1.00  0.00    -0.460 OA
BRANCH  34  35
ATOM     35  C   UNL A   1      37.244  29.716  28.806  1.00  0.00     0.338 C 
ATOM     36  O   UNL A   1      36.291  29.381  28.131  1.00  0.00    -0.246 OA
BRANCH  35  37
ATOM     37  C   UNL A   1      38.651  29.361  28.506  1.00  0.00     0.060 A 
ATOM     38  C   UNL A   1      39.573  29.306  29.559  1.00  0.00     0.016 A 
ATOM     39  C   UNL A   1      39.060  29.116  27.194  1.00  0.00     0.016 A 
ATOM     40  C   UNL A   1      40.918  29.032  29.297  1.00  0.00     0.010 A 
ATOM     41  C   UNL A   1      40.411  28.862  26.931  1.00  0.00     0.010 A 
ATOM     42  C   UNL A   1      41.351  28.849  27.977  1.00  0.00    -0.014 A 
BRANCH  42  43
ATOM     43  C   UNL A   1      42.804  28.816  27.673  1.00  0.00     0.031 A 
ATOM     44  C   UNL A   1      43.398  27.543  27.130  1.00  0.00     0.074 A 
ATOM     45  C   UNL A   1      43.583  29.896  27.860  1.00  0.00     0.049 A 
ATOM     46  N   UNL A   1      44.640  27.275  26.815  1.00  0.00    -0.248 NA
ATOM     47  C   UNL A   1      42.466  26.425  26.911  1.00  0.00     0.031 C 
ATOM     48  C   UNL A   1      43.125  31.198  28.344  1.00  0.00     0.029 A 
ATOM     49  N   UNL A   1      44.933  30.064  27.666  1.00  0.00    -0.354 N 
ATOM     50  C   UNL A   1      44.640  25.959  26.368  1.00  0.00     0.074 A 
ATOM     51  C   UNL A   1      43.281  25.475  26.476  1.00  0.00     0.031 C 
ATOM     52  C   UNL A   1      44.180  32.030  28.417  1.00  0.00     0.029 A 
ATOM     53  C   UNL A   1      45.390  31.313  28.017  1.00  0.00     0.049 A 
ATOM     54  H   UNL A   1      45.518  29.357  27.310  1.00  0.00     0.167 HD
ATOM     55  C   UNL A   1      45.675  25.219  25.905  1.00  0.00     0.031 A 
ATOM     56  C   UNL A   1      46.641  31.812  28.031  1.00  0.00     0.031 A 
ATOM     57  C   UNL A   1      47.031  25.692  25.817  1.00  0.00     0.049 A 
ATOM     58  C   UNL A   1      47.791  30.946  27.580  1.00  0.00     0.074 A 
ATOM     59  C   UNL A   1      48.149  25.020  25.353  1.00  0.00     0.029 A 
ATOM     60  N   UNL A   1      47.457  26.951  26.213  1.00  0.00    -0.354 N 
ATOM     61  N   UNL A   1      47.770  29.712  27.134  1.00  0.00    -0.248 NA
ATOM     62  C   UNL A   1      49.133  31.546  27.626  1.00  0.00     0.031 C 
ATOM     63  C   UNL A   1      49.260  25.853  25.518  1.00  0.00     0.029 A 
ATOM     64  C   UNL A   1      48.825  27.066  26.027  1.00  0.00     0.049 A 
ATOM     65  H   UNL A   1      46.874  27.657  26.573  1.00  0.00     0.167 HD
ATOM     66  C   UNL A   1      49.090  29.400  26.819  1.00  0.00     0.074 A 
ATOM     67  C   UNL A   1      49.880  30.577  27.114  1.00  0.00     0.031 C 
ATOM     68  C   UNL A   1      49.600  28.244  26.325  1.00  0.00     0.031 A 
BRANCH  55  69
ATOM     69  C   UNL A   1      45.382  23.802  25.491  1.00  0.00    -0.014 A 
ATOM     70  C   UNL A   1      44.850  23.508  24.222  1.00  0.00     0.010 A 
ATOM     71  C   UNL A   1      45.671  22.745  26.373  1.00  0.00     0.010 A 
ATOM     72  C   UNL A   1      44.575  22.187  23.859  1.00  0.00     0.020 A 
ATOM     73  C   UNL A   1      45.423  21.421  26.004  1.00  0.00     0.020 A 
ATOM     74  C   UNL A   1      44.860  21.152  24.755  1.00  0.00     0.054 A 
BRANCH  74  75
ATOM     75  S   UNL A   1      44.510  19.445  24.252  1.00  0.00     0.124 S 
ATOM     76  O   UNL A   1      45.586  18.710  24.913  1.00  0.00    -0.237 OA
ATOM     77  O   UNL A   1      43.171  19.219  24.792  1.00  0.00    -0.237 OA
ATOM     78  O   UNL A   1      44.590  19.489  22.794  1.00  0.00    -0.744 OA
ENDBRANCH  74  75
ENDBRANCH  55  69
BRANCH  56  79
ATOM     79  C   UNL A   1      46.884  33.203  28.506  1.00  0.00    -0.014 A 
ATOM     80  C   UNL A   1      46.773  34.293  27.625  1.00  0.00     0.010 A 
ATOM     81  C   UNL A   1      47.236  33.441  29.847  1.00  0.00     0.010 A 
ATOM     82  C   UNL A   1      47.026  35.594  28.073  1.00  0.00     0.020 A 
ATOM     83  C   UNL A   1      47.463  34.742  30.304  1.00  0.00     0.020 A 
ATOM     84  C   UNL A   1      47.368  35.810  29.411  1.00  0.00     0.054 A 
BRANCH  84  85
ATOM     85  S   UNL A   1      47.643  37.511  29.980  1.00  0.00     0.124 S 
ATOM     86  O   UNL A   1      49.072  37.504  30.277  1.00  0.00    -0.237 OA
ATOM     87  O   UNL A   1      47.240  38.301  28.820  1.00  0.00    -0.237 OA
ATOM     88  O   UNL A   1      46.763  37.628  31.141  1.00  0.00    -0.744 OA
ENDBRANCH  84  85
ENDBRANCH  56  79
BRANCH  68  89
ATOM     89  C   UNL A   1      51.078  28.204  26.030  1.00  0.00    -0.014 A 
ATOM     90  C   UNL A   1      52.027  28.052  27.056  1.00  0.00     0.010 A 
ATOM     91  C   UNL A   1      51.518  28.267  24.695  1.00  0.00     0.010 A 
ATOM     92  C   UNL A   1      53.392  28.001  26.755  1.00  0.00     0.020 A 
ATOM     93  C   UNL A   1      52.879  28.188  24.388  1.00  0.00     0.020 A 
ATOM     94  C   UNL A   1      53.809  28.071  25.423  1.00  0.00     0.054 A 
BRANCH  94  95
ATOM     95  S   UNL A   1      55.583  27.968  25.054  1.00  0.00     0.124 S 
ATOM     96  O   UNL A   1      55.957  29.377  24.967  1.00  0.00    -0.237 OA
ATOM     97  O   UNL A   1      56.110  27.248  26.211  1.00  0.00    -0.237 OA
ATOM     98  O   UNL A   1      55.632  27.231  23.794  1.00  0.00    -0.744 OA
ENDBRANCH  94  95
ENDBRANCH  68  89
ENDBRANCH  42  43
ENDBRANCH  35  37
ENDBRANCH  34  35
ENDBRANCH  33  34
ENDBRANCH  32  33
ENDBRANCH  31  32
ENDBRANCH  30  31
ENDBRANCH   1  30
TORSDOF 26
ENDMDL
MODEL 2
REMARK VINA RESULT:      -6.9      3.098      9.440
REMARK SMILES COc1ccc(/C=C/c2cc(OC)cc(OC)c2/C=C/C(=O)OCCOCCOCCOC(=O)c2ccc(-c3c4nc(c(-c5ccc(S(=O)(=O)[O-])cc5)c5ccc([nH]5)c(-c5ccc(S(=O)(=O)[O-])cc5)c5nc(c(-c6ccc(S(=O)(=O)[O-])cc6)c6ccc3[nH]6)C=C5)C=C4)cc2)cc1
REMARK SMILES IDX 27 1 26 2 25 3 24 4 23 5 21 6 22 7 20 8 19 9 18 10 9 11
REMARK SMILES IDX 10 12 11 13 15 14 14 15 8 16 7 17 6 18 3 19 4 20 96 21 5 22
REMARK SMILES IDX 95 23 2 24 1 25 12 26 13 27 16 28 17 29 28 30 29 31 30 32
REMARK SMILES IDX 31 33 32 34 33 35 34 36 35 37 36 38 94 39 37 40 93 41 38 42
REMARK SMILES IDX 39 43 40 44 87 45 41 46 92 47 86 48 88 49 42 50 91 51 85 52
REMARK SMILES IDX 84 53 43 55 73 56 54 57 72 58 55 59 58 60 71 61 89 62 56 63
REMARK SMILES IDX 57 64 70 66 90 67 59 68 44 69 45 70 53 71 46 72 52 73 47 74
REMARK SMILES IDX 48 75 49 76 50 77 51 78 74 79 75 80 83 81 76 82 82 83 77 84
REMARK SMILES IDX 78 85 79 86 80 87 81 88 60 89 61 90 69 91 62 92 68 93 63 94
REMARK SMILES IDX 64 95 65 96 66 97 67 98
REMARK H PARENT 88 54 58 65
REMARK Flexibility Score: inf
ROOT
ATOM      1  C   UNL A   1      33.547  35.223  30.208  1.00  0.00     0.188 C 
ENDROOT
BRANCH   1   2
ATOM      2  O   UNL A   1      33.309  34.704  31.513  1.00  0.00    -0.376 OA
BRANCH   2   3
ATOM      3  C   UNL A   1      34.090  35.191  32.600  1.00  0.00     0.202 C 
BRANCH   3   4
ATOM      4  C   UNL A   1      35.098  34.257  33.292  1.00  0.00     0.261 C 
BRANCH   4   5
ATOM      5  O   UNL A   1      36.288  34.899  33.783  1.00  0.00    -0.460 OA
BRANCH   5   6
ATOM      6  C   UNL A   1      37.431  34.604  33.115  1.00  0.00     0.330 C 
ATOM      7  O   UNL A   1      37.510  34.236  31.951  1.00  0.00    -0.247 OA
BRANCH   6   8
ATOM      8  C   UNL A   1      38.648  34.827  33.926  1.00  0.00     0.094 C 
ATOM      9  C   UNL A   1      38.744  34.622  35.247  1.00  0.00     0.020 C 
BRANCH   9  10
ATOM     10  C   UNL A   1      39.986  34.828  36.024  1.00  0.00     0.024 A 
ATOM     11  C   UNL A   1      39.981  34.515  37.409  1.00  0.00    -0.011 A 
ATOM     12  C   UNL A   1      41.158  34.649  38.164  1.00  0.00     0.055 A 
ATOM     13  C   UNL A   1      42.341  35.113  37.588  1.00  0.00     0.123 A 
ATOM     14  C   UNL A   1      41.180  35.330  35.461  1.00  0.00     0.130 A 
ATOM     15  C   UNL A   1      42.344  35.455  36.240  1.00  0.00     0.093 A 
BRANCH  11  16
ATOM     16  C   UNL A   1      38.776  34.101  38.155  1.00  0.00     0.009 C 
ATOM     17  C   UNL A   1      38.750  33.918  39.485  1.00  0.00     0.009 C 
BRANCH  17  18
ATOM     18  C   UNL A   1      37.604  33.378  40.233  1.00  0.00    -0.025 A 
ATOM     19  C   UNL A   1      35.400  32.250  41.571  1.00  0.00     0.118 A 
ATOM     20  C   UNL A   1      36.233  33.156  42.226  1.00  0.00     0.047 A 
ATOM     21  C   UNL A   1      35.645  31.928  40.239  1.00  0.00     0.047 A 
ATOM     22  C   UNL A   1      37.338  33.704  41.567  1.00  0.00     0.012 A 
ATOM     23  C   UNL A   1      36.746  32.484  39.577  1.00  0.00     0.012 A 
BRANCH  19  24
ATOM     24  O   UNL A   1      34.348  31.768  42.302  1.00  0.00    -0.497 OA
ATOM     25  C   UNL A   1      33.664  32.766  43.056  1.00  0.00     0.278 C 
ENDBRANCH  19  24
ENDBRANCH  17  18
ENDBRANCH  11  16
BRANCH  13  26
ATOM     26  O   UNL A   1      43.406  35.172  38.443  1.00  0.00    -0.497 OA
ATOM     27  C   UNL A   1      44.674  35.475  37.871  1.00  0.00     0.278 C 
ENDBRANCH  13  26
BRANCH  14  28
ATOM     28  O   UNL A   1      41.373  35.637  34.138  1.00  0.00    -0.496 OA
ATOM     29  C   UNL A   1      42.550  35.112  33.531  1.00  0.00     0.278 C 
ENDBRANCH  14  28
ENDBRANCH   9  10
ENDBRANCH   6   8
ENDBRANCH   5   6
ENDBRANCH   4   5
ENDBRANCH   3   4
ENDBRANCH   2   3
ENDBRANCH   1   2
BRANCH   1  30
ATOM     30  C   UNL A   1      34.365  34.388  29.203  1.00  0.00     0.188 C 
BRANCH  30  31
ATOM     31  O   UNL A   1      34.224  32.994  29.370  1.00  0.00    -0.376 OA
BRANCH  31  32
ATOM     32  C   UNL A   1      35.178  32.159  28.732  1.00  0.00     0.202 C 
BRANCH  32  33
ATOM     33  C   UNL A   1      35.143  30.628  28.924  1.00  0.00     0.261 C 
BRANCH  33  34
ATOM     34  O   UNL A   1      36.336  29.893  28.617  1.00  0.00    -0.460 OA
BRANCH  34  35
ATOM     35  C   UNL A   1      37.019  29.370  29.664  1.00  0.00     0.338 C 
ATOM     36  O   UNL A   1      36.579  29.116  30.768  1.00  0.00    -0.246 OA
BRANCH  35  37
ATOM     37  C   UNL A   1      38.363  28.973  29.184  1.00  0.00     0.060 A 
ATOM     38  C   UNL A   1      39.241  28.344  30.076  1.00  0.00     0.016 A 
ATOM     39  C   UNL A   1      38.761  29.246  27.874  1.00  0.00     0.016 A 
ATOM     40  C   UNL A   1      40.535  28.014  29.666  1.00  0.00     0.010 A 
ATOM     41  C   UNL A   1      40.064  28.932  27.472  1.00  0.00     0.010 A 
ATOM     42  C   UNL A   1      40.967  28.342  28.375  1.00  0.00    -0.014 A 
BRANCH  42  43
ATOM     43  C   UNL A   1      42.405  28.228  28.024  1.00  0.00     0.031 A 
ATOM     44  C   UNL A   1      43.300  29.415  28.257  1.00  0.00     0.074 A 
ATOM     45  C   UNL A   1      42.915  27.088  27.522  1.00  0.00     0.049 A 
ATOM     46  N   UNL A   1      44.577  29.554  28.007  1.00  0.00    -0.248 NA
ATOM     47  C   UNL A   1      42.670  30.605  28.854  1.00  0.00     0.031 C 
ATOM     48  C   UNL A   1      42.164  25.856  27.284  1.00  0.00     0.029 A 
ATOM     49  N   UNL A   1      44.193  26.788  27.118  1.00  0.00    -0.354 N 
ATOM     50  C   UNL A   1      44.903  30.844  28.409  1.00  0.00     0.074 A 
ATOM     51  C   UNL A   1      43.685  31.456  28.895  1.00  0.00     0.031 C 
ATOM     52  C   UNL A   1      42.995  24.934  26.766  1.00  0.00     0.029 A 
ATOM     53  C   UNL A   1      44.326  25.519  26.606  1.00  0.00     0.049 A 
ATOM     54  H   UNL A   1      44.942  27.423  27.186  1.00  0.00     0.167 HD
ATOM     55  C   UNL A   1      46.106  31.465  28.380  1.00  0.00     0.031 A 
ATOM     56  C   UNL A   1      45.393  24.907  26.055  1.00  0.00     0.031 A 
ATOM     57  C   UNL A   1      47.313  30.866  27.877  1.00  0.00     0.049 A 
ATOM     58  C   UNL A   1      46.707  25.643  25.967  1.00  0.00     0.074 A 
ATOM     59  C   UNL A   1      48.583  31.411  27.814  1.00  0.00     0.029 A 
ATOM     60  N   UNL A   1      47.398  29.591  27.338  1.00  0.00    -0.354 N 
ATOM     61  N   UNL A   1      47.004  26.854  26.377  1.00  0.00    -0.248 NA
ATOM     62  C   UNL A   1      47.831  24.925  25.349  1.00  0.00     0.031 C 
ATOM     63  C   UNL A   1      49.426  30.487  27.189  1.00  0.00     0.029 A 
ATOM     64  C   UNL A   1      48.694  29.342  26.919  1.00  0.00     0.049 A 
ATOM     65  H   UNL A   1      46.649  28.957  27.265  1.00  0.00     0.167 HD
ATOM     66  C   UNL A   1      48.357  27.028  26.093  1.00  0.00     0.074 A 
ATOM     67  C   UNL A   1      48.820  25.797  25.489  1.00  0.00     0.031 C 
ATOM     68  C   UNL A   1      49.144  28.111  26.318  1.00  0.00     0.031 A 
BRANCH  55  69
ATOM     69  C   UNL A   1      46.164  32.885  28.878  1.00  0.00    -0.014 A 
ATOM     70  C   UNL A   1      46.506  33.177  30.211  1.00  0.00     0.010 A 
ATOM     71  C   UNL A   1      45.900  33.944  27.991  1.00  0.00     0.010 A 
ATOM     72  C   UNL A   1      46.546  34.500  30.657  1.00  0.00     0.020 A 
ATOM     73  C   UNL A   1      45.964  35.270  28.426  1.00  0.00     0.020 A 
ATOM     74  C   UNL A   1      46.270  35.539  29.762  1.00  0.00     0.054 A 
BRANCH  74  75
ATOM     75  S   UNL A   1      46.345  37.248  30.363  1.00  0.00     0.124 S 
ATOM     76  O   UNL A   1      46.551  37.994  29.124  1.00  0.00    -0.237 OA
ATOM     77  O   UNL A   1      45.039  37.425  30.993  1.00  0.00    -0.237 OA
ATOM     78  O   UNL A   1      47.480  37.244  31.283  1.00  0.00    -0.744 OA
ENDBRANCH  74  75
ENDBRANCH  55  69
BRANCH  56  79
ATOM     79  C   UNL A   1      45.266  23.521  25.525  1.00  0.00    -0.014 A 
ATOM     80  C   UNL A   1      44.974  23.294  24.169  1.00  0.00     0.010 A 
ATOM     81  C   UNL A   1      45.432  22.418  26.383  1.00  0.00     0.010 A 
ATOM     82  C   UNL A   1      44.832  21.989  23.684  1.00  0.00     0.020 A 
ATOM     83  C   UNL A   1      45.318  21.113  25.895  1.00  0.00     0.020 A 
ATOM     84  C   UNL A   1      45.008  20.907  24.551  1.00  0.00     0.054 A 
BRANCH  84  85
ATOM     85  S   UNL A   1      44.868  19.223  23.888  1.00  0.00     0.124 S 
ATOM     86  O   UNL A   1      46.251  18.759  23.944  1.00  0.00    -0.237 OA
ATOM     87  O   UNL A   1      43.948  18.589  24.829  1.00  0.00    -0.237 OA
ATOM     88  O   UNL A   1      44.330  19.429  22.545  1.00  0.00    -0.744 OA
ENDBRANCH  84  85
ENDBRANCH  56  79
BRANCH  68  89
ATOM     89  C   UNL A   1      50.601  28.001  25.948  1.00  0.00    -0.014 A 
ATOM     90  C   UNL A   1      51.059  28.340  24.663  1.00  0.00     0.010 A 
ATOM     91  C   UNL A   1      51.533  27.602  26.924  1.00  0.00     0.010 A 
ATOM     92  C   UNL A   1      52.419  28.246  24.350  1.00  0.00     0.020 A 
ATOM     93  C   UNL A   1      52.895  27.534  26.623  1.00  0.00     0.020 A 
ATOM     94  C   UNL A   1      53.328  27.842  25.332  1.00  0.00     0.054 A 
BRANCH  94  95
ATOM     95  S   UNL A   1      55.092  27.761  24.912  1.00  0.00     0.124 S 
ATOM     96  O   UNL A   1      55.717  27.747  26.232  1.00  0.00    -0.237 OA
ATOM     97  O   UNL A   1      55.186  26.512  24.159  1.00  0.00    -0.237 OA
ATOM     98  O   UNL A   1      55.317  28.973  24.128  1.00  0.00    -0.744 OA
ENDBRANCH  94  95
ENDBRANCH  68  89
ENDBRANCH  42  43
ENDBRANCH  35  37
ENDBRANCH  34  35
ENDBRANCH  33  34
ENDBRANCH  32  33
ENDBRANCH  31  32
ENDBRANCH  30  31
ENDBRANCH   1  30
TORSDOF 26
ENDMDL
MODEL 3
REMARK VINA RESULT:      -6.0      7.763     15.412
REMARK SMILES COc1ccc(/C=C/c2cc(OC)cc(OC)c2/C=C/C(=O)OCCOCCOCCOC(=O)c2ccc(-c3c4nc(c(-c5ccc(S(=O)(=O)[O-])cc5)c5ccc([nH]5)c(-c5ccc(S(=O)(=O)[O-])cc5)c5nc(c(-c6ccc(S(=O)(=O)[O-])cc6)c6ccc3[nH]6)C=C5)C=C4)cc2)cc1
REMARK SMILES IDX 27 1 26 2 25 3 24 4 23 5 21 6 22 7 20 8 19 9 18 10 9 11
REMARK SMILES IDX 10 12 11 13 15 14 14 15 8 16 7 17 6 18 3 19 4 20 96 21 5 22
REMARK SMILES IDX 95 23 2 24 1 25 12 26 13 27 16 28 17 29 28 30 29 31 30 32
REMARK SMILES IDX 31 33 32 34 33 35 34 36 35 37 36 38 94 39 37 40 93 41 38 42
REMARK SMILES IDX 39 43 40 44 87 45 41 46 92 47 86 48 88 49 42 50 91 51 85 52
REMARK SMILES IDX 84 53 43 55 73 56 54 57 72 58 55 59 58 60 71 61 89 62 56 63
REMARK SMILES IDX 57 64 70 66 90 67 59 68 44 69 45 70 53 71 46 72 52 73 47 74
REMARK SMILES IDX 48 75 49 76 50 77 51 78 74 79 75 80 83 81 76 82 82 83 77 84
REMARK SMILES IDX 78 85 79 86 80 87 81 88 60 89 61 90 69 91 62 92 68 93 63 94
REMARK SMILES IDX 64 95 65 96 66 97 67 98
REMARK H PARENT 88 54 58 65
REMARK Flexibility Score: inf
ROOT
ATOM      1  C   UNL A   1      41.609  28.447  31.139  1.00  0.00     0.188 C 
ENDROOT
BRANCH   1   2
ATOM      2  O   UNL A   1      41.571  29.215  29.940  1.00  0.00    -0.376 OA
BRANCH   2   3
ATOM      3  C   UNL A   1      42.407  28.833  28.853  1.00  0.00     0.202 C 
BRANCH   3   4
ATOM      4  C   UNL A   1      42.331  27.400  28.300  1.00  0.00     0.261 C 
BRANCH   4   5
ATOM      5  O   UNL A   1      41.275  27.168  27.351  1.00  0.00    -0.460 OA
BRANCH   5   6
ATOM      6  C   UNL A   1      40.276  26.352  27.774  1.00  0.00     0.330 C 
ATOM      7  O   UNL A   1      39.167  26.707  28.147  1.00  0.00    -0.247 OA
BRANCH   6   8
ATOM      8  C   UNL A   1      40.629  24.918  27.692  1.00  0.00     0.094 C 
ATOM      9  C   UNL A   1      40.487  24.147  26.605  1.00  0.00     0.020 C 
BRANCH   9  10
ATOM     10  C   UNL A   1      40.877  22.721  26.549  1.00  0.00     0.024 A 
ATOM     11  C   UNL A   1      39.901  21.764  26.170  1.00  0.00    -0.011 A 
ATOM     12  C   UNL A   1      40.252  20.408  26.056  1.00  0.00     0.055 A 
ATOM     13  C   UNL A   1      41.546  19.969  26.336  1.00  0.00     0.123 A 
ATOM     14  C   UNL A   1      42.174  22.258  26.865  1.00  0.00     0.130 A 
ATOM     15  C   UNL A   1      42.499  20.896  26.743  1.00  0.00     0.093 A 
BRANCH  11  16
ATOM     16  C   UNL A   1      38.479  22.087  25.934  1.00  0.00     0.009 C 
ATOM     17  C   UNL A   1      37.768  21.607  24.900  1.00  0.00     0.009 C 
BRANCH  17  18
ATOM     18  C   UNL A   1      36.395  22.018  24.568  1.00  0.00    -0.025 A 
ATOM     19  C   UNL A   1      33.733  22.774  24.056  1.00  0.00     0.118 A 
ATOM     20  C   UNL A   1      34.752  23.145  23.179  1.00  0.00     0.047 A 
ATOM     21  C   UNL A   1      34.035  21.999  25.173  1.00  0.00     0.047 A 
ATOM     22  C   UNL A   1      36.077  22.783  23.441  1.00  0.00     0.012 A 
ATOM     23  C   UNL A   1      35.359  21.630  25.430  1.00  0.00     0.012 A 
BRANCH  19  24
ATOM     24  O   UNL A   1      32.471  23.177  23.713  1.00  0.00    -0.497 OA
ATOM     25  C   UNL A   1      31.719  23.709  24.801  1.00  0.00     0.278 C 
ENDBRANCH  19  24
ENDBRANCH  17  18
ENDBRANCH  11  16
BRANCH  13  26
ATOM     26  O   UNL A   1      41.741  18.626  26.164  1.00  0.00    -0.497 OA
ATOM     27  C   UNL A   1      43.003  18.103  26.565  1.00  0.00     0.278 C 
ENDBRANCH  13  26
BRANCH  14  28
ATOM     28  O   UNL A   1      43.245  23.046  27.203  1.00  0.00    -0.496 OA
ATOM     29  C   UNL A   1      43.695  22.960  28.551  1.00  0.00     0.278 C 
ENDBRANCH  14  28
ENDBRANCH   9  10
ENDBRANCH   6   8
ENDBRANCH   5   6
ENDBRANCH   4   5
ENDBRANCH   3   4
ENDBRANCH   2   3
ENDBRANCH   1   2
BRANCH   1  30
ATOM     30  C   UNL A   1      40.308  28.233  31.938  1.00  0.00     0.188 C 
BRANCH  30  31
ATOM     31  O   UNL A   1      39.160  28.083  31.132  1.00  0.00    -0.376 OA
BRANCH  31  32
ATOM     32  C   UNL A   1      37.927  28.553  31.654  1.00  0.00     0.202 C 
BRANCH  32  33
ATOM     33  C   UNL A   1      37.011  29.471  30.818  1.00  0.00     0.261 C 
BRANCH  33  34
ATOM     34  O   UNL A   1      37.050  30.879  31.093  1.00  0.00    -0.460 OA
BRANCH  34  35
ATOM     35  C   UNL A   1      38.219  31.519  30.845  1.00  0.00     0.338 C 
ATOM     36  O   UNL A   1      38.734  31.702  29.760  1.00  0.00    -0.246 OA
BRANCH  35  37
ATOM     37  C   UNL A   1      38.682  32.136  32.109  1.00  0.00     0.060 A 
ATOM     38  C   UNL A   1      38.046  33.297  32.567  1.00  0.00     0.016 A 
ATOM     39  C   UNL A   1      39.753  31.589  32.819  1.00  0.00     0.016 A 
ATOM     40  C   UNL A   1      38.502  33.933  33.724  1.00  0.00     0.010 A 
ATOM     41  C   UNL A   1      40.221  32.239  33.967  1.00  0.00     0.010 A 
ATOM     42  C   UNL A   1      39.617  33.430  34.408  1.00  0.00    -0.014 A 
BRANCH  42  43
ATOM     43  C   UNL A   1      40.256  34.239  35.477  1.00  0.00     0.031 A 
ATOM     44  C   UNL A   1      39.772  34.072  36.893  1.00  0.00     0.074 A 
ATOM     45  C   UNL A   1      41.257  35.093  35.204  1.00  0.00     0.049 A 
ATOM     46  N   UNL A   1      40.163  34.685  37.981  1.00  0.00    -0.248 NA
ATOM     47  C   UNL A   1      38.705  33.081  37.110  1.00  0.00     0.031 C 
ATOM     48  C   UNL A   1      41.843  35.319  33.883  1.00  0.00     0.029 A 
ATOM     49  N   UNL A   1      41.957  35.938  36.032  1.00  0.00    -0.354 N 
ATOM     50  C   UNL A   1      39.388  34.160  39.009  1.00  0.00     0.074 A 
ATOM     51  C   UNL A   1      38.488  33.198  38.412  1.00  0.00     0.031 C 
ATOM     52  C   UNL A   1      42.809  36.250  33.989  1.00  0.00     0.029 A 
ATOM     53  C   UNL A   1      42.888  36.707  35.376  1.00  0.00     0.049 A 
ATOM     54  H   UNL A   1      41.805  35.988  37.003  1.00  0.00     0.167 HD
ATOM     55  C   UNL A   1      39.424  34.448  40.332  1.00  0.00     0.031 A 
ATOM     56  C   UNL A   1      43.697  37.681  35.838  1.00  0.00     0.031 A 
ATOM     57  C   UNL A   1      40.303  35.420  40.924  1.00  0.00     0.049 A 
ATOM     58  C   UNL A   1      43.670  38.037  37.303  1.00  0.00     0.074 A 
ATOM     59  C   UNL A   1      40.420  35.776  42.257  1.00  0.00     0.029 A 
ATOM     60  N   UNL A   1      41.208  36.201  40.221  1.00  0.00    -0.354 N 
ATOM     61  N   UNL A   1      42.950  37.511  38.267  1.00  0.00    -0.248 NA
ATOM     62  C   UNL A   1      44.570  39.113  37.743  1.00  0.00     0.031 C 
ATOM     63  C   UNL A   1      41.358  36.810  42.352  1.00  0.00     0.029 A 
ATOM     64  C   UNL A   1      41.869  37.054  41.088  1.00  0.00     0.049 A 
ATOM     65  H   UNL A   1      41.358  36.155  39.250  1.00  0.00     0.167 HD
ATOM     66  C   UNL A   1      43.335  38.172  39.431  1.00  0.00     0.074 A 
ATOM     67  C   UNL A   1      44.357  39.126  39.052  1.00  0.00     0.031 C 
ATOM     68  C   UNL A   1      42.885  38.000  40.699  1.00  0.00     0.031 A 
BRANCH  55  69
ATOM     69  C   UNL A   1      38.453  33.723  41.224  1.00  0.00    -0.014 A 
ATOM     70  C   UNL A   1      38.796  32.504  41.839  1.00  0.00     0.010 A 
ATOM     71  C   UNL A   1      37.187  34.282  41.475  1.00  0.00     0.010 A 
ATOM     72  C   UNL A   1      37.878  31.840  42.656  1.00  0.00     0.020 A 
ATOM     73  C   UNL A   1      36.275  33.635  42.313  1.00  0.00     0.020 A 
ATOM     74  C   UNL A   1      36.621  32.409  42.884  1.00  0.00     0.054 A 
BRANCH  74  75
ATOM     75  S   UNL A   1      35.454  31.535  43.963  1.00  0.00     0.124 S 
ATOM     76  O   UNL A   1      36.179  30.299  44.252  1.00  0.00    -0.237 OA
ATOM     77  O   UNL A   1      35.307  32.454  45.089  1.00  0.00    -0.237 OA
ATOM     78  O   UNL A   1      34.263  31.377  43.133  1.00  0.00    -0.744 OA
ENDBRANCH  74  75
ENDBRANCH  55  69
BRANCH  56  79
ATOM     79  C   UNL A   1      44.599  38.408  34.901  1.00  0.00    -0.014 A 
ATOM     80  C   UNL A   1      44.156  39.558  34.224  1.00  0.00     0.010 A 
ATOM     81  C   UNL A   1      45.908  37.945  34.676  1.00  0.00     0.010 A 
ATOM     82  C   UNL A   1      45.000  40.221  33.327  1.00  0.00     0.020 A 
ATOM     83  C   UNL A   1      46.764  38.621  33.802  1.00  0.00     0.020 A 
ATOM     84  C   UNL A   1      46.301  39.748  33.123  1.00  0.00     0.054 A 
BRANCH  84  85
ATOM     85  S   UNL A   1      47.394  40.654  31.993  1.00  0.00     0.124 S 
ATOM     86  O   UNL A   1      46.695  41.928  31.850  1.00  0.00    -0.237 OA
ATOM     87  O   UNL A   1      48.650  40.700  32.738  1.00  0.00    -0.237 OA
ATOM     88  O   UNL A   1      47.417  39.815  30.797  1.00  0.00    -0.744 OA
ENDBRANCH  84  85
ENDBRANCH  56  79
BRANCH  68  89
ATOM     89  C   UNL A   1      43.522  38.831  41.783  1.00  0.00    -0.014 A 
ATOM     90  C   UNL A   1      42.981  40.069  42.172  1.00  0.00     0.010 A 
ATOM     91  C   UNL A   1      44.653  38.335  42.459  1.00  0.00     0.010 A 
ATOM     92  C   UNL A   1      43.582  40.813  43.193  1.00  0.00     0.020 A 
ATOM     93  C   UNL A   1      45.239  39.063  43.498  1.00  0.00     0.020 A 
ATOM     94  C   UNL A   1      44.708  40.306  43.847  1.00  0.00     0.054 A 
BRANCH  94  95
ATOM     95  S   UNL A   1      45.450  41.274  45.192  1.00  0.00     0.124 S 
ATOM     96  O   UNL A   1      46.873  41.002  45.012  1.00  0.00    -0.237 OA
ATOM     97  O   UNL A   1      45.025  42.636  44.880  1.00  0.00    -0.237 OA
ATOM     98  O   UNL A   1      44.854  40.703  46.398  1.00  0.00    -0.744 OA
ENDBRANCH  94  95
ENDBRANCH  68  89
ENDBRANCH  42  43
ENDBRANCH  35  37
ENDBRANCH  34  35
ENDBRANCH  33  34
ENDBRANCH  32  33
ENDBRANCH  31  32
ENDBRANCH  30  31
ENDBRANCH   1  30
TORSDOF 26
ENDMDL
