MODEL 1
REMARK VINA RESULT:     -10.7      0.000      0.000
REMARK SMILES O=C(OCCOCCOCCOC(=O)c1ccc(-c2c3nc(c(-c4ccc(S(=O)(=O)[O-])cc4)c4ccc([nH]4)c(-c4ccc(S(=O)(=O)[O-])cc4)c4nc(c(-c5ccc(S(=O)(=O)[O-])cc5)c5ccc2[nH]5)C=C4)C=C3)cc1)C1=Cc2c(ccc(Cl)c2-c2ccccc2)O[C@H]1C(F)(F)F
REMARK SMILES IDX 8 1 7 2 6 3 5 4 4 5 3 6 2 7 1 8 75 9 76 10 91 11 77 12 90 13
REMARK SMILES IDX 78 14 83 15 79 16 81 17 80 18 82 19 92 20 93 21 94 22 95 23
REMARK SMILES IDX 84 24 85 25 89 26 86 27 88 28 87 29 9 30 10 31 11 32 12 33
REMARK SMILES IDX 13 34 14 35 15 36 16 37 74 38 17 39 73 40 18 41 19 42 20 43
REMARK SMILES IDX 67 44 21 45 72 46 66 47 68 48 22 49 71 50 65 51 64 52 23 54
REMARK SMILES IDX 53 55 34 56 52 57 35 58 38 59 51 60 69 61 36 62 37 63 50 65
REMARK SMILES IDX 70 66 39 67 24 68 25 69 33 70 26 71 32 72 27 73 28 74 29 75
REMARK SMILES IDX 30 76 31 77 54 78 55 79 63 80 56 81 62 82 57 83 58 84 59 85
REMARK SMILES IDX 60 86 61 87 40 88 41 89 49 90 42 91 48 92 43 93 44 94 45 95
REMARK SMILES IDX 46 96 47 97
REMARK H PARENT 68 53 38 64
REMARK Flexibility Score: inf
ROOT
ATOM      1  C   UNL A   1      37.789  23.127  25.879  1.00  0.00     0.188 C 
ENDROOT
BRANCH   1   2
ATOM      2  C   UNL A   1      36.321  22.320  26.010  1.00  0.00     0.188 C 
BRANCH   2   3
ATOM      3  O   UNL A   1      35.118  22.954  26.419  1.00  0.00    -0.376 OA
BRANCH   3   4
ATOM      4  C   UNL A   1      34.449  22.478  27.564  1.00  0.00     0.202 C 
BRANCH   4   5
ATOM      5  C   UNL A   1      32.944  22.173  27.485  1.00  0.00     0.261 C 
BRANCH   5   6
ATOM      6  O   UNL A   1      32.143  23.346  27.699  1.00  0.00    -0.460 OA
BRANCH   6   7
ATOM      7  C   UNL A   1      31.156  23.769  26.886  1.00  0.00     0.338 C 
ATOM      8  O   UNL A   1      29.985  23.700  27.264  1.00  0.00    -0.246 OA
BRANCH   7   9
ATOM      9  C   UNL A   1      31.442  24.310  25.543  1.00  0.00     0.087 C 
ATOM     10  C   UNL A   1      32.115  25.431  25.223  1.00  0.00     0.028 C 
ATOM     11  C   UNL A   1      30.851  23.559  24.389  1.00  0.00     0.316 C 
ATOM     12  C   UNL A   1      31.261  26.435  24.598  1.00  0.00     0.027 A 
ATOM     13  O   UNL A   1      30.340  24.494  23.372  1.00  0.00    -0.475 OA
ATOM     14  C   UNL A   1      30.329  25.847  23.692  1.00  0.00     0.128 A 
ATOM     15  C   UNL A   1      31.373  27.838  24.867  1.00  0.00     0.011 A 
ATOM     16  C   UNL A   1      29.407  26.648  23.056  1.00  0.00     0.049 A 
ATOM     17  C   UNL A   1      30.412  28.606  24.164  1.00  0.00     0.049 A 
ATOM     18  C   UNL A   1      29.443  28.020  23.305  1.00  0.00     0.025 A 
ATOM     19  Cl  UNL A   1      30.364  30.340  24.207  1.00  0.00    -0.084 Cl
BRANCH  11  20
ATOM     20  C   UNL A   1      31.942  22.582  23.886  1.00  0.00     0.430 C 
ATOM     21  F   UNL A   1      33.187  23.105  24.033  1.00  0.00    -0.167 F 
ATOM     22  F   UNL A   1      31.929  21.428  24.597  1.00  0.00    -0.167 F 
ATOM     23  F   UNL A   1      31.794  22.261  22.586  1.00  0.00    -0.167 F 
ENDBRANCH  11  20
BRANCH  15  24
ATOM     24  C   UNL A   1      32.420  28.483  25.805  1.00  0.00    -0.016 A 
ATOM     25  C   UNL A   1      31.989  29.970  26.742  1.00  0.00     0.009 A 
ATOM     26  C   UNL A   1      34.125  27.880  25.942  1.00  0.00     0.009 A 
ATOM     27  C   UNL A   1      33.205  30.899  27.693  1.00  0.00     0.001 A 
ATOM     28  C   UNL A   1      35.386  28.821  26.913  1.00  0.00     0.001 A 
ATOM     29  C   UNL A   1      34.908  30.327  27.791  1.00  0.00     0.000 A 
ENDBRANCH  15  24
ENDBRANCH   7   9
ENDBRANCH   6   7
ENDBRANCH   5   6
ENDBRANCH   4   5
ENDBRANCH   3   4
ENDBRANCH   2   3
ENDBRANCH   1   2
BRANCH   1  30
ATOM     30  O   UNL A   1      39.691  22.543  25.869  1.00  0.00    -0.376 OA
BRANCH  30  31
ATOM     31  C   UNL A   1      40.941  22.003  26.574  1.00  0.00     0.202 C 
BRANCH  31  32
ATOM     32  C   UNL A   1      42.473  22.464  26.541  1.00  0.00     0.261 C 
BRANCH  32  33
ATOM     33  O   UNL A   1      42.855  23.741  27.137  1.00  0.00    -0.460 OA
BRANCH  33  34
ATOM     34  C   UNL A   1      42.474  24.868  26.482  1.00  0.00     0.338 C 
ATOM     35  O   UNL A   1      42.396  24.993  25.251  1.00  0.00    -0.246 OA
BRANCH  34  36
ATOM     36  C   UNL A   1      41.971  25.935  27.387  1.00  0.00     0.060 A 
ATOM     37  C   UNL A   1      42.788  27.035  27.699  1.00  0.00     0.016 A 
ATOM     38  C   UNL A   1      40.793  25.758  28.115  1.00  0.00     0.016 A 
ATOM     39  C   UNL A   1      42.454  27.939  28.714  1.00  0.00     0.010 A 
ATOM     40  C   UNL A   1      40.464  26.657  29.150  1.00  0.00     0.010 A 
ATOM     41  C   UNL A   1      41.308  27.736  29.482  1.00  0.00    -0.014 A 
BRANCH  41  42
ATOM     42  C   UNL A   1      41.105  28.510  30.743  1.00  0.00     0.031 A 
ATOM     43  C   UNL A   1      40.014  29.553  30.785  1.00  0.00     0.074 A 
ATOM     44  C   UNL A   1      41.840  28.288  31.852  1.00  0.00     0.049 A 
ATOM     45  N   UNL A   1      39.740  30.437  31.711  1.00  0.00    -0.248 NA
ATOM     46  C   UNL A   1      39.109  29.600  29.625  1.00  0.00     0.031 C 
ATOM     47  C   UNL A   1      42.852  27.246  32.009  1.00  0.00     0.029 A 
ATOM     48  N   UNL A   1      41.849  28.948  33.062  1.00  0.00    -0.354 N 
ATOM     49  C   UNL A   1      38.651  31.161  31.235  1.00  0.00     0.074 A 
ATOM     50  C   UNL A   1      38.322  30.619  29.935  1.00  0.00     0.031 C 
ATOM     51  C   UNL A   1      43.406  27.357  33.231  1.00  0.00     0.029 A 
ATOM     52  C   UNL A   1      42.822  28.504  33.927  1.00  0.00     0.049 A 
ATOM     53  H   UNL A   1      41.218  29.670  33.285  1.00  0.00     0.167 HD
ATOM     54  C   UNL A   1      37.987  32.188  31.822  1.00  0.00     0.031 A 
ATOM     55  C   UNL A   1      43.227  28.988  35.122  1.00  0.00     0.031 A 
ATOM     56  C   UNL A   1      38.314  32.738  33.112  1.00  0.00     0.049 A 
ATOM     57  C   UNL A   1      42.547  30.207  35.705  1.00  0.00     0.074 A 
ATOM     58  C   UNL A   1      37.701  33.786  33.780  1.00  0.00     0.029 A 
ATOM     59  N   UNL A   1      39.341  32.293  33.930  1.00  0.00    -0.354 N 
ATOM     60  N   UNL A   1      41.535  30.897  35.234  1.00  0.00    -0.248 NA
ATOM     61  C   UNL A   1      43.068  30.712  36.985  1.00  0.00     0.031 C 
ATOM     62  C   UNL A   1      38.399  34.017  34.969  1.00  0.00     0.029 A 
ATOM     63  C   UNL A   1      39.399  33.064  35.080  1.00  0.00     0.049 A 
ATOM     64  H   UNL A   1      39.940  31.540  33.724  1.00  0.00     0.167 HD
ATOM     65  C   UNL A   1      41.280  31.892  36.176  1.00  0.00     0.074 A 
ATOM     66  C   UNL A   1      42.230  31.704  37.252  1.00  0.00     0.031 C 
ATOM     67  C   UNL A   1      40.343  32.874  36.152  1.00  0.00     0.031 A 
BRANCH  54  68
ATOM     68  C   UNL A   1      36.861  32.827  31.048  1.00  0.00    -0.014 A 
ATOM     69  C   UNL A   1      35.514  32.578  31.367  1.00  0.00     0.010 A 
ATOM     70  C   UNL A   1      37.161  33.741  30.020  1.00  0.00     0.010 A 
ATOM     71  C   UNL A   1      34.490  33.206  30.653  1.00  0.00     0.020 A 
ATOM     72  C   UNL A   1      36.141  34.396  29.324  1.00  0.00     0.020 A 
ATOM     73  C   UNL A   1      34.811  34.113  29.637  1.00  0.00     0.054 A 
BRANCH  73  74
ATOM     74  S   UNL A   1      33.460  34.944  28.756  1.00  0.00     0.124 S 
ATOM     75  O   UNL A   1      34.104  36.179  28.312  1.00  0.00    -0.237 OA
ATOM     76  O   UNL A   1      33.136  33.992  27.698  1.00  0.00    -0.237 OA
ATOM     77  O   UNL A   1      32.429  35.114  29.777  1.00  0.00    -0.744 OA
ENDBRANCH  73  74
ENDBRANCH  54  68
BRANCH  55  78
ATOM     78  C   UNL A   1      44.378  28.363  35.842  1.00  0.00    -0.014 A 
ATOM     79  C   UNL A   1      45.698  28.789  35.606  1.00  0.00     0.010 A 
ATOM     80  C   UNL A   1      44.161  27.298  36.736  1.00  0.00     0.010 A 
ATOM     81  C   UNL A   1      46.776  28.147  36.226  1.00  0.00     0.020 A 
ATOM     82  C   UNL A   1      45.233  26.677  37.386  1.00  0.00     0.020 A 
ATOM     83  C   UNL A   1      46.536  27.095  37.115  1.00  0.00     0.054 A 
BRANCH  83  84
ATOM     84  S   UNL A   1      47.946  26.299  37.934  1.00  0.00     0.124 S 
ATOM     85  O   UNL A   1      47.500  26.244  39.322  1.00  0.00    -0.237 OA
ATOM     86  O   UNL A   1      48.027  25.014  37.244  1.00  0.00    -0.237 OA
ATOM     87  O   UNL A   1      49.057  27.211  37.671  1.00  0.00    -0.744 OA
ENDBRANCH  83  84
ENDBRANCH  55  78
BRANCH  67  88
ATOM     88  C   UNL A   1      40.259  33.798  37.343  1.00  0.00    -0.014 A 
ATOM     89  C   UNL A   1      39.432  33.511  38.444  1.00  0.00     0.010 A 
ATOM     90  C   UNL A   1      41.061  34.955  37.381  1.00  0.00     0.010 A 
ATOM     91  C   UNL A   1      39.377  34.382  39.537  1.00  0.00     0.020 A 
ATOM     92  C   UNL A   1      41.034  35.811  38.486  1.00  0.00     0.020 A 
ATOM     93  C   UNL A   1      40.178  35.528  39.551  1.00  0.00     0.054 A 
BRANCH  93  94
ATOM     94  S   UNL A   1      40.108  36.627  40.993  1.00  0.00     0.124 S 
ATOM     95  O   UNL A   1      41.164  37.591  40.695  1.00  0.00    -0.237 OA
ATOM     96  O   UNL A   1      38.745  37.149  40.932  1.00  0.00    -0.237 OA
ATOM     97  O   UNL A   1      40.379  35.738  42.121  1.00  0.00    -0.744 OA
ENDBRANCH  93  94
ENDBRANCH  67  88
ENDBRANCH  41  42
ENDBRANCH  34  36
ENDBRANCH  33  34
ENDBRANCH  32  33
ENDBRANCH  31  32
ENDBRANCH  30  31
ENDBRANCH   1  30
TORSDOF 22
ENDMDL
MODEL 2
REMARK VINA RESULT:     -10.4      2.268      8.656
REMARK SMILES O=C(OCCOCCOCCOC(=O)c1ccc(-c2c3nc(c(-c4ccc(S(=O)(=O)[O-])cc4)c4ccc([nH]4)c(-c4ccc(S(=O)(=O)[O-])cc4)c4nc(c(-c5ccc(S(=O)(=O)[O-])cc5)c5ccc2[nH]5)C=C4)C=C3)cc1)C1=Cc2c(ccc(Cl)c2-c2ccccc2)O[C@H]1C(F)(F)F
REMARK SMILES IDX 8 1 7 2 6 3 5 4 4 5 3 6 2 7 1 8 75 9 76 10 91 11 77 12 90 13
REMARK SMILES IDX 78 14 83 15 79 16 81 17 80 18 82 19 92 20 93 21 94 22 95 23
REMARK SMILES IDX 84 24 85 25 89 26 86 27 88 28 87 29 9 30 10 31 11 32 12 33
REMARK SMILES IDX 13 34 14 35 15 36 16 37 74 38 17 39 73 40 18 41 19 42 20 43
REMARK SMILES IDX 67 44 21 45 72 46 66 47 68 48 22 49 71 50 65 51 64 52 23 54
REMARK SMILES IDX 53 55 34 56 52 57 35 58 38 59 51 60 69 61 36 62 37 63 50 65
REMARK SMILES IDX 70 66 39 67 24 68 25 69 33 70 26 71 32 72 27 73 28 74 29 75
REMARK SMILES IDX 30 76 31 77 54 78 55 79 63 80 56 81 62 82 57 83 58 84 59 85
REMARK SMILES IDX 60 86 61 87 40 88 41 89 49 90 42 91 48 92 43 93 44 94 45 95
REMARK SMILES IDX 46 96 47 97
REMARK H PARENT 68 53 38 64
REMARK Flexibility Score: inf
ROOT
ATOM      1  C   UNL A   1      37.406  22.653  26.132  1.00  0.00     0.188 C 
ENDROOT
BRANCH   1   2
ATOM      2  C   UNL A   1      35.828  22.221  26.516  1.00  0.00     0.188 C 
BRANCH   2   3
ATOM      3  O   UNL A   1      34.808  23.169  26.796  1.00  0.00    -0.376 OA
BRANCH   3   4
ATOM      4  C   UNL A   1      33.851  22.869  27.786  1.00  0.00     0.202 C 
BRANCH   4   5
ATOM      5  C   UNL A   1      32.458  22.375  27.361  1.00  0.00     0.261 C 
BRANCH   5   6
ATOM      6  O   UNL A   1      31.426  23.320  27.686  1.00  0.00    -0.460 OA
BRANCH   6   7
ATOM      7  C   UNL A   1      30.487  23.766  26.829  1.00  0.00     0.338 C 
ATOM      8  O   UNL A   1      29.304  23.779  27.176  1.00  0.00    -0.246 OA
BRANCH   7   9
ATOM      9  C   UNL A   1      30.840  24.237  25.475  1.00  0.00     0.087 C 
ATOM     10  C   UNL A   1      31.267  23.512  24.427  1.00  0.00     0.028 C 
ATOM     11  C   UNL A   1      30.783  25.719  25.258  1.00  0.00     0.316 C 
ATOM     12  C   UNL A   1      32.641  23.827  24.052  1.00  0.00     0.027 A 
ATOM     13  O   UNL A   1      31.920  26.162  24.433  1.00  0.00    -0.475 OA
ATOM     14  C   UNL A   1      32.906  25.225  24.143  1.00  0.00     0.128 A 
ATOM     15  C   UNL A   1      33.589  22.836  23.636  1.00  0.00     0.011 A 
ATOM     16  C   UNL A   1      34.175  25.692  23.879  1.00  0.00     0.049 A 
ATOM     17  C   UNL A   1      34.865  23.384  23.358  1.00  0.00     0.049 A 
ATOM     18  C   UNL A   1      35.151  24.770  23.502  1.00  0.00     0.025 A 
ATOM     19  Cl  UNL A   1      36.188  22.450  22.736  1.00  0.00    -0.084 Cl
BRANCH  11  20
ATOM     20  C   UNL A   1      29.388  26.030  24.664  1.00  0.00     0.430 C 
ATOM     21  F   UNL A   1      29.298  27.319  24.246  1.00  0.00    -0.167 F 
ATOM     22  F   UNL A   1      29.137  25.260  23.577  1.00  0.00    -0.167 F 
ATOM     23  F   UNL A   1      28.389  25.826  25.547  1.00  0.00    -0.167 F 
ENDBRANCH  11  20
BRANCH  15  24
ATOM     24  C   UNL A   1      33.288  21.326  23.484  1.00  0.00    -0.016 A 
ATOM     25  C   UNL A   1      34.109  20.134  24.570  1.00  0.00     0.009 A 
ATOM     26  C   UNL A   1      32.217  20.661  22.180  1.00  0.00     0.009 A 
ATOM     27  C   UNL A   1      33.975  18.354  24.328  1.00  0.00     0.001 A 
ATOM     28  C   UNL A   1      32.068  18.837  21.918  1.00  0.00     0.001 A 
ATOM     29  C   UNL A   1      32.948  17.694  23.006  1.00  0.00     0.000 A 
ENDBRANCH  15  24
ENDBRANCH   7   9
ENDBRANCH   6   7
ENDBRANCH   5   6
ENDBRANCH   4   5
ENDBRANCH   3   4
ENDBRANCH   2   3
ENDBRANCH   1   2
BRANCH   1  30
ATOM     30  O   UNL A   1      39.089  21.629  25.850  1.00  0.00    -0.376 OA
BRANCH  30  31
ATOM     31  C   UNL A   1      40.167  20.645  26.321  1.00  0.00     0.202 C 
BRANCH  31  32
ATOM     32  C   UNL A   1      41.746  20.588  26.074  1.00  0.00     0.261 C 
BRANCH  32  33
ATOM     33  O   UNL A   1      42.596  21.660  26.583  1.00  0.00    -0.460 OA
BRANCH  33  34
ATOM     34  C   UNL A   1      42.709  22.776  25.818  1.00  0.00     0.338 C 
ATOM     35  O   UNL A   1      43.012  22.796  24.616  1.00  0.00    -0.246 OA
BRANCH  34  36
ATOM     36  C   UNL A   1      42.257  24.014  26.508  1.00  0.00     0.060 A 
ATOM     37  C   UNL A   1      42.999  25.200  26.381  1.00  0.00     0.016 A 
ATOM     38  C   UNL A   1      41.239  23.968  27.461  1.00  0.00     0.016 A 
ATOM     39  C   UNL A   1      42.748  26.318  27.185  1.00  0.00     0.010 A 
ATOM     40  C   UNL A   1      40.995  25.087  28.284  1.00  0.00     0.010 A 
ATOM     41  C   UNL A   1      41.769  26.260  28.177  1.00  0.00    -0.014 A 
BRANCH  41  42
ATOM     42  C   UNL A   1      41.700  27.324  29.223  1.00  0.00     0.031 A 
ATOM     43  C   UNL A   1      42.689  27.283  30.364  1.00  0.00     0.074 A 
ATOM     44  C   UNL A   1      40.808  28.333  29.168  1.00  0.00     0.049 A 
ATOM     45  N   UNL A   1      42.739  28.010  31.452  1.00  0.00    -0.248 NA
ATOM     46  C   UNL A   1      43.770  26.290  30.256  1.00  0.00     0.031 C 
ATOM     47  C   UNL A   1      39.863  28.577  28.080  1.00  0.00     0.029 A 
ATOM     48  N   UNL A   1      40.548  29.343  30.069  1.00  0.00    -0.354 N 
ATOM     49  C   UNL A   1      43.836  27.545  32.170  1.00  0.00     0.074 A 
ATOM     50  C   UNL A   1      44.418  26.468  31.398  1.00  0.00     0.031 C 
ATOM     51  C   UNL A   1      39.106  29.645  28.391  1.00  0.00     0.029 A 
ATOM     52  C   UNL A   1      39.478  30.135  29.719  1.00  0.00     0.049 A 
ATOM     53  H   UNL A   1      41.077  29.484  30.887  1.00  0.00     0.167 HD
ATOM     54  C   UNL A   1      44.315  27.969  33.365  1.00  0.00     0.031 A 
ATOM     55  C   UNL A   1      38.845  31.113  30.403  1.00  0.00     0.031 A 
ATOM     56  C   UNL A   1      43.736  29.035  34.142  1.00  0.00     0.049 A 
ATOM     57  C   UNL A   1      39.325  31.492  31.786  1.00  0.00     0.074 A 
ATOM     58  C   UNL A   1      44.151  29.525  35.371  1.00  0.00     0.029 A 
ATOM     59  N   UNL A   1      42.623  29.773  33.776  1.00  0.00    -0.354 N 
ATOM     60  N   UNL A   1      40.349  31.029  32.464  1.00  0.00    -0.248 NA
ATOM     61  C   UNL A   1      38.561  32.530  32.496  1.00  0.00     0.031 C 
ATOM     62  C   UNL A   1      43.248  30.512  35.776  1.00  0.00     0.029 A 
ATOM     63  C   UNL A   1      42.316  30.693  34.766  1.00  0.00     0.049 A 
ATOM     64  H   UNL A   1      42.123  29.661  32.936  1.00  0.00     0.167 HD
ATOM     65  C   UNL A   1      40.369  31.741  33.662  1.00  0.00     0.074 A 
ATOM     66  C   UNL A   1      39.268  32.680  33.608  1.00  0.00     0.031 C 
ATOM     67  C   UNL A   1      41.222  31.629  34.711  1.00  0.00     0.031 A 
BRANCH  54  68
ATOM     68  C   UNL A   1      45.505  27.242  33.941  1.00  0.00    -0.014 A 
ATOM     69  C   UNL A   1      46.814  27.733  33.783  1.00  0.00     0.010 A 
ATOM     70  C   UNL A   1      45.300  26.078  34.705  1.00  0.00     0.010 A 
ATOM     71  C   UNL A   1      47.896  27.056  34.351  1.00  0.00     0.020 A 
ATOM     72  C   UNL A   1      46.376  25.415  35.302  1.00  0.00     0.020 A 
ATOM     73  C   UNL A   1      47.670  25.902  35.110  1.00  0.00     0.054 A 
BRANCH  73  74
ATOM     74  S   UNL A   1      49.090  25.068  35.870  1.00  0.00     0.124 S 
ATOM     75  O   UNL A   1      49.468  26.013  36.920  1.00  0.00    -0.237 OA
ATOM     76  O   UNL A   1      48.511  23.812  36.336  1.00  0.00    -0.237 OA
ATOM     77  O   UNL A   1      50.048  24.942  34.774  1.00  0.00    -0.744 OA
ENDBRANCH  73  74
ENDBRANCH  54  68
BRANCH  55  78
ATOM     78  C   UNL A   1      37.638  31.781  29.827  1.00  0.00    -0.014 A 
ATOM     79  C   UNL A   1      37.610  33.172  29.618  1.00  0.00     0.010 A 
ATOM     80  C   UNL A   1      36.487  31.029  29.528  1.00  0.00     0.010 A 
ATOM     81  C   UNL A   1      36.449  33.800  29.151  1.00  0.00     0.020 A 
ATOM     82  C   UNL A   1      35.336  31.647  29.026  1.00  0.00     0.020 A 
ATOM     83  C   UNL A   1      35.319  33.032  28.856  1.00  0.00     0.054 A 
BRANCH  83  84
ATOM     84  S   UNL A   1      33.836  33.861  28.218  1.00  0.00     0.124 S 
ATOM     85  O   UNL A   1      33.274  34.452  29.429  1.00  0.00    -0.237 OA
ATOM     86  O   UNL A   1      34.393  34.806  27.254  1.00  0.00    -0.237 OA
ATOM     87  O   UNL A   1      33.057  32.772  27.635  1.00  0.00    -0.744 OA
ENDBRANCH  83  84
ENDBRANCH  55  78
BRANCH  67  88
ATOM     88  C   UNL A   1      41.037  32.574  35.875  1.00  0.00    -0.014 A 
ATOM     89  C   UNL A   1      40.099  32.319  36.891  1.00  0.00     0.010 A 
ATOM     90  C   UNL A   1      41.853  33.717  35.976  1.00  0.00     0.010 A 
ATOM     91  C   UNL A   1      39.951  33.209  37.960  1.00  0.00     0.020 A 
ATOM     92  C   UNL A   1      41.732  34.591  37.061  1.00  0.00     0.020 A 
ATOM     93  C   UNL A   1      40.768  34.341  38.038  1.00  0.00     0.054 A 
BRANCH  93  94
ATOM     94  S   UNL A   1      40.574  35.464  39.450  1.00  0.00     0.124 S 
ATOM     95  O   UNL A   1      41.936  35.956  39.637  1.00  0.00    -0.237 OA
ATOM     96  O   UNL A   1      39.614  36.445  38.949  1.00  0.00    -0.237 OA
ATOM     97  O   UNL A   1      40.073  34.599  40.516  1.00  0.00    -0.744 OA
ENDBRANCH  93  94
ENDBRANCH  67  88
ENDBRANCH  41  42
ENDBRANCH  34  36
ENDBRANCH  33  34
ENDBRANCH  32  33
ENDBRANCH  31  32
ENDBRANCH  30  31
ENDBRANCH   1  30
TORSDOF 22
ENDMDL
MODEL 3
REMARK VINA RESULT:     -10.4      2.286      8.467
REMARK SMILES O=C(OCCOCCOCCOC(=O)c1ccc(-c2c3nc(c(-c4ccc(S(=O)(=O)[O-])cc4)c4ccc([nH]4)c(-c4ccc(S(=O)(=O)[O-])cc4)c4nc(c(-c5ccc(S(=O)(=O)[O-])cc5)c5ccc2[nH]5)C=C4)C=C3)cc1)C1=Cc2c(ccc(Cl)c2-c2ccccc2)O[C@H]1C(F)(F)F
REMARK SMILES IDX 8 1 7 2 6 3 5 4 4 5 3 6 2 7 1 8 75 9 76 10 91 11 77 12 90 13
REMARK SMILES IDX 78 14 83 15 79 16 81 17 80 18 82 19 92 20 93 21 94 22 95 23
REMARK SMILES IDX 84 24 85 25 89 26 86 27 88 28 87 29 9 30 10 31 11 32 12 33
REMARK SMILES IDX 13 34 14 35 15 36 16 37 74 38 17 39 73 40 18 41 19 42 20 43
REMARK SMILES IDX 67 44 21 45 72 46 66 47 68 48 22 49 71 50 65 51 64 52 23 54
REMARK SMILES IDX 53 55 34 56 52 57 35 58 38 59 51 60 69 61 36 62 37 63 50 65
REMARK SMILES IDX 70 66 39 67 24 68 25 69 33 70 26 71 32 72 27 73 28 74 29 75
REMARK SMILES IDX 30 76 31 77 54 78 55 79 63 80 56 81 62 82 57 83 58 84 59 85
REMARK SMILES IDX 60 86 61 87 40 88 41 89 49 90 42 91 48 92 43 93 44 94 45 95
REMARK SMILES IDX 46 96 47 97
REMARK H PARENT 68 53 38 64
REMARK Flexibility Score: inf
ROOT
ATOM      1  C   UNL A   1      36.458  23.517  26.179  1.00  0.00     0.188 C 
ENDROOT
BRANCH   1   2
ATOM      2  C   UNL A   1      34.978  23.070  26.837  1.00  0.00     0.188 C 
BRANCH   2   3
ATOM      3  O   UNL A   1      33.792  23.834  26.673  1.00  0.00    -0.376 OA
BRANCH   3   4
ATOM      4  C   UNL A   1      32.641  23.473  27.402  1.00  0.00     0.202 C 
BRANCH   4   5
ATOM      5  C   UNL A   1      31.597  22.550  26.753  1.00  0.00     0.261 C 
BRANCH   5   6
ATOM      6  O   UNL A   1      30.274  23.108  26.807  1.00  0.00    -0.460 OA
BRANCH   6   7
ATOM      7  C   UNL A   1      29.914  24.297  26.286  1.00  0.00     0.338 C 
ATOM      8  O   UNL A   1      29.200  25.058  26.943  1.00  0.00    -0.246 OA
BRANCH   7   9
ATOM      9  C   UNL A   1      30.350  24.713  24.938  1.00  0.00     0.087 C 
ATOM     10  C   UNL A   1      30.918  23.961  23.978  1.00  0.00     0.028 C 
ATOM     11  C   UNL A   1      30.209  26.170  24.620  1.00  0.00     0.316 C 
ATOM     12  C   UNL A   1      32.294  24.356  23.700  1.00  0.00     0.027 A 
ATOM     13  O   UNL A   1      31.380  26.649  23.866  1.00  0.00    -0.475 OA
ATOM     14  C   UNL A   1      32.451  25.773  23.720  1.00  0.00     0.128 A 
ATOM     15  C   UNL A   1      33.342  23.417  23.430  1.00  0.00     0.011 A 
ATOM     16  C   UNL A   1      33.702  26.318  23.533  1.00  0.00     0.049 A 
ATOM     17  C   UNL A   1      34.596  24.042  23.224  1.00  0.00     0.049 A 
ATOM     18  C   UNL A   1      34.770  25.451  23.301  1.00  0.00     0.025 A 
ATOM     19  Cl  UNL A   1      36.031  23.175  22.777  1.00  0.00    -0.084 Cl
BRANCH  11  20
ATOM     20  C   UNL A   1      28.853  26.340  23.893  1.00  0.00     0.430 C 
ATOM     21  F   UNL A   1      27.813  26.334  24.767  1.00  0.00    -0.167 F 
ATOM     22  F   UNL A   1      28.793  27.526  23.240  1.00  0.00    -0.167 F 
ATOM     23  F   UNL A   1      28.621  25.365  22.991  1.00  0.00    -0.167 F 
ENDBRANCH  11  20
BRANCH  15  24
ATOM     24  C   UNL A   1      33.162  21.882  23.352  1.00  0.00    -0.016 A 
ATOM     25  C   UNL A   1      32.225  21.158  21.984  1.00  0.00     0.009 A 
ATOM     26  C   UNL A   1      33.759  20.752  24.639  1.00  0.00     0.009 A 
ATOM     27  C   UNL A   1      31.793  19.410  21.926  1.00  0.00     0.001 A 
ATOM     28  C   UNL A   1      33.326  18.956  24.596  1.00  0.00     0.001 A 
ATOM     29  C   UNL A   1      32.347  18.296  23.227  1.00  0.00     0.000 A 
ENDBRANCH  15  24
ENDBRANCH   7   9
ENDBRANCH   6   7
ENDBRANCH   5   6
ENDBRANCH   4   5
ENDBRANCH   3   4
ENDBRANCH   2   3
ENDBRANCH   1   2
BRANCH   1  30
ATOM     30  O   UNL A   1      38.258  22.670  26.124  1.00  0.00    -0.376 OA
BRANCH  30  31
ATOM     31  C   UNL A   1      39.694  22.515  26.638  1.00  0.00     0.202 C 
BRANCH  31  32
ATOM     32  C   UNL A   1      40.519  23.300  27.762  1.00  0.00     0.261 C 
BRANCH  32  33
ATOM     33  O   UNL A   1      41.211  24.538  27.416  1.00  0.00    -0.460 OA
BRANCH  33  34
ATOM     34  C   UNL A   1      40.464  25.532  26.869  1.00  0.00     0.338 C 
ATOM     35  O   UNL A   1      39.987  25.527  25.725  1.00  0.00    -0.246 OA
BRANCH  34  36
ATOM     36  C   UNL A   1      40.098  26.598  27.840  1.00  0.00     0.060 A 
ATOM     37  C   UNL A   1      40.688  27.870  27.741  1.00  0.00     0.016 A 
ATOM     38  C   UNL A   1      39.356  26.299  28.983  1.00  0.00     0.016 A 
ATOM     39  C   UNL A   1      40.554  28.826  28.755  1.00  0.00     0.010 A 
ATOM     40  C   UNL A   1      39.234  27.255  30.013  1.00  0.00     0.010 A 
ATOM     41  C   UNL A   1      39.860  28.514  29.924  1.00  0.00    -0.014 A 
BRANCH  41  42
ATOM     42  C   UNL A   1      39.966  29.405  31.118  1.00  0.00     0.031 A 
ATOM     43  C   UNL A   1      41.116  29.200  32.074  1.00  0.00     0.074 A 
ATOM     44  C   UNL A   1      39.091  30.403  31.354  1.00  0.00     0.049 A 
ATOM     45  N   UNL A   1      41.341  29.751  33.240  1.00  0.00    -0.248 NA
ATOM     46  C   UNL A   1      42.154  28.244  31.653  1.00  0.00     0.031 C 
ATOM     47  C   UNL A   1      37.994  30.801  30.474  1.00  0.00     0.029 A 
ATOM     48  N   UNL A   1      38.986  31.260  32.428  1.00  0.00    -0.354 N 
ATOM     49  C   UNL A   1      42.529  29.192  33.702  1.00  0.00     0.074 A 
ATOM     50  C   UNL A   1      42.970  28.251  32.696  1.00  0.00     0.031 C 
ATOM     51  C   UNL A   1      37.309  31.802  31.056  1.00  0.00     0.029 A 
ATOM     52  C   UNL A   1      37.886  32.087  32.370  1.00  0.00     0.049 A 
ATOM     53  H   UNL A   1      39.635  31.279  33.167  1.00  0.00     0.167 HD
ATOM     54  C   UNL A   1      43.190  29.433  34.861  1.00  0.00     0.031 A 
ATOM     55  C   UNL A   1      37.378  32.943  33.284  1.00  0.00     0.031 A 
ATOM     56  C   UNL A   1      42.752  30.362  35.871  1.00  0.00     0.049 A 
ATOM     57  C   UNL A   1      38.070  33.110  34.618  1.00  0.00     0.074 A 
ATOM     58  C   UNL A   1      43.355  30.662  37.082  1.00  0.00     0.029 A 
ATOM     59  N   UNL A   1      41.606  31.138  35.796  1.00  0.00    -0.354 N 
ATOM     60  N   UNL A   1      39.178  32.558  35.054  1.00  0.00    -0.248 NA
ATOM     61  C   UNL A   1      37.437  34.020  35.587  1.00  0.00     0.031 C 
ATOM     62  C   UNL A   1      42.539  31.568  37.766  1.00  0.00     0.029 A 
ATOM     63  C   UNL A   1      41.468  31.892  36.950  1.00  0.00     0.049 A 
ATOM     64  H   UNL A   1      40.983  31.151  35.035  1.00  0.00     0.167 HD
ATOM     65  C   UNL A   1      39.390  33.079  36.329  1.00  0.00     0.074 A 
ATOM     66  C   UNL A   1      38.307  34.005  36.587  1.00  0.00     0.031 C 
ATOM     67  C   UNL A   1      40.392  32.815  37.206  1.00  0.00     0.031 A 
BRANCH  54  68
ATOM     68  C   UNL A   1      44.443  28.638  35.131  1.00  0.00    -0.014 A 
ATOM     69  C   UNL A   1      45.695  29.047  34.637  1.00  0.00     0.010 A 
ATOM     70  C   UNL A   1      44.372  27.491  35.944  1.00  0.00     0.010 A 
ATOM     71  C   UNL A   1      46.845  28.308  34.926  1.00  0.00     0.020 A 
ATOM     72  C   UNL A   1      45.525  26.767  36.262  1.00  0.00     0.020 A 
ATOM     73  C   UNL A   1      46.753  27.173  35.739  1.00  0.00     0.054 A 
BRANCH  73  74
ATOM     74  S   UNL A   1      48.269  26.258  36.131  1.00  0.00     0.124 S 
ATOM     75  O   UNL A   1      49.302  27.139  35.589  1.00  0.00    -0.237 OA
ATOM     76  O   UNL A   1      48.222  26.170  37.587  1.00  0.00    -0.237 OA
ATOM     77  O   UNL A   1      48.103  24.989  35.426  1.00  0.00    -0.744 OA
ENDBRANCH  73  74
ENDBRANCH  54  68
BRANCH  55  78
ATOM     78  C   UNL A   1      36.108  33.680  33.007  1.00  0.00    -0.014 A 
ATOM     79  C   UNL A   1      36.126  35.013  32.556  1.00  0.00     0.010 A 
ATOM     80  C   UNL A   1      34.865  33.063  33.242  1.00  0.00     0.010 A 
ATOM     81  C   UNL A   1      34.933  35.720  32.373  1.00  0.00     0.020 A 
ATOM     82  C   UNL A   1      33.668  33.755  33.027  1.00  0.00     0.020 A 
ATOM     83  C   UNL A   1      33.710  35.085  32.608  1.00  0.00     0.054 A 
BRANCH  83  84
ATOM     84  S   UNL A   1      32.173  36.010  32.332  1.00  0.00     0.124 S 
ATOM     85  O   UNL A   1      32.275  36.355  30.918  1.00  0.00    -0.237 OA
ATOM     86  O   UNL A   1      31.148  35.026  32.670  1.00  0.00    -0.237 OA
ATOM     87  O   UNL A   1      32.277  37.135  33.259  1.00  0.00    -0.744 OA
ENDBRANCH  83  84
ENDBRANCH  55  78
BRANCH  67  88
ATOM     88  C   UNL A   1      40.399  33.569  38.515  1.00  0.00    -0.014 A 
ATOM     89  C   UNL A   1      41.030  34.820  38.643  1.00  0.00     0.010 A 
ATOM     90  C   UNL A   1      39.720  33.035  39.626  1.00  0.00     0.010 A 
ATOM     91  C   UNL A   1      41.019  35.498  39.866  1.00  0.00     0.020 A 
ATOM     92  C   UNL A   1      39.676  33.726  40.841  1.00  0.00     0.020 A 
ATOM     93  C   UNL A   1      40.342  34.947  40.959  1.00  0.00     0.054 A 
BRANCH  93  94
ATOM     94  S   UNL A   1      40.319  35.861  42.526  1.00  0.00     0.124 S 
ATOM     95  O   UNL A   1      39.182  36.759  42.339  1.00  0.00    -0.237 OA
ATOM     96  O   UNL A   1      40.128  34.801  43.512  1.00  0.00    -0.237 OA
ATOM     97  O   UNL A   1      41.625  36.515  42.567  1.00  0.00    -0.744 OA
ENDBRANCH  93  94
ENDBRANCH  67  88
ENDBRANCH  41  42
ENDBRANCH  34  36
ENDBRANCH  33  34
ENDBRANCH  32  33
ENDBRANCH  31  32
ENDBRANCH  30  31
ENDBRANCH   1  30
TORSDOF 22
ENDMDL
