MODEL 1
REMARK VINA RESULT:      -8.7      0.000      0.000
REMARK SMILES O=C(CSc1cc(-c2ccccc2)nc(-c2ccccc2F)n1)OCCOCCOCCOC(=O)c1ccc(-c2c3nc(c(-c4ccc(S(=O)(=O)[O-])cc4)c4ccc([nH]4)c(-c4ccc(S(=O)(=O)[O-])cc4)c4nc(c(-c5ccc(S(=O)(=O)[O-])cc5)c5ccc2[nH]5)C=C4)C=C3)cc1
REMARK SMILES IDX 28 1 27 2 26 3 25 4 24 5 2 6 1 7 3 8 4 9 5 10 6 11 23 12
REMARK SMILES IDX 7 13 15 14 14 15 8 16 9 17 13 18 10 19 12 20 11 21 16 22
REMARK SMILES IDX 17 23 21 24 18 25 20 26 22 27 19 28 29 29 30 30 31 31 32 32
REMARK SMILES IDX 33 33 34 34 35 35 36 36 37 37 95 38 38 39 94 40 39 41 40 42
REMARK SMILES IDX 41 43 88 44 42 45 93 46 87 47 89 48 43 49 92 50 86 51 85 52
REMARK SMILES IDX 44 54 74 55 55 56 73 57 56 58 59 59 72 60 90 61 57 62 58 63
REMARK SMILES IDX 71 65 91 66 60 67 45 68 46 69 54 70 47 71 53 72 48 73 49 74
REMARK SMILES IDX 50 75 51 76 52 77 75 78 76 79 84 80 77 81 83 82 78 83 79 84
REMARK SMILES IDX 80 85 81 86 82 87 61 88 62 89 70 90 63 91 69 92 64 93 65 94
REMARK SMILES IDX 66 95 67 96 68 97
REMARK H PARENT 89 53 59 64
REMARK Flexibility Score: inf
ROOT
ATOM      1  C   UNL A   1      39.915  28.747  27.063  1.00  0.00     0.188 C 
ENDROOT
BRANCH   1   2
ATOM      2  O   UNL A   1      40.727  27.659  26.654  1.00  0.00    -0.376 OA
BRANCH   2   3
ATOM      3  C   UNL A   1      41.405  26.886  27.634  1.00  0.00     0.202 C 
BRANCH   3   4
ATOM      4  C   UNL A   1      40.654  25.703  28.250  1.00  0.00     0.261 C 
BRANCH   4   5
ATOM      5  O   UNL A   1      39.570  25.113  27.489  1.00  0.00    -0.463 OA
BRANCH   5   6
ATOM      6  C   UNL A   1      39.524  23.947  26.815  1.00  0.00     0.316 C 
ATOM      7  O   UNL A   1      40.554  23.284  26.690  1.00  0.00    -0.251 OA
BRANCH   6   8
ATOM      8  C   UNL A   1      38.239  23.474  26.184  1.00  0.00     0.199 C 
BRANCH   8   9
ATOM      9  S   UNL A   1      38.331  21.745  25.644  1.00  0.00    -0.094 SA
BRANCH   9  10
ATOM     10  C   UNL A   1      36.595  21.572  25.294  1.00  0.00     0.101 A 
ATOM     11  C   UNL A   1      36.089  20.339  24.980  1.00  0.00     0.064 A 
ATOM     12  N   UNL A   1      35.834  22.642  25.555  1.00  0.00    -0.222 NA
ATOM     13  C   UNL A   1      34.717  20.227  25.001  1.00  0.00     0.075 A 
ATOM     14  C   UNL A   1      34.502  22.445  25.526  1.00  0.00     0.163 A 
ATOM     15  N   UNL A   1      33.902  21.271  25.258  1.00  0.00    -0.228 NA
BRANCH  13  16
ATOM     16  C   UNL A   1      34.110  18.921  24.754  1.00  0.00     0.000 A 
ATOM     17  C   UNL A   1      34.858  17.903  24.148  1.00  0.00     0.010 A 
ATOM     18  C   UNL A   1      32.834  18.614  25.259  1.00  0.00     0.010 A 
ATOM     19  C   UNL A   1      34.360  16.600  24.082  1.00  0.00     0.001 A 
ATOM     20  C   UNL A   1      32.335  17.311  25.189  1.00  0.00     0.001 A 
ATOM     21  C   UNL A   1      33.105  16.303  24.609  1.00  0.00     0.000 A 
ENDBRANCH  13  16
BRANCH  14  22
ATOM     22  C   UNL A   1      33.677  23.632  25.758  1.00  0.00     0.055 A 
ATOM     23  C   UNL A   1      34.124  24.902  25.335  1.00  0.00     0.015 A 
ATOM     24  C   UNL A   1      32.447  23.576  26.422  1.00  0.00     0.134 A 
ATOM     25  C   UNL A   1      33.365  26.055  25.553  1.00  0.00     0.001 A 
ATOM     26  C   UNL A   1      31.685  24.725  26.650  1.00  0.00     0.040 A 
ATOM     27  F   UNL A   1      31.975  22.414  26.899  1.00  0.00    -0.206 F 
ATOM     28  C   UNL A   1      32.142  25.967  26.210  1.00  0.00     0.003 A 
ENDBRANCH  14  22
ENDBRANCH   9  10
ENDBRANCH   8   9
ENDBRANCH   6   8
ENDBRANCH   5   6
ENDBRANCH   4   5
ENDBRANCH   3   4
ENDBRANCH   2   3
ENDBRANCH   1   2
BRANCH   1  29
ATOM     29  C   UNL A   1      40.001  29.026  28.570  1.00  0.00     0.188 C 
BRANCH  29  30
ATOM     30  O   UNL A   1      39.052  28.357  29.395  1.00  0.00    -0.376 OA
BRANCH  30  31
ATOM     31  C   UNL A   1      37.702  28.824  29.353  1.00  0.00     0.202 C 
BRANCH  31  32
ATOM     32  C   UNL A   1      37.333  30.033  30.230  1.00  0.00     0.261 C 
BRANCH  32  33
ATOM     33  O   UNL A   1      36.564  29.720  31.412  1.00  0.00    -0.460 OA
BRANCH  33  34
ATOM     34  C   UNL A   1      37.297  29.359  32.495  1.00  0.00     0.338 C 
ATOM     35  O   UNL A   1      37.484  28.230  32.916  1.00  0.00    -0.246 OA
BRANCH  34  36
ATOM     36  C   UNL A   1      37.967  30.528  33.092  1.00  0.00     0.060 A 
ATOM     37  C   UNL A   1      39.221  30.362  33.699  1.00  0.00     0.016 A 
ATOM     38  C   UNL A   1      37.266  31.725  33.231  1.00  0.00     0.016 A 
ATOM     39  C   UNL A   1      39.758  31.384  34.489  1.00  0.00     0.010 A 
ATOM     40  C   UNL A   1      37.800  32.740  34.030  1.00  0.00     0.010 A 
ATOM     41  C   UNL A   1      39.027  32.562  34.694  1.00  0.00    -0.014 A 
BRANCH  41  42
ATOM     42  C   UNL A   1      39.431  33.553  35.724  1.00  0.00     0.031 A 
ATOM     43  C   UNL A   1      40.511  34.546  35.392  1.00  0.00     0.074 A 
ATOM     44  C   UNL A   1      38.908  33.522  36.961  1.00  0.00     0.049 A 
ATOM     45  N   UNL A   1      41.154  35.366  36.182  1.00  0.00    -0.248 NA
ATOM     46  C   UNL A   1      40.927  34.611  33.982  1.00  0.00     0.031 C 
ATOM     47  C   UNL A   1      37.827  32.644  37.401  1.00  0.00     0.029 A 
ATOM     48  N   UNL A   1      39.250  34.233  38.086  1.00  0.00    -0.354 N 
ATOM     49  C   UNL A   1      42.072  36.026  35.372  1.00  0.00     0.074 A 
ATOM     50  C   UNL A   1      41.903  35.504  34.032  1.00  0.00     0.031 C 
ATOM     51  C   UNL A   1      37.619  32.838  38.714  1.00  0.00     0.029 A 
ATOM     52  C   UNL A   1      38.582  33.820  39.214  1.00  0.00     0.049 A 
ATOM     53  H   UNL A   1      39.907  34.965  38.085  1.00  0.00     0.167 HD
ATOM     54  C   UNL A   1      42.982  36.970  35.713  1.00  0.00     0.031 A 
ATOM     55  C   UNL A   1      38.757  34.157  40.508  1.00  0.00     0.031 A 
ATOM     56  C   UNL A   1      43.169  37.469  37.050  1.00  0.00     0.049 A 
ATOM     57  C   UNL A   1      39.815  35.159  40.884  1.00  0.00     0.074 A 
ATOM     58  C   UNL A   1      44.053  38.435  37.493  1.00  0.00     0.029 A 
ATOM     59  N   UNL A   1      42.466  37.029  38.162  1.00  0.00    -0.354 N 
ATOM     60  N   UNL A   1      40.668  35.787  40.109  1.00  0.00    -0.248 NA
ATOM     61  C   UNL A   1      39.937  35.499  42.310  1.00  0.00     0.031 C 
ATOM     62  C   UNL A   1      43.924  38.542  38.883  1.00  0.00     0.029 A 
ATOM     63  C   UNL A   1      42.915  37.685  39.296  1.00  0.00     0.049 A 
ATOM     64  H   UNL A   1      41.752  36.351  38.148  1.00  0.00     0.167 HD
ATOM     65  C   UNL A   1      41.406  36.616  40.947  1.00  0.00     0.074 A 
ATOM     66  C   UNL A   1      40.902  36.410  42.290  1.00  0.00     0.031 C 
ATOM     67  C   UNL A   1      42.406  37.476  40.629  1.00  0.00     0.031 A 
BRANCH  54  68
ATOM     68  C   UNL A   1      43.890  37.472  34.623  1.00  0.00    -0.014 A 
ATOM     69  C   UNL A   1      43.628  38.678  33.946  1.00  0.00     0.010 A 
ATOM     70  C   UNL A   1      45.019  36.715  34.260  1.00  0.00     0.010 A 
ATOM     71  C   UNL A   1      44.442  39.082  32.884  1.00  0.00     0.020 A 
ATOM     72  C   UNL A   1      45.850  37.129  33.216  1.00  0.00     0.020 A 
ATOM     73  C   UNL A   1      45.539  38.296  32.517  1.00  0.00     0.054 A 
BRANCH  73  74
ATOM     74  S   UNL A   1      46.562  38.824  31.115  1.00  0.00     0.124 S 
ATOM     75  O   UNL A   1      47.802  38.090  31.358  1.00  0.00    -0.237 OA
ATOM     76  O   UNL A   1      45.785  38.379  29.961  1.00  0.00    -0.237 OA
ATOM     77  O   UNL A   1      46.654  40.272  31.279  1.00  0.00    -0.744 OA
ENDBRANCH  73  74
ENDBRANCH  54  68
BRANCH  55  78
ATOM     78  C   UNL A   1      37.915  33.504  41.545  1.00  0.00    -0.014 A 
ATOM     79  C   UNL A   1      38.261  32.241  42.055  1.00  0.00     0.010 A 
ATOM     80  C   UNL A   1      36.795  34.175  42.071  1.00  0.00     0.010 A 
ATOM     81  C   UNL A   1      37.511  31.667  43.085  1.00  0.00     0.020 A 
ATOM     82  C   UNL A   1      36.056  33.613  43.115  1.00  0.00     0.020 A 
ATOM     83  C   UNL A   1      36.420  32.362  43.617  1.00  0.00     0.054 A 
BRANCH  83  84
ATOM     84  S   UNL A   1      35.531  31.649  45.029  1.00  0.00     0.124 S 
ATOM     85  O   UNL A   1      34.777  32.796  45.526  1.00  0.00    -0.237 OA
ATOM     86  O   UNL A   1      34.739  30.593  44.402  1.00  0.00    -0.237 OA
ATOM     87  O   UNL A   1      36.603  31.175  45.902  1.00  0.00    -0.744 OA
ENDBRANCH  83  84
ENDBRANCH  55  78
BRANCH  67  88
ATOM     88  C   UNL A   1      43.004  38.302  41.736  1.00  0.00    -0.014 A 
ATOM     89  C   UNL A   1      44.005  37.787  42.578  1.00  0.00     0.010 A 
ATOM     90  C   UNL A   1      42.622  39.651  41.872  1.00  0.00     0.010 A 
ATOM     91  C   UNL A   1      44.604  38.603  43.543  1.00  0.00     0.020 A 
ATOM     92  C   UNL A   1      43.235  40.475  42.820  1.00  0.00     0.020 A 
ATOM     93  C   UNL A   1      44.218  39.943  43.656  1.00  0.00     0.054 A 
BRANCH  93  94
ATOM     94  S   UNL A   1      45.062  41.001  44.864  1.00  0.00     0.124 S 
ATOM     95  O   UNL A   1      44.318  42.252  44.746  1.00  0.00    -0.237 OA
ATOM     96  O   UNL A   1      44.872  40.273  46.118  1.00  0.00    -0.237 OA
ATOM     97  O   UNL A   1      46.441  41.047  44.382  1.00  0.00    -0.744 OA
ENDBRANCH  93  94
ENDBRANCH  67  88
ENDBRANCH  41  42
ENDBRANCH  34  36
ENDBRANCH  33  34
ENDBRANCH  32  33
ENDBRANCH  31  32
ENDBRANCH  30  31
ENDBRANCH  29  30
ENDBRANCH   1  29
TORSDOF 24
ENDMDL
MODEL 2
REMARK VINA RESULT:      -8.5      2.659      8.313
REMARK SMILES O=C(CSc1cc(-c2ccccc2)nc(-c2ccccc2F)n1)OCCOCCOCCOC(=O)c1ccc(-c2c3nc(c(-c4ccc(S(=O)(=O)[O-])cc4)c4ccc([nH]4)c(-c4ccc(S(=O)(=O)[O-])cc4)c4nc(c(-c5ccc(S(=O)(=O)[O-])cc5)c5ccc2[nH]5)C=C4)C=C3)cc1
REMARK SMILES IDX 28 1 27 2 26 3 25 4 24 5 2 6 1 7 3 8 4 9 5 10 6 11 23 12
REMARK SMILES IDX 7 13 15 14 14 15 8 16 9 17 13 18 10 19 12 20 11 21 16 22
REMARK SMILES IDX 17 23 21 24 18 25 20 26 22 27 19 28 29 29 30 30 31 31 32 32
REMARK SMILES IDX 33 33 34 34 35 35 36 36 37 37 95 38 38 39 94 40 39 41 40 42
REMARK SMILES IDX 41 43 88 44 42 45 93 46 87 47 89 48 43 49 92 50 86 51 85 52
REMARK SMILES IDX 44 54 74 55 55 56 73 57 56 58 59 59 72 60 90 61 57 62 58 63
REMARK SMILES IDX 71 65 91 66 60 67 45 68 46 69 54 70 47 71 53 72 48 73 49 74
REMARK SMILES IDX 50 75 51 76 52 77 75 78 76 79 84 80 77 81 83 82 78 83 79 84
REMARK SMILES IDX 80 85 81 86 82 87 61 88 62 89 70 90 63 91 69 92 64 93 65 94
REMARK SMILES IDX 66 95 67 96 68 97
REMARK H PARENT 89 53 59 64
REMARK Flexibility Score: inf
ROOT
ATOM      1  C   UNL A   1      39.895  28.683  27.075  1.00  0.00     0.188 C 
ENDROOT
BRANCH   1   2
ATOM      2  O   UNL A   1      40.883  27.786  26.597  1.00  0.00    -0.376 OA
BRANCH   2   3
ATOM      3  C   UNL A   1      41.642  27.022  27.523  1.00  0.00     0.202 C 
BRANCH   3   4
ATOM      4  C   UNL A   1      41.066  25.678  27.975  1.00  0.00     0.261 C 
BRANCH   4   5
ATOM      5  O   UNL A   1      40.069  25.046  27.133  1.00  0.00    -0.463 OA
BRANCH   5   6
ATOM      6  C   UNL A   1      39.718  23.749  27.036  1.00  0.00     0.316 C 
ATOM      7  O   UNL A   1      40.482  22.886  27.471  1.00  0.00    -0.251 OA
BRANCH   6   8
ATOM      8  C   UNL A   1      38.428  23.348  26.367  1.00  0.00     0.199 C 
BRANCH   8   9
ATOM      9  S   UNL A   1      38.497  21.669  25.684  1.00  0.00    -0.094 SA
BRANCH   9  10
ATOM     10  C   UNL A   1      36.763  21.559  25.301  1.00  0.00     0.101 A 
ATOM     11  C   UNL A   1      36.215  20.341  24.998  1.00  0.00     0.064 A 
ATOM     12  N   UNL A   1      36.040  22.663  25.526  1.00  0.00    -0.222 NA
ATOM     13  C   UNL A   1      34.839  20.284  24.993  1.00  0.00     0.075 A 
ATOM     14  C   UNL A   1      34.702  22.518  25.473  1.00  0.00     0.163 A 
ATOM     15  N   UNL A   1      34.061  21.364  25.213  1.00  0.00    -0.228 NA
BRANCH  13  16
ATOM     16  C   UNL A   1      34.185  18.999  24.756  1.00  0.00     0.000 A 
ATOM     17  C   UNL A   1      34.902  17.942  24.178  1.00  0.00     0.010 A 
ATOM     18  C   UNL A   1      32.891  18.749  25.246  1.00  0.00     0.010 A 
ATOM     19  C   UNL A   1      34.355  16.659  24.125  1.00  0.00     0.001 A 
ATOM     20  C   UNL A   1      32.342  17.466  25.188  1.00  0.00     0.001 A 
ATOM     21  C   UNL A   1      33.081  16.420  24.637  1.00  0.00     0.000 A 
ENDBRANCH  13  16
BRANCH  14  22
ATOM     22  C   UNL A   1      33.921  23.741  25.667  1.00  0.00     0.055 A 
ATOM     23  C   UNL A   1      34.388  24.971  25.155  1.00  0.00     0.015 A 
ATOM     24  C   UNL A   1      32.716  23.760  26.376  1.00  0.00     0.134 A 
ATOM     25  C   UNL A   1      33.671  26.158  25.334  1.00  0.00     0.001 A 
ATOM     26  C   UNL A   1      31.996  24.943  26.565  1.00  0.00     0.040 A 
ATOM     27  F   UNL A   1      32.228  22.642  26.936  1.00  0.00    -0.206 F 
ATOM     28  C   UNL A   1      32.471  26.144  26.039  1.00  0.00     0.003 A 
ENDBRANCH  14  22
ENDBRANCH   9  10
ENDBRANCH   8   9
ENDBRANCH   6   8
ENDBRANCH   5   6
ENDBRANCH   4   5
ENDBRANCH   3   4
ENDBRANCH   2   3
ENDBRANCH   1   2
BRANCH   1  29
ATOM     29  C   UNL A   1      39.916  28.839  28.602  1.00  0.00     0.188 C 
BRANCH  29  30
ATOM     30  O   UNL A   1      38.878  28.182  29.322  1.00  0.00    -0.376 OA
BRANCH  30  31
ATOM     31  C   UNL A   1      37.631  28.870  29.448  1.00  0.00     0.202 C 
BRANCH  31  32
ATOM     32  C   UNL A   1      37.534  29.996  30.493  1.00  0.00     0.261 C 
BRANCH  32  33
ATOM     33  O   UNL A   1      36.814  29.653  31.696  1.00  0.00    -0.460 OA
BRANCH  33  34
ATOM     34  C   UNL A   1      37.551  29.024  32.647  1.00  0.00     0.338 C 
ATOM     35  O   UNL A   1      37.681  27.822  32.804  1.00  0.00    -0.246 OA
BRANCH  34  36
ATOM     36  C   UNL A   1      38.304  29.996  33.460  1.00  0.00     0.060 A 
ATOM     37  C   UNL A   1      37.813  31.304  33.590  1.00  0.00     0.016 A 
ATOM     38  C   UNL A   1      39.583  29.671  33.910  1.00  0.00     0.016 A 
ATOM     39  C   UNL A   1      38.624  32.305  34.135  1.00  0.00     0.010 A 
ATOM     40  C   UNL A   1      40.394  30.676  34.443  1.00  0.00     0.010 A 
ATOM     41  C   UNL A   1      39.936  32.004  34.523  1.00  0.00    -0.014 A 
BRANCH  41  42
ATOM     42  C   UNL A   1      40.909  33.076  34.856  1.00  0.00     0.031 A 
ATOM     43  C   UNL A   1      40.864  33.698  36.224  1.00  0.00     0.074 A 
ATOM     44  C   UNL A   1      41.766  33.547  33.934  1.00  0.00     0.049 A 
ATOM     45  N   UNL A   1      41.475  34.765  36.670  1.00  0.00    -0.248 NA
ATOM     46  C   UNL A   1      40.005  33.033  37.215  1.00  0.00     0.031 C 
ATOM     47  C   UNL A   1      41.943  33.006  32.589  1.00  0.00     0.029 A 
ATOM     48  N   UNL A   1      42.623  34.619  33.987  1.00  0.00    -0.354 N 
ATOM     49  C   UNL A   1      41.054  34.918  37.987  1.00  0.00     0.074 A 
ATOM     50  C   UNL A   1      40.131  33.836  38.261  1.00  0.00     0.031 C 
ATOM     51  C   UNL A   1      42.825  33.774  31.927  1.00  0.00     0.029 A 
ATOM     52  C   UNL A   1      43.238  34.883  32.787  1.00  0.00     0.049 A 
ATOM     53  H   UNL A   1      42.782  35.145  34.803  1.00  0.00     0.167 HD
ATOM     54  C   UNL A   1      41.392  35.878  38.881  1.00  0.00     0.031 A 
ATOM     55  C   UNL A   1      44.007  35.924  32.407  1.00  0.00     0.031 A 
ATOM     56  C   UNL A   1      42.287  36.968  38.599  1.00  0.00     0.049 A 
ATOM     57  C   UNL A   1      44.322  37.019  33.390  1.00  0.00     0.074 A 
ATOM     58  C   UNL A   1      42.703  37.981  39.443  1.00  0.00     0.029 A 
ATOM     59  N   UNL A   1      42.894  37.194  37.373  1.00  0.00    -0.354 N 
ATOM     60  N   UNL A   1      43.930  37.146  34.636  1.00  0.00    -0.248 NA
ATOM     61  C   UNL A   1      45.185  38.113  32.918  1.00  0.00     0.031 C 
ATOM     62  C   UNL A   1      43.520  38.851  38.712  1.00  0.00     0.029 A 
ATOM     63  C   UNL A   1      43.660  38.346  37.429  1.00  0.00     0.049 A 
ATOM     64  H   UNL A   1      42.795  36.621  36.578  1.00  0.00     0.167 HD
ATOM     65  C   UNL A   1      44.520  38.316  35.104  1.00  0.00     0.074 A 
ATOM     66  C   UNL A   1      45.296  38.861  34.008  1.00  0.00     0.031 C 
ATOM     67  C   UNL A   1      44.432  38.881  36.334  1.00  0.00     0.031 A 
BRANCH  54  68
ATOM     68  C   UNL A   1      40.729  35.819  40.231  1.00  0.00    -0.014 A 
ATOM     69  C   UNL A   1      41.317  35.129  41.308  1.00  0.00     0.010 A 
ATOM     70  C   UNL A   1      39.488  36.454  40.421  1.00  0.00     0.010 A 
ATOM     71  C   UNL A   1      40.644  35.022  42.528  1.00  0.00     0.020 A 
ATOM     72  C   UNL A   1      38.825  36.371  41.647  1.00  0.00     0.020 A 
ATOM     73  C   UNL A   1      39.396  35.632  42.685  1.00  0.00     0.054 A 
BRANCH  73  74
ATOM     74  S   UNL A   1      38.527  35.453  44.267  1.00  0.00     0.124 S 
ATOM     75  O   UNL A   1      39.162  34.260  44.822  1.00  0.00    -0.237 OA
ATOM     76  O   UNL A   1      38.837  36.706  44.951  1.00  0.00    -0.237 OA
ATOM     77  O   UNL A   1      37.128  35.290  43.877  1.00  0.00    -0.744 OA
ENDBRANCH  73  74
ENDBRANCH  54  68
BRANCH  55  78
ATOM     78  C   UNL A   1      44.503  35.983  31.006  1.00  0.00    -0.014 A 
ATOM     79  C   UNL A   1      43.769  36.657  30.016  1.00  0.00     0.010 A 
ATOM     80  C   UNL A   1      45.747  35.416  30.674  1.00  0.00     0.010 A 
ATOM     81  C   UNL A   1      44.277  36.776  28.719  1.00  0.00     0.020 A 
ATOM     82  C   UNL A   1      46.268  35.553  29.384  1.00  0.00     0.020 A 
ATOM     83  C   UNL A   1      45.530  36.234  28.415  1.00  0.00     0.054 A 
BRANCH  83  84
ATOM     84  S   UNL A   1      46.221  36.500  26.758  1.00  0.00     0.124 S 
ATOM     85  O   UNL A   1      45.442  35.568  25.950  1.00  0.00    -0.237 OA
ATOM     86  O   UNL A   1      45.951  37.918  26.529  1.00  0.00    -0.237 OA
ATOM     87  O   UNL A   1      47.634  36.163  26.920  1.00  0.00    -0.744 OA
ENDBRANCH  83  84
ENDBRANCH  55  78
BRANCH  67  88
ATOM     88  C   UNL A   1      45.226  40.134  36.593  1.00  0.00    -0.014 A 
ATOM     89  C   UNL A   1      46.564  40.080  37.018  1.00  0.00     0.010 A 
ATOM     90  C   UNL A   1      44.645  41.387  36.313  1.00  0.00     0.010 A 
ATOM     91  C   UNL A   1      47.305  41.257  37.170  1.00  0.00     0.020 A 
ATOM     92  C   UNL A   1      45.389  42.562  36.442  1.00  0.00     0.020 A 
ATOM     93  C   UNL A   1      46.713  42.491  36.877  1.00  0.00     0.054 A 
BRANCH  93  94
ATOM     94  S   UNL A   1      47.716  43.997  37.010  1.00  0.00     0.124 S 
ATOM     95  O   UNL A   1      48.388  43.804  38.292  1.00  0.00    -0.237 OA
ATOM     96  O   UNL A   1      48.576  43.917  35.831  1.00  0.00    -0.237 OA
ATOM     97  O   UNL A   1      46.729  45.075  36.980  1.00  0.00    -0.744 OA
ENDBRANCH  93  94
ENDBRANCH  67  88
ENDBRANCH  41  42
ENDBRANCH  34  36
ENDBRANCH  33  34
ENDBRANCH  32  33
ENDBRANCH  31  32
ENDBRANCH  30  31
ENDBRANCH  29  30
ENDBRANCH   1  29
TORSDOF 24
ENDMDL
MODEL 3
REMARK VINA RESULT:      -8.5      5.944     10.958
REMARK SMILES O=C(CSc1cc(-c2ccccc2)nc(-c2ccccc2F)n1)OCCOCCOCCOC(=O)c1ccc(-c2c3nc(c(-c4ccc(S(=O)(=O)[O-])cc4)c4ccc([nH]4)c(-c4ccc(S(=O)(=O)[O-])cc4)c4nc(c(-c5ccc(S(=O)(=O)[O-])cc5)c5ccc2[nH]5)C=C4)C=C3)cc1
REMARK SMILES IDX 28 1 27 2 26 3 25 4 24 5 2 6 1 7 3 8 4 9 5 10 6 11 23 12
REMARK SMILES IDX 7 13 15 14 14 15 8 16 9 17 13 18 10 19 12 20 11 21 16 22
REMARK SMILES IDX 17 23 21 24 18 25 20 26 22 27 19 28 29 29 30 30 31 31 32 32
REMARK SMILES IDX 33 33 34 34 35 35 36 36 37 37 95 38 38 39 94 40 39 41 40 42
REMARK SMILES IDX 41 43 88 44 42 45 93 46 87 47 89 48 43 49 92 50 86 51 85 52
REMARK SMILES IDX 44 54 74 55 55 56 73 57 56 58 59 59 72 60 90 61 57 62 58 63
REMARK SMILES IDX 71 65 91 66 60 67 45 68 46 69 54 70 47 71 53 72 48 73 49 74
REMARK SMILES IDX 50 75 51 76 52 77 75 78 76 79 84 80 77 81 83 82 78 83 79 84
REMARK SMILES IDX 80 85 81 86 82 87 61 88 62 89 70 90 63 91 69 92 64 93 65 94
REMARK SMILES IDX 66 95 67 96 68 97
REMARK H PARENT 89 53 59 64
REMARK Flexibility Score: inf
ROOT
ATOM      1  C   UNL A   1      38.584  28.935  28.555  1.00  0.00     0.188 C 
ENDROOT
BRANCH   1   2
ATOM      2  O   UNL A   1      39.069  28.170  29.646  1.00  0.00    -0.376 OA
BRANCH   2   3
ATOM      3  C   UNL A   1      40.013  27.136  29.409  1.00  0.00     0.202 C 
BRANCH   3   4
ATOM      4  C   UNL A   1      40.231  26.692  27.960  1.00  0.00     0.261 C 
BRANCH   4   5
ATOM      5  O   UNL A   1      39.222  25.852  27.346  1.00  0.00    -0.463 OA
BRANCH   5   6
ATOM      6  C   UNL A   1      39.329  24.611  26.831  1.00  0.00     0.316 C 
ATOM      7  O   UNL A   1      40.355  23.961  27.038  1.00  0.00    -0.251 OA
BRANCH   6   8
ATOM      8  C   UNL A   1      38.228  24.033  25.979  1.00  0.00     0.199 C 
BRANCH   8   9
ATOM      9  S   UNL A   1      38.223  22.220  25.991  1.00  0.00    -0.094 SA
BRANCH   9  10
ATOM     10  C   UNL A   1      36.557  22.039  25.396  1.00  0.00     0.101 A 
ATOM     11  C   UNL A   1      36.107  20.804  25.013  1.00  0.00     0.064 A 
ATOM     12  N   UNL A   1      35.761  23.105  25.545  1.00  0.00    -0.222 NA
ATOM     13  C   UNL A   1      34.746  20.686  24.837  1.00  0.00     0.075 A 
ATOM     14  C   UNL A   1      34.448  22.902  25.326  1.00  0.00     0.163 A 
ATOM     15  N   UNL A   1      33.898  21.725  24.974  1.00  0.00    -0.228 NA
BRANCH  13  16
ATOM     16  C   UNL A   1      34.188  19.377  24.505  1.00  0.00     0.000 A 
ATOM     17  C   UNL A   1      32.968  19.286  23.821  1.00  0.00     0.010 A 
ATOM     18  C   UNL A   1      34.932  18.202  24.718  1.00  0.00     0.010 A 
ATOM     19  C   UNL A   1      32.521  18.059  23.327  1.00  0.00     0.001 A 
ATOM     20  C   UNL A   1      34.480  16.974  24.228  1.00  0.00     0.001 A 
ATOM     21  C   UNL A   1      33.279  16.907  23.524  1.00  0.00     0.000 A 
ENDBRANCH  13  16
BRANCH  14  22
ATOM     22  C   UNL A   1      33.592  24.085  25.437  1.00  0.00     0.055 A 
ATOM     23  C   UNL A   1      33.797  25.193  24.588  1.00  0.00     0.015 A 
ATOM     24  C   UNL A   1      32.571  24.188  26.388  1.00  0.00     0.134 A 
ATOM     25  C   UNL A   1      33.005  26.341  24.678  1.00  0.00     0.001 A 
ATOM     26  C   UNL A   1      31.779  25.335  26.489  1.00  0.00     0.040 A 
ATOM     27  F   UNL A   1      32.343  23.198  27.265  1.00  0.00    -0.206 F 
ATOM     28  C   UNL A   1      31.993  26.412  25.630  1.00  0.00     0.003 A 
ENDBRANCH  14  22
ENDBRANCH   9  10
ENDBRANCH   8   9
ENDBRANCH   6   8
ENDBRANCH   5   6
ENDBRANCH   4   5
ENDBRANCH   3   4
ENDBRANCH   2   3
ENDBRANCH   1   2
BRANCH   1  29
ATOM     29  C   UNL A   1      37.475  29.917  28.957  1.00  0.00     0.188 C 
BRANCH  29  30
ATOM     30  O   UNL A   1      37.493  30.379  30.303  1.00  0.00    -0.376 OA
BRANCH  30  31
ATOM     31  C   UNL A   1      36.339  31.083  30.770  1.00  0.00     0.202 C 
BRANCH  31  32
ATOM     32  C   UNL A   1      36.099  31.141  32.289  1.00  0.00     0.261 C 
BRANCH  32  33
ATOM     33  O   UNL A   1      37.279  30.960  33.102  1.00  0.00    -0.460 OA
BRANCH  33  34
ATOM     34  C   UNL A   1      37.608  32.023  33.879  1.00  0.00     0.338 C 
ATOM     35  O   UNL A   1      37.008  32.436  34.857  1.00  0.00    -0.246 OA
BRANCH  34  36
ATOM     36  C   UNL A   1      38.894  32.606  33.458  1.00  0.00     0.060 A 
ATOM     37  C   UNL A   1      38.960  33.320  32.252  1.00  0.00     0.016 A 
ATOM     38  C   UNL A   1      40.060  32.270  34.146  1.00  0.00     0.016 A 
ATOM     39  C   UNL A   1      40.202  33.661  31.706  1.00  0.00     0.010 A 
ATOM     40  C   UNL A   1      41.299  32.602  33.592  1.00  0.00     0.010 A 
ATOM     41  C   UNL A   1      41.379  33.263  32.353  1.00  0.00    -0.014 A 
BRANCH  41  42
ATOM     42  C   UNL A   1      42.702  33.369  31.686  1.00  0.00     0.031 A 
ATOM     43  C   UNL A   1      43.431  34.684  31.723  1.00  0.00     0.074 A 
ATOM     44  C   UNL A   1      43.213  32.340  30.987  1.00  0.00     0.049 A 
ATOM     45  N   UNL A   1      44.491  35.063  31.059  1.00  0.00    -0.248 NA
ATOM     46  C   UNL A   1      42.881  35.709  32.624  1.00  0.00     0.031 C 
ATOM     47  C   UNL A   1      42.633  31.002  30.906  1.00  0.00     0.029 A 
ATOM     48  N   UNL A   1      44.323  32.281  30.181  1.00  0.00    -0.354 N 
ATOM     49  C   UNL A   1      44.721  36.382  31.437  1.00  0.00     0.074 A 
ATOM     50  C   UNL A   1      43.685  36.734  32.385  1.00  0.00     0.031 C 
ATOM     51  C   UNL A   1      43.371  30.262  30.062  1.00  0.00     0.029 A 
ATOM     52  C   UNL A   1      44.446  31.088  29.511  1.00  0.00     0.049 A 
ATOM     53  H   UNL A   1      44.968  33.019  30.093  1.00  0.00     0.167 HD
ATOM     54  C   UNL A   1      45.696  37.227  31.023  1.00  0.00     0.031 A 
ATOM     55  C   UNL A   1      45.294  30.717  28.530  1.00  0.00     0.031 A 
ATOM     56  C   UNL A   1      46.708  36.886  30.060  1.00  0.00     0.049 A 
ATOM     57  C   UNL A   1      46.332  31.687  28.032  1.00  0.00     0.074 A 
ATOM     58  C   UNL A   1      47.747  37.668  29.588  1.00  0.00     0.029 A 
ATOM     59  N   UNL A   1      46.800  35.664  29.410  1.00  0.00    -0.354 N 
ATOM     60  N   UNL A   1      46.548  32.926  28.407  1.00  0.00    -0.248 NA
ATOM     61  C   UNL A   1      47.240  31.211  26.978  1.00  0.00     0.031 C 
ATOM     62  C   UNL A   1      48.435  36.937  28.613  1.00  0.00     0.029 A 
ATOM     63  C   UNL A   1      47.862  35.678  28.522  1.00  0.00     0.049 A 
ATOM     64  H   UNL A   1      46.199  34.898  29.559  1.00  0.00     0.167 HD
ATOM     65  C   UNL A   1      47.634  33.366  27.657  1.00  0.00     0.074 A 
ATOM     66  C   UNL A   1      48.030  32.262  26.805  1.00  0.00     0.031 C 
ATOM     67  C   UNL A   1      48.251  34.574  27.679  1.00  0.00     0.031 A 
BRANCH  54  68
ATOM     68  C   UNL A   1      45.663  38.629  31.570  1.00  0.00    -0.014 A 
ATOM     69  C   UNL A   1      46.367  38.979  32.737  1.00  0.00     0.010 A 
ATOM     70  C   UNL A   1      44.901  39.611  30.910  1.00  0.00     0.010 A 
ATOM     71  C   UNL A   1      46.258  40.266  33.268  1.00  0.00     0.020 A 
ATOM     72  C   UNL A   1      44.811  40.907  31.424  1.00  0.00     0.020 A 
ATOM     73  C   UNL A   1      45.468  41.218  32.615  1.00  0.00     0.054 A 
BRANCH  73  74
ATOM     74  S   UNL A   1      45.314  42.873  33.340  1.00  0.00     0.124 S 
ATOM     75  O   UNL A   1      44.561  43.583  32.308  1.00  0.00    -0.237 OA
ATOM     76  O   UNL A   1      44.589  42.617  34.582  1.00  0.00    -0.237 OA
ATOM     77  O   UNL A   1      46.698  43.307  33.510  1.00  0.00    -0.744 OA
ENDBRANCH  73  74
ENDBRANCH  54  68
BRANCH  55  78
ATOM     78  C   UNL A   1      45.165  29.359  27.937  1.00  0.00    -0.014 A 
ATOM     79  C   UNL A   1      44.334  29.141  26.826  1.00  0.00     0.010 A 
ATOM     80  C   UNL A   1      45.924  28.291  28.448  1.00  0.00     0.010 A 
ATOM     81  C   UNL A   1      44.276  27.881  26.225  1.00  0.00     0.020 A 
ATOM     82  C   UNL A   1      45.886  27.035  27.837  1.00  0.00     0.020 A 
ATOM     83  C   UNL A   1      45.062  26.838  26.727  1.00  0.00     0.054 A 
BRANCH  83  84
ATOM     84  S   UNL A   1      45.058  25.243  25.862  1.00  0.00     0.124 S 
ATOM     85  O   UNL A   1      43.631  24.993  25.691  1.00  0.00    -0.237 OA
ATOM     86  O   UNL A   1      45.801  25.546  24.640  1.00  0.00    -0.237 OA
ATOM     87  O   UNL A   1      45.747  24.350  26.792  1.00  0.00    -0.744 OA
ENDBRANCH  83  84
ENDBRANCH  55  78
BRANCH  67  88
ATOM     88  C   UNL A   1      49.453  34.770  26.793  1.00  0.00    -0.014 A 
ATOM     89  C   UNL A   1      49.344  35.393  25.538  1.00  0.00     0.010 A 
ATOM     90  C   UNL A   1      50.727  34.408  27.271  1.00  0.00     0.010 A 
ATOM     91  C   UNL A   1      50.488  35.639  24.771  1.00  0.00     0.020 A 
ATOM     92  C   UNL A   1      51.874  34.672  26.518  1.00  0.00     0.020 A 
ATOM     93  C   UNL A   1      51.746  35.281  25.267  1.00  0.00     0.054 A 
BRANCH  93  94
ATOM     94  S   UNL A   1      53.221  35.677  24.288  1.00  0.00     0.124 S 
ATOM     95  O   UNL A   1      53.320  34.519  23.404  1.00  0.00    -0.237 OA
ATOM     96  O   UNL A   1      52.849  36.933  23.639  1.00  0.00    -0.237 OA
ATOM     97  O   UNL A   1      54.281  35.791  25.287  1.00  0.00    -0.744 OA
ENDBRANCH  93  94
ENDBRANCH  67  88
ENDBRANCH  41  42
ENDBRANCH  34  36
ENDBRANCH  33  34
ENDBRANCH  32  33
ENDBRANCH  31  32
ENDBRANCH  30  31
ENDBRANCH  29  30
ENDBRANCH   1  29
TORSDOF 24
ENDMDL
