MODEL 1
REMARK VINA RESULT:      -9.9      0.000      0.000
REMARK SMILES C[C@H]1C[N@H+]2CCCC[C@@H]2CN1C(=O)[C@H]([NH3+])CC(=O)OCCOCCOCCOC(=O)c1ccc(-c2c3nc(c(-c4ccc(S(=O)(=O)[O-])cc4)c4ccc([nH]4)c(-c4ccc(S(=O)(=O)[O-])cc4)c4nc(c(-c5ccc(S(=O)(=O)[O-])cc5)c5ccc2[nH]5)C=C4)C=C3)cc1
REMARK SMILES IDX 23 1 22 2 21 3 20 4 19 5 17 6 18 7 16 8 14 9 12 10 13 11
REMARK SMILES IDX 11 12 1 13 2 14 3 15 4 16 10 17 5 18 9 19 6 21 8 22 7 23
REMARK SMILES IDX 15 24 24 28 25 29 26 30 27 31 28 32 29 33 30 34 31 35 32 36
REMARK SMILES IDX 90 37 33 38 89 39 34 40 35 41 36 42 83 43 37 44 88 45 82 46
REMARK SMILES IDX 84 47 38 48 87 49 81 50 80 51 39 53 69 54 50 55 68 56 51 57
REMARK SMILES IDX 54 58 67 59 85 60 52 61 53 62 66 64 86 65 55 66 40 67 41 68
REMARK SMILES IDX 49 69 42 70 48 71 43 72 44 73 45 74 46 75 47 76 70 77 71 78
REMARK SMILES IDX 79 79 72 80 78 81 73 82 74 83 75 84 76 85 77 86 56 87 57 88
REMARK SMILES IDX 65 89 58 90 64 91 59 92 60 93 61 94 62 95 63 96
REMARK H PARENT 4 20 15 25 15 26 15 27 84 52 54 63
REMARK Flexibility Score: inf
ROOT
ATOM      1  C   UNL A   1      37.671  22.737  25.704  1.00  0.00     0.188 C 
ENDROOT
BRANCH   1   2
ATOM      2  O   UNL A   1      36.527  22.465  24.899  1.00  0.00    -0.376 OA
BRANCH   2   3
ATOM      3  C   UNL A   1      35.530  21.622  25.477  1.00  0.00     0.202 C 
BRANCH   3   4
ATOM      4  C   UNL A   1      34.438  21.121  24.520  1.00  0.00     0.261 C 
BRANCH   4   5
ATOM      5  O   UNL A   1      33.944  22.138  23.614  1.00  0.00    -0.463 OA
BRANCH   5   6
ATOM      6  C   UNL A   1      32.631  22.033  23.282  1.00  0.00     0.312 C 
ATOM      7  O   UNL A   1      32.193  21.213  22.478  1.00  0.00    -0.252 OA
BRANCH   6   8
ATOM      8  C   UNL A   1      31.690  22.930  24.053  1.00  0.00     0.198 C 
BRANCH   8   9
ATOM      9  C   UNL A   1      30.979  22.481  25.346  1.00  0.00     0.282 C 
BRANCH   9  10
ATOM     10  C   UNL A   1      30.717  23.770  26.205  1.00  0.00     0.282 C 
ATOM     11  O   UNL A   1      30.380  23.649  27.388  1.00  0.00    -0.268 OA
BRANCH  10  12
ATOM     12  N   UNL A   1      30.856  25.045  25.631  1.00  0.00    -0.323 N 
ATOM     13  C   UNL A   1      33.336  25.233  26.130  1.00  0.00     0.037 C 
ATOM     14  C   UNL A   1      31.952  25.916  26.140  1.00  0.00     0.137 C 
ATOM     15  C   UNL A   1      32.156  27.249  25.354  1.00  0.00     0.287 C 
ATOM     16  N   UNL A   1      30.972  27.905  24.779  1.00  0.00    -0.329 N 
ATOM     17  C   UNL A   1      29.720  25.751  25.019  1.00  0.00     0.185 C 
ATOM     18  C   UNL A   1      31.423  28.953  23.837  1.00  0.00     0.262 C 
ATOM     19  C   UNL A   1      30.134  26.909  24.081  1.00  0.00     0.203 C 
ATOM     20  H   UNL A   1      30.413  28.329  25.519  1.00  0.00     0.348 HD
ATOM     21  C   UNL A   1      30.255  29.697  23.195  1.00  0.00     0.062 C 
ATOM     22  C   UNL A   1      28.889  27.625  23.532  1.00  0.00     0.067 C 
ATOM     23  C   UNL A   1      29.271  28.731  22.552  1.00  0.00     0.012 C 
ENDBRANCH  10  12
ENDBRANCH   9  10
BRANCH   9  24
ATOM     24  N   UNL A   1      31.791  21.546  26.147  1.00  0.00    -0.347 N 
ATOM     25  H   UNL A   1      32.112  22.016  26.994  1.00  0.00     0.345 HD
ATOM     26  H   UNL A   1      32.596  21.240  25.601  1.00  0.00     0.345 HD
ATOM     27  H   UNL A   1      31.225  20.737  26.401  1.00  0.00     0.345 HD
ENDBRANCH   9  24
ENDBRANCH   8   9
ENDBRANCH   6   8
ENDBRANCH   5   6
ENDBRANCH   4   5
ENDBRANCH   3   4
ENDBRANCH   2   3
ENDBRANCH   1   2
BRANCH   1  28
ATOM     28  C   UNL A   1      38.668  21.583  25.813  1.00  0.00     0.188 C 
BRANCH  28  29
ATOM     29  O   UNL A   1      39.659  21.741  26.819  1.00  0.00    -0.376 OA
BRANCH  29  30
ATOM     30  C   UNL A   1      40.926  22.276  26.435  1.00  0.00     0.202 C 
BRANCH  30  31
ATOM     31  C   UNL A   1      41.326  23.683  26.932  1.00  0.00     0.261 C 
BRANCH  31  32
ATOM     32  O   UNL A   1      40.337  24.724  26.788  1.00  0.00    -0.460 OA
BRANCH  32  33
ATOM     33  C   UNL A   1      40.773  25.976  26.522  1.00  0.00     0.338 C 
ATOM     34  O   UNL A   1      41.101  26.399  25.426  1.00  0.00    -0.246 OA
BRANCH  33  35
ATOM     35  C   UNL A   1      40.514  26.843  27.705  1.00  0.00     0.060 A 
ATOM     36  C   UNL A   1      41.073  28.130  27.713  1.00  0.00     0.016 A 
ATOM     37  C   UNL A   1      39.670  26.448  28.748  1.00  0.00     0.016 A 
ATOM     38  C   UNL A   1      40.826  29.004  28.775  1.00  0.00     0.010 A 
ATOM     39  C   UNL A   1      39.433  27.319  29.819  1.00  0.00     0.010 A 
ATOM     40  C   UNL A   1      40.038  28.588  29.856  1.00  0.00    -0.014 A 
BRANCH  40  41
ATOM     41  C   UNL A   1      40.037  29.383  31.113  1.00  0.00     0.031 A 
ATOM     42  C   UNL A   1      41.156  29.144  32.097  1.00  0.00     0.074 A 
ATOM     43  C   UNL A   1      39.110  30.323  31.373  1.00  0.00     0.049 A 
ATOM     44  N   UNL A   1      41.371  29.698  33.261  1.00  0.00    -0.248 NA
ATOM     45  C   UNL A   1      42.168  28.149  31.706  1.00  0.00     0.031 C 
ATOM     46  C   UNL A   1      38.009  30.703  30.489  1.00  0.00     0.029 A 
ATOM     47  N   UNL A   1      38.956  31.139  32.469  1.00  0.00    -0.354 N 
ATOM     48  C   UNL A   1      42.541  29.121  33.741  1.00  0.00     0.074 A 
ATOM     49  C   UNL A   1      42.968  28.148  32.760  1.00  0.00     0.031 C 
ATOM     50  C   UNL A   1      37.291  31.677  31.080  1.00  0.00     0.029 A 
ATOM     51  C   UNL A   1      37.861  31.969  32.396  1.00  0.00     0.049 A 
ATOM     52  H   UNL A   1      39.573  31.130  33.236  1.00  0.00     0.167 HD
ATOM     53  C   UNL A   1      43.211  29.381  34.889  1.00  0.00     0.031 A 
ATOM     54  C   UNL A   1      37.367  32.848  33.293  1.00  0.00     0.031 A 
ATOM     55  C   UNL A   1      42.782  30.328  35.880  1.00  0.00     0.049 A 
ATOM     56  C   UNL A   1      38.072  33.043  34.614  1.00  0.00     0.074 A 
ATOM     57  C   UNL A   1      43.391  30.649  37.082  1.00  0.00     0.029 A 
ATOM     58  N   UNL A   1      41.636  31.102  35.793  1.00  0.00    -0.354 N 
ATOM     59  N   UNL A   1      39.184  32.496  35.048  1.00  0.00    -0.248 NA
ATOM     60  C   UNL A   1      37.459  33.984  35.564  1.00  0.00     0.031 C 
ATOM     61  C   UNL A   1      42.583  31.577  37.746  1.00  0.00     0.029 A 
ATOM     62  C   UNL A   1      41.508  31.884  36.928  1.00  0.00     0.049 A 
ATOM     63  H   UNL A   1      41.007  31.097  35.036  1.00  0.00     0.167 HD
ATOM     64  C   UNL A   1      39.419  33.056  36.302  1.00  0.00     0.074 A 
ATOM     65  C   UNL A   1      38.342  33.990  36.553  1.00  0.00     0.031 C 
ATOM     66  C   UNL A   1      40.438  32.819  37.167  1.00  0.00     0.031 A 
BRANCH  53  67
ATOM     67  C   UNL A   1      44.472  28.598  35.142  1.00  0.00    -0.014 A 
ATOM     68  C   UNL A   1      45.737  29.202  35.024  1.00  0.00     0.010 A 
ATOM     69  C   UNL A   1      44.389  27.250  35.532  1.00  0.00     0.010 A 
ATOM     70  C   UNL A   1      46.898  28.460  35.254  1.00  0.00     0.020 A 
ATOM     71  C   UNL A   1      45.546  26.512  35.792  1.00  0.00     0.020 A 
ATOM     72  C   UNL A   1      46.795  27.118  35.635  1.00  0.00     0.054 A 
BRANCH  72  73
ATOM     73  S   UNL A   1      48.319  26.185  35.944  1.00  0.00     0.124 S 
ATOM     74  O   UNL A   1      47.896  25.261  36.993  1.00  0.00    -0.237 OA
ATOM     75  O   UNL A   1      48.590  25.578  34.644  1.00  0.00    -0.237 OA
ATOM     76  O   UNL A   1      49.272  27.209  36.364  1.00  0.00    -0.744 OA
ENDBRANCH  72  73
ENDBRANCH  53  67
BRANCH  54  77
ATOM     77  C   UNL A   1      36.118  33.609  32.995  1.00  0.00    -0.014 A 
ATOM     78  C   UNL A   1      36.176  34.931  32.519  1.00  0.00     0.010 A 
ATOM     79  C   UNL A   1      34.859  33.026  33.232  1.00  0.00     0.010 A 
ATOM     80  C   UNL A   1      35.003  35.664  32.311  1.00  0.00     0.020 A 
ATOM     81  C   UNL A   1      33.683  33.745  32.995  1.00  0.00     0.020 A 
ATOM     82  C   UNL A   1      33.763  35.066  32.551  1.00  0.00     0.054 A 
BRANCH  82  83
ATOM     83  S   UNL A   1      32.254  36.027  32.249  1.00  0.00     0.124 S 
ATOM     84  O   UNL A   1      32.367  36.329  30.825  1.00  0.00    -0.237 OA
ATOM     85  O   UNL A   1      31.201  35.083  32.614  1.00  0.00    -0.237 OA
ATOM     86  O   UNL A   1      32.393  37.173  33.145  1.00  0.00    -0.744 OA
ENDBRANCH  82  83
ENDBRANCH  54  77
BRANCH  66  87
ATOM     87  C   UNL A   1      40.477  33.619  38.445  1.00  0.00    -0.014 A 
ATOM     88  C   UNL A   1      39.880  33.148  39.628  1.00  0.00     0.010 A 
ATOM     89  C   UNL A   1      41.180  34.839  38.475  1.00  0.00     0.010 A 
ATOM     90  C   UNL A   1      39.955  33.898  40.806  1.00  0.00     0.020 A 
ATOM     91  C   UNL A   1      41.282  35.577  39.657  1.00  0.00     0.020 A 
ATOM     92  C   UNL A   1      40.655  35.108  40.813  1.00  0.00     0.054 A 
BRANCH  92  93
ATOM     93  S   UNL A   1      40.772  36.043  42.364  1.00  0.00     0.124 S 
ATOM     94  O   UNL A   1      39.445  36.645  42.458  1.00  0.00    -0.237 OA
ATOM     95  O   UNL A   1      41.060  34.999  43.346  1.00  0.00    -0.237 OA
ATOM     96  O   UNL A   1      41.866  36.981  42.122  1.00  0.00    -0.744 OA
ENDBRANCH  92  93
ENDBRANCH  66  87
ENDBRANCH  40  41
ENDBRANCH  33  35
ENDBRANCH  32  33
ENDBRANCH  31  32
ENDBRANCH  30  31
ENDBRANCH  29  30
ENDBRANCH  28  29
ENDBRANCH   1  28
TORSDOF 24
ENDMDL
MODEL 2
REMARK VINA RESULT:      -9.8      1.284      7.972
REMARK SMILES C[C@H]1C[N@H+]2CCCC[C@@H]2CN1C(=O)[C@H]([NH3+])CC(=O)OCCOCCOCCOC(=O)c1ccc(-c2c3nc(c(-c4ccc(S(=O)(=O)[O-])cc4)c4ccc([nH]4)c(-c4ccc(S(=O)(=O)[O-])cc4)c4nc(c(-c5ccc(S(=O)(=O)[O-])cc5)c5ccc2[nH]5)C=C4)C=C3)cc1
REMARK SMILES IDX 23 1 22 2 21 3 20 4 19 5 17 6 18 7 16 8 14 9 12 10 13 11
REMARK SMILES IDX 11 12 1 13 2 14 3 15 4 16 10 17 5 18 9 19 6 21 8 22 7 23
REMARK SMILES IDX 15 24 24 28 25 29 26 30 27 31 28 32 29 33 30 34 31 35 32 36
REMARK SMILES IDX 90 37 33 38 89 39 34 40 35 41 36 42 83 43 37 44 88 45 82 46
REMARK SMILES IDX 84 47 38 48 87 49 81 50 80 51 39 53 69 54 50 55 68 56 51 57
REMARK SMILES IDX 54 58 67 59 85 60 52 61 53 62 66 64 86 65 55 66 40 67 41 68
REMARK SMILES IDX 49 69 42 70 48 71 43 72 44 73 45 74 46 75 47 76 70 77 71 78
REMARK SMILES IDX 79 79 72 80 78 81 73 82 74 83 75 84 76 85 77 86 56 87 57 88
REMARK SMILES IDX 65 89 58 90 64 91 59 92 60 93 61 94 62 95 63 96
REMARK H PARENT 4 20 15 25 15 26 15 27 84 52 54 63
REMARK Flexibility Score: inf
ROOT
ATOM      1  C   UNL A   1      37.960  22.683  25.750  1.00  0.00     0.188 C 
ENDROOT
BRANCH   1   2
ATOM      2  O   UNL A   1      36.662  22.257  25.345  1.00  0.00    -0.376 OA
BRANCH   2   3
ATOM      3  C   UNL A   1      36.486  20.853  25.151  1.00  0.00     0.202 C 
BRANCH   3   4
ATOM      4  C   UNL A   1      35.034  20.372  25.015  1.00  0.00     0.261 C 
BRANCH   4   5
ATOM      5  O   UNL A   1      34.050  21.408  25.258  1.00  0.00    -0.463 OA
BRANCH   5   6
ATOM      6  C   UNL A   1      33.124  21.572  24.278  1.00  0.00     0.312 C 
ATOM      7  O   UNL A   1      32.880  20.726  23.421  1.00  0.00    -0.252 OA
BRANCH   6   8
ATOM      8  C   UNL A   1      32.306  22.841  24.360  1.00  0.00     0.198 C 
BRANCH   8   9
ATOM      9  C   UNL A   1      31.054  22.972  25.250  1.00  0.00     0.282 C 
BRANCH   9  10
ATOM     10  C   UNL A   1      31.213  24.295  26.084  1.00  0.00     0.282 C 
ATOM     11  O   UNL A   1      31.419  24.221  27.300  1.00  0.00    -0.268 OA
BRANCH  10  12
ATOM     12  N   UNL A   1      31.115  25.546  25.453  1.00  0.00    -0.323 N 
ATOM     13  C   UNL A   1      33.593  26.063  25.619  1.00  0.00     0.037 C 
ATOM     14  C   UNL A   1      32.145  26.570  25.785  1.00  0.00     0.137 C 
ATOM     15  C   UNL A   1      32.077  27.877  24.934  1.00  0.00     0.287 C 
ATOM     16  N   UNL A   1      30.756  28.352  24.496  1.00  0.00    -0.329 N 
ATOM     17  C   UNL A   1      29.831  26.075  24.970  1.00  0.00     0.185 C 
ATOM     18  C   UNL A   1      30.947  29.399  23.468  1.00  0.00     0.262 C 
ATOM     19  C   UNL A   1      29.972  27.227  23.947  1.00  0.00     0.203 C 
ATOM     20  H   UNL A   1      30.244  28.741  25.287  1.00  0.00     0.348 HD
ATOM     21  C   UNL A   1      29.623  29.960  22.958  1.00  0.00     0.062 C 
ATOM     22  C   UNL A   1      28.587  27.756  23.541  1.00  0.00     0.067 C 
ATOM     23  C   UNL A   1      28.698  28.849  22.481  1.00  0.00     0.012 C 
ENDBRANCH  10  12
ENDBRANCH   9  10
BRANCH   9  24
ATOM     24  N   UNL A   1      30.903  21.846  26.191  1.00  0.00    -0.347 N 
ATOM     25  H   UNL A   1      29.915  21.718  26.411  1.00  0.00     0.345 HD
ATOM     26  H   UNL A   1      31.420  22.047  27.047  1.00  0.00     0.345 HD
ATOM     27  H   UNL A   1      31.269  20.996  25.763  1.00  0.00     0.345 HD
ENDBRANCH   9  24
ENDBRANCH   8   9
ENDBRANCH   6   8
ENDBRANCH   5   6
ENDBRANCH   4   5
ENDBRANCH   3   4
ENDBRANCH   2   3
ENDBRANCH   1   2
BRANCH   1  28
ATOM     28  C   UNL A   1      38.981  21.557  25.920  1.00  0.00     0.188 C 
BRANCH  28  29
ATOM     29  O   UNL A   1      39.877  21.721  27.010  1.00  0.00    -0.376 OA
BRANCH  29  30
ATOM     30  C   UNL A   1      41.267  21.868  26.720  1.00  0.00     0.202 C 
BRANCH  30  31
ATOM     31  C   UNL A   1      41.772  23.207  26.138  1.00  0.00     0.261 C 
BRANCH  31  32
ATOM     32  O   UNL A   1      40.936  24.363  26.358  1.00  0.00    -0.460 OA
BRANCH  32  33
ATOM     33  C   UNL A   1      41.470  25.582  26.120  1.00  0.00     0.338 C 
ATOM     34  O   UNL A   1      41.909  25.973  25.053  1.00  0.00    -0.246 OA
BRANCH  33  35
ATOM     35  C   UNL A   1      41.173  26.475  27.275  1.00  0.00     0.060 A 
ATOM     36  C   UNL A   1      41.855  27.699  27.353  1.00  0.00     0.016 A 
ATOM     37  C   UNL A   1      40.187  26.171  28.219  1.00  0.00     0.016 A 
ATOM     38  C   UNL A   1      41.584  28.598  28.389  1.00  0.00     0.010 A 
ATOM     39  C   UNL A   1      39.926  27.065  29.265  1.00  0.00     0.010 A 
ATOM     40  C   UNL A   1      40.647  28.267  29.376  1.00  0.00    -0.014 A 
BRANCH  40  41
ATOM     41  C   UNL A   1      40.591  29.062  30.631  1.00  0.00     0.031 A 
ATOM     42  C   UNL A   1      39.566  30.166  30.720  1.00  0.00     0.074 A 
ATOM     43  C   UNL A   1      41.383  28.801  31.687  1.00  0.00     0.049 A 
ATOM     44  N   UNL A   1      39.327  31.002  31.697  1.00  0.00    -0.248 NA
ATOM     45  C   UNL A   1      38.691  30.341  29.548  1.00  0.00     0.031 C 
ATOM     46  C   UNL A   1      42.376  27.730  31.765  1.00  0.00     0.029 A 
ATOM     47  N   UNL A   1      41.468  29.427  32.909  1.00  0.00    -0.354 N 
ATOM     48  C   UNL A   1      38.278  31.801  31.258  1.00  0.00     0.074 A 
ATOM     49  C   UNL A   1      37.950  31.374  29.916  1.00  0.00     0.031 C 
ATOM     50  C   UNL A   1      42.971  27.775  32.972  1.00  0.00     0.029 A 
ATOM     51  C   UNL A   1      42.428  28.896  33.740  1.00  0.00     0.049 A 
ATOM     52  H   UNL A   1      40.896  30.185  33.165  1.00  0.00     0.167 HD
ATOM     53  C   UNL A   1      37.631  32.794  31.915  1.00  0.00     0.031 A 
ATOM     54  C   UNL A   1      42.831  29.279  34.970  1.00  0.00     0.031 A 
ATOM     55  C   UNL A   1      37.964  33.241  33.239  1.00  0.00     0.049 A 
ATOM     56  C   UNL A   1      42.167  30.459  35.639  1.00  0.00     0.074 A 
ATOM     57  C   UNL A   1      37.373  34.250  33.979  1.00  0.00     0.029 A 
ATOM     58  N   UNL A   1      38.981  32.715  34.020  1.00  0.00    -0.354 N 
ATOM     59  N   UNL A   1      41.168  31.198  35.215  1.00  0.00    -0.248 NA
ATOM     60  C   UNL A   1      42.682  30.853  36.960  1.00  0.00     0.031 C 
ATOM     61  C   UNL A   1      38.068  34.371  35.186  1.00  0.00     0.029 A 
ATOM     62  C   UNL A   1      39.048  33.392  35.225  1.00  0.00     0.049 A 
ATOM     63  H   UNL A   1      39.568  31.970  33.757  1.00  0.00     0.167 HD
ATOM     64  C   UNL A   1      40.913  32.115  36.233  1.00  0.00     0.074 A 
ATOM     65  C   UNL A   1      41.854  31.832  37.296  1.00  0.00     0.031 C 
ATOM     66  C   UNL A   1      39.981  33.099  36.283  1.00  0.00     0.031 A 
BRANCH  53  67
ATOM     67  C   UNL A   1      36.510  33.485  31.185  1.00  0.00    -0.014 A 
ATOM     68  C   UNL A   1      36.660  33.897  29.848  1.00  0.00     0.010 A 
ATOM     69  C   UNL A   1      35.281  33.698  31.836  1.00  0.00     0.010 A 
ATOM     70  C   UNL A   1      35.614  34.545  29.188  1.00  0.00     0.020 A 
ATOM     71  C   UNL A   1      34.223  34.320  31.169  1.00  0.00     0.020 A 
ATOM     72  C   UNL A   1      34.401  34.754  29.854  1.00  0.00     0.054 A 
BRANCH  72  73
ATOM     73  S   UNL A   1      33.055  35.582  28.965  1.00  0.00     0.124 S 
ATOM     74  O   UNL A   1      33.773  36.630  28.244  1.00  0.00    -0.237 OA
ATOM     75  O   UNL A   1      32.513  34.509  28.136  1.00  0.00    -0.237 OA
ATOM     76  O   UNL A   1      32.173  36.051  30.030  1.00  0.00    -0.744 OA
ENDBRANCH  72  73
ENDBRANCH  53  67
BRANCH  54  77
ATOM     77  C   UNL A   1      43.941  28.559  35.660  1.00  0.00    -0.014 A 
ATOM     78  C   UNL A   1      45.283  28.911  35.426  1.00  0.00     0.010 A 
ATOM     79  C   UNL A   1      43.661  27.484  36.522  1.00  0.00     0.010 A 
ATOM     80  C   UNL A   1      46.322  28.186  36.019  1.00  0.00     0.020 A 
ATOM     81  C   UNL A   1      44.696  26.776  37.143  1.00  0.00     0.020 A 
ATOM     82  C   UNL A   1      46.021  27.122  36.874  1.00  0.00     0.054 A 
BRANCH  82  83
ATOM     83  S   UNL A   1      47.384  26.213  37.654  1.00  0.00     0.124 S 
ATOM     84  O   UNL A   1      47.546  25.076  36.753  1.00  0.00    -0.237 OA
ATOM     85  O   UNL A   1      48.466  27.193  37.639  1.00  0.00    -0.237 OA
ATOM     86  O   UNL A   1      46.863  25.891  38.982  1.00  0.00    -0.744 OA
ENDBRANCH  82  83
ENDBRANCH  54  77
BRANCH  66  87
ATOM     87  C   UNL A   1      39.886  33.916  37.548  1.00  0.00    -0.014 A 
ATOM     88  C   UNL A   1      40.609  35.111  37.709  1.00  0.00     0.010 A 
ATOM     89  C   UNL A   1      39.008  33.507  38.570  1.00  0.00     0.010 A 
ATOM     90  C   UNL A   1      40.482  35.862  38.883  1.00  0.00     0.020 A 
ATOM     91  C   UNL A   1      38.855  34.270  39.730  1.00  0.00     0.020 A 
ATOM     92  C   UNL A   1      39.606  35.436  39.886  1.00  0.00     0.054 A 
BRANCH  92  93
ATOM     93  S   UNL A   1      39.428  36.450  41.381  1.00  0.00     0.124 S 
ATOM     94  O   UNL A   1      38.383  35.738  42.109  1.00  0.00    -0.237 OA
ATOM     95  O   UNL A   1      40.763  36.384  41.972  1.00  0.00    -0.237 OA
ATOM     96  O   UNL A   1      39.046  37.763  40.866  1.00  0.00    -0.744 OA
ENDBRANCH  92  93
ENDBRANCH  66  87
ENDBRANCH  40  41
ENDBRANCH  33  35
ENDBRANCH  32  33
ENDBRANCH  31  32
ENDBRANCH  30  31
ENDBRANCH  29  30
ENDBRANCH  28  29
ENDBRANCH   1  28
TORSDOF 24
ENDMDL
MODEL 3
REMARK VINA RESULT:      -9.8      2.051      8.290
REMARK SMILES C[C@H]1C[N@H+]2CCCC[C@@H]2CN1C(=O)[C@H]([NH3+])CC(=O)OCCOCCOCCOC(=O)c1ccc(-c2c3nc(c(-c4ccc(S(=O)(=O)[O-])cc4)c4ccc([nH]4)c(-c4ccc(S(=O)(=O)[O-])cc4)c4nc(c(-c5ccc(S(=O)(=O)[O-])cc5)c5ccc2[nH]5)C=C4)C=C3)cc1
REMARK SMILES IDX 23 1 22 2 21 3 20 4 19 5 17 6 18 7 16 8 14 9 12 10 13 11
REMARK SMILES IDX 11 12 1 13 2 14 3 15 4 16 10 17 5 18 9 19 6 21 8 22 7 23
REMARK SMILES IDX 15 24 24 28 25 29 26 30 27 31 28 32 29 33 30 34 31 35 32 36
REMARK SMILES IDX 90 37 33 38 89 39 34 40 35 41 36 42 83 43 37 44 88 45 82 46
REMARK SMILES IDX 84 47 38 48 87 49 81 50 80 51 39 53 69 54 50 55 68 56 51 57
REMARK SMILES IDX 54 58 67 59 85 60 52 61 53 62 66 64 86 65 55 66 40 67 41 68
REMARK SMILES IDX 49 69 42 70 48 71 43 72 44 73 45 74 46 75 47 76 70 77 71 78
REMARK SMILES IDX 79 79 72 80 78 81 73 82 74 83 75 84 76 85 77 86 56 87 57 88
REMARK SMILES IDX 65 89 58 90 64 91 59 92 60 93 61 94 62 95 63 96
REMARK H PARENT 4 20 15 25 15 26 15 27 84 52 54 63
REMARK Flexibility Score: inf
ROOT
ATOM      1  C   UNL A   1      41.458  20.244  26.189  1.00  0.00     0.188 C 
ENDROOT
BRANCH   1   2
ATOM      2  O   UNL A   1      41.163  21.208  27.196  1.00  0.00    -0.376 OA
BRANCH   2   3
ATOM      3  C   UNL A   1      40.002  22.012  26.983  1.00  0.00     0.202 C 
BRANCH   3   4
ATOM      4  C   UNL A   1      39.098  21.589  25.816  1.00  0.00     0.261 C 
BRANCH   4   5
ATOM      5  O   UNL A   1      38.037  22.532  25.526  1.00  0.00    -0.463 OA
BRANCH   5   6
ATOM      6  C   UNL A   1      37.013  22.043  24.779  1.00  0.00     0.312 C 
ATOM      7  O   UNL A   1      36.864  22.285  23.583  1.00  0.00    -0.252 OA
BRANCH   6   8
ATOM      8  C   UNL A   1      36.096  21.071  25.486  1.00  0.00     0.198 C 
BRANCH   8   9
ATOM      9  C   UNL A   1      34.959  21.525  26.423  1.00  0.00     0.282 C 
BRANCH   9  10
ATOM     10  C   UNL A   1      33.617  21.413  25.614  1.00  0.00     0.282 C 
ATOM     11  O   UNL A   1      33.104  20.301  25.446  1.00  0.00    -0.268 OA
BRANCH  10  12
ATOM     12  N   UNL A   1      33.012  22.563  25.082  1.00  0.00    -0.323 N 
ATOM     13  C   UNL A   1      31.610  23.039  27.141  1.00  0.00     0.037 C 
ATOM     14  C   UNL A   1      31.668  22.942  25.602  1.00  0.00     0.137 C 
ATOM     15  C   UNL A   1      31.124  24.313  25.092  1.00  0.00     0.287 C 
ATOM     16  N   UNL A   1      31.472  24.734  23.727  1.00  0.00    -0.329 N 
ATOM     17  C   UNL A   1      33.328  23.056  23.732  1.00  0.00     0.185 C 
ATOM     18  C   UNL A   1      31.123  26.164  23.570  1.00  0.00     0.262 C 
ATOM     19  C   UNL A   1      32.914  24.526  23.488  1.00  0.00     0.203 C 
ATOM     20  H   UNL A   1      30.953  24.180  23.047  1.00  0.00     0.348 HD
ATOM     21  C   UNL A   1      31.443  26.688  22.173  1.00  0.00     0.062 C 
ATOM     22  C   UNL A   1      33.229  24.937  22.041  1.00  0.00     0.067 C 
ATOM     23  C   UNL A   1      32.890  26.405  21.794  1.00  0.00     0.012 C 
ENDBRANCH  10  12
ENDBRANCH   9  10
BRANCH   9  24
ATOM     24  N   UNL A   1      35.115  22.920  26.873  1.00  0.00    -0.347 N 
ATOM     25  H   UNL A   1      36.094  23.097  27.099  1.00  0.00     0.345 HD
ATOM     26  H   UNL A   1      34.541  23.077  27.702  1.00  0.00     0.345 HD
ATOM     27  H   UNL A   1      34.818  23.552  26.130  1.00  0.00     0.345 HD
ENDBRANCH   9  24
ENDBRANCH   8   9
ENDBRANCH   6   8
ENDBRANCH   5   6
ENDBRANCH   4   5
ENDBRANCH   3   4
ENDBRANCH   2   3
ENDBRANCH   1   2
BRANCH   1  28
ATOM     28  C   UNL A   1      42.934  20.154  25.799  1.00  0.00     0.188 C 
BRANCH  28  29
ATOM     29  O   UNL A   1      43.393  21.197  24.950  1.00  0.00    -0.376 OA
BRANCH  29  30
ATOM     30  C   UNL A   1      43.939  22.366  25.560  1.00  0.00     0.202 C 
BRANCH  30  31
ATOM     31  C   UNL A   1      43.332  23.744  25.214  1.00  0.00     0.261 C 
BRANCH  31  32
ATOM     32  O   UNL A   1      42.426  24.313  26.183  1.00  0.00    -0.460 OA
BRANCH  32  33
ATOM     33  C   UNL A   1      41.965  25.563  25.958  1.00  0.00     0.338 C 
ATOM     34  O   UNL A   1      41.414  25.948  24.941  1.00  0.00    -0.246 OA
BRANCH  33  35
ATOM     35  C   UNL A   1      41.965  26.319  27.241  1.00  0.00     0.060 A 
ATOM     36  C   UNL A   1      41.136  25.861  28.276  1.00  0.00     0.016 A 
ATOM     37  C   UNL A   1      42.821  27.402  27.469  1.00  0.00     0.016 A 
ATOM     38  C   UNL A   1      41.129  26.503  29.517  1.00  0.00     0.010 A 
ATOM     39  C   UNL A   1      42.804  28.054  28.708  1.00  0.00     0.010 A 
ATOM     40  C   UNL A   1      41.933  27.630  29.727  1.00  0.00    -0.014 A 
BRANCH  40  41
ATOM     41  C   UNL A   1      41.693  28.492  30.915  1.00  0.00     0.031 A 
ATOM     42  C   UNL A   1      40.545  29.469  30.856  1.00  0.00     0.074 A 
ATOM     43  C   UNL A   1      42.429  28.396  32.038  1.00  0.00     0.049 A 
ATOM     44  N   UNL A   1      40.140  30.331  31.752  1.00  0.00    -0.248 NA
ATOM     45  C   UNL A   1      39.745  29.463  29.619  1.00  0.00     0.031 C 
ATOM     46  C   UNL A   1      43.529  27.458  32.259  1.00  0.00     0.029 A 
ATOM     47  N   UNL A   1      42.351  29.104  33.214  1.00  0.00    -0.354 N 
ATOM     48  C   UNL A   1      39.041  30.969  31.188  1.00  0.00     0.074 A 
ATOM     49  C   UNL A   1      38.865  30.421  29.861  1.00  0.00     0.031 C 
ATOM     50  C   UNL A   1      44.024  27.651  33.496  1.00  0.00     0.029 A 
ATOM     51  C   UNL A   1      43.300  28.745  34.144  1.00  0.00     0.049 A 
ATOM     52  H   UNL A   1      41.678  29.803  33.376  1.00  0.00     0.167 HD
ATOM     53  C   UNL A   1      38.238  31.918  31.726  1.00  0.00     0.031 A 
ATOM     54  C   UNL A   1      43.564  29.252  35.366  1.00  0.00     0.031 A 
ATOM     55  C   UNL A   1      38.418  32.485  33.034  1.00  0.00     0.049 A 
ATOM     56  C   UNL A   1      42.721  30.385  35.903  1.00  0.00     0.074 A 
ATOM     57  C   UNL A   1      37.661  33.462  33.658  1.00  0.00     0.029 A 
ATOM     58  N   UNL A   1      39.427  32.136  33.917  1.00  0.00    -0.354 N 
ATOM     59  N   UNL A   1      41.678  30.970  35.361  1.00  0.00    -0.248 NA
ATOM     60  C   UNL A   1      43.088  30.921  37.223  1.00  0.00     0.031 C 
ATOM     61  C   UNL A   1      38.246  33.742  34.897  1.00  0.00     0.029 A 
ATOM     62  C   UNL A   1      39.326  32.892  35.072  1.00  0.00     0.049 A 
ATOM     63  H   UNL A   1      40.113  31.451  33.748  1.00  0.00     0.167 HD
ATOM     64  C   UNL A   1      41.246  31.913  36.291  1.00  0.00     0.074 A 
ATOM     65  C   UNL A   1      42.130  31.814  37.432  1.00  0.00     0.031 C 
ATOM     66  C   UNL A   1      40.205  32.781  36.208  1.00  0.00     0.031 A 
BRANCH  53  67
ATOM     67  C   UNL A   1      37.103  32.422  30.876  1.00  0.00    -0.014 A 
ATOM     68  C   UNL A   1      35.825  31.838  30.951  1.00  0.00     0.010 A 
ATOM     69  C   UNL A   1      37.309  33.513  30.012  1.00  0.00     0.010 A 
ATOM     70  C   UNL A   1      34.784  32.311  30.148  1.00  0.00     0.020 A 
ATOM     71  C   UNL A   1      36.263  34.008  29.230  1.00  0.00     0.020 A 
ATOM     72  C   UNL A   1      35.011  33.394  29.291  1.00  0.00     0.054 A 
BRANCH  72  73
ATOM     73  S   UNL A   1      33.636  33.998  28.275  1.00  0.00     0.124 S 
ATOM     74  O   UNL A   1      34.322  34.886  27.340  1.00  0.00    -0.237 OA
ATOM     75  O   UNL A   1      33.103  32.768  27.696  1.00  0.00    -0.237 OA
ATOM     76  O   UNL A   1      32.761  34.663  29.237  1.00  0.00    -0.744 OA
ENDBRANCH  72  73
ENDBRANCH  53  67
BRANCH  54  77
ATOM     77  C   UNL A   1      44.695  28.715  36.179  1.00  0.00    -0.014 A 
ATOM     78  C   UNL A   1      44.477  27.719  37.147  1.00  0.00     0.010 A 
ATOM     79  C   UNL A   1      45.993  29.234  36.018  1.00  0.00     0.010 A 
ATOM     80  C   UNL A   1      45.527  27.271  37.956  1.00  0.00     0.020 A 
ATOM     81  C   UNL A   1      47.052  28.767  36.803  1.00  0.00     0.020 A 
ATOM     82  C   UNL A   1      46.808  27.799  37.778  1.00  0.00     0.054 A 
BRANCH  82  83
ATOM     83  S   UNL A   1      48.161  27.184  38.820  1.00  0.00     0.124 S 
ATOM     84  O   UNL A   1      49.336  27.720  38.139  1.00  0.00    -0.237 OA
ATOM     85  O   UNL A   1      47.855  27.777  40.118  1.00  0.00    -0.237 OA
ATOM     86  O   UNL A   1      48.009  25.731  38.754  1.00  0.00    -0.744 OA
ENDBRANCH  82  83
ENDBRANCH  54  77
BRANCH  66  87
ATOM     87  C   UNL A   1      39.924  33.659  37.401  1.00  0.00    -0.014 A 
ATOM     88  C   UNL A   1      40.525  34.923  37.545  1.00  0.00     0.010 A 
ATOM     89  C   UNL A   1      38.991  33.235  38.367  1.00  0.00     0.010 A 
ATOM     90  C   UNL A   1      40.225  35.728  38.649  1.00  0.00     0.020 A 
ATOM     91  C   UNL A   1      38.666  34.049  39.454  1.00  0.00     0.020 A 
ATOM     92  C   UNL A   1      39.297  35.286  39.597  1.00  0.00     0.054 A 
BRANCH  92  93
ATOM     93  S   UNL A   1      38.896  36.366  40.998  1.00  0.00     0.124 S 
ATOM     94  O   UNL A   1      38.477  37.593  40.327  1.00  0.00    -0.237 OA
ATOM     95  O   UNL A   1      37.834  35.627  41.678  1.00  0.00    -0.237 OA
ATOM     96  O   UNL A   1      40.153  36.458  41.737  1.00  0.00    -0.744 OA
ENDBRANCH  92  93
ENDBRANCH  66  87
ENDBRANCH  40  41
ENDBRANCH  33  35
ENDBRANCH  32  33
ENDBRANCH  31  32
ENDBRANCH  30  31
ENDBRANCH  29  30
ENDBRANCH  28  29
ENDBRANCH   1  28
TORSDOF 24
ENDMDL
