MODEL 1
REMARK VINA RESULT:     -10.5      0.000      0.000
REMARK SMILES O=C(OCCOCCOCCOC(=O)c1ccccc1Nc1cccc(S(F)(F)(F)(F)F)c1)c1ccc(-c2c3nc(c(-c4ccc(S(=O)(=O)[O-])cc4)c4ccc([nH]4)c(-c4ccc(S(=O)(=O)[O-])cc4)c4nc(c(-c5ccc(S(=O)(=O)[O-])cc5)c5ccc2[nH]5)C=C4)C=C3)cc1
REMARK SMILES IDX 7 1 6 2 5 3 4 4 3 5 2 6 1 7 34 8 35 9 93 10 36 11 92 12
REMARK SMILES IDX 37 13 38 14 39 15 86 16 40 17 91 18 85 19 87 20 41 21 90 22
REMARK SMILES IDX 84 23 83 24 42 26 72 27 53 28 71 29 54 30 57 31 70 32 88 33
REMARK SMILES IDX 55 34 56 35 69 37 89 38 58 39 43 40 44 41 52 42 45 43 51 44
REMARK SMILES IDX 46 45 47 46 48 47 49 48 50 49 73 50 74 51 82 52 75 53 81 54
REMARK SMILES IDX 76 55 77 56 78 57 79 58 80 59 59 60 60 61 68 62 61 63 67 64
REMARK SMILES IDX 62 65 63 66 64 67 65 68 66 69 8 70 9 71 10 72 11 73 12 74
REMARK SMILES IDX 13 75 14 76 15 77 16 78 20 79 17 80 19 81 18 82 21 83 22 85
REMARK SMILES IDX 23 86 33 87 24 88 26 89 25 90 27 91 28 92 29 93 30 94 31 95
REMARK SMILES IDX 32 96
REMARK H PARENT 87 25 57 36 21 84
REMARK Flexibility Score: inf
ROOT
ATOM      1  C   UNL A   1      31.794  29.032  24.572  1.00  0.00     0.188 C 
ENDROOT
BRANCH   1   2
ATOM      2  O   UNL A   1      31.147  28.055  25.374  1.00  0.00    -0.376 OA
BRANCH   2   3
ATOM      3  C   UNL A   1      31.965  27.744  26.492  1.00  0.00     0.202 C 
BRANCH   3   4
ATOM      4  C   UNL A   1      32.415  29.029  27.165  1.00  0.00     0.261 C 
BRANCH   4   5
ATOM      5  O   UNL A   1      33.754  28.883  27.616  1.00  0.00    -0.460 OA
BRANCH   5   6
ATOM      6  C   UNL A   1      34.554  30.032  27.851  1.00  0.00     0.338 C 
ATOM      7  O   UNL A   1      34.045  31.192  27.747  1.00  0.00    -0.246 OA
BRANCH   6   8
ATOM      8  C   UNL A   1      36.019  29.875  28.225  1.00  0.00     0.060 A 
ATOM      9  C   UNL A   1      37.023  30.051  27.288  1.00  0.00     0.016 A 
ATOM     10  C   UNL A   1      36.290  29.446  29.453  1.00  0.00     0.016 A 
ATOM     11  C   UNL A   1      38.259  29.467  27.655  1.00  0.00     0.010 A 
ATOM     12  C   UNL A   1      37.553  29.018  29.781  1.00  0.00     0.010 A 
ATOM     13  C   UNL A   1      38.581  29.107  28.884  1.00  0.00    -0.014 A 
BRANCH  13  14
ATOM     14  C   UNL A   1      40.018  28.810  29.280  1.00  0.00     0.031 A 
ATOM     15  C   UNL A   1      40.513  27.557  28.914  1.00  0.00     0.074 A 
ATOM     16  C   UNL A   1      40.779  29.798  29.881  1.00  0.00     0.049 A 
ATOM     17  N   UNL A   1      41.763  27.109  29.038  1.00  0.00    -0.248 NA
ATOM     18  C   UNL A   1      39.699  26.494  28.307  1.00  0.00     0.031 C 
ATOM     19  C   UNL A   1      40.289  31.068  30.245  1.00  0.00     0.029 A 
ATOM     20  N   UNL A   1      42.111  29.744  30.230  1.00  0.00    -0.354 N 
ATOM     21  C   UNL A   1      41.857  25.867  28.559  1.00  0.00     0.074 A 
ATOM     22  C   UNL A   1      40.529  25.451  28.087  1.00  0.00     0.031 C 
ATOM     23  C   UNL A   1      41.306  31.763  30.817  1.00  0.00     0.029 A 
ATOM     24  C   UNL A   1      42.450  30.943  30.819  1.00  0.00     0.049 A 
ATOM     25  H   UNL A   1      42.715  28.981  30.086  1.00  0.00     0.167 HD
ATOM     26  C   UNL A   1      42.998  25.065  28.495  1.00  0.00     0.031 A 
ATOM     27  C   UNL A   1      43.681  31.316  31.335  1.00  0.00     0.031 A 
ATOM     28  C   UNL A   1      44.239  25.456  28.972  1.00  0.00     0.049 A 
ATOM     29  C   UNL A   1      44.809  30.492  31.324  1.00  0.00     0.074 A 
ATOM     30  C   UNL A   1      45.401  24.662  28.908  1.00  0.00     0.029 A 
ATOM     31  N   UNL A   1      44.573  26.645  29.582  1.00  0.00    -0.354 N 
ATOM     32  N   UNL A   1      44.911  29.265  30.810  1.00  0.00    -0.248 NA
ATOM     33  C   UNL A   1      46.109  30.865  31.897  1.00  0.00     0.031 C 
ATOM     34  C   UNL A   1      46.419  25.359  29.480  1.00  0.00     0.029 A 
ATOM     35  C   UNL A   1      45.909  26.599  29.911  1.00  0.00     0.049 A 
ATOM     36  H   UNL A   1      43.961  27.397  29.753  1.00  0.00     0.167 HD
ATOM     37  C   UNL A   1      46.152  28.801  30.971  1.00  0.00     0.074 A 
ATOM     38  C   UNL A   1      46.938  29.821  31.680  1.00  0.00     0.031 C 
ATOM     39  C   UNL A   1      46.662  27.571  30.552  1.00  0.00     0.031 A 
BRANCH  26  40
ATOM     40  C   UNL A   1      42.872  23.686  27.866  1.00  0.00    -0.014 A 
ATOM     41  C   UNL A   1      43.105  23.487  26.515  1.00  0.00     0.010 A 
ATOM     42  C   UNL A   1      42.489  22.689  28.654  1.00  0.00     0.010 A 
ATOM     43  C   UNL A   1      42.623  22.249  26.027  1.00  0.00     0.020 A 
ATOM     44  C   UNL A   1      42.164  21.464  28.123  1.00  0.00     0.020 A 
ATOM     45  C   UNL A   1      42.312  21.214  26.787  1.00  0.00     0.054 A 
BRANCH  45  46
ATOM     46  S   UNL A   1      42.095  19.556  26.097  1.00  0.00     0.124 S 
ATOM     47  O   UNL A   1      40.609  19.302  25.836  1.00  0.00    -0.237 OA
ATOM     48  O   UNL A   1      42.870  19.445  24.782  1.00  0.00    -0.237 OA
ATOM     49  O   UNL A   1      42.685  18.395  27.205  1.00  0.00    -0.744 OA
ENDBRANCH  45  46
ENDBRANCH  26  40
BRANCH  27  50
ATOM     50  C   UNL A   1      43.810  32.700  31.949  1.00  0.00    -0.014 A 
ATOM     51  C   UNL A   1      44.368  33.692  31.158  1.00  0.00     0.010 A 
ATOM     52  C   UNL A   1      43.388  32.959  33.181  1.00  0.00     0.010 A 
ATOM     53  C   UNL A   1      44.706  34.868  31.868  1.00  0.00     0.020 A 
ATOM     54  C   UNL A   1      43.634  34.178  33.763  1.00  0.00     0.020 A 
ATOM     55  C   UNL A   1      44.234  35.185  33.060  1.00  0.00     0.054 A 
BRANCH  55  56
ATOM     56  S   UNL A   1      44.378  36.861  33.728  1.00  0.00     0.124 S 
ATOM     57  O   UNL A   1      43.709  36.922  35.103  1.00  0.00    -0.237 OA
ATOM     58  O   UNL A   1      45.856  37.231  33.864  1.00  0.00    -0.237 OA
ATOM     59  O   UNL A   1      43.609  37.964  32.671  1.00  0.00    -0.744 OA
ENDBRANCH  55  56
ENDBRANCH  27  50
BRANCH  39  60
ATOM     60  C   UNL A   1      48.130  27.280  30.816  1.00  0.00    -0.014 A 
ATOM     61  C   UNL A   1      48.526  26.683  32.002  1.00  0.00     0.010 A 
ATOM     62  C   UNL A   1      49.020  27.676  29.914  1.00  0.00     0.010 A 
ATOM     63  C   UNL A   1      49.908  26.809  32.273  1.00  0.00     0.020 A 
ATOM     64  C   UNL A   1      50.364  27.645  30.197  1.00  0.00     0.020 A 
ATOM     65  C   UNL A   1      50.823  27.122  31.375  1.00  0.00     0.054 A 
BRANCH  65  66
ATOM     66  S   UNL A   1      52.589  26.874  31.683  1.00  0.00     0.124 S 
ATOM     67  O   UNL A   1      53.313  26.664  30.350  1.00  0.00    -0.237 OA
ATOM     68  O   UNL A   1      53.162  28.106  32.386  1.00  0.00    -0.237 OA
ATOM     69  O   UNL A   1      52.808  25.497  32.673  1.00  0.00    -0.744 OA
ENDBRANCH  65  66
ENDBRANCH  39  60
ENDBRANCH  13  14
ENDBRANCH   6   8
ENDBRANCH   5   6
ENDBRANCH   4   5
ENDBRANCH   3   4
ENDBRANCH   2   3
ENDBRANCH   1   2
BRANCH   1  70
ATOM     70  C   UNL A   1      32.768  28.348  23.627  1.00  0.00     0.188 C 
BRANCH  70  71
ATOM     71  O   UNL A   1      32.048  27.735  22.568  1.00  0.00    -0.376 OA
BRANCH  71  72
ATOM     72  C   UNL A   1      32.448  26.378  22.446  1.00  0.00     0.202 C 
BRANCH  72  73
ATOM     73  C   UNL A   1      31.357  25.477  23.005  1.00  0.00     0.261 C 
BRANCH  73  74
ATOM     74  O   UNL A   1      31.914  24.218  23.349  1.00  0.00    -0.460 OA
BRANCH  74  75
ATOM     75  C   UNL A   1      31.913  23.786  24.702  1.00  0.00     0.340 C 
ATOM     76  O   UNL A   1      30.813  23.635  25.320  1.00  0.00    -0.246 OA
BRANCH  75  77
ATOM     77  C   UNL A   1      33.228  23.504  25.411  1.00  0.00     0.083 A 
ATOM     78  C   UNL A   1      34.115  24.553  25.581  1.00  0.00     0.018 A 
ATOM     79  C   UNL A   1      33.570  22.256  25.709  1.00  0.00     0.053 A 
ATOM     80  C   UNL A   1      35.451  24.143  25.801  1.00  0.00     0.001 A 
ATOM     81  C   UNL A   1      34.865  21.949  26.049  1.00  0.00     0.027 A 
ATOM     82  C   UNL A   1      35.810  22.929  26.177  1.00  0.00     0.002 A 
BRANCH  79  83
ATOM     83  N   UNL A   1      32.554  21.194  25.676  1.00  0.00    -0.355 N 
ATOM     84  H   UNL A   1      31.819  21.196  26.330  1.00  0.00     0.167 HD
BRANCH  83  85
ATOM     85  C   UNL A   1      32.636  20.130  24.664  1.00  0.00     0.040 A 
ATOM     86  C   UNL A   1      32.334  20.390  23.338  1.00  0.00     0.026 A 
ATOM     87  C   UNL A   1      32.978  18.913  25.068  1.00  0.00     0.050 A 
ATOM     88  C   UNL A   1      32.140  19.226  22.556  1.00  0.00     0.004 A 
ATOM     89  C   UNL A   1      32.894  17.842  24.210  1.00  0.00     0.109 A 
ATOM     90  C   UNL A   1      32.544  18.017  22.899  1.00  0.00     0.024 A 
BRANCH  89  91
ATOM     91  S   UNL A   1      33.250  16.177  24.824  1.00  0.00     0.310 S 
ATOM     92  F   UNL A   1      33.640  16.767  26.244  1.00  0.00    -0.094 F 
ATOM     93  F   UNL A   1      34.754  16.383  24.401  1.00  0.00    -0.094 F 
ATOM     94  F   UNL A   1      33.573  14.765  25.389  1.00  0.00    -0.094 F 
ATOM     95  F   UNL A   1      31.771  16.047  25.365  1.00  0.00    -0.094 F 
ATOM     96  F   UNL A   1      32.933  17.654  24.356  1.00  0.00    -0.094 F 
ENDBRANCH  89  91
ENDBRANCH  83  85
ENDBRANCH  79  83
ENDBRANCH  75  77
ENDBRANCH  74  75
ENDBRANCH  73  74
ENDBRANCH  72  73
ENDBRANCH  71  72
ENDBRANCH  70  71
ENDBRANCH   1  70
TORSDOF 23
ENDMDL
MODEL 2
REMARK VINA RESULT:     -10.4      4.379      9.794
REMARK SMILES O=C(OCCOCCOCCOC(=O)c1ccccc1Nc1cccc(S(F)(F)(F)(F)F)c1)c1ccc(-c2c3nc(c(-c4ccc(S(=O)(=O)[O-])cc4)c4ccc([nH]4)c(-c4ccc(S(=O)(=O)[O-])cc4)c4nc(c(-c5ccc(S(=O)(=O)[O-])cc5)c5ccc2[nH]5)C=C4)C=C3)cc1
REMARK SMILES IDX 7 1 6 2 5 3 4 4 3 5 2 6 1 7 34 8 35 9 93 10 36 11 92 12
REMARK SMILES IDX 37 13 38 14 39 15 86 16 40 17 91 18 85 19 87 20 41 21 90 22
REMARK SMILES IDX 84 23 83 24 42 26 72 27 53 28 71 29 54 30 57 31 70 32 88 33
REMARK SMILES IDX 55 34 56 35 69 37 89 38 58 39 43 40 44 41 52 42 45 43 51 44
REMARK SMILES IDX 46 45 47 46 48 47 49 48 50 49 73 50 74 51 82 52 75 53 81 54
REMARK SMILES IDX 76 55 77 56 78 57 79 58 80 59 59 60 60 61 68 62 61 63 67 64
REMARK SMILES IDX 62 65 63 66 64 67 65 68 66 69 8 70 9 71 10 72 11 73 12 74
REMARK SMILES IDX 13 75 14 76 15 77 16 78 20 79 17 80 19 81 18 82 21 83 22 85
REMARK SMILES IDX 23 86 33 87 24 88 26 89 25 90 27 91 28 92 29 93 30 94 31 95
REMARK SMILES IDX 32 96
REMARK H PARENT 87 25 57 36 21 84
REMARK Flexibility Score: inf
ROOT
ATOM      1  C   UNL A   1      39.908  20.839  26.188  1.00  0.00     0.188 C 
ENDROOT
BRANCH   1   2
ATOM      2  O   UNL A   1      40.947  21.500  26.895  1.00  0.00    -0.376 OA
BRANCH   2   3
ATOM      3  C   UNL A   1      42.149  21.432  26.144  1.00  0.00     0.202 C 
BRANCH   3   4
ATOM      4  C   UNL A   1      42.685  22.835  25.914  1.00  0.00     0.261 C 
BRANCH   4   5
ATOM      5  O   UNL A   1      41.653  23.780  26.154  1.00  0.00    -0.460 OA
BRANCH   5   6
ATOM      6  C   UNL A   1      41.941  25.170  26.121  1.00  0.00     0.338 C 
ATOM      7  O   UNL A   1      42.314  25.716  25.035  1.00  0.00    -0.246 OA
BRANCH   6   8
ATOM      8  C   UNL A   1      41.804  26.005  27.383  1.00  0.00     0.060 A 
ATOM      9  C   UNL A   1      40.850  25.708  28.341  1.00  0.00     0.016 A 
ATOM     10  C   UNL A   1      42.554  27.098  27.473  1.00  0.00     0.016 A 
ATOM     11  C   UNL A   1      40.558  26.784  29.214  1.00  0.00     0.010 A 
ATOM     12  C   UNL A   1      42.298  28.044  28.437  1.00  0.00     0.010 A 
ATOM     13  C   UNL A   1      41.329  27.843  29.380  1.00  0.00    -0.014 A 
BRANCH  13  14
ATOM     14  C   UNL A   1      41.150  28.787  30.558  1.00  0.00     0.031 A 
ATOM     15  C   UNL A   1      40.109  29.711  30.455  1.00  0.00     0.074 A 
ATOM     16  C   UNL A   1      41.939  28.630  31.685  1.00  0.00     0.049 A 
ATOM     17  N   UNL A   1      39.676  30.556  31.392  1.00  0.00    -0.248 NA
ATOM     18  C   UNL A   1      39.292  29.903  29.248  1.00  0.00     0.031 C 
ATOM     19  C   UNL A   1      42.984  27.693  31.799  1.00  0.00     0.029 A 
ATOM     20  N   UNL A   1      41.865  29.327  32.871  1.00  0.00    -0.354 N 
ATOM     21  C   UNL A   1      38.648  31.270  30.930  1.00  0.00     0.074 A 
ATOM     22  C   UNL A   1      38.390  30.865  29.541  1.00  0.00     0.031 C 
ATOM     23  C   UNL A   1      43.541  27.832  33.030  1.00  0.00     0.029 A 
ATOM     24  C   UNL A   1      42.853  28.856  33.708  1.00  0.00     0.049 A 
ATOM     25  H   UNL A   1      41.219  30.039  33.083  1.00  0.00     0.167 HD
ATOM     26  C   UNL A   1      37.914  32.243  31.612  1.00  0.00     0.031 A 
ATOM     27  C   UNL A   1      43.151  29.284  34.991  1.00  0.00     0.031 A 
ATOM     28  C   UNL A   1      38.187  32.640  32.911  1.00  0.00     0.049 A 
ATOM     29  C   UNL A   1      42.455  30.297  35.654  1.00  0.00     0.074 A 
ATOM     30  C   UNL A   1      37.452  33.613  33.616  1.00  0.00     0.029 A 
ATOM     31  N   UNL A   1      39.189  32.186  33.740  1.00  0.00    -0.354 N 
ATOM     32  N   UNL A   1      41.403  30.985  35.204  1.00  0.00    -0.248 NA
ATOM     33  C   UNL A   1      42.784  30.781  37.001  1.00  0.00     0.031 C 
ATOM     34  C   UNL A   1      38.009  33.751  34.849  1.00  0.00     0.029 A 
ATOM     35  C   UNL A   1      39.103  32.867  34.934  1.00  0.00     0.049 A 
ATOM     36  H   UNL A   1      39.855  31.495  33.516  1.00  0.00     0.167 HD
ATOM     37  C   UNL A   1      40.996  31.858  36.128  1.00  0.00     0.074 A 
ATOM     38  C   UNL A   1      41.884  31.745  37.294  1.00  0.00     0.031 C 
ATOM     39  C   UNL A   1      39.919  32.741  36.047  1.00  0.00     0.031 A 
BRANCH  26  40
ATOM     40  C   UNL A   1      36.751  32.903  30.889  1.00  0.00    -0.014 A 
ATOM     41  C   UNL A   1      36.946  33.631  29.726  1.00  0.00     0.010 A 
ATOM     42  C   UNL A   1      35.548  32.790  31.439  1.00  0.00     0.010 A 
ATOM     43  C   UNL A   1      35.847  34.450  29.373  1.00  0.00     0.020 A 
ATOM     44  C   UNL A   1      34.488  33.518  30.956  1.00  0.00     0.020 A 
ATOM     45  C   UNL A   1      34.622  34.306  29.846  1.00  0.00     0.054 A 
BRANCH  45  46
ATOM     46  S   UNL A   1      33.199  35.107  29.066  1.00  0.00     0.124 S 
ATOM     47  O   UNL A   1      32.131  35.391  30.124  1.00  0.00    -0.237 OA
ATOM     48  O   UNL A   1      33.643  36.422  28.423  1.00  0.00    -0.237 OA
ATOM     49  O   UNL A   1      32.552  34.075  27.866  1.00  0.00    -0.744 OA
ENDBRANCH  45  46
ENDBRANCH  26  40
BRANCH  27  50
ATOM     50  C   UNL A   1      44.305  28.613  35.720  1.00  0.00    -0.014 A 
ATOM     51  C   UNL A   1      43.990  27.564  36.569  1.00  0.00     0.010 A 
ATOM     52  C   UNL A   1      45.563  28.997  35.538  1.00  0.00     0.010 A 
ATOM     53  C   UNL A   1      45.056  27.168  37.411  1.00  0.00     0.020 A 
ATOM     54  C   UNL A   1      46.573  28.467  36.302  1.00  0.00     0.020 A 
ATOM     55  C   UNL A   1      46.325  27.470  37.203  1.00  0.00     0.054 A 
BRANCH  55  56
ATOM     56  S   UNL A   1      47.663  26.610  38.067  1.00  0.00     0.124 S 
ATOM     57  O   UNL A   1      48.627  26.006  37.043  1.00  0.00    -0.237 OA
ATOM     58  O   UNL A   1      48.418  27.603  38.953  1.00  0.00    -0.237 OA
ATOM     59  O   UNL A   1      47.007  25.364  39.037  1.00  0.00    -0.744 OA
ENDBRANCH  55  56
ENDBRANCH  27  50
BRANCH  39  60
ATOM     60  C   UNL A   1      39.624  33.620  37.252  1.00  0.00    -0.014 A 
ATOM     61  C   UNL A   1      40.189  34.879  37.359  1.00  0.00     0.010 A 
ATOM     62  C   UNL A   1      38.870  33.118  38.224  1.00  0.00     0.010 A 
ATOM     63  C   UNL A   1      40.138  35.422  38.664  1.00  0.00     0.020 A 
ATOM     64  C   UNL A   1      38.756  33.770  39.427  1.00  0.00     0.020 A 
ATOM     65  C   UNL A   1      39.338  34.992  39.623  1.00  0.00     0.054 A 
BRANCH  65  66
ATOM     66  S   UNL A   1      39.028  35.967  41.117  1.00  0.00     0.124 S 
ATOM     67  O   UNL A   1      40.222  35.837  42.066  1.00  0.00    -0.237 OA
ATOM     68  O   UNL A   1      38.838  37.437  40.735  1.00  0.00    -0.237 OA
ATOM     69  O   UNL A   1      37.618  35.391  41.892  1.00  0.00    -0.744 OA
ENDBRANCH  65  66
ENDBRANCH  39  60
ENDBRANCH  13  14
ENDBRANCH   6   8
ENDBRANCH   5   6
ENDBRANCH   4   5
ENDBRANCH   3   4
ENDBRANCH   2   3
ENDBRANCH   1   2
BRANCH   1  70
ATOM     70  C   UNL A   1      38.792  21.825  25.888  1.00  0.00     0.188 C 
BRANCH  70  71
ATOM     71  O   UNL A   1      37.769  21.171  25.152  1.00  0.00    -0.376 OA
BRANCH  71  72
ATOM     72  C   UNL A   1      36.931  22.141  24.540  1.00  0.00     0.202 C 
BRANCH  72  73
ATOM     73  C   UNL A   1      37.071  23.466  25.273  1.00  0.00     0.261 C 
BRANCH  73  74
ATOM     74  O   UNL A   1      35.828  23.813  25.864  1.00  0.00    -0.460 OA
BRANCH  74  75
ATOM     75  C   UNL A   1      34.766  24.294  25.054  1.00  0.00     0.340 C 
ATOM     76  O   UNL A   1      35.022  24.929  23.983  1.00  0.00    -0.246 OA
BRANCH  75  77
ATOM     77  C   UNL A   1      33.324  24.048  25.465  1.00  0.00     0.083 A 
ATOM     78  C   UNL A   1      32.452  25.124  25.458  1.00  0.00     0.018 A 
ATOM     79  C   UNL A   1      32.965  22.872  25.967  1.00  0.00     0.053 A 
ATOM     80  C   UNL A   1      31.309  24.940  26.273  1.00  0.00     0.001 A 
ATOM     81  C   UNL A   1      31.771  22.732  26.633  1.00  0.00     0.027 A 
ATOM     82  C   UNL A   1      30.886  23.770  26.716  1.00  0.00     0.002 A 
BRANCH  79  83
ATOM     83  N   UNL A   1      33.852  21.711  25.808  1.00  0.00    -0.355 N 
ATOM     84  H   UNL A   1      34.692  21.660  26.317  1.00  0.00     0.167 HD
BRANCH  83  85
ATOM     85  C   UNL A   1      33.482  20.625  24.889  1.00  0.00     0.040 A 
ATOM     86  C   UNL A   1      32.733  20.883  23.752  1.00  0.00     0.026 A 
ATOM     87  C   UNL A   1      33.861  19.391  25.198  1.00  0.00     0.050 A 
ATOM     88  C   UNL A   1      32.185  19.725  23.152  1.00  0.00     0.004 A 
ATOM     89  C   UNL A   1      33.393  18.315  24.482  1.00  0.00     0.109 A 
ATOM     90  C   UNL A   1      32.600  18.493  23.382  1.00  0.00     0.024 A 
BRANCH  89  91
ATOM     91  S   UNL A   1      33.832  16.638  25.004  1.00  0.00     0.310 S 
ATOM     92  F   UNL A   1      32.972  16.027  23.819  1.00  0.00    -0.094 F 
ATOM     93  F   UNL A   1      32.521  16.608  25.878  1.00  0.00    -0.094 F 
ATOM     94  F   UNL A   1      34.178  15.181  25.422  1.00  0.00    -0.094 F 
ATOM     95  F   UNL A   1      35.063  16.639  24.014  1.00  0.00    -0.094 F 
ATOM     96  F   UNL A   1      33.431  18.076  24.483  1.00  0.00    -0.094 F 
ENDBRANCH  89  91
ENDBRANCH  83  85
ENDBRANCH  79  83
ENDBRANCH  75  77
ENDBRANCH  74  75
ENDBRANCH  73  74
ENDBRANCH  72  73
ENDBRANCH  71  72
ENDBRANCH  70  71
ENDBRANCH   1  70
TORSDOF 23
ENDMDL
MODEL 3
REMARK VINA RESULT:     -10.2      4.192      9.306
REMARK SMILES O=C(OCCOCCOCCOC(=O)c1ccccc1Nc1cccc(S(F)(F)(F)(F)F)c1)c1ccc(-c2c3nc(c(-c4ccc(S(=O)(=O)[O-])cc4)c4ccc([nH]4)c(-c4ccc(S(=O)(=O)[O-])cc4)c4nc(c(-c5ccc(S(=O)(=O)[O-])cc5)c5ccc2[nH]5)C=C4)C=C3)cc1
REMARK SMILES IDX 7 1 6 2 5 3 4 4 3 5 2 6 1 7 34 8 35 9 93 10 36 11 92 12
REMARK SMILES IDX 37 13 38 14 39 15 86 16 40 17 91 18 85 19 87 20 41 21 90 22
REMARK SMILES IDX 84 23 83 24 42 26 72 27 53 28 71 29 54 30 57 31 70 32 88 33
REMARK SMILES IDX 55 34 56 35 69 37 89 38 58 39 43 40 44 41 52 42 45 43 51 44
REMARK SMILES IDX 46 45 47 46 48 47 49 48 50 49 73 50 74 51 82 52 75 53 81 54
REMARK SMILES IDX 76 55 77 56 78 57 79 58 80 59 59 60 60 61 68 62 61 63 67 64
REMARK SMILES IDX 62 65 63 66 64 67 65 68 66 69 8 70 9 71 10 72 11 73 12 74
REMARK SMILES IDX 13 75 14 76 15 77 16 78 20 79 17 80 19 81 18 82 21 83 22 85
REMARK SMILES IDX 23 86 33 87 24 88 26 89 25 90 27 91 28 92 29 93 30 94 31 95
REMARK SMILES IDX 32 96
REMARK H PARENT 87 25 57 36 21 84
REMARK Flexibility Score: inf
ROOT
ATOM      1  C   UNL A   1      39.847  21.285  26.555  1.00  0.00     0.188 C 
ENDROOT
BRANCH   1   2
ATOM      2  O   UNL A   1      40.705  22.271  25.999  1.00  0.00    -0.376 OA
BRANCH   2   3
ATOM      3  C   UNL A   1      42.056  21.865  26.156  1.00  0.00     0.202 C 
BRANCH   3   4
ATOM      4  C   UNL A   1      42.978  23.013  25.784  1.00  0.00     0.261 C 
BRANCH   4   5
ATOM      5  O   UNL A   1      42.229  24.218  25.716  1.00  0.00    -0.460 OA
BRANCH   5   6
ATOM      6  C   UNL A   1      42.854  25.460  26.005  1.00  0.00     0.338 C 
ATOM      7  O   UNL A   1      43.655  25.979  25.166  1.00  0.00    -0.246 OA
BRANCH   6   8
ATOM      8  C   UNL A   1      42.566  26.167  27.319  1.00  0.00     0.060 A 
ATOM      9  C   UNL A   1      41.650  25.658  28.224  1.00  0.00     0.016 A 
ATOM     10  C   UNL A   1      43.137  27.351  27.510  1.00  0.00     0.016 A 
ATOM     11  C   UNL A   1      41.179  26.608  29.161  1.00  0.00     0.010 A 
ATOM     12  C   UNL A   1      42.721  28.172  28.530  1.00  0.00     0.010 A 
ATOM     13  C   UNL A   1      41.776  27.757  29.426  1.00  0.00    -0.014 A 
BRANCH  13  14
ATOM     14  C   UNL A   1      41.430  28.571  30.662  1.00  0.00     0.031 A 
ATOM     15  C   UNL A   1      42.269  28.405  31.766  1.00  0.00     0.074 A 
ATOM     16  C   UNL A   1      40.391  29.484  30.610  1.00  0.00     0.049 A 
ATOM     17  N   UNL A   1      42.250  29.087  32.912  1.00  0.00    -0.248 NA
ATOM     18  C   UNL A   1      43.352  27.413  31.837  1.00  0.00     0.031 C 
ATOM     19  C   UNL A   1      39.547  29.664  29.497  1.00  0.00     0.029 A 
ATOM     20  N   UNL A   1      39.989  30.364  31.591  1.00  0.00    -0.354 N 
ATOM     21  C   UNL A   1      43.219  28.655  33.721  1.00  0.00     0.074 A 
ATOM     22  C   UNL A   1      43.938  27.568  33.044  1.00  0.00     0.031 C 
ATOM     23  C   UNL A   1      38.641  30.628  29.807  1.00  0.00     0.029 A 
ATOM     24  C   UNL A   1      38.905  31.070  31.117  1.00  0.00     0.049 A 
ATOM     25  H   UNL A   1      40.405  30.470  32.477  1.00  0.00     0.167 HD
ATOM     26  C   UNL A   1      43.534  29.127  34.997  1.00  0.00     0.031 A 
ATOM     27  C   UNL A   1      38.174  32.044  31.778  1.00  0.00     0.031 A 
ATOM     28  C   UNL A   1      42.828  30.132  35.640  1.00  0.00     0.049 A 
ATOM     29  C   UNL A   1      38.451  32.476  33.076  1.00  0.00     0.074 A 
ATOM     30  C   UNL A   1      43.136  30.625  36.923  1.00  0.00     0.029 A 
ATOM     31  N   UNL A   1      41.729  30.821  35.176  1.00  0.00    -0.354 N 
ATOM     32  N   UNL A   1      39.444  32.071  33.870  1.00  0.00    -0.248 NA
ATOM     33  C   UNL A   1      37.663  33.484  33.797  1.00  0.00     0.031 C 
ATOM     34  C   UNL A   1      42.230  31.591  37.232  1.00  0.00     0.029 A 
ATOM     35  C   UNL A   1      41.340  31.716  36.148  1.00  0.00     0.049 A 
ATOM     36  H   UNL A   1      41.295  30.694  34.301  1.00  0.00     0.167 HD
ATOM     37  C   UNL A   1      39.399  32.725  35.032  1.00  0.00     0.074 A 
ATOM     38  C   UNL A   1      38.247  33.638  35.006  1.00  0.00     0.031 C 
ATOM     39  C   UNL A   1      40.273  32.601  36.113  1.00  0.00     0.031 A 
BRANCH  26  40
ATOM     40  C   UNL A   1      44.716  28.504  35.722  1.00  0.00    -0.014 A 
ATOM     41  C   UNL A   1      45.992  29.029  35.602  1.00  0.00     0.010 A 
ATOM     42  C   UNL A   1      44.484  27.411  36.440  1.00  0.00     0.010 A 
ATOM     43  C   UNL A   1      47.014  28.157  36.047  1.00  0.00     0.020 A 
ATOM     44  C   UNL A   1      45.526  26.682  36.959  1.00  0.00     0.020 A 
ATOM     45  C   UNL A   1      46.818  27.110  36.828  1.00  0.00     0.054 A 
BRANCH  45  46
ATOM     46  S   UNL A   1      48.187  26.286  37.679  1.00  0.00     0.124 S 
ATOM     47  O   UNL A   1      47.628  25.312  38.718  1.00  0.00    -0.237 OA
ATOM     48  O   UNL A   1      49.032  25.518  36.661  1.00  0.00    -0.237 OA
ATOM     49  O   UNL A   1      49.159  27.456  38.460  1.00  0.00    -0.744 OA
ENDBRANCH  45  46
ENDBRANCH  26  40
BRANCH  27  50
ATOM     50  C   UNL A   1      37.001  32.679  31.046  1.00  0.00    -0.014 A 
ATOM     51  C   UNL A   1      37.300  33.589  30.046  1.00  0.00     0.010 A 
ATOM     52  C   UNL A   1      35.745  32.361  31.335  1.00  0.00     0.010 A 
ATOM     53  C   UNL A   1      36.184  34.335  29.598  1.00  0.00     0.020 A 
ATOM     54  C   UNL A   1      34.701  33.040  30.756  1.00  0.00     0.020 A 
ATOM     55  C   UNL A   1      34.925  33.994  29.803  1.00  0.00     0.054 A 
BRANCH  55  56
ATOM     56  S   UNL A   1      33.568  34.751  28.874  1.00  0.00     0.124 S 
ATOM     57  O   UNL A   1      33.085  33.781  27.794  1.00  0.00    -0.237 OA
ATOM     58  O   UNL A   1      32.413  35.069  29.826  1.00  0.00    -0.237 OA
ATOM     59  O   UNL A   1      34.116  36.195  28.140  1.00  0.00    -0.744 OA
ENDBRANCH  55  56
ENDBRANCH  27  50
BRANCH  39  60
ATOM     60  C   UNL A   1      40.041  33.487  37.326  1.00  0.00    -0.014 A 
ATOM     61  C   UNL A   1      39.051  33.177  38.244  1.00  0.00     0.010 A 
ATOM     62  C   UNL A   1      40.762  34.597  37.439  1.00  0.00     0.010 A 
ATOM     63  C   UNL A   1      38.699  34.252  39.092  1.00  0.00     0.020 A 
ATOM     64  C   UNL A   1      40.444  35.544  38.381  1.00  0.00     0.020 A 
ATOM     65  C   UNL A   1      39.439  35.329  39.284  1.00  0.00     0.054 A 
BRANCH  65  66
ATOM     66  S   UNL A   1      39.140  36.460  40.665  1.00  0.00     0.124 S 
ATOM     67  O   UNL A   1      38.431  37.716  40.150  1.00  0.00    -0.237 OA
ATOM     68  O   UNL A   1      38.260  35.769  41.709  1.00  0.00    -0.237 OA
ATOM     69  O   UNL A   1      40.631  36.900  41.376  1.00  0.00    -0.744 OA
ENDBRANCH  65  66
ENDBRANCH  39  60
ENDBRANCH  13  14
ENDBRANCH   6   8
ENDBRANCH   5   6
ENDBRANCH   4   5
ENDBRANCH   3   4
ENDBRANCH   2   3
ENDBRANCH   1   2
BRANCH   1  70
ATOM     70  C   UNL A   1      38.658  21.071  25.632  1.00  0.00     0.188 C 
BRANCH  70  71
ATOM     71  O   UNL A   1      38.223  22.323  25.123  1.00  0.00    -0.376 OA
BRANCH  71  72
ATOM     72  C   UNL A   1      37.073  22.752  25.838  1.00  0.00     0.202 C 
BRANCH  72  73
ATOM     73  C   UNL A   1      36.487  23.981  25.162  1.00  0.00     0.261 C 
BRANCH  73  74
ATOM     74  O   UNL A   1      35.182  24.221  25.667  1.00  0.00    -0.460 OA
BRANCH  74  75
ATOM     75  C   UNL A   1      34.089  24.362  24.771  1.00  0.00     0.340 C 
ATOM     76  O   UNL A   1      34.295  24.724  23.570  1.00  0.00    -0.246 OA
BRANCH  75  77
ATOM     77  C   UNL A   1      32.674  24.081  25.248  1.00  0.00     0.083 A 
ATOM     78  C   UNL A   1      31.737  25.096  25.144  1.00  0.00     0.018 A 
ATOM     79  C   UNL A   1      32.398  22.951  25.888  1.00  0.00     0.053 A 
ATOM     80  C   UNL A   1      30.625  24.939  26.006  1.00  0.00     0.001 A 
ATOM     81  C   UNL A   1      31.229  22.817  26.598  1.00  0.00     0.027 A 
ATOM     82  C   UNL A   1      30.284  23.804  26.589  1.00  0.00     0.002 A 
BRANCH  79  83
ATOM     83  N   UNL A   1      33.350  21.833  25.836  1.00  0.00    -0.355 N 
ATOM     84  H   UNL A   1      34.112  21.805  26.458  1.00  0.00     0.167 HD
BRANCH  83  85
ATOM     85  C   UNL A   1      33.164  20.754  24.854  1.00  0.00     0.040 A 
ATOM     86  C   UNL A   1      32.581  21.010  23.624  1.00  0.00     0.026 A 
ATOM     87  C   UNL A   1      33.544  19.529  25.195  1.00  0.00     0.050 A 
ATOM     88  C   UNL A   1      32.175  19.845  22.929  1.00  0.00     0.004 A 
ATOM     89  C   UNL A   1      33.231  18.453  24.401  1.00  0.00     0.109 A 
ATOM     90  C   UNL A   1      32.602  18.626  23.198  1.00  0.00     0.024 A 
BRANCH  89  91
ATOM     91  S   UNL A   1      33.656  16.782  24.953  1.00  0.00     0.310 S 
ATOM     92  F   UNL A   1      33.306  16.201  23.519  1.00  0.00    -0.094 F 
ATOM     93  F   UNL A   1      32.143  16.564  25.335  1.00  0.00    -0.094 F 
ATOM     94  F   UNL A   1      34.004  15.331  25.389  1.00  0.00    -0.094 F 
ATOM     95  F   UNL A   1      35.136  16.974  24.434  1.00  0.00    -0.094 F 
ATOM     96  F   UNL A   1      33.293  18.219  24.402  1.00  0.00    -0.094 F 
ENDBRANCH  89  91
ENDBRANCH  83  85
ENDBRANCH  79  83
ENDBRANCH  75  77
ENDBRANCH  74  75
ENDBRANCH  73  74
ENDBRANCH  72  73
ENDBRANCH  71  72
ENDBRANCH  70  71
ENDBRANCH   1  70
TORSDOF 23
ENDMDL
