MODEL 1
REMARK VINA RESULT:      -8.4      0.000      0.000
REMARK SMILES Cc1ccc(S(=O)(=O)n2cc(C(=O)C(=O)N[C@@H](Cc3cnc[nH]3)C(=O)OCCOCCOCCOC(=O)c3ccc(-c4c5nc(c(-c6ccc(S(=O)(=O)[O-])cc6)c6ccc([nH]6)c(-c6ccc(S(=O)(=O)[O-])cc6)c6nc(c(-c7ccc(S(=O)(=O)[O-])cc7)c7ccc4[nH]7)C=C6)C=C5)cc3)c3ccccc32)cc1
REMARK SMILES IDX 30 1 29 2 28 3 27 4 26 5 24 6 25 7 17 8 16 9 14 10 15 11
REMARK SMILES IDX 12 13 13 14 11 15 9 16 10 17 103 18 98 19 102 20 99 21
REMARK SMILES IDX 101 22 100 23 6 24 7 25 8 26 5 27 1 28 2 29 3 30 105 31 4 32
REMARK SMILES IDX 104 33 18 34 19 35 20 36 23 37 21 38 22 39 31 41 32 42 33 43
REMARK SMILES IDX 34 44 35 45 36 46 37 47 38 48 39 49 97 50 40 51 96 52 41 53
REMARK SMILES IDX 42 54 43 55 90 56 44 57 95 58 89 59 91 60 45 61 94 62 88 63
REMARK SMILES IDX 87 64 46 66 76 67 57 68 75 69 58 70 61 71 74 72 92 73 59 74
REMARK SMILES IDX 60 75 73 77 93 78 62 79 47 80 48 81 56 82 49 83 55 84 50 85
REMARK SMILES IDX 51 86 52 87 53 88 54 89 77 90 78 91 86 92 79 93 85 94 80 95
REMARK SMILES IDX 81 96 82 97 83 98 84 99 63 100 64 101 72 102 65 103 71 104
REMARK SMILES IDX 66 105 67 106 68 107 69 108 70 109
REMARK H PARENT 16 12 23 40 91 65 61 76
REMARK Flexibility Score: inf
ROOT
ATOM      1  C   UNL A   1      49.185  26.383  40.516  1.00  0.00     0.188 C 
ENDROOT
BRANCH   1   2
ATOM      2  O   UNL A   1      47.973  26.451  39.772  1.00  0.00    -0.376 OA
BRANCH   2   3
ATOM      3  C   UNL A   1      47.328  25.189  39.775  1.00  0.00     0.202 C 
BRANCH   3   4
ATOM      4  C   UNL A   1      48.175  24.020  39.237  1.00  0.00     0.261 C 
BRANCH   4   5
ATOM      5  O   UNL A   1      47.996  23.541  37.673  1.00  0.00    -0.462 OA
BRANCH   5   6
ATOM      6  C   UNL A   1      47.189  23.338  36.507  1.00  0.00     0.329 C 
ATOM      7  O   UNL A   1      46.385  24.253  36.307  1.00  0.00    -0.250 OA
BRANCH   6   8
ATOM      8  C   UNL A   1      47.156  21.973  35.289  1.00  0.00     0.198 C 
BRANCH   8   9
ATOM      9  N   UNL A   1      48.423  22.254  34.405  1.00  0.00    -0.335 N 
ATOM     10  C   UNL A   1      49.701  21.637  34.206  1.00  0.00     0.293 C 
ATOM     11  O   UNL A   1      50.342  21.990  33.210  1.00  0.00    -0.265 OA
ATOM     12  H   UNL A   1      48.311  23.056  33.845  1.00  0.00     0.164 HD
BRANCH  10  13
ATOM     13  C   UNL A   1      50.411  20.623  35.155  1.00  0.00     0.252 C 
ATOM     14  O   UNL A   1      50.862  19.647  34.542  1.00  0.00    -0.283 OA
BRANCH  13  15
ATOM     15  C   UNL A   1      50.346  20.596  36.700  1.00  0.00     0.054 A 
ATOM     16  N   UNL A   1      50.058  20.181  38.938  1.00  0.00    -0.240 N 
ATOM     17  C   UNL A   1      49.852  19.675  37.643  1.00  0.00     0.117 A 
ATOM     18  C   UNL A   1      50.828  21.321  38.889  1.00  0.00     0.065 A 
ATOM     19  C   UNL A   1      50.906  21.665  37.530  1.00  0.00     0.012 A 
ATOM     20  C   UNL A   1      51.435  22.098  39.901  1.00  0.00     0.028 A 
ATOM     21  C   UNL A   1      51.527  22.894  37.215  1.00  0.00     0.011 A 
ATOM     22  C   UNL A   1      52.062  23.289  39.540  1.00  0.00     0.002 A 
ATOM     23  C   UNL A   1      52.088  23.694  38.214  1.00  0.00     0.001 A 
BRANCH  16  24
ATOM     24  S   UNL A   1      49.702  19.388  40.444  1.00  0.00     0.268 S 
ATOM     25  O   UNL A   1      48.945  18.207  40.077  1.00  0.00    -0.201 OA
ATOM     26  O   UNL A   1      49.126  20.406  41.313  1.00  0.00    -0.201 OA
BRANCH  24  27
ATOM     27  C   UNL A   1      51.199  18.786  41.254  1.00  0.00     0.088 A 
ATOM     28  C   UNL A   1      54.689  17.346  43.405  1.00  0.00     0.044 C 
ATOM     29  C   UNL A   1      53.473  17.843  42.669  1.00  0.00    -0.051 A 
ATOM     30  C   UNL A   1      52.633  18.801  43.244  1.00  0.00     0.005 A 
ATOM     31  C   UNL A   1      53.167  17.373  41.383  1.00  0.00     0.005 A 
ATOM     32  C   UNL A   1      51.499  19.265  42.548  1.00  0.00     0.022 A 
ATOM     33  C   UNL A   1      52.046  17.845  40.674  1.00  0.00     0.022 A 
ENDBRANCH  24  27
ENDBRANCH  16  24
ENDBRANCH  13  15
ENDBRANCH  10  13
ENDBRANCH   8   9
BRANCH   8  34
ATOM     34  C   UNL A   1      46.637  20.125  35.385  1.00  0.00     0.092 C 
BRANCH  34  35
ATOM     35  C   UNL A   1      46.012  19.012  36.799  1.00  0.00     0.037 A 
ATOM     36  C   UNL A   1      46.127  18.888  38.250  1.00  0.00     0.134 A 
ATOM     37  N   UNL A   1      44.969  18.084  36.658  1.00  0.00    -0.348 N 
ATOM     38  N   UNL A   1      45.264  18.035  38.864  1.00  0.00    -0.245 NA
ATOM     39  C   UNL A   1      44.609  17.525  37.869  1.00  0.00     0.196 A 
ATOM     40  H   UNL A   1      44.543  17.859  35.800  1.00  0.00     0.167 HD
ENDBRANCH  34  35
ENDBRANCH   8  34
ENDBRANCH   6   8
ENDBRANCH   5   6
ENDBRANCH   4   5
ENDBRANCH   3   4
ENDBRANCH   2   3
ENDBRANCH   1   2
BRANCH   1  41
ATOM     41  C   UNL A   1      50.410  26.837  39.721  1.00  0.00     0.188 C 
BRANCH  41  42
ATOM     42  O   UNL A   1      50.251  26.881  38.317  1.00  0.00    -0.376 OA
BRANCH  42  43
ATOM     43  C   UNL A   1      50.089  28.132  37.661  1.00  0.00     0.202 C 
BRANCH  43  44
ATOM     44  C   UNL A   1      48.929  27.930  36.714  1.00  0.00     0.261 C 
BRANCH  44  45
ATOM     45  O   UNL A   1      49.089  26.662  36.016  1.00  0.00    -0.460 OA
BRANCH  45  46
ATOM     46  C   UNL A   1      49.650  26.732  34.772  1.00  0.00     0.338 C 
ATOM     47  O   UNL A   1      50.850  26.785  34.557  1.00  0.00    -0.246 OA
BRANCH  46  48
ATOM     48  C   UNL A   1      48.573  26.848  33.725  1.00  0.00     0.060 A 
ATOM     49  C   UNL A   1      48.301  28.092  33.177  1.00  0.00     0.016 A 
ATOM     50  C   UNL A   1      47.672  25.805  33.460  1.00  0.00     0.016 A 
ATOM     51  C   UNL A   1      47.064  28.300  32.554  1.00  0.00     0.010 A 
ATOM     52  C   UNL A   1      46.385  26.069  32.952  1.00  0.00     0.010 A 
ATOM     53  C   UNL A   1      46.007  27.377  32.661  1.00  0.00    -0.014 A 
BRANCH  53  54
ATOM     54  C   UNL A   1      44.507  27.775  32.582  1.00  0.00     0.031 A 
ATOM     55  C   UNL A   1      44.172  27.898  30.787  1.00  0.00     0.074 A 
ATOM     56  C   UNL A   1      43.588  28.108  33.827  1.00  0.00     0.049 A 
ATOM     57  N   UNL A   1      43.160  28.485  30.145  1.00  0.00    -0.248 NA
ATOM     58  C   UNL A   1      44.897  27.093  29.777  1.00  0.00     0.031 C 
ATOM     59  C   UNL A   1      42.464  27.373  34.599  1.00  0.00     0.029 A 
ATOM     60  N   UNL A   1      43.362  29.362  34.622  1.00  0.00    -0.354 N 
ATOM     61  C   UNL A   1      42.700  27.592  29.178  1.00  0.00     0.074 A 
ATOM     62  C   UNL A   1      43.976  26.993  28.792  1.00  0.00     0.031 C 
ATOM     63  C   UNL A   1      41.604  28.223  35.241  1.00  0.00     0.029 A 
ATOM     64  C   UNL A   1      42.166  29.544  35.285  1.00  0.00     0.049 A 
ATOM     65  H   UNL A   1      44.063  30.051  34.669  1.00  0.00     0.167 HD
ATOM     66  C   UNL A   1      41.371  27.144  29.053  1.00  0.00     0.031 A 
ATOM     67  C   UNL A   1      41.678  30.744  35.708  1.00  0.00     0.031 A 
ATOM     68  C   UNL A   1      40.213  27.793  29.855  1.00  0.00     0.049 A 
ATOM     69  C   UNL A   1      40.521  31.131  34.796  1.00  0.00     0.074 A 
ATOM     70  C   UNL A   1      39.092  27.210  30.482  1.00  0.00     0.029 A 
ATOM     71  N   UNL A   1      40.115  29.139  30.262  1.00  0.00    -0.354 N 
ATOM     72  N   UNL A   1      40.061  30.354  33.844  1.00  0.00    -0.248 NA
ATOM     73  C   UNL A   1      39.854  32.435  34.821  1.00  0.00     0.031 C 
ATOM     74  C   UNL A   1      38.466  28.120  31.372  1.00  0.00     0.029 A 
ATOM     75  C   UNL A   1      39.150  29.313  31.293  1.00  0.00     0.049 A 
ATOM     76  H   UNL A   1      40.652  29.870  29.880  1.00  0.00     0.167 HD
ATOM     77  C   UNL A   1      39.222  31.077  33.029  1.00  0.00     0.074 A 
ATOM     78  C   UNL A   1      39.070  32.351  33.730  1.00  0.00     0.031 C 
ATOM     79  C   UNL A   1      38.729  30.612  31.837  1.00  0.00     0.031 A 
BRANCH  66  80
ATOM     80  C   UNL A   1      41.050  25.716  28.427  1.00  0.00    -0.014 A 
ATOM     81  C   UNL A   1      41.729  24.556  28.886  1.00  0.00     0.010 A 
ATOM     82  C   UNL A   1      40.225  25.474  27.308  1.00  0.00     0.010 A 
ATOM     83  C   UNL A   1      41.684  23.304  28.235  1.00  0.00     0.020 A 
ATOM     84  C   UNL A   1      40.076  24.200  26.710  1.00  0.00     0.020 A 
ATOM     85  C   UNL A   1      40.832  23.124  27.157  1.00  0.00     0.054 A 
BRANCH  85  86
ATOM     86  S   UNL A   1      40.629  21.468  26.442  1.00  0.00     0.124 S 
ATOM     87  O   UNL A   1      40.770  20.595  27.603  1.00  0.00    -0.237 OA
ATOM     88  O   UNL A   1      39.288  21.529  25.863  1.00  0.00    -0.237 OA
ATOM     89  O   UNL A   1      41.713  21.385  25.465  1.00  0.00    -0.744 OA
ENDBRANCH  85  86
ENDBRANCH  66  80
BRANCH  67  90
ATOM     90  C   UNL A   1      42.724  31.687  36.292  1.00  0.00    -0.014 A 
ATOM     91  C   UNL A   1      43.245  32.675  35.415  1.00  0.00     0.010 A 
ATOM     92  C   UNL A   1      42.942  31.894  37.667  1.00  0.00     0.010 A 
ATOM     93  C   UNL A   1      43.781  33.891  35.889  1.00  0.00     0.020 A 
ATOM     94  C   UNL A   1      43.440  33.134  38.149  1.00  0.00     0.020 A 
ATOM     95  C   UNL A   1      43.792  34.152  37.258  1.00  0.00     0.054 A 
BRANCH  95  96
ATOM     96  S   UNL A   1      43.982  35.884  37.856  1.00  0.00     0.124 S 
ATOM     97  O   UNL A   1      42.609  36.374  37.875  1.00  0.00    -0.237 OA
ATOM     98  O   UNL A   1      44.596  35.716  39.174  1.00  0.00    -0.237 OA
ATOM     99  O   UNL A   1      44.861  36.492  36.866  1.00  0.00    -0.744 OA
ENDBRANCH  95  96
ENDBRANCH  67  90
BRANCH  79 100
ATOM    100  C   UNL A   1      37.594  31.250  31.076  1.00  0.00    -0.014 A 
ATOM    101  C   UNL A   1      36.346  31.590  31.613  1.00  0.00     0.010 A 
ATOM    102  C   UNL A   1      37.733  31.348  29.668  1.00  0.00     0.010 A 
ATOM    103  C   UNL A   1      35.360  32.168  30.805  1.00  0.00     0.020 A 
ATOM    104  C   UNL A   1      36.745  31.860  28.849  1.00  0.00     0.020 A 
ATOM    105  C   UNL A   1      35.587  32.332  29.436  1.00  0.00     0.054 A 
BRANCH 105 106
ATOM    106  S   UNL A   1      34.385  33.211  28.425  1.00  0.00     0.124 S 
ATOM    107  O   UNL A   1      35.231  33.904  27.458  1.00  0.00    -0.237 OA
ATOM    108  O   UNL A   1      33.591  32.105  27.896  1.00  0.00    -0.237 OA
ATOM    109  O   UNL A   1      33.693  34.074  29.379  1.00  0.00    -0.744 OA
ENDBRANCH 105 106
ENDBRANCH  79 100
ENDBRANCH  53  54
ENDBRANCH  46  48
ENDBRANCH  45  46
ENDBRANCH  44  45
ENDBRANCH  43  44
ENDBRANCH  42  43
ENDBRANCH  41  42
ENDBRANCH   1  41
TORSDOF 27
ENDMDL
MODEL 2
REMARK VINA RESULT:      -8.3      5.915     13.216
REMARK SMILES Cc1ccc(S(=O)(=O)n2cc(C(=O)C(=O)N[C@@H](Cc3cnc[nH]3)C(=O)OCCOCCOCCOC(=O)c3ccc(-c4c5nc(c(-c6ccc(S(=O)(=O)[O-])cc6)c6ccc([nH]6)c(-c6ccc(S(=O)(=O)[O-])cc6)c6nc(c(-c7ccc(S(=O)(=O)[O-])cc7)c7ccc4[nH]7)C=C6)C=C5)cc3)c3ccccc32)cc1
REMARK SMILES IDX 30 1 29 2 28 3 27 4 26 5 24 6 25 7 17 8 16 9 14 10 15 11
REMARK SMILES IDX 12 13 13 14 11 15 9 16 10 17 103 18 98 19 102 20 99 21
REMARK SMILES IDX 101 22 100 23 6 24 7 25 8 26 5 27 1 28 2 29 3 30 105 31 4 32
REMARK SMILES IDX 104 33 18 34 19 35 20 36 23 37 21 38 22 39 31 41 32 42 33 43
REMARK SMILES IDX 34 44 35 45 36 46 37 47 38 48 39 49 97 50 40 51 96 52 41 53
REMARK SMILES IDX 42 54 43 55 90 56 44 57 95 58 89 59 91 60 45 61 94 62 88 63
REMARK SMILES IDX 87 64 46 66 76 67 57 68 75 69 58 70 61 71 74 72 92 73 59 74
REMARK SMILES IDX 60 75 73 77 93 78 62 79 47 80 48 81 56 82 49 83 55 84 50 85
REMARK SMILES IDX 51 86 52 87 53 88 54 89 77 90 78 91 86 92 79 93 85 94 80 95
REMARK SMILES IDX 81 96 82 97 83 98 84 99 63 100 64 101 72 102 65 103 71 104
REMARK SMILES IDX 66 105 67 106 68 107 69 108 70 109
REMARK H PARENT 16 12 23 40 91 65 61 76
REMARK Flexibility Score: inf
ROOT
ATOM      1  C   UNL A   1      36.064  29.707  28.438  1.00  0.00     0.188 C 
ENDROOT
BRANCH   1   2
ATOM      2  O   UNL A   1      37.177  28.984  28.949  1.00  0.00    -0.376 OA
BRANCH   2   3
ATOM      3  C   UNL A   1      38.257  29.866  29.204  1.00  0.00     0.202 C 
BRANCH   3   4
ATOM      4  C   UNL A   1      39.591  29.181  29.557  1.00  0.00     0.261 C 
BRANCH   4   5
ATOM      5  O   UNL A   1      40.557  28.616  28.350  1.00  0.00    -0.462 OA
BRANCH   5   6
ATOM      6  C   UNL A   1      41.768  28.660  27.586  1.00  0.00     0.329 C 
ATOM      7  O   UNL A   1      41.590  28.989  26.411  1.00  0.00    -0.250 OA
BRANCH   6   8
ATOM      8  C   UNL A   1      43.502  28.315  28.059  1.00  0.00     0.198 C 
BRANCH   8   9
ATOM      9  N   UNL A   1      43.355  27.565  29.431  1.00  0.00    -0.335 N 
ATOM     10  C   UNL A   1      43.882  26.368  30.015  1.00  0.00     0.293 C 
ATOM     11  O   UNL A   1      43.753  26.240  31.238  1.00  0.00    -0.265 OA
ATOM     12  H   UNL A   1      42.747  28.037  30.045  1.00  0.00     0.164 HD
BRANCH  10  13
ATOM     13  C   UNL A   1      44.533  25.165  29.264  1.00  0.00     0.252 C 
ATOM     14  O   UNL A   1      45.769  25.246  29.236  1.00  0.00    -0.283 OA
BRANCH  13  15
ATOM     15  C   UNL A   1      43.813  24.125  28.377  1.00  0.00     0.054 A 
ATOM     16  N   UNL A   1      42.491  22.527  27.395  1.00  0.00    -0.240 N 
ATOM     17  C   UNL A   1      42.700  23.282  28.562  1.00  0.00     0.117 A 
ATOM     18  C   UNL A   1      43.317  22.966  26.386  1.00  0.00     0.065 A 
ATOM     19  C   UNL A   1      44.221  23.850  26.997  1.00  0.00     0.012 A 
ATOM     20  C   UNL A   1      43.380  22.653  25.010  1.00  0.00     0.028 A 
ATOM     21  C   UNL A   1      45.279  24.336  26.198  1.00  0.00     0.011 A 
ATOM     22  C   UNL A   1      44.426  23.178  24.254  1.00  0.00     0.002 A 
ATOM     23  C   UNL A   1      45.378  23.993  24.847  1.00  0.00     0.001 A 
BRANCH  16  24
ATOM     24  S   UNL A   1      41.197  21.406  27.089  1.00  0.00     0.268 S 
ATOM     25  O   UNL A   1      40.871  20.845  28.386  1.00  0.00    -0.201 OA
ATOM     26  O   UNL A   1      41.648  20.553  25.997  1.00  0.00    -0.201 OA
BRANCH  24  27
ATOM     27  C   UNL A   1      39.703  22.246  26.522  1.00  0.00     0.088 A 
ATOM     28  C   UNL A   1      35.997  24.068  25.169  1.00  0.00     0.044 C 
ATOM     29  C   UNL A   1      37.275  23.427  25.641  1.00  0.00    -0.051 A 
ATOM     30  C   UNL A   1      37.615  22.131  25.240  1.00  0.00     0.005 A 
ATOM     31  C   UNL A   1      38.164  24.121  26.476  1.00  0.00     0.005 A 
ATOM     32  C   UNL A   1      38.815  21.540  25.683  1.00  0.00     0.022 A 
ATOM     33  C   UNL A   1      39.374  23.544  26.907  1.00  0.00     0.022 A 
ENDBRANCH  24  27
ENDBRANCH  16  24
ENDBRANCH  13  15
ENDBRANCH  10  13
ENDBRANCH   8   9
BRANCH   8  34
ATOM     34  C   UNL A   1      45.081  27.861  27.061  1.00  0.00     0.092 C 
BRANCH  34  35
ATOM     35  C   UNL A   1      46.945  28.051  27.401  1.00  0.00     0.037 A 
ATOM     36  C   UNL A   1      47.998  29.058  27.293  1.00  0.00     0.134 A 
ATOM     37  N   UNL A   1      47.698  27.138  28.155  1.00  0.00    -0.348 N 
ATOM     38  N   UNL A   1      49.177  28.783  27.911  1.00  0.00    -0.245 NA
ATOM     39  C   UNL A   1      48.982  27.591  28.382  1.00  0.00     0.196 A 
ATOM     40  H   UNL A   1      47.352  26.277  28.484  1.00  0.00     0.167 HD
ENDBRANCH  34  35
ENDBRANCH   8  34
ENDBRANCH   6   8
ENDBRANCH   5   6
ENDBRANCH   4   5
ENDBRANCH   3   4
ENDBRANCH   2   3
ENDBRANCH   1   2
BRANCH   1  41
ATOM     41  C   UNL A   1      36.145  31.212  28.700  1.00  0.00     0.188 C 
BRANCH  41  42
ATOM     42  O   UNL A   1      35.502  31.668  29.874  1.00  0.00    -0.376 OA
BRANCH  42  43
ATOM     43  C   UNL A   1      35.880  32.910  30.452  1.00  0.00     0.202 C 
BRANCH  43  44
ATOM     44  C   UNL A   1      34.841  33.180  31.515  1.00  0.00     0.261 C 
BRANCH  44  45
ATOM     45  O   UNL A   1      35.445  33.035  32.831  1.00  0.00    -0.460 OA
BRANCH  45  46
ATOM     46  C   UNL A   1      36.237  34.071  33.243  1.00  0.00     0.338 C 
ATOM     47  O   UNL A   1      35.910  35.246  33.205  1.00  0.00    -0.246 OA
BRANCH  46  48
ATOM     48  C   UNL A   1      37.597  33.558  33.636  1.00  0.00     0.060 A 
ATOM     49  C   UNL A   1      38.600  34.468  33.926  1.00  0.00     0.016 A 
ATOM     50  C   UNL A   1      37.961  32.210  33.483  1.00  0.00     0.016 A 
ATOM     51  C   UNL A   1      39.935  34.047  33.867  1.00  0.00     0.010 A 
ATOM     52  C   UNL A   1      39.307  31.839  33.297  1.00  0.00     0.010 A 
ATOM     53  C   UNL A   1      40.304  32.809  33.308  1.00  0.00    -0.014 A 
BRANCH  53  54
ATOM     54  C   UNL A   1      41.681  32.546  32.638  1.00  0.00     0.031 A 
ATOM     55  C   UNL A   1      42.816  32.263  34.044  1.00  0.00     0.074 A 
ATOM     56  C   UNL A   1      41.970  32.650  31.085  1.00  0.00     0.049 A 
ATOM     57  N   UNL A   1      44.150  32.290  34.086  1.00  0.00    -0.248 NA
ATOM     58  C   UNL A   1      42.370  31.688  35.334  1.00  0.00     0.031 C 
ATOM     59  C   UNL A   1      42.182  31.639  29.931  1.00  0.00     0.029 A 
ATOM     60  N   UNL A   1      42.317  33.803  30.187  1.00  0.00    -0.354 N 
ATOM     61  C   UNL A   1      44.572  31.158  34.782  1.00  0.00     0.074 A 
ATOM     62  C   UNL A   1      43.498  31.082  35.771  1.00  0.00     0.031 C 
ATOM     63  C   UNL A   1      42.921  32.148  28.896  1.00  0.00     0.029 A 
ATOM     64  C   UNL A   1      43.024  33.575  29.025  1.00  0.00     0.049 A 
ATOM     65  H   UNL A   1      42.040  34.717  30.426  1.00  0.00     0.167 HD
ATOM     66  C   UNL A   1      45.477  30.195  34.297  1.00  0.00     0.031 A 
ATOM     67  C   UNL A   1      43.722  34.519  28.332  1.00  0.00     0.031 A 
ATOM     68  C   UNL A   1      46.290  30.423  32.996  1.00  0.00     0.049 A 
ATOM     69  C   UNL A   1      45.207  34.266  28.556  1.00  0.00     0.074 A 
ATOM     70  C   UNL A   1      46.631  29.530  31.958  1.00  0.00     0.029 A 
ATOM     71  N   UNL A   1      46.752  31.655  32.491  1.00  0.00    -0.354 N 
ATOM     72  N   UNL A   1      45.672  33.241  29.232  1.00  0.00    -0.248 NA
ATOM     73  C   UNL A   1      46.271  35.174  28.121  1.00  0.00     0.031 C 
ATOM     74  C   UNL A   1      47.099  30.223  30.813  1.00  0.00     0.029 A 
ATOM     75  C   UNL A   1      47.109  31.567  31.117  1.00  0.00     0.049 A 
ATOM     76  H   UNL A   1      46.819  32.479  33.027  1.00  0.00     0.167 HD
ATOM     77  C   UNL A   1      47.007  33.436  29.495  1.00  0.00     0.074 A 
ATOM     78  C   UNL A   1      47.347  34.623  28.713  1.00  0.00     0.031 C 
ATOM     79  C   UNL A   1      47.740  32.644  30.343  1.00  0.00     0.031 A 
BRANCH  66  80
ATOM     80  C   UNL A   1      45.407  28.687  34.801  1.00  0.00    -0.014 A 
ATOM     81  C   UNL A   1      44.251  27.896  34.561  1.00  0.00     0.010 A 
ATOM     82  C   UNL A   1      46.356  28.049  35.627  1.00  0.00     0.010 A 
ATOM     83  C   UNL A   1      44.007  26.646  35.170  1.00  0.00     0.020 A 
ATOM     84  C   UNL A   1      46.182  26.748  36.156  1.00  0.00     0.020 A 
ATOM     85  C   UNL A   1      44.992  26.063  35.950  1.00  0.00     0.054 A 
BRANCH  85  86
ATOM     86  S   UNL A   1      44.758  24.375  36.574  1.00  0.00     0.124 S 
ATOM     87  O   UNL A   1      43.541  23.944  35.893  1.00  0.00    -0.237 OA
ATOM     88  O   UNL A   1      45.984  23.701  36.152  1.00  0.00    -0.237 OA
ATOM     89  O   UNL A   1      44.630  24.561  38.019  1.00  0.00    -0.744 OA
ENDBRANCH  85  86
ENDBRANCH  66  80
BRANCH  67  90
ATOM     90  C   UNL A   1      43.039  35.879  28.245  1.00  0.00    -0.014 A 
ATOM     91  C   UNL A   1      43.469  36.864  29.173  1.00  0.00     0.010 A 
ATOM     92  C   UNL A   1      42.311  36.343  27.133  1.00  0.00     0.010 A 
ATOM     93  C   UNL A   1      43.348  38.245  28.912  1.00  0.00     0.020 A 
ATOM     94  C   UNL A   1      42.225  37.731  26.845  1.00  0.00     0.020 A 
ATOM     95  C   UNL A   1      42.805  38.672  27.701  1.00  0.00     0.054 A 
BRANCH  95  96
ATOM     96  S   UNL A   1      43.112  40.392  27.118  1.00  0.00     0.124 S 
ATOM     97  O   UNL A   1      43.565  41.069  28.328  1.00  0.00    -0.237 OA
ATOM     98  O   UNL A   1      44.136  40.218  26.088  1.00  0.00    -0.237 OA
ATOM     99  O   UNL A   1      41.817  40.813  26.602  1.00  0.00    -0.744 OA
ENDBRANCH  95  96
ENDBRANCH  67  90
BRANCH  79 100
ATOM    100  C   UNL A   1      49.247  32.649  30.425  1.00  0.00    -0.014 A 
ATOM    101  C   UNL A   1      50.006  33.359  31.363  1.00  0.00     0.010 A 
ATOM    102  C   UNL A   1      49.954  32.035  29.362  1.00  0.00     0.010 A 
ATOM    103  C   UNL A   1      51.405  33.300  31.335  1.00  0.00     0.020 A 
ATOM    104  C   UNL A   1      51.334  32.019  29.287  1.00  0.00     0.020 A 
ATOM    105  C   UNL A   1      52.052  32.596  30.316  1.00  0.00     0.054 A 
BRANCH 105 106
ATOM    106  S   UNL A   1      53.839  32.390  30.363  1.00  0.00     0.124 S 
ATOM    107  O   UNL A   1      54.007  30.989  29.990  1.00  0.00    -0.237 OA
ATOM    108  O   UNL A   1      54.267  33.367  29.366  1.00  0.00    -0.237 OA
ATOM    109  O   UNL A   1      54.191  32.714  31.744  1.00  0.00    -0.744 OA
ENDBRANCH 105 106
ENDBRANCH  79 100
ENDBRANCH  53  54
ENDBRANCH  46  48
ENDBRANCH  45  46
ENDBRANCH  44  45
ENDBRANCH  43  44
ENDBRANCH  42  43
ENDBRANCH  41  42
ENDBRANCH   1  41
TORSDOF 27
ENDMDL
MODEL 3
REMARK VINA RESULT:      -8.3      6.824     16.489
REMARK SMILES Cc1ccc(S(=O)(=O)n2cc(C(=O)C(=O)N[C@@H](Cc3cnc[nH]3)C(=O)OCCOCCOCCOC(=O)c3ccc(-c4c5nc(c(-c6ccc(S(=O)(=O)[O-])cc6)c6ccc([nH]6)c(-c6ccc(S(=O)(=O)[O-])cc6)c6nc(c(-c7ccc(S(=O)(=O)[O-])cc7)c7ccc4[nH]7)C=C6)C=C5)cc3)c3ccccc32)cc1
REMARK SMILES IDX 30 1 29 2 28 3 27 4 26 5 24 6 25 7 17 8 16 9 14 10 15 11
REMARK SMILES IDX 12 13 13 14 11 15 9 16 10 17 103 18 98 19 102 20 99 21
REMARK SMILES IDX 101 22 100 23 6 24 7 25 8 26 5 27 1 28 2 29 3 30 105 31 4 32
REMARK SMILES IDX 104 33 18 34 19 35 20 36 23 37 21 38 22 39 31 41 32 42 33 43
REMARK SMILES IDX 34 44 35 45 36 46 37 47 38 48 39 49 97 50 40 51 96 52 41 53
REMARK SMILES IDX 42 54 43 55 90 56 44 57 95 58 89 59 91 60 45 61 94 62 88 63
REMARK SMILES IDX 87 64 46 66 76 67 57 68 75 69 58 70 61 71 74 72 92 73 59 74
REMARK SMILES IDX 60 75 73 77 93 78 62 79 47 80 48 81 56 82 49 83 55 84 50 85
REMARK SMILES IDX 51 86 52 87 53 88 54 89 77 90 78 91 86 92 79 93 85 94 80 95
REMARK SMILES IDX 81 96 82 97 83 98 84 99 63 100 64 101 72 102 65 103 71 104
REMARK SMILES IDX 66 105 67 106 68 107 69 108 70 109
REMARK H PARENT 16 12 23 40 91 65 61 76
REMARK Flexibility Score: inf
ROOT
ATOM      1  C   UNL A   1      38.163  28.927  30.124  1.00  0.00     0.188 C 
ENDROOT
BRANCH   1   2
ATOM      2  O   UNL A   1      37.627  30.057  29.446  1.00  0.00    -0.376 OA
BRANCH   2   3
ATOM      3  C   UNL A   1      36.323  29.769  28.972  1.00  0.00     0.202 C 
BRANCH   3   4
ATOM      4  C   UNL A   1      36.185  29.702  27.439  1.00  0.00     0.261 C 
BRANCH   4   5
ATOM      5  O   UNL A   1      34.740  29.280  26.773  1.00  0.00    -0.462 OA
BRANCH   5   6
ATOM      6  C   UNL A   1      33.365  29.553  26.481  1.00  0.00     0.329 C 
ATOM      7  O   UNL A   1      32.672  29.694  27.493  1.00  0.00    -0.250 OA
BRANCH   6   8
ATOM      8  C   UNL A   1      32.483  29.725  24.887  1.00  0.00     0.198 C 
BRANCH   8   9
ATOM      9  N   UNL A   1      33.574  29.321  23.832  1.00  0.00    -0.335 N 
ATOM     10  C   UNL A   1      33.733  28.283  22.856  1.00  0.00     0.293 C 
ATOM     11  O   UNL A   1      34.613  28.449  22.004  1.00  0.00    -0.265 OA
ATOM     12  H   UNL A   1      34.343  29.936  23.843  1.00  0.00     0.164 HD
BRANCH  10  13
ATOM     13  C   UNL A   1      32.967  26.926  22.797  1.00  0.00     0.252 C 
ATOM     14  O   UNL A   1      31.969  26.984  22.067  1.00  0.00    -0.283 OA
BRANCH  13  15
ATOM     15  C   UNL A   1      33.169  25.705  23.724  1.00  0.00     0.054 A 
ATOM     16  N   UNL A   1      33.859  23.884  24.937  1.00  0.00    -0.240 N 
ATOM     17  C   UNL A   1      34.250  24.841  23.985  1.00  0.00     0.117 A 
ATOM     18  C   UNL A   1      32.616  24.191  25.442  1.00  0.00     0.065 A 
ATOM     19  C   UNL A   1      32.121  25.220  24.626  1.00  0.00     0.012 A 
ATOM     20  C   UNL A   1      31.868  23.648  26.511  1.00  0.00     0.028 A 
ATOM     21  C   UNL A   1      30.786  25.624  24.844  1.00  0.00     0.011 A 
ATOM     22  C   UNL A   1      30.564  24.097  26.706  1.00  0.00     0.002 A 
ATOM     23  C   UNL A   1      30.020  25.058  25.868  1.00  0.00     0.001 A 
BRANCH  16  24
ATOM     24  S   UNL A   1      34.854  22.651  25.654  1.00  0.00     0.268 S 
ATOM     25  O   UNL A   1      34.518  22.671  27.065  1.00  0.00    -0.201 OA
ATOM     26  O   UNL A   1      36.215  22.914  25.205  1.00  0.00    -0.201 OA
BRANCH  24  27
ATOM     27  C   UNL A   1      34.410  21.004  25.062  1.00  0.00     0.088 A 
ATOM     28  C   UNL A   1      33.214  17.140  23.474  1.00  0.00     0.044 C 
ATOM     29  C   UNL A   1      33.625  18.484  24.014  1.00  0.00    -0.051 A 
ATOM     30  C   UNL A   1      32.721  19.551  24.036  1.00  0.00     0.005 A 
ATOM     31  C   UNL A   1      34.913  18.692  24.528  1.00  0.00     0.005 A 
ATOM     32  C   UNL A   1      33.111  20.805  24.548  1.00  0.00     0.022 A 
ATOM     33  C   UNL A   1      35.304  19.937  25.057  1.00  0.00     0.022 A 
ENDBRANCH  24  27
ENDBRANCH  16  24
ENDBRANCH  13  15
ENDBRANCH  10  13
ENDBRANCH   8   9
BRANCH   8  34
ATOM     34  C   UNL A   1      30.672  29.400  24.334  1.00  0.00     0.092 C 
BRANCH  34  35
ATOM     35  C   UNL A   1      29.655  29.916  22.809  1.00  0.00     0.037 A 
ATOM     36  C   UNL A   1      28.563  29.414  21.978  1.00  0.00     0.134 A 
ATOM     37  N   UNL A   1      29.659  31.212  22.270  1.00  0.00    -0.348 N 
ATOM     38  N   UNL A   1      28.001  30.291  21.106  1.00  0.00    -0.245 NA
ATOM     39  C   UNL A   1      28.719  31.358  21.269  1.00  0.00     0.196 A 
ATOM     40  H   UNL A   1      30.259  31.932  22.571  1.00  0.00     0.167 HD
ENDBRANCH  34  35
ENDBRANCH   8  34
ENDBRANCH   6   8
ENDBRANCH   5   6
ENDBRANCH   4   5
ENDBRANCH   3   4
ENDBRANCH   2   3
ENDBRANCH   1   2
BRANCH   1  41
ATOM     41  C   UNL A   1      38.992  28.013  29.220  1.00  0.00     0.188 C 
BRANCH  41  42
ATOM     42  O   UNL A   1      40.382  27.991  29.476  1.00  0.00    -0.376 OA
BRANCH  42  43
ATOM     43  C   UNL A   1      41.047  29.179  29.886  1.00  0.00     0.202 C 
BRANCH  43  44
ATOM     44  C   UNL A   1      42.246  28.705  30.674  1.00  0.00     0.261 C 
BRANCH  44  45
ATOM     45  O   UNL A   1      42.443  27.281  30.446  1.00  0.00    -0.460 OA
BRANCH  45  46
ATOM     46  C   UNL A   1      43.654  26.776  30.830  1.00  0.00     0.338 C 
ATOM     47  O   UNL A   1      44.279  25.932  30.209  1.00  0.00    -0.246 OA
BRANCH  46  48
ATOM     48  C   UNL A   1      44.040  27.329  32.177  1.00  0.00     0.060 A 
ATOM     49  C   UNL A   1      43.149  27.211  33.232  1.00  0.00     0.016 A 
ATOM     50  C   UNL A   1      45.151  28.169  32.350  1.00  0.00     0.016 A 
ATOM     51  C   UNL A   1      43.287  28.066  34.333  1.00  0.00     0.010 A 
ATOM     52  C   UNL A   1      45.194  29.109  33.399  1.00  0.00     0.010 A 
ATOM     53  C   UNL A   1      44.145  29.181  34.311  1.00  0.00    -0.014 A 
BRANCH  53  54
ATOM     54  C   UNL A   1      43.903  30.468  35.148  1.00  0.00     0.031 A 
ATOM     55  C   UNL A   1      44.243  29.952  36.870  1.00  0.00     0.074 A 
ATOM     56  C   UNL A   1      43.357  31.838  34.571  1.00  0.00     0.049 A 
ATOM     57  N   UNL A   1      43.913  30.542  38.020  1.00  0.00    -0.248 NA
ATOM     58  C   UNL A   1      45.205  28.879  37.212  1.00  0.00     0.031 C 
ATOM     59  C   UNL A   1      43.975  33.215  34.224  1.00  0.00     0.029 A 
ATOM     60  N   UNL A   1      41.971  32.353  34.305  1.00  0.00    -0.354 N 
ATOM     61  C   UNL A   1      45.048  30.548  38.831  1.00  0.00     0.074 A 
ATOM     62  C   UNL A   1      45.615  29.258  38.444  1.00  0.00     0.031 C 
ATOM     63  C   UNL A   1      43.069  34.241  34.269  1.00  0.00     0.029 A 
ATOM     64  C   UNL A   1      41.734  33.711  34.314  1.00  0.00     0.049 A 
ATOM     65  H   UNL A   1      41.236  31.724  34.125  1.00  0.00     0.167 HD
ATOM     66  C   UNL A   1      45.621  31.693  39.418  1.00  0.00     0.031 A 
ATOM     67  C   UNL A   1      40.512  34.294  34.469  1.00  0.00     0.031 A 
ATOM     68  C   UNL A   1      44.896  33.064  39.408  1.00  0.00     0.049 A 
ATOM     69  C   UNL A   1      40.453  34.899  35.867  1.00  0.00     0.074 A 
ATOM     70  C   UNL A   1      45.401  34.368  39.222  1.00  0.00     0.029 A 
ATOM     71  N   UNL A   1      43.504  33.286  39.441  1.00  0.00    -0.354 N 
ATOM     72  N   UNL A   1      41.472  34.908  36.693  1.00  0.00    -0.248 NA
ATOM     73  C   UNL A   1      39.241  35.457  36.470  1.00  0.00     0.031 C 
ATOM     74  C   UNL A   1      44.358  35.294  38.966  1.00  0.00     0.029 A 
ATOM     75  C   UNL A   1      43.167  34.606  39.029  1.00  0.00     0.049 A 
ATOM     76  H   UNL A   1      42.845  32.608  39.714  1.00  0.00     0.167 HD
ATOM     77  C   UNL A   1      41.037  35.262  37.949  1.00  0.00     0.074 A 
ATOM     78  C   UNL A   1      39.649  35.667  37.736  1.00  0.00     0.031 C 
ATOM     79  C   UNL A   1      41.815  35.179  39.076  1.00  0.00     0.031 A 
BRANCH  66  80
ATOM     80  C   UNL A   1      47.179  31.748  39.739  1.00  0.00    -0.014 A 
ATOM     81  C   UNL A   1      47.806  30.698  40.462  1.00  0.00     0.010 A 
ATOM     82  C   UNL A   1      48.031  32.846  39.499  1.00  0.00     0.010 A 
ATOM     83  C   UNL A   1      49.112  30.773  40.993  1.00  0.00     0.020 A 
ATOM     84  C   UNL A   1      49.381  32.893  39.923  1.00  0.00     0.020 A 
ATOM     85  C   UNL A   1      49.907  31.868  40.697  1.00  0.00     0.054 A 
BRANCH  85  86
ATOM     86  S   UNL A   1      51.647  31.878  41.215  1.00  0.00     0.124 S 
ATOM     87  O   UNL A   1      51.645  30.988  42.371  1.00  0.00    -0.237 OA
ATOM     88  O   UNL A   1      52.340  31.369  40.033  1.00  0.00    -0.237 OA
ATOM     89  O   UNL A   1      51.904  33.286  41.514  1.00  0.00    -0.744 OA
ENDBRANCH  85  86
ENDBRANCH  66  80
BRANCH  67  90
ATOM     90  C   UNL A   1      39.373  33.591  33.739  1.00  0.00    -0.014 A 
ATOM     91  C   UNL A   1      38.386  32.974  34.552  1.00  0.00     0.010 A 
ATOM     92  C   UNL A   1      39.030  33.805  32.392  1.00  0.00     0.010 A 
ATOM     93  C   UNL A   1      37.068  32.760  34.098  1.00  0.00     0.020 A 
ATOM     94  C   UNL A   1      37.693  33.631  31.943  1.00  0.00     0.020 A 
ATOM     95  C   UNL A   1      36.703  33.175  32.818  1.00  0.00     0.054 A 
BRANCH  95  96
ATOM     96  S   UNL A   1      34.923  33.391  32.400  1.00  0.00     0.124 S 
ATOM     97  O   UNL A   1      34.890  34.718  31.798  1.00  0.00    -0.237 OA
ATOM     98  O   UNL A   1      34.660  32.287  31.477  1.00  0.00    -0.237 OA
ATOM     99  O   UNL A   1      34.252  33.260  33.687  1.00  0.00    -0.744 OA
ENDBRANCH  95  96
ENDBRANCH  67  90
BRANCH  79 100
ATOM    100  C   UNL A   1      41.474  35.825  40.397  1.00  0.00    -0.014 A 
ATOM    101  C   UNL A   1      40.873  35.179  41.484  1.00  0.00     0.010 A 
ATOM    102  C   UNL A   1      41.604  37.234  40.480  1.00  0.00     0.010 A 
ATOM    103  C   UNL A   1      40.590  35.885  42.660  1.00  0.00     0.020 A 
ATOM    104  C   UNL A   1      41.272  37.953  41.612  1.00  0.00     0.020 A 
ATOM    105  C   UNL A   1      40.830  37.260  42.722  1.00  0.00     0.054 A 
BRANCH 105 106
ATOM    106  S   UNL A   1      40.610  38.140  44.277  1.00  0.00     0.124 S 
ATOM    107  O   UNL A   1      40.719  37.070  45.264  1.00  0.00    -0.237 OA
ATOM    108  O   UNL A   1      41.726  39.081  44.235  1.00  0.00    -0.237 OA
ATOM    109  O   UNL A   1      39.284  38.740  44.153  1.00  0.00    -0.744 OA
ENDBRANCH 105 106
ENDBRANCH  79 100
ENDBRANCH  53  54
ENDBRANCH  46  48
ENDBRANCH  45  46
ENDBRANCH  44  45
ENDBRANCH  43  44
ENDBRANCH  42  43
ENDBRANCH  41  42
ENDBRANCH   1  41
TORSDOF 27
ENDMDL
