MODEL 1
REMARK VINA RESULT:     -10.6      0.000      0.000
REMARK SMILES COc1ccc(-n2c(SCc3cn(-c4ccc(C(=O)OCCOCCOCCOC(=O)c5ccc(-c6c7nc(c(-c8ccc(S(=O)(=O)[O-])cc8)c8ccc([nH]8)c(-c8ccc(S(=O)(=O)[O-])cc8)c8nc(c(-c9ccc(S(=O)(=O)[O-])cc9)c9ccc6[nH]9)C=C8)C=C7)cc5)cc4)nn3)nc3ccccc3c2=O)cc1
REMARK SMILES IDX 23 1 22 2 21 3 20 4 18 5 19 6 17 7 14 8 15 9 93 10 16 11
REMARK SMILES IDX 92 12 13 13 11 14 12 15 95 16 94 17 10 18 9 19 8 20 7 21
REMARK SMILES IDX 103 22 96 23 102 24 104 25 97 26 101 27 98 28 100 29 99 30
REMARK SMILES IDX 6 31 3 32 4 33 106 34 5 35 105 36 2 37 1 38 24 39 25 40
REMARK SMILES IDX 26 41 27 42 28 43 29 44 30 45 31 46 32 47 33 48 91 49 34 50
REMARK SMILES IDX 90 51 35 52 36 53 37 54 84 55 38 56 89 57 83 58 85 59 39 60
REMARK SMILES IDX 88 61 82 62 81 63 40 65 70 66 51 67 69 68 52 69 55 70 68 71
REMARK SMILES IDX 86 72 53 73 54 74 67 76 87 77 56 78 41 79 42 80 50 81 43 82
REMARK SMILES IDX 49 83 44 84 45 85 46 86 47 87 48 88 71 89 72 90 80 91 73 92
REMARK SMILES IDX 79 93 74 94 75 95 76 96 77 97 78 98 57 99 58 100 66 101
REMARK SMILES IDX 59 102 65 103 60 104 61 105 62 106 63 107 64 108
REMARK H PARENT 85 64 55 75
REMARK Flexibility Score: inf
ROOT
ATOM      1  O   UNL A   1      41.275  28.868  32.117  1.00  0.00    -0.376 OA
ENDROOT
BRANCH   1   2
ATOM      2  C   UNL A   1      41.448  28.565  30.737  1.00  0.00     0.202 C 
BRANCH   2   3
ATOM      3  C   UNL A   1      42.852  28.232  30.199  1.00  0.00     0.261 C 
BRANCH   3   4
ATOM      4  O   UNL A   1      42.853  27.514  28.958  1.00  0.00    -0.460 OA
BRANCH   4   5
ATOM      5  C   UNL A   1      43.014  26.173  29.038  1.00  0.00     0.338 C 
ATOM      6  O   UNL A   1      43.816  25.564  29.722  1.00  0.00    -0.246 OA
BRANCH   5   7
ATOM      7  C   UNL A   1      41.905  25.514  28.310  1.00  0.00     0.060 A 
ATOM      8  C   UNL A   1      39.832  24.124  27.102  1.00  0.00     0.066 A 
ATOM      9  C   UNL A   1      41.022  23.454  27.397  1.00  0.00     0.029 A 
ATOM     10  C   UNL A   1      39.655  25.475  27.425  1.00  0.00     0.029 A 
ATOM     11  C   UNL A   1      42.052  24.149  28.024  1.00  0.00     0.018 A 
ATOM     12  C   UNL A   1      40.714  26.182  27.997  1.00  0.00     0.018 A 
BRANCH   8  13
ATOM     13  N   UNL A   1      38.856  23.480  26.327  1.00  0.00    -0.220 N 
ATOM     14  C   UNL A   1      36.854  22.991  25.653  1.00  0.00     0.093 A 
ATOM     15  C   UNL A   1      37.675  24.059  25.937  1.00  0.00     0.141 A 
ATOM     16  N   UNL A   1      37.592  21.840  25.711  1.00  0.00    -0.134 NA
ATOM     17  N   UNL A   1      38.798  22.145  26.164  1.00  0.00    -0.062 NA
BRANCH  14  18
ATOM     18  C   UNL A   1      35.400  22.902  25.443  1.00  0.00     0.138 C 
BRANCH  18  19
ATOM     19  S   UNL A   1      34.453  22.300  26.819  1.00  0.00    -0.081 SA
BRANCH  19  20
ATOM     20  C   UNL A   1      32.931  21.630  26.205  1.00  0.00     0.176 A 
ATOM     21  N   UNL A   1      32.988  20.853  25.058  1.00  0.00    -0.255 N 
ATOM     22  C   UNL A   1      32.335  21.310  23.914  1.00  0.00     0.266 A 
ATOM     23  N   UNL A   1      31.930  22.416  26.450  1.00  0.00    -0.223 NA
ATOM     24  C   UNL A   1      31.840  22.703  24.026  1.00  0.00     0.066 A 
ATOM     25  O   UNL A   1      32.171  20.689  22.869  1.00  0.00    -0.268 OA
ATOM     26  C   UNL A   1      31.584  23.174  25.319  1.00  0.00     0.079 A 
ATOM     27  C   UNL A   1      31.815  23.565  22.931  1.00  0.00     0.016 A 
ATOM     28  C   UNL A   1      31.274  24.519  25.513  1.00  0.00     0.029 A 
ATOM     29  C   UNL A   1      31.570  24.925  23.147  1.00  0.00     0.001 A 
ATOM     30  C   UNL A   1      31.294  25.398  24.433  1.00  0.00     0.002 A 
BRANCH  21  31
ATOM     31  C   UNL A   1      33.352  19.486  25.161  1.00  0.00     0.052 A 
ATOM     32  C   UNL A   1      33.621  16.740  24.843  1.00  0.00     0.119 A 
ATOM     33  C   UNL A   1      34.545  17.587  24.240  1.00  0.00     0.048 A 
ATOM     34  C   UNL A   1      32.672  17.246  25.733  1.00  0.00     0.048 A 
ATOM     35  C   UNL A   1      34.396  18.968  24.379  1.00  0.00     0.030 A 
ATOM     36  C   UNL A   1      32.556  18.624  25.917  1.00  0.00     0.030 A 
BRANCH  32  37
ATOM     37  O   UNL A   1      33.660  15.406  24.541  1.00  0.00    -0.497 OA
ATOM     38  C   UNL A   1      32.902  14.662  25.504  1.00  0.00     0.278 C 
ENDBRANCH  32  37
ENDBRANCH  21  31
ENDBRANCH  19  20
ENDBRANCH  18  19
ENDBRANCH  14  18
ENDBRANCH   8  13
ENDBRANCH   5   7
ENDBRANCH   4   5
ENDBRANCH   3   4
ENDBRANCH   2   3
ENDBRANCH   1   2
BRANCH   1  39
ATOM     39  C   UNL A   1      41.651  30.149  32.613  1.00  0.00     0.188 C 
BRANCH  39  40
ATOM     40  C   UNL A   1      40.735  30.913  33.593  1.00  0.00     0.188 C 
BRANCH  40  41
ATOM     41  O   UNL A   1      39.455  31.234  33.077  1.00  0.00    -0.376 OA
BRANCH  41  42
ATOM     42  C   UNL A   1      39.025  32.584  33.177  1.00  0.00     0.202 C 
BRANCH  42  43
ATOM     43  C   UNL A   1      38.637  33.321  31.895  1.00  0.00     0.261 C 
BRANCH  43  44
ATOM     44  O   UNL A   1      39.657  34.114  31.307  1.00  0.00    -0.460 OA
BRANCH  44  45
ATOM     45  C   UNL A   1      39.418  34.531  30.046  1.00  0.00     0.338 C 
ATOM     46  O   UNL A   1      38.336  34.592  29.491  1.00  0.00    -0.246 OA
BRANCH  45  47
ATOM     47  C   UNL A   1      40.708  34.849  29.420  1.00  0.00     0.060 A 
ATOM     48  C   UNL A   1      41.815  35.009  30.256  1.00  0.00     0.016 A 
ATOM     49  C   UNL A   1      40.732  35.243  28.073  1.00  0.00     0.016 A 
ATOM     50  C   UNL A   1      42.877  35.758  29.797  1.00  0.00     0.010 A 
ATOM     51  C   UNL A   1      41.780  36.010  27.624  1.00  0.00     0.010 A 
ATOM     52  C   UNL A   1      42.795  36.330  28.523  1.00  0.00    -0.014 A 
BRANCH  52  53
ATOM     53  C   UNL A   1      43.743  37.371  28.192  1.00  0.00     0.031 A 
ATOM     54  C   UNL A   1      45.158  36.972  28.149  1.00  0.00     0.074 A 
ATOM     55  C   UNL A   1      43.337  38.605  27.843  1.00  0.00     0.049 A 
ATOM     56  N   UNL A   1      46.104  37.334  28.949  1.00  0.00    -0.248 NA
ATOM     57  C   UNL A   1      45.549  35.974  27.145  1.00  0.00     0.031 C 
ATOM     58  C   UNL A   1      41.976  39.040  27.512  1.00  0.00     0.029 A 
ATOM     59  N   UNL A   1      44.093  39.707  27.591  1.00  0.00    -0.354 N 
ATOM     60  C   UNL A   1      47.258  36.755  28.442  1.00  0.00     0.074 A 
ATOM     61  C   UNL A   1      46.838  35.805  27.440  1.00  0.00     0.031 C 
ATOM     62  C   UNL A   1      42.041  40.237  26.889  1.00  0.00     0.029 A 
ATOM     63  C   UNL A   1      43.421  40.698  26.895  1.00  0.00     0.049 A 
ATOM     64  H   UNL A   1      45.030  39.792  27.876  1.00  0.00     0.167 HD
ATOM     65  C   UNL A   1      48.495  37.248  28.711  1.00  0.00     0.031 A 
ATOM     66  C   UNL A   1      43.983  41.770  26.285  1.00  0.00     0.031 A 
ATOM     67  C   UNL A   1      48.491  38.205  29.784  1.00  0.00     0.049 A 
ATOM     68  C   UNL A   1      45.332  41.970  26.871  1.00  0.00     0.074 A 
ATOM     69  C   UNL A   1      48.145  38.170  31.119  1.00  0.00     0.029 A 
ATOM     70  N   UNL A   1      48.565  39.534  29.439  1.00  0.00    -0.354 N 
ATOM     71  N   UNL A   1      45.543  42.360  28.097  1.00  0.00    -0.248 NA
ATOM     72  C   UNL A   1      46.482  41.370  26.208  1.00  0.00     0.031 C 
ATOM     73  C   UNL A   1      47.615  39.461  31.405  1.00  0.00     0.029 A 
ATOM     74  C   UNL A   1      47.683  40.222  30.235  1.00  0.00     0.049 A 
ATOM     75  H   UNL A   1      49.146  39.923  28.746  1.00  0.00     0.167 HD
ATOM     76  C   UNL A   1      46.696  41.697  28.493  1.00  0.00     0.074 A 
ATOM     77  C   UNL A   1      47.293  41.207  27.256  1.00  0.00     0.031 C 
ATOM     78  C   UNL A   1      46.912  41.370  29.803  1.00  0.00     0.031 A 
BRANCH  65  79
ATOM     79  C   UNL A   1      49.645  37.128  27.752  1.00  0.00    -0.014 A 
ATOM     80  C   UNL A   1      49.490  37.573  26.427  1.00  0.00     0.010 A 
ATOM     81  C   UNL A   1      50.790  36.356  28.047  1.00  0.00     0.010 A 
ATOM     82  C   UNL A   1      50.418  37.226  25.437  1.00  0.00     0.020 A 
ATOM     83  C   UNL A   1      51.745  36.048  27.081  1.00  0.00     0.020 A 
ATOM     84  C   UNL A   1      51.533  36.455  25.771  1.00  0.00     0.054 A 
BRANCH  84  85
ATOM     85  S   UNL A   1      52.667  35.917  24.470  1.00  0.00     0.124 S 
ATOM     86  O   UNL A   1      52.907  37.165  23.751  1.00  0.00    -0.237 OA
ATOM     87  O   UNL A   1      53.797  35.397  25.234  1.00  0.00    -0.237 OA
ATOM     88  O   UNL A   1      51.898  34.910  23.741  1.00  0.00    -0.744 OA
ENDBRANCH  84  85
ENDBRANCH  65  79
BRANCH  66  89
ATOM     89  C   UNL A   1      43.540  42.419  25.029  1.00  0.00    -0.014 A 
ATOM     90  C   UNL A   1      44.372  43.333  24.357  1.00  0.00     0.010 A 
ATOM     91  C   UNL A   1      42.400  41.947  24.345  1.00  0.00     0.010 A 
ATOM     92  C   UNL A   1      44.105  43.711  23.031  1.00  0.00     0.020 A 
ATOM     93  C   UNL A   1      42.118  42.330  23.031  1.00  0.00     0.020 A 
ATOM     94  C   UNL A   1      42.988  43.191  22.370  1.00  0.00     0.054 A 
BRANCH  94  95
ATOM     95  S   UNL A   1      42.752  43.537  20.604  1.00  0.00     0.124 S 
ATOM     96  O   UNL A   1      41.457  44.210  20.591  1.00  0.00    -0.237 OA
ATOM     97  O   UNL A   1      43.904  44.375  20.288  1.00  0.00    -0.237 OA
ATOM     98  O   UNL A   1      42.769  42.210  19.989  1.00  0.00    -0.744 OA
ENDBRANCH  94  95
ENDBRANCH  66  89
BRANCH  78  99
ATOM     99  C   UNL A   1      46.075  42.054  30.860  1.00  0.00    -0.014 A 
ATOM    100  C   UNL A   1      46.253  43.399  31.238  1.00  0.00     0.010 A 
ATOM    101  C   UNL A   1      44.973  41.353  31.382  1.00  0.00     0.010 A 
ATOM    102  C   UNL A   1      45.370  44.015  32.136  1.00  0.00     0.020 A 
ATOM    103  C   UNL A   1      44.077  41.967  32.262  1.00  0.00     0.020 A 
ATOM    104  C   UNL A   1      44.286  43.294  32.642  1.00  0.00     0.054 A 
BRANCH 104 105
ATOM    105  S   UNL A   1      43.109  44.120  33.751  1.00  0.00     0.124 S 
ATOM    106  O   UNL A   1      43.826  45.337  34.122  1.00  0.00    -0.237 OA
ATOM    107  O   UNL A   1      41.939  44.314  32.898  1.00  0.00    -0.237 OA
ATOM    108  O   UNL A   1      42.920  43.157  34.836  1.00  0.00    -0.744 OA
ENDBRANCH 104 105
ENDBRANCH  78  99
ENDBRANCH  52  53
ENDBRANCH  45  47
ENDBRANCH  44  45
ENDBRANCH  43  44
ENDBRANCH  42  43
ENDBRANCH  41  42
ENDBRANCH  40  41
ENDBRANCH  39  40
ENDBRANCH   1  39
TORSDOF 26
ENDMDL
MODEL 2
REMARK VINA RESULT:     -10.0      6.227     11.315
REMARK SMILES COc1ccc(-n2c(SCc3cn(-c4ccc(C(=O)OCCOCCOCCOC(=O)c5ccc(-c6c7nc(c(-c8ccc(S(=O)(=O)[O-])cc8)c8ccc([nH]8)c(-c8ccc(S(=O)(=O)[O-])cc8)c8nc(c(-c9ccc(S(=O)(=O)[O-])cc9)c9ccc6[nH]9)C=C8)C=C7)cc5)cc4)nn3)nc3ccccc3c2=O)cc1
REMARK SMILES IDX 23 1 22 2 21 3 20 4 18 5 19 6 17 7 14 8 15 9 93 10 16 11
REMARK SMILES IDX 92 12 13 13 11 14 12 15 95 16 94 17 10 18 9 19 8 20 7 21
REMARK SMILES IDX 103 22 96 23 102 24 104 25 97 26 101 27 98 28 100 29 99 30
REMARK SMILES IDX 6 31 3 32 4 33 106 34 5 35 105 36 2 37 1 38 24 39 25 40
REMARK SMILES IDX 26 41 27 42 28 43 29 44 30 45 31 46 32 47 33 48 91 49 34 50
REMARK SMILES IDX 90 51 35 52 36 53 37 54 84 55 38 56 89 57 83 58 85 59 39 60
REMARK SMILES IDX 88 61 82 62 81 63 40 65 70 66 51 67 69 68 52 69 55 70 68 71
REMARK SMILES IDX 86 72 53 73 54 74 67 76 87 77 56 78 41 79 42 80 50 81 43 82
REMARK SMILES IDX 49 83 44 84 45 85 46 86 47 87 48 88 71 89 72 90 80 91 73 92
REMARK SMILES IDX 79 93 74 94 75 95 76 96 77 97 78 98 57 99 58 100 66 101
REMARK SMILES IDX 59 102 65 103 60 104 61 105 62 106 63 107 64 108
REMARK H PARENT 85 64 55 75
REMARK Flexibility Score: inf
ROOT
ATOM      1  O   UNL A   1      42.177  28.628  28.547  1.00  0.00    -0.376 OA
ENDROOT
BRANCH   1   2
ATOM      2  C   UNL A   1      43.144  27.908  29.304  1.00  0.00     0.202 C 
BRANCH   2   3
ATOM      3  C   UNL A   1      43.600  26.515  28.833  1.00  0.00     0.261 C 
BRANCH   3   4
ATOM      4  O   UNL A   1      43.103  25.431  29.629  1.00  0.00    -0.460 OA
BRANCH   4   5
ATOM      5  C   UNL A   1      43.549  24.195  29.309  1.00  0.00     0.338 C 
ATOM      6  O   UNL A   1      44.527  23.623  29.755  1.00  0.00    -0.246 OA
BRANCH   5   7
ATOM      7  C   UNL A   1      42.534  23.524  28.463  1.00  0.00     0.060 A 
ATOM      8  C   UNL A   1      40.657  22.091  27.009  1.00  0.00     0.066 A 
ATOM      9  C   UNL A   1      41.924  21.539  27.220  1.00  0.00     0.029 A 
ATOM     10  C   UNL A   1      40.308  23.340  27.537  1.00  0.00     0.029 A 
ATOM     11  C   UNL A   1      42.855  22.251  27.970  1.00  0.00     0.018 A 
ATOM     12  C   UNL A   1      41.267  24.076  28.235  1.00  0.00     0.018 A 
BRANCH   8  13
ATOM     13  N   UNL A   1      39.773  21.460  26.122  1.00  0.00    -0.220 N 
ATOM     14  C   UNL A   1      37.852  20.939  25.263  1.00  0.00     0.093 A 
ATOM     15  C   UNL A   1      38.603  22.017  25.673  1.00  0.00     0.141 A 
ATOM     16  N   UNL A   1      38.630  19.814  25.314  1.00  0.00    -0.134 NA
ATOM     17  N   UNL A   1      39.784  20.135  25.879  1.00  0.00    -0.062 NA
BRANCH  14  18
ATOM     18  C   UNL A   1      36.423  20.809  24.932  1.00  0.00     0.138 C 
BRANCH  18  19
ATOM     19  S   UNL A   1      35.665  22.235  24.195  1.00  0.00    -0.081 SA
BRANCH  19  20
ATOM     20  C   UNL A   1      34.050  22.439  24.895  1.00  0.00     0.176 A 
ATOM     21  N   UNL A   1      32.972  21.940  24.179  1.00  0.00    -0.255 N 
ATOM     22  C   UNL A   1      32.019  22.838  23.703  1.00  0.00     0.266 A 
ATOM     23  N   UNL A   1      33.964  23.530  25.589  1.00  0.00    -0.223 NA
ATOM     24  C   UNL A   1      32.414  24.260  23.847  1.00  0.00     0.066 A 
ATOM     25  O   UNL A   1      30.946  22.556  23.178  1.00  0.00    -0.268 OA
ATOM     26  C   UNL A   1      33.336  24.554  24.859  1.00  0.00     0.079 A 
ATOM     27  C   UNL A   1      32.047  25.225  22.910  1.00  0.00     0.016 A 
ATOM     28  C   UNL A   1      33.876  25.836  24.948  1.00  0.00     0.029 A 
ATOM     29  C   UNL A   1      32.647  26.486  22.969  1.00  0.00     0.001 A 
ATOM     30  C   UNL A   1      33.553  26.792  23.989  1.00  0.00     0.002 A 
BRANCH  21  31
ATOM     31  C   UNL A   1      32.654  20.561  24.272  1.00  0.00     0.052 A 
ATOM     32  C   UNL A   1      32.708  17.785  24.352  1.00  0.00     0.119 A 
ATOM     33  C   UNL A   1      32.741  18.499  25.546  1.00  0.00     0.048 A 
ATOM     34  C   UNL A   1      32.481  18.440  23.141  1.00  0.00     0.048 A 
ATOM     35  C   UNL A   1      32.739  19.895  25.505  1.00  0.00     0.030 A 
ATOM     36  C   UNL A   1      32.423  19.834  23.104  1.00  0.00     0.030 A 
BRANCH  32  37
ATOM     37  O   UNL A   1      32.907  16.431  24.394  1.00  0.00    -0.497 OA
ATOM     38  C   UNL A   1      33.982  16.121  25.291  1.00  0.00     0.278 C 
ENDBRANCH  32  37
ENDBRANCH  21  31
ENDBRANCH  19  20
ENDBRANCH  18  19
ENDBRANCH  14  18
ENDBRANCH   8  13
ENDBRANCH   5   7
ENDBRANCH   4   5
ENDBRANCH   3   4
ENDBRANCH   2   3
ENDBRANCH   1   2
BRANCH   1  39
ATOM     39  C   UNL A   1      41.166  27.921  27.836  1.00  0.00     0.188 C 
BRANCH  39  40
ATOM     40  C   UNL A   1      39.831  27.554  28.521  1.00  0.00     0.188 C 
BRANCH  40  41
ATOM     41  O   UNL A   1      39.111  28.659  29.039  1.00  0.00    -0.376 OA
BRANCH  41  42
ATOM     42  C   UNL A   1      38.588  29.597  28.111  1.00  0.00     0.202 C 
BRANCH  42  43
ATOM     43  C   UNL A   1      37.086  29.883  28.133  1.00  0.00     0.261 C 
BRANCH  43  44
ATOM     44  O   UNL A   1      36.720  31.255  28.164  1.00  0.00    -0.460 OA
BRANCH  44  45
ATOM     45  C   UNL A   1      35.613  31.547  28.878  1.00  0.00     0.338 C 
ATOM     46  O   UNL A   1      34.466  31.561  28.472  1.00  0.00    -0.246 OA
BRANCH  45  47
ATOM     47  C   UNL A   1      36.032  31.911  30.239  1.00  0.00     0.060 A 
ATOM     48  C   UNL A   1      36.765  33.089  30.399  1.00  0.00     0.016 A 
ATOM     49  C   UNL A   1      35.927  30.956  31.262  1.00  0.00     0.016 A 
ATOM     50  C   UNL A   1      37.568  33.210  31.514  1.00  0.00     0.010 A 
ATOM     51  C   UNL A   1      36.745  31.067  32.361  1.00  0.00     0.010 A 
ATOM     52  C   UNL A   1      37.619  32.149  32.425  1.00  0.00    -0.014 A 
BRANCH  52  53
ATOM     53  C   UNL A   1      38.696  32.144  33.390  1.00  0.00     0.031 A 
ATOM     54  C   UNL A   1      38.514  32.999  34.572  1.00  0.00     0.074 A 
ATOM     55  C   UNL A   1      39.753  31.322  33.257  1.00  0.00     0.049 A 
ATOM     56  N   UNL A   1      39.176  34.063  34.885  1.00  0.00    -0.248 NA
ATOM     57  C   UNL A   1      37.397  32.683  35.471  1.00  0.00     0.031 C 
ATOM     58  C   UNL A   1      39.897  30.192  32.334  1.00  0.00     0.029 A 
ATOM     59  N   UNL A   1      40.877  31.257  34.019  1.00  0.00    -0.354 N 
ATOM     60  C   UNL A   1      38.683  34.454  36.122  1.00  0.00     0.074 A 
ATOM     61  C   UNL A   1      37.491  33.675  36.356  1.00  0.00     0.031 C 
ATOM     62  C   UNL A   1      40.932  29.425  32.743  1.00  0.00     0.029 A 
ATOM     63  C   UNL A   1      41.586  30.076  33.868  1.00  0.00     0.049 A 
ATOM     64  H   UNL A   1      41.161  31.980  34.621  1.00  0.00     0.167 HD
ATOM     65  C   UNL A   1      39.402  35.224  36.979  1.00  0.00     0.031 A 
ATOM     66  C   UNL A   1      42.576  29.628  34.677  1.00  0.00     0.031 A 
ATOM     67  C   UNL A   1      40.553  35.821  36.357  1.00  0.00     0.049 A 
ATOM     68  C   UNL A   1      43.097  30.787  35.443  1.00  0.00     0.074 A 
ATOM     69  C   UNL A   1      40.750  36.693  35.305  1.00  0.00     0.029 A 
ATOM     70  N   UNL A   1      41.775  35.245  36.614  1.00  0.00    -0.354 N 
ATOM     71  N   UNL A   1      43.765  31.772  34.911  1.00  0.00    -0.248 NA
ATOM     72  C   UNL A   1      42.549  31.058  36.766  1.00  0.00     0.031 C 
ATOM     73  C   UNL A   1      41.978  36.290  34.706  1.00  0.00     0.029 A 
ATOM     74  C   UNL A   1      42.475  35.206  35.434  1.00  0.00     0.049 A 
ATOM     75  H   UNL A   1      42.091  34.918  37.487  1.00  0.00     0.167 HD
ATOM     76  C   UNL A   1      43.382  32.898  35.627  1.00  0.00     0.074 A 
ATOM     77  C   UNL A   1      42.737  32.379  36.827  1.00  0.00     0.031 C 
ATOM     78  C   UNL A   1      43.376  34.137  35.050  1.00  0.00     0.031 A 
BRANCH  65  79
ATOM     79  C   UNL A   1      39.256  35.136  38.471  1.00  0.00    -0.014 A 
ATOM     80  C   UNL A   1      39.190  36.318  39.231  1.00  0.00     0.010 A 
ATOM     81  C   UNL A   1      39.440  33.925  39.172  1.00  0.00     0.010 A 
ATOM     82  C   UNL A   1      39.341  36.291  40.622  1.00  0.00     0.020 A 
ATOM     83  C   UNL A   1      39.541  33.880  40.561  1.00  0.00     0.020 A 
ATOM     84  C   UNL A   1      39.528  35.070  41.275  1.00  0.00     0.054 A 
BRANCH  84  85
ATOM     85  S   UNL A   1      39.833  35.050  43.057  1.00  0.00     0.124 S 
ATOM     86  O   UNL A   1      41.074  35.812  43.155  1.00  0.00    -0.237 OA
ATOM     87  O   UNL A   1      38.641  35.707  43.586  1.00  0.00    -0.237 OA
ATOM     88  O   UNL A   1      39.944  33.626  43.368  1.00  0.00    -0.744 OA
ENDBRANCH  84  85
ENDBRANCH  65  79
BRANCH  66  89
ATOM     89  C   UNL A   1      42.871  28.220  35.037  1.00  0.00    -0.014 A 
ATOM     90  C   UNL A   1      41.880  27.228  34.937  1.00  0.00     0.010 A 
ATOM     91  C   UNL A   1      44.203  27.799  35.235  1.00  0.00     0.010 A 
ATOM     92  C   UNL A   1      42.218  25.865  34.972  1.00  0.00     0.020 A 
ATOM     93  C   UNL A   1      44.546  26.446  35.287  1.00  0.00     0.020 A 
ATOM     94  C   UNL A   1      43.554  25.483  35.129  1.00  0.00     0.054 A 
BRANCH  94  95
ATOM     95  S   UNL A   1      44.006  23.731  34.988  1.00  0.00     0.124 S 
ATOM     96  O   UNL A   1      42.718  23.099  34.720  1.00  0.00    -0.237 OA
ATOM     97  O   UNL A   1      44.953  23.737  33.877  1.00  0.00    -0.237 OA
ATOM     98  O   UNL A   1      44.591  23.421  36.292  1.00  0.00    -0.744 OA
ENDBRANCH  94  95
ENDBRANCH  66  89
BRANCH  78  99
ATOM     99  C   UNL A   1      44.134  34.330  33.756  1.00  0.00    -0.014 A 
ATOM    100  C   UNL A   1      43.759  33.723  32.542  1.00  0.00     0.010 A 
ATOM    101  C   UNL A   1      45.176  35.275  33.738  1.00  0.00     0.010 A 
ATOM    102  C   UNL A   1      44.427  34.034  31.349  1.00  0.00     0.020 A 
ATOM    103  C   UNL A   1      45.832  35.604  32.549  1.00  0.00     0.020 A 
ATOM    104  C   UNL A   1      45.460  34.974  31.361  1.00  0.00     0.054 A 
BRANCH 104 105
ATOM    105  S   UNL A   1      46.274  35.419  29.800  1.00  0.00     0.124 S 
ATOM    106  O   UNL A   1      45.184  36.017  29.034  1.00  0.00    -0.237 OA
ATOM    107  O   UNL A   1      47.321  36.343  30.230  1.00  0.00    -0.237 OA
ATOM    108  O   UNL A   1      46.763  34.140  29.286  1.00  0.00    -0.744 OA
ENDBRANCH 104 105
ENDBRANCH  78  99
ENDBRANCH  52  53
ENDBRANCH  45  47
ENDBRANCH  44  45
ENDBRANCH  43  44
ENDBRANCH  42  43
ENDBRANCH  41  42
ENDBRANCH  40  41
ENDBRANCH  39  40
ENDBRANCH   1  39
TORSDOF 26
ENDMDL
MODEL 3
REMARK VINA RESULT:      -9.8      6.052     10.434
REMARK SMILES COc1ccc(-n2c(SCc3cn(-c4ccc(C(=O)OCCOCCOCCOC(=O)c5ccc(-c6c7nc(c(-c8ccc(S(=O)(=O)[O-])cc8)c8ccc([nH]8)c(-c8ccc(S(=O)(=O)[O-])cc8)c8nc(c(-c9ccc(S(=O)(=O)[O-])cc9)c9ccc6[nH]9)C=C8)C=C7)cc5)cc4)nn3)nc3ccccc3c2=O)cc1
REMARK SMILES IDX 23 1 22 2 21 3 20 4 18 5 19 6 17 7 14 8 15 9 93 10 16 11
REMARK SMILES IDX 92 12 13 13 11 14 12 15 95 16 94 17 10 18 9 19 8 20 7 21
REMARK SMILES IDX 103 22 96 23 102 24 104 25 97 26 101 27 98 28 100 29 99 30
REMARK SMILES IDX 6 31 3 32 4 33 106 34 5 35 105 36 2 37 1 38 24 39 25 40
REMARK SMILES IDX 26 41 27 42 28 43 29 44 30 45 31 46 32 47 33 48 91 49 34 50
REMARK SMILES IDX 90 51 35 52 36 53 37 54 84 55 38 56 89 57 83 58 85 59 39 60
REMARK SMILES IDX 88 61 82 62 81 63 40 65 70 66 51 67 69 68 52 69 55 70 68 71
REMARK SMILES IDX 86 72 53 73 54 74 67 76 87 77 56 78 41 79 42 80 50 81 43 82
REMARK SMILES IDX 49 83 44 84 45 85 46 86 47 87 48 88 71 89 72 90 80 91 73 92
REMARK SMILES IDX 79 93 74 94 75 95 76 96 77 97 78 98 57 99 58 100 66 101
REMARK SMILES IDX 59 102 65 103 60 104 61 105 62 106 63 107 64 108
REMARK H PARENT 85 64 55 75
REMARK Flexibility Score: inf
ROOT
ATOM      1  O   UNL A   1      36.020  34.911  34.005  1.00  0.00    -0.376 OA
ENDROOT
BRANCH   1   2
ATOM      2  C   UNL A   1      36.573  33.803  33.303  1.00  0.00     0.202 C 
BRANCH   2   3
ATOM      3  C   UNL A   1      36.833  32.480  34.046  1.00  0.00     0.261 C 
BRANCH   3   4
ATOM      4  O   UNL A   1      37.246  31.399  33.200  1.00  0.00    -0.460 OA
BRANCH   4   5
ATOM      5  C   UNL A   1      38.152  30.540  33.720  1.00  0.00     0.338 C 
ATOM      6  O   UNL A   1      38.277  30.213  34.886  1.00  0.00    -0.246 OA
BRANCH   5   7
ATOM      7  C   UNL A   1      38.865  29.867  32.610  1.00  0.00     0.060 A 
ATOM      8  C   UNL A   1      40.353  28.546  30.678  1.00  0.00     0.066 A 
ATOM      9  C   UNL A   1      40.971  29.518  31.470  1.00  0.00     0.029 A 
ATOM     10  C   UNL A   1      39.006  28.209  30.855  1.00  0.00     0.029 A 
ATOM     11  C   UNL A   1      40.227  30.161  32.454  1.00  0.00     0.018 A 
ATOM     12  C   UNL A   1      38.249  28.902  31.801  1.00  0.00     0.018 A 
BRANCH   8  13
ATOM     13  N   UNL A   1      41.046  28.013  29.581  1.00  0.00    -0.220 N 
ATOM     14  C   UNL A   1      41.491  26.583  28.014  1.00  0.00     0.093 A 
ATOM     15  C   UNL A   1      40.456  27.301  28.568  1.00  0.00     0.141 A 
ATOM     16  N   UNL A   1      42.668  26.999  28.576  1.00  0.00    -0.134 NA
ATOM     17  N   UNL A   1      42.381  27.839  29.559  1.00  0.00    -0.062 NA
BRANCH  14  18
ATOM     18  C   UNL A   1      41.504  25.444  27.082  1.00  0.00     0.138 C 
BRANCH  18  19
ATOM     19  S   UNL A   1      42.303  25.728  25.521  1.00  0.00    -0.081 SA
BRANCH  19  20
ATOM     20  C   UNL A   1      43.862  24.886  25.525  1.00  0.00     0.176 A 
ATOM     21  N   UNL A   1      44.208  24.181  26.668  1.00  0.00    -0.255 N 
ATOM     22  C   UNL A   1      45.324  24.598  27.392  1.00  0.00     0.266 A 
ATOM     23  N   UNL A   1      44.746  25.512  24.814  1.00  0.00    -0.223 NA
ATOM     24  C   UNL A   1      45.870  25.903  26.947  1.00  0.00     0.066 A 
ATOM     25  O   UNL A   1      45.843  24.013  28.337  1.00  0.00    -0.268 OA
ATOM     26  C   UNL A   1      45.611  26.270  25.621  1.00  0.00     0.079 A 
ATOM     27  C   UNL A   1      46.441  26.806  27.842  1.00  0.00     0.016 A 
ATOM     28  C   UNL A   1      45.950  27.549  25.181  1.00  0.00     0.029 A 
ATOM     29  C   UNL A   1      46.715  28.106  27.407  1.00  0.00     0.001 A 
ATOM     30  C   UNL A   1      46.476  28.474  26.080  1.00  0.00     0.002 A 
BRANCH  21  31
ATOM     31  C   UNL A   1      43.693  22.874  26.862  1.00  0.00     0.052 A 
ATOM     32  C   UNL A   1      42.134  20.576  26.921  1.00  0.00     0.119 A 
ATOM     33  C   UNL A   1      43.078  20.730  25.911  1.00  0.00     0.048 A 
ATOM     34  C   UNL A   1      42.083  21.476  27.986  1.00  0.00     0.048 A 
ATOM     35  C   UNL A   1      43.845  21.896  25.866  1.00  0.00     0.030 A 
ATOM     36  C   UNL A   1      42.888  22.616  27.972  1.00  0.00     0.030 A 
BRANCH  32  37
ATOM     37  O   UNL A   1      41.257  19.527  26.843  1.00  0.00    -0.497 OA
ATOM     38  C   UNL A   1      40.172  19.860  25.966  1.00  0.00     0.278 C 
ENDBRANCH  32  37
ENDBRANCH  21  31
ENDBRANCH  19  20
ENDBRANCH  18  19
ENDBRANCH  14  18
ENDBRANCH   8  13
ENDBRANCH   5   7
ENDBRANCH   4   5
ENDBRANCH   3   4
ENDBRANCH   2   3
ENDBRANCH   1   2
BRANCH   1  39
ATOM     39  C   UNL A   1      34.666  35.290  33.776  1.00  0.00     0.188 C 
BRANCH  39  40
ATOM     40  C   UNL A   1      33.888  34.736  32.563  1.00  0.00     0.188 C 
BRANCH  40  41
ATOM     41  O   UNL A   1      34.082  35.456  31.359  1.00  0.00    -0.376 OA
BRANCH  41  42
ATOM     42  C   UNL A   1      33.564  34.890  30.163  1.00  0.00     0.202 C 
BRANCH  42  43
ATOM     43  C   UNL A   1      34.538  34.568  29.029  1.00  0.00     0.261 C 
BRANCH  43  44
ATOM     44  O   UNL A   1      34.856  33.195  28.862  1.00  0.00    -0.460 OA
BRANCH  44  45
ATOM     45  C   UNL A   1      35.595  32.643  29.847  1.00  0.00     0.338 C 
ATOM     46  O   UNL A   1      35.181  32.027  30.812  1.00  0.00    -0.246 OA
BRANCH  45  47
ATOM     47  C   UNL A   1      37.006  32.966  29.593  1.00  0.00     0.060 A 
ATOM     48  C   UNL A   1      37.911  31.905  29.513  1.00  0.00     0.016 A 
ATOM     49  C   UNL A   1      37.431  34.299  29.712  1.00  0.00     0.016 A 
ATOM     50  C   UNL A   1      39.242  32.163  29.764  1.00  0.00     0.010 A 
ATOM     51  C   UNL A   1      38.755  34.551  29.986  1.00  0.00     0.010 A 
ATOM     52  C   UNL A   1      39.623  33.468  30.096  1.00  0.00    -0.014 A 
BRANCH  52  53
ATOM     53  C   UNL A   1      40.934  33.656  30.677  1.00  0.00     0.031 A 
ATOM     54  C   UNL A   1      42.049  33.807  29.732  1.00  0.00     0.074 A 
ATOM     55  C   UNL A   1      41.100  33.789  32.006  1.00  0.00     0.049 A 
ATOM     56  N   UNL A   1      43.027  32.989  29.528  1.00  0.00    -0.248 NA
ATOM     57  C   UNL A   1      42.024  34.971  28.836  1.00  0.00     0.031 C 
ATOM     58  C   UNL A   1      40.062  34.003  33.021  1.00  0.00     0.029 A 
ATOM     59  N   UNL A   1      42.258  33.884  32.711  1.00  0.00    -0.354 N 
ATOM     60  C   UNL A   1      43.849  33.619  28.605  1.00  0.00     0.074 A 
ATOM     61  C   UNL A   1      43.109  34.747  28.095  1.00  0.00     0.031 C 
ATOM     62  C   UNL A   1      40.650  34.426  34.162  1.00  0.00     0.029 A 
ATOM     63  C   UNL A   1      42.094  34.389  33.991  1.00  0.00     0.049 A 
ATOM     64  H   UNL A   1      43.132  33.618  32.347  1.00  0.00     0.167 HD
ATOM     65  C   UNL A   1      45.167  33.314  28.481  1.00  0.00     0.031 A 
ATOM     66  C   UNL A   1      43.079  34.836  34.807  1.00  0.00     0.031 A 
ATOM     67  C   UNL A   1      45.524  32.101  29.166  1.00  0.00     0.049 A 
ATOM     68  C   UNL A   1      44.362  34.268  34.324  1.00  0.00     0.074 A 
ATOM     69  C   UNL A   1      45.142  30.778  29.069  1.00  0.00     0.029 A 
ATOM     70  N   UNL A   1      46.164  32.229  30.377  1.00  0.00    -0.354 N 
ATOM     71  N   UNL A   1      44.669  33.003  34.387  1.00  0.00    -0.248 NA
ATOM     72  C   UNL A   1      45.178  35.055  33.408  1.00  0.00     0.031 C 
ATOM     73  C   UNL A   1      45.195  30.272  30.399  1.00  0.00     0.029 A 
ATOM     74  C   UNL A   1      45.623  31.305  31.235  1.00  0.00     0.049 A 
ATOM     75  H   UNL A   1      46.882  32.869  30.589  1.00  0.00     0.167 HD
ATOM     76  C   UNL A   1      45.419  32.755  33.246  1.00  0.00     0.074 A 
ATOM     77  C   UNL A   1      45.803  34.073  32.754  1.00  0.00     0.031 C 
ATOM     78  C   UNL A   1      45.425  31.523  32.655  1.00  0.00     0.031 A 
BRANCH  65  79
ATOM     79  C   UNL A   1      46.197  34.315  28.042  1.00  0.00    -0.014 A 
ATOM     80  C   UNL A   1      46.599  35.329  28.930  1.00  0.00     0.010 A 
ATOM     81  C   UNL A   1      46.592  34.441  26.692  1.00  0.00     0.010 A 
ATOM     82  C   UNL A   1      47.328  36.436  28.479  1.00  0.00     0.020 A 
ATOM     83  C   UNL A   1      47.361  35.513  26.243  1.00  0.00     0.020 A 
ATOM     84  C   UNL A   1      47.692  36.524  27.133  1.00  0.00     0.054 A 
BRANCH  84  85
ATOM     85  S   UNL A   1      48.536  38.007  26.533  1.00  0.00     0.124 S 
ATOM     86  O   UNL A   1      47.981  38.141  25.190  1.00  0.00    -0.237 OA
ATOM     87  O   UNL A   1      48.115  39.019  27.498  1.00  0.00    -0.237 OA
ATOM     88  O   UNL A   1      49.950  37.643  26.596  1.00  0.00    -0.744 OA
ENDBRANCH  84  85
ENDBRANCH  65  79
BRANCH  66  89
ATOM     89  C   UNL A   1      43.001  35.957  35.774  1.00  0.00    -0.014 A 
ATOM     90  C   UNL A   1      42.351  35.799  37.011  1.00  0.00     0.010 A 
ATOM     91  C   UNL A   1      43.792  37.111  35.591  1.00  0.00     0.010 A 
ATOM     92  C   UNL A   1      42.536  36.730  38.046  1.00  0.00     0.020 A 
ATOM     93  C   UNL A   1      43.968  38.051  36.610  1.00  0.00     0.020 A 
ATOM     94  C   UNL A   1      43.360  37.842  37.844  1.00  0.00     0.054 A 
BRANCH  94  95
ATOM     95  S   UNL A   1      43.741  38.939  39.238  1.00  0.00     0.124 S 
ATOM     96  O   UNL A   1      44.014  40.207  38.569  1.00  0.00    -0.237 OA
ATOM     97  O   UNL A   1      42.512  38.890  40.025  1.00  0.00    -0.237 OA
ATOM     98  O   UNL A   1      44.900  38.306  39.867  1.00  0.00    -0.744 OA
ENDBRANCH  94  95
ENDBRANCH  66  89
BRANCH  78  99
ATOM     99  C   UNL A   1      44.912  30.343  33.450  1.00  0.00    -0.014 A 
ATOM    100  C   UNL A   1      45.736  29.288  33.887  1.00  0.00     0.010 A 
ATOM    101  C   UNL A   1      43.578  30.380  33.896  1.00  0.00     0.010 A 
ATOM    102  C   UNL A   1      45.230  28.283  34.724  1.00  0.00     0.020 A 
ATOM    103  C   UNL A   1      43.074  29.392  34.746  1.00  0.00     0.020 A 
ATOM    104  C   UNL A   1      43.901  28.342  35.148  1.00  0.00     0.054 A 
BRANCH 104 105
ATOM    105  S   UNL A   1      43.274  27.073  36.286  1.00  0.00     0.124 S 
ATOM    106  O   UNL A   1      42.015  27.653  36.745  1.00  0.00    -0.237 OA
ATOM    107  O   UNL A   1      43.148  25.898  35.425  1.00  0.00    -0.237 OA
ATOM    108  O   UNL A   1      44.318  26.973  37.304  1.00  0.00    -0.744 OA
ENDBRANCH 104 105
ENDBRANCH  78  99
ENDBRANCH  52  53
ENDBRANCH  45  47
ENDBRANCH  44  45
ENDBRANCH  43  44
ENDBRANCH  42  43
ENDBRANCH  41  42
ENDBRANCH  40  41
ENDBRANCH  39  40
ENDBRANCH   1  39
TORSDOF 26
ENDMDL
