MODEL 1
REMARK VINA RESULT:      -8.9      0.000      0.000
REMARK SMILES CC(C)N(CC(=O)OCCOCCOCCOC(=O)c1ccc(-c2c3nc(c(-c4ccc(S(=O)(=O)[O-])cc4)c4ccc([nH]4)c(-c4ccc(S(=O)(=O)[O-])cc4)c4nc(c(-c5ccc(S(=O)(=O)[O-])cc5)c5ccc2[nH]5)C=C4)C=C3)cc1)C(=O)NC1C(C)(C)C1(C)C
REMARK SMILES IDX 12 1 11 2 10 3 9 4 8 5 6 6 7 7 5 8 4 9 2 10 1 11 3 12 80 13
REMARK SMILES IDX 81 14 82 15 83 17 84 18 87 19 85 20 86 21 88 22 89 23 13 24
REMARK SMILES IDX 14 25 15 26 16 27 17 28 18 29 19 30 20 31 21 32 79 33 22 34
REMARK SMILES IDX 78 35 23 36 24 37 25 38 72 39 26 40 77 41 71 42 73 43 27 44
REMARK SMILES IDX 76 45 70 46 69 47 28 49 58 50 39 51 57 52 40 53 43 54 56 55
REMARK SMILES IDX 74 56 41 57 42 58 55 60 75 61 44 62 29 63 30 64 38 65 31 66
REMARK SMILES IDX 37 67 32 68 33 69 34 70 35 71 36 72 59 73 60 74 68 75 61 76
REMARK SMILES IDX 67 77 62 78 63 79 64 80 65 81 66 82 45 83 46 84 54 85 47 86
REMARK SMILES IDX 53 87 48 88 49 89 50 90 51 91 52 92
REMARK H PARENT 82 16 73 48 43 59
REMARK Flexibility Score: inf
ROOT
ATOM      1  C   UNL A   1      41.115  21.505  27.527  1.00  0.00     0.188 C 
ENDROOT
BRANCH   1   2
ATOM      2  O   UNL A   1      40.148  22.236  26.779  1.00  0.00    -0.376 OA
BRANCH   2   3
ATOM      3  C   UNL A   1      39.194  21.450  26.082  1.00  0.00     0.202 C 
BRANCH   3   4
ATOM      4  C   UNL A   1      37.907  22.200  25.732  1.00  0.00     0.261 C 
BRANCH   4   5
ATOM      5  O   UNL A   1      37.107  21.564  24.715  1.00  0.00    -0.462 OA
BRANCH   5   6
ATOM      6  C   UNL A   1      36.313  22.359  23.962  1.00  0.00     0.325 C 
ATOM      7  O   UNL A   1      36.731  23.329  23.336  1.00  0.00    -0.250 OA
BRANCH   6   8
ATOM      8  C   UNL A   1      34.813  22.088  24.147  1.00  0.00     0.244 C 
BRANCH   8   9
ATOM      9  N   UNL A   1      33.740  23.064  23.951  1.00  0.00    -0.311 N 
BRANCH   9  10
ATOM     10  C   UNL A   1      32.879  23.336  25.134  1.00  0.00     0.081 C 
ATOM     11  C   UNL A   1      31.384  23.014  24.925  1.00  0.00     0.031 C 
ATOM     12  C   UNL A   1      33.411  22.683  26.404  1.00  0.00     0.031 C 
ENDBRANCH   9  10
BRANCH   9  13
ATOM     13  C   UNL A   1      33.635  23.924  22.898  1.00  0.00     0.318 C 
ATOM     14  O   UNL A   1      33.631  23.525  21.726  1.00  0.00    -0.249 OA
ATOM     15  N   UNL A   1      33.456  25.249  23.004  1.00  0.00    -0.334 N 
ATOM     16  H   UNL A   1      33.071  25.590  22.164  1.00  0.00     0.165 HD
BRANCH  15  17
ATOM     17  C   UNL A   1      33.628  26.331  23.906  1.00  0.00     0.096 C 
ATOM     18  C   UNL A   1      32.816  27.580  23.501  1.00  0.00    -0.007 C 
ATOM     19  C   UNL A   1      32.842  27.116  24.946  1.00  0.00    -0.007 C 
ATOM     20  C   UNL A   1      33.509  28.860  23.137  1.00  0.00     0.014 C 
ATOM     21  C   UNL A   1      31.553  27.377  22.670  1.00  0.00     0.014 C 
ATOM     22  C   UNL A   1      31.491  26.828  25.549  1.00  0.00     0.014 C 
ATOM     23  C   UNL A   1      33.733  27.834  25.957  1.00  0.00     0.014 C 
ENDBRANCH  15  17
ENDBRANCH   9  13
ENDBRANCH   8   9
ENDBRANCH   6   8
ENDBRANCH   5   6
ENDBRANCH   4   5
ENDBRANCH   3   4
ENDBRANCH   2   3
ENDBRANCH   1   2
BRANCH   1  24
ATOM     24  C   UNL A   1      42.460  21.362  26.795  1.00  0.00     0.188 C 
BRANCH  24  25
ATOM     25  O   UNL A   1      42.651  22.076  25.577  1.00  0.00    -0.376 OA
BRANCH  25  26
ATOM     26  C   UNL A   1      42.482  23.484  25.587  1.00  0.00     0.202 C 
BRANCH  26  27
ATOM     27  C   UNL A   1      43.615  24.308  24.980  1.00  0.00     0.261 C 
BRANCH  27  28
ATOM     28  O   UNL A   1      43.867  25.539  25.677  1.00  0.00    -0.460 OA
BRANCH  28  29
ATOM     29  C   UNL A   1      42.761  26.301  25.877  1.00  0.00     0.338 C 
ATOM     30  O   UNL A   1      41.807  26.421  25.130  1.00  0.00    -0.246 OA
BRANCH  29  31
ATOM     31  C   UNL A   1      42.808  26.945  27.208  1.00  0.00     0.060 A 
ATOM     32  C   UNL A   1      41.935  26.469  28.194  1.00  0.00     0.016 A 
ATOM     33  C   UNL A   1      43.602  28.071  27.449  1.00  0.00     0.016 A 
ATOM     34  C   UNL A   1      41.809  27.158  29.401  1.00  0.00     0.010 A 
ATOM     35  C   UNL A   1      43.462  28.768  28.655  1.00  0.00     0.010 A 
ATOM     36  C   UNL A   1      42.536  28.338  29.618  1.00  0.00    -0.014 A 
BRANCH  36  37
ATOM     37  C   UNL A   1      42.206  29.183  30.793  1.00  0.00     0.031 A 
ATOM     38  C   UNL A   1      40.953  30.012  30.770  1.00  0.00     0.074 A 
ATOM     39  C   UNL A   1      42.982  29.177  31.890  1.00  0.00     0.049 A 
ATOM     40  N   UNL A   1      40.428  30.739  31.722  1.00  0.00    -0.248 NA
ATOM     41  C   UNL A   1      40.203  30.034  29.505  1.00  0.00     0.031 C 
ATOM     42  C   UNL A   1      44.229  28.434  32.022  1.00  0.00     0.029 A 
ATOM     43  N   UNL A   1      42.822  29.786  33.108  1.00  0.00    -0.354 N 
ATOM     44  C   UNL A   1      39.289  31.312  31.172  1.00  0.00     0.074 A 
ATOM     45  C   UNL A   1      39.206  30.857  29.799  1.00  0.00     0.031 C 
ATOM     46  C   UNL A   1      44.687  28.570  33.279  1.00  0.00     0.029 A 
ATOM     47  C   UNL A   1      43.790  29.448  34.024  1.00  0.00     0.049 A 
ATOM     48  H   UNL A   1      42.083  30.405  33.309  1.00  0.00     0.167 HD
ATOM     49  C   UNL A   1      38.398  32.152  31.752  1.00  0.00     0.031 A 
ATOM     50  C   UNL A   1      43.936  29.801  35.317  1.00  0.00     0.031 A 
ATOM     51  C   UNL A   1      38.503  32.642  33.102  1.00  0.00     0.049 A 
ATOM     52  C   UNL A   1      42.935  30.738  35.937  1.00  0.00     0.074 A 
ATOM     53  C   UNL A   1      37.665  33.520  33.767  1.00  0.00     0.029 A 
ATOM     54  N   UNL A   1      39.516  32.309  33.988  1.00  0.00    -0.354 N 
ATOM     55  N   UNL A   1      41.852  31.256  35.408  1.00  0.00    -0.248 NA
ATOM     56  C   UNL A   1      43.184  31.148  37.326  1.00  0.00     0.031 C 
ATOM     57  C   UNL A   1      38.196  33.751  35.042  1.00  0.00     0.029 A 
ATOM     58  C   UNL A   1      39.336  32.977  35.188  1.00  0.00     0.049 A 
ATOM     59  H   UNL A   1      40.255  31.688  33.793  1.00  0.00     0.167 HD
ATOM     60  C   UNL A   1      41.296  32.061  36.397  1.00  0.00     0.074 A 
ATOM     61  C   UNL A   1      42.138  31.925  37.569  1.00  0.00     0.031 C 
ATOM     62  C   UNL A   1      40.197  32.852  36.337  1.00  0.00     0.031 A 
BRANCH  49  63
ATOM     63  C   UNL A   1      37.258  32.632  30.898  1.00  0.00    -0.014 A 
ATOM     64  C   UNL A   1      37.450  33.627  29.922  1.00  0.00     0.010 A 
ATOM     65  C   UNL A   1      35.978  32.077  31.071  1.00  0.00     0.010 A 
ATOM     66  C   UNL A   1      36.372  34.085  29.161  1.00  0.00     0.020 A 
ATOM     67  C   UNL A   1      34.902  32.518  30.297  1.00  0.00     0.020 A 
ATOM     68  C   UNL A   1      35.103  33.533  29.359  1.00  0.00     0.054 A 
BRANCH  68  69
ATOM     69  S   UNL A   1      33.718  34.143  28.357  1.00  0.00     0.124 S 
ATOM     70  O   UNL A   1      34.349  35.222  27.600  1.00  0.00    -0.237 OA
ATOM     71  O   UNL A   1      33.342  32.967  27.578  1.00  0.00    -0.237 OA
ATOM     72  O   UNL A   1      32.735  34.570  29.349  1.00  0.00    -0.744 OA
ENDBRANCH  68  69
ENDBRANCH  49  63
BRANCH  50  73
ATOM     73  C   UNL A   1      45.081  29.279  36.113  1.00  0.00    -0.014 A 
ATOM     74  C   UNL A   1      46.401  29.651  35.802  1.00  0.00     0.010 A 
ATOM     75  C   UNL A   1      44.856  28.396  37.186  1.00  0.00     0.010 A 
ATOM     76  C   UNL A   1      47.475  29.139  36.538  1.00  0.00     0.020 A 
ATOM     77  C   UNL A   1      45.924  27.905  37.942  1.00  0.00     0.020 A 
ATOM     78  C   UNL A   1      47.229  28.271  37.605  1.00  0.00     0.054 A 
BRANCH  78  79
ATOM     79  S   UNL A   1      48.627  27.660  38.588  1.00  0.00     0.124 S 
ATOM     80  O   UNL A   1      48.882  28.783  39.484  1.00  0.00    -0.237 OA
ATOM     81  O   UNL A   1      48.076  26.461  39.215  1.00  0.00    -0.237 OA
ATOM     82  O   UNL A   1      49.661  27.408  37.585  1.00  0.00    -0.744 OA
ENDBRANCH  78  79
ENDBRANCH  50  73
BRANCH  62  83
ATOM     83  C   UNL A   1      39.849  33.635  37.575  1.00  0.00    -0.014 A 
ATOM     84  C   UNL A   1      40.302  34.957  37.746  1.00  0.00     0.010 A 
ATOM     85  C   UNL A   1      39.053  33.049  38.575  1.00  0.00     0.010 A 
ATOM     86  C   UNL A   1      40.005  35.660  38.917  1.00  0.00     0.020 A 
ATOM     87  C   UNL A   1      38.733  33.759  39.735  1.00  0.00     0.020 A 
ATOM     88  C   UNL A   1      39.230  35.052  39.908  1.00  0.00     0.054 A 
BRANCH  88  89
ATOM     89  S   UNL A   1      38.852  35.983  41.419  1.00  0.00     0.124 S 
ATOM     90  O   UNL A   1      37.731  35.226  41.969  1.00  0.00    -0.237 OA
ATOM     91  O   UNL A   1      40.099  35.897  42.175  1.00  0.00    -0.237 OA
ATOM     92  O   UNL A   1      38.522  37.318  40.927  1.00  0.00    -0.744 OA
ENDBRANCH  88  89
ENDBRANCH  62  83
ENDBRANCH  36  37
ENDBRANCH  29  31
ENDBRANCH  28  29
ENDBRANCH  27  28
ENDBRANCH  26  27
ENDBRANCH  25  26
ENDBRANCH  24  25
ENDBRANCH   1  24
TORSDOF 24
ENDMDL
MODEL 2
REMARK VINA RESULT:      -8.1     10.101     15.830
REMARK SMILES CC(C)N(CC(=O)OCCOCCOCCOC(=O)c1ccc(-c2c3nc(c(-c4ccc(S(=O)(=O)[O-])cc4)c4ccc([nH]4)c(-c4ccc(S(=O)(=O)[O-])cc4)c4nc(c(-c5ccc(S(=O)(=O)[O-])cc5)c5ccc2[nH]5)C=C4)C=C3)cc1)C(=O)NC1C(C)(C)C1(C)C
REMARK SMILES IDX 12 1 11 2 10 3 9 4 8 5 6 6 7 7 5 8 4 9 2 10 1 11 3 12 80 13
REMARK SMILES IDX 81 14 82 15 83 17 84 18 87 19 85 20 86 21 88 22 89 23 13 24
REMARK SMILES IDX 14 25 15 26 16 27 17 28 18 29 19 30 20 31 21 32 79 33 22 34
REMARK SMILES IDX 78 35 23 36 24 37 25 38 72 39 26 40 77 41 71 42 73 43 27 44
REMARK SMILES IDX 76 45 70 46 69 47 28 49 58 50 39 51 57 52 40 53 43 54 56 55
REMARK SMILES IDX 74 56 41 57 42 58 55 60 75 61 44 62 29 63 30 64 38 65 31 66
REMARK SMILES IDX 37 67 32 68 33 69 34 70 35 71 36 72 59 73 60 74 68 75 61 76
REMARK SMILES IDX 67 77 62 78 63 79 64 80 65 81 66 82 45 83 46 84 54 85 47 86
REMARK SMILES IDX 53 87 48 88 49 89 50 90 51 91 52 92
REMARK H PARENT 82 16 73 48 43 59
REMARK Flexibility Score: inf
ROOT
ATOM      1  C   UNL A   1      42.327  42.802  21.730  1.00  0.00     0.188 C 
ENDROOT
BRANCH   1   2
ATOM      2  O   UNL A   1      41.404  43.564  20.957  1.00  0.00    -0.376 OA
BRANCH   2   3
ATOM      3  C   UNL A   1      41.416  43.305  19.562  1.00  0.00     0.202 C 
BRANCH   3   4
ATOM      4  C   UNL A   1      41.287  44.559  18.696  1.00  0.00     0.261 C 
BRANCH   4   5
ATOM      5  O   UNL A   1      42.498  45.337  18.593  1.00  0.00    -0.462 OA
BRANCH   5   6
ATOM      6  C   UNL A   1      42.457  46.449  17.826  1.00  0.00     0.325 C 
ATOM      7  O   UNL A   1      41.412  46.974  17.455  1.00  0.00    -0.250 OA
BRANCH   6   8
ATOM      8  C   UNL A   1      43.826  46.862  17.262  1.00  0.00     0.244 C 
BRANCH   8   9
ATOM      9  N   UNL A   1      44.737  47.834  17.866  1.00  0.00    -0.311 N 
BRANCH   9  10
ATOM     10  C   UNL A   1      44.138  48.762  18.862  1.00  0.00     0.081 C 
ATOM     11  C   UNL A   1      45.041  49.071  20.075  1.00  0.00     0.031 C 
ATOM     12  C   UNL A   1      43.616  50.044  18.224  1.00  0.00     0.031 C 
ENDBRANCH   9  10
BRANCH   9  13
ATOM     13  C   UNL A   1      46.099  47.787  17.805  1.00  0.00     0.318 C 
ATOM     14  O   UNL A   1      46.759  48.667  17.237  1.00  0.00    -0.249 OA
ATOM     15  N   UNL A   1      46.862  46.854  18.393  1.00  0.00    -0.334 N 
ATOM     16  H   UNL A   1      47.774  47.208  18.506  1.00  0.00     0.165 HD
BRANCH  15  17
ATOM     17  C   UNL A   1      46.812  45.534  18.912  1.00  0.00     0.096 C 
ATOM     18  C   UNL A   1      47.580  45.386  20.243  1.00  0.00    -0.007 C 
ATOM     19  C   UNL A   1      46.206  44.763  20.075  1.00  0.00    -0.007 C 
ATOM     20  C   UNL A   1      48.778  44.489  20.342  1.00  0.00     0.014 C 
ATOM     21  C   UNL A   1      47.740  46.624  21.121  1.00  0.00     0.014 C 
ATOM     22  C   UNL A   1      45.178  45.199  21.088  1.00  0.00     0.014 C 
ATOM     23  C   UNL A   1      46.082  43.265  19.803  1.00  0.00     0.014 C 
ENDBRANCH  15  17
ENDBRANCH   9  13
ENDBRANCH   8   9
ENDBRANCH   6   8
ENDBRANCH   5   6
ENDBRANCH   4   5
ENDBRANCH   3   4
ENDBRANCH   2   3
ENDBRANCH   1   2
BRANCH   1  24
ATOM     24  C   UNL A   1      41.865  42.590  23.182  1.00  0.00     0.188 C 
BRANCH  24  25
ATOM     25  O   UNL A   1      42.395  41.485  23.910  1.00  0.00    -0.376 OA
BRANCH  25  26
ATOM     26  C   UNL A   1      42.324  41.514  25.326  1.00  0.00     0.202 C 
BRANCH  26  27
ATOM     27  C   UNL A   1      41.498  40.414  25.987  1.00  0.00     0.261 C 
BRANCH  27  28
ATOM     28  O   UNL A   1      42.283  39.301  26.442  1.00  0.00    -0.460 OA
BRANCH  28  29
ATOM     29  C   UNL A   1      42.104  38.992  27.752  1.00  0.00     0.338 C 
ATOM     30  O   UNL A   1      41.512  39.651  28.587  1.00  0.00    -0.246 OA
BRANCH  29  31
ATOM     31  C   UNL A   1      42.670  37.659  28.053  1.00  0.00     0.060 A 
ATOM     32  C   UNL A   1      41.827  36.547  27.921  1.00  0.00     0.016 A 
ATOM     33  C   UNL A   1      43.960  37.510  28.570  1.00  0.00     0.016 A 
ATOM     34  C   UNL A   1      42.253  35.296  28.367  1.00  0.00     0.010 A 
ATOM     35  C   UNL A   1      44.380  36.257  29.031  1.00  0.00     0.010 A 
ATOM     36  C   UNL A   1      43.513  35.154  28.968  1.00  0.00    -0.014 A 
BRANCH  36  37
ATOM     37  C   UNL A   1      43.845  33.880  29.655  1.00  0.00     0.031 A 
ATOM     38  C   UNL A   1      43.386  33.669  31.070  1.00  0.00     0.074 A 
ATOM     39  C   UNL A   1      44.504  32.899  29.014  1.00  0.00     0.049 A 
ATOM     40  N   UNL A   1      43.481  32.600  31.816  1.00  0.00    -0.248 NA
ATOM     41  C   UNL A   1      42.749  34.818  31.732  1.00  0.00     0.031 C 
ATOM     42  C   UNL A   1      45.017  32.995  27.653  1.00  0.00     0.029 A 
ATOM     43  N   UNL A   1      44.823  31.625  29.406  1.00  0.00    -0.354 N 
ATOM     44  C   UNL A   1      42.922  32.946  33.040  1.00  0.00     0.074 A 
ATOM     45  C   UNL A   1      42.502  34.328  32.939  1.00  0.00     0.031 C 
ATOM     46  C   UNL A   1      45.526  31.803  27.294  1.00  0.00     0.029 A 
ATOM     47  C   UNL A   1      45.415  30.876  28.417  1.00  0.00     0.049 A 
ATOM     48  H   UNL A   1      44.645  31.278  30.311  1.00  0.00     0.167 HD
ATOM     49  C   UNL A   1      42.783  32.186  34.153  1.00  0.00     0.031 A 
ATOM     50  C   UNL A   1      45.816  29.589  28.412  1.00  0.00     0.031 A 
ATOM     51  C   UNL A   1      43.242  30.826  34.272  1.00  0.00     0.049 A 
ATOM     52  C   UNL A   1      45.654  28.767  29.662  1.00  0.00     0.074 A 
ATOM     53  C   UNL A   1      43.172  29.986  35.369  1.00  0.00     0.029 A 
ATOM     54  N   UNL A   1      43.869  30.112  33.263  1.00  0.00    -0.354 N 
ATOM     55  N   UNL A   1      45.106  29.105  30.806  1.00  0.00    -0.248 NA
ATOM     56  C   UNL A   1      46.177  27.394  29.624  1.00  0.00     0.031 C 
ATOM     57  C   UNL A   1      43.797  28.778  35.037  1.00  0.00     0.029 A 
ATOM     58  C   UNL A   1      44.209  28.848  33.716  1.00  0.00     0.049 A 
ATOM     59  H   UNL A   1      44.047  30.453  32.356  1.00  0.00     0.167 HD
ATOM     60  C   UNL A   1      45.228  27.988  31.626  1.00  0.00     0.074 A 
ATOM     61  C   UNL A   1      45.860  26.952  30.834  1.00  0.00     0.031 C 
ATOM     62  C   UNL A   1      44.862  27.837  32.923  1.00  0.00     0.031 A 
BRANCH  49  63
ATOM     63  C   UNL A   1      42.151  32.840  35.349  1.00  0.00    -0.014 A 
ATOM     64  C   UNL A   1      40.763  32.766  35.570  1.00  0.00     0.010 A 
ATOM     65  C   UNL A   1      42.956  33.536  36.268  1.00  0.00     0.010 A 
ATOM     66  C   UNL A   1      40.188  33.409  36.668  1.00  0.00     0.020 A 
ATOM     67  C   UNL A   1      42.387  34.163  37.380  1.00  0.00     0.020 A 
ATOM     68  C   UNL A   1      41.003  34.111  37.563  1.00  0.00     0.054 A 
BRANCH  68  69
ATOM     69  S   UNL A   1      40.234  34.937  38.983  1.00  0.00     0.124 S 
ATOM     70  O   UNL A   1      41.101  36.099  39.159  1.00  0.00    -0.237 OA
ATOM     71  O   UNL A   1      38.888  35.227  38.496  1.00  0.00    -0.237 OA
ATOM     72  O   UNL A   1      40.307  33.938  40.046  1.00  0.00    -0.744 OA
ENDBRANCH  68  69
ENDBRANCH  49  63
BRANCH  50  73
ATOM     73  C   UNL A   1      46.423  28.997  27.188  1.00  0.00    -0.014 A 
ATOM     74  C   UNL A   1      45.612  28.481  26.161  1.00  0.00     0.010 A 
ATOM     75  C   UNL A   1      47.822  28.937  27.046  1.00  0.00     0.010 A 
ATOM     76  C   UNL A   1      46.187  27.904  25.024  1.00  0.00     0.020 A 
ATOM     77  C   UNL A   1      48.400  28.388  25.898  1.00  0.00     0.020 A 
ATOM     78  C   UNL A   1      47.578  27.863  24.899  1.00  0.00     0.054 A 
BRANCH  78  79
ATOM     79  S   UNL A   1      48.310  27.165  23.393  1.00  0.00     0.124 S 
ATOM     80  O   UNL A   1      49.686  27.642  23.474  1.00  0.00    -0.237 OA
ATOM     81  O   UNL A   1      48.124  25.728  23.584  1.00  0.00    -0.237 OA
ATOM     82  O   UNL A   1      47.503  27.749  22.323  1.00  0.00    -0.744 OA
ENDBRANCH  78  79
ENDBRANCH  50  73
BRANCH  62  83
ATOM     83  C   UNL A   1      45.145  26.504  33.563  1.00  0.00    -0.014 A 
ATOM     84  C   UNL A   1      46.370  26.258  34.210  1.00  0.00     0.010 A 
ATOM     85  C   UNL A   1      44.173  25.488  33.526  1.00  0.00     0.010 A 
ATOM     86  C   UNL A   1      46.637  25.004  34.767  1.00  0.00     0.020 A 
ATOM     87  C   UNL A   1      44.427  24.242  34.105  1.00  0.00     0.020 A 
ATOM     88  C   UNL A   1      45.666  24.000  34.702  1.00  0.00     0.054 A 
BRANCH  88  89
ATOM     89  S   UNL A   1      46.029  22.381  35.434  1.00  0.00     0.124 S 
ATOM     90  O   UNL A   1      47.464  22.476  35.684  1.00  0.00    -0.237 OA
ATOM     91  O   UNL A   1      45.183  22.366  36.626  1.00  0.00    -0.237 OA
ATOM     92  O   UNL A   1      45.638  21.436  34.390  1.00  0.00    -0.744 OA
ENDBRANCH  88  89
ENDBRANCH  62  83
ENDBRANCH  36  37
ENDBRANCH  29  31
ENDBRANCH  28  29
ENDBRANCH  27  28
ENDBRANCH  26  27
ENDBRANCH  25  26
ENDBRANCH  24  25
ENDBRANCH   1  24
TORSDOF 24
ENDMDL
MODEL 3
REMARK VINA RESULT:      -8.0      0.971      8.090
REMARK SMILES CC(C)N(CC(=O)OCCOCCOCCOC(=O)c1ccc(-c2c3nc(c(-c4ccc(S(=O)(=O)[O-])cc4)c4ccc([nH]4)c(-c4ccc(S(=O)(=O)[O-])cc4)c4nc(c(-c5ccc(S(=O)(=O)[O-])cc5)c5ccc2[nH]5)C=C4)C=C3)cc1)C(=O)NC1C(C)(C)C1(C)C
REMARK SMILES IDX 12 1 11 2 10 3 9 4 8 5 6 6 7 7 5 8 4 9 2 10 1 11 3 12 80 13
REMARK SMILES IDX 81 14 82 15 83 17 84 18 87 19 85 20 86 21 88 22 89 23 13 24
REMARK SMILES IDX 14 25 15 26 16 27 17 28 18 29 19 30 20 31 21 32 79 33 22 34
REMARK SMILES IDX 78 35 23 36 24 37 25 38 72 39 26 40 77 41 71 42 73 43 27 44
REMARK SMILES IDX 76 45 70 46 69 47 28 49 58 50 39 51 57 52 40 53 43 54 56 55
REMARK SMILES IDX 74 56 41 57 42 58 55 60 75 61 44 62 29 63 30 64 38 65 31 66
REMARK SMILES IDX 37 67 32 68 33 69 34 70 35 71 36 72 59 73 60 74 68 75 61 76
REMARK SMILES IDX 67 77 62 78 63 79 64 80 65 81 66 82 45 83 46 84 54 85 47 86
REMARK SMILES IDX 53 87 48 88 49 89 50 90 51 91 52 92
REMARK H PARENT 82 16 73 48 43 59
REMARK Flexibility Score: inf
ROOT
ATOM      1  C   UNL A   1      41.750  21.872  27.163  1.00  0.00     0.188 C 
ENDROOT
BRANCH   1   2
ATOM      2  O   UNL A   1      40.610  22.461  26.543  1.00  0.00    -0.376 OA
BRANCH   2   3
ATOM      3  C   UNL A   1      39.657  21.546  26.025  1.00  0.00     0.202 C 
BRANCH   3   4
ATOM      4  C   UNL A   1      38.212  22.044  26.104  1.00  0.00     0.261 C 
BRANCH   4   5
ATOM      5  O   UNL A   1      37.499  21.998  24.850  1.00  0.00    -0.462 OA
BRANCH   5   6
ATOM      6  C   UNL A   1      36.512  22.903  24.666  1.00  0.00     0.325 C 
ATOM      7  O   UNL A   1      36.604  24.080  25.002  1.00  0.00    -0.250 OA
BRANCH   6   8
ATOM      8  C   UNL A   1      35.180  22.281  24.218  1.00  0.00     0.244 C 
BRANCH   8   9
ATOM      9  N   UNL A   1      33.940  23.015  23.965  1.00  0.00    -0.311 N 
BRANCH   9  10
ATOM     10  C   UNL A   1      32.922  22.972  25.049  1.00  0.00     0.081 C 
ATOM     11  C   UNL A   1      31.471  22.784  24.559  1.00  0.00     0.031 C 
ATOM     12  C   UNL A   1      33.271  21.962  26.136  1.00  0.00     0.031 C 
ENDBRANCH   9  10
BRANCH   9  13
ATOM     13  C   UNL A   1      33.750  23.932  22.974  1.00  0.00     0.318 C 
ATOM     14  O   UNL A   1      33.684  23.604  21.782  1.00  0.00    -0.249 OA
ATOM     15  N   UNL A   1      33.548  25.244  23.170  1.00  0.00    -0.334 N 
ATOM     16  H   UNL A   1      33.105  25.624  22.378  1.00  0.00     0.165 HD
BRANCH  15  17
ATOM     17  C   UNL A   1      33.749  26.274  24.125  1.00  0.00     0.096 C 
ATOM     18  C   UNL A   1      32.857  27.507  23.869  1.00  0.00    -0.007 C 
ATOM     19  C   UNL A   1      33.021  26.956  25.274  1.00  0.00    -0.007 C 
ATOM     20  C   UNL A   1      33.464  28.838  23.536  1.00  0.00     0.014 C 
ATOM     21  C   UNL A   1      31.538  27.299  23.130  1.00  0.00     0.014 C 
ATOM     22  C   UNL A   1      31.737  26.570  25.963  1.00  0.00     0.014 C 
ATOM     23  C   UNL A   1      33.963  27.650  26.255  1.00  0.00     0.014 C 
ENDBRANCH  15  17
ENDBRANCH   9  13
ENDBRANCH   8   9
ENDBRANCH   6   8
ENDBRANCH   5   6
ENDBRANCH   4   5
ENDBRANCH   3   4
ENDBRANCH   2   3
ENDBRANCH   1   2
BRANCH   1  24
ATOM     24  C   UNL A   1      42.889  21.578  26.173  1.00  0.00     0.188 C 
BRANCH  24  25
ATOM     25  O   UNL A   1      42.901  22.266  24.925  1.00  0.00    -0.376 OA
BRANCH  25  26
ATOM     26  C   UNL A   1      43.457  23.570  24.879  1.00  0.00     0.202 C 
BRANCH  26  27
ATOM     27  C   UNL A   1      44.910  23.706  25.324  1.00  0.00     0.261 C 
BRANCH  27  28
ATOM     28  O   UNL A   1      45.081  24.539  26.482  1.00  0.00    -0.460 OA
BRANCH  28  29
ATOM     29  C   UNL A   1      44.598  25.800  26.336  1.00  0.00     0.338 C 
ATOM     30  O   UNL A   1      44.533  26.446  25.307  1.00  0.00    -0.246 OA
BRANCH  29  31
ATOM     31  C   UNL A   1      44.059  26.301  27.619  1.00  0.00     0.060 A 
ATOM     32  C   UNL A   1      42.745  26.788  27.629  1.00  0.00     0.016 A 
ATOM     33  C   UNL A   1      44.860  26.406  28.760  1.00  0.00     0.016 A 
ATOM     34  C   UNL A   1      42.254  27.438  28.762  1.00  0.00     0.010 A 
ATOM     35  C   UNL A   1      44.371  27.072  29.889  1.00  0.00     0.010 A 
ATOM     36  C   UNL A   1      43.081  27.626  29.880  1.00  0.00    -0.014 A 
BRANCH  36  37
ATOM     37  C   UNL A   1      42.629  28.529  30.968  1.00  0.00     0.031 A 
ATOM     38  C   UNL A   1      43.491  28.696  32.187  1.00  0.00     0.074 A 
ATOM     39  C   UNL A   1      41.490  29.233  30.854  1.00  0.00     0.049 A 
ATOM     40  N   UNL A   1      43.334  29.506  33.202  1.00  0.00    -0.248 NA
ATOM     41  C   UNL A   1      44.675  27.829  32.279  1.00  0.00     0.031 C 
ATOM     42  C   UNL A   1      40.563  29.139  29.733  1.00  0.00     0.029 A 
ATOM     43  N   UNL A   1      40.936  30.187  31.669  1.00  0.00    -0.354 N 
ATOM     44  C   UNL A   1      44.395  29.243  34.059  1.00  0.00     0.074 A 
ATOM     45  C   UNL A   1      45.182  28.191  33.449  1.00  0.00     0.031 C 
ATOM     46  C   UNL A   1      39.590  30.053  29.893  1.00  0.00     0.029 A 
ATOM     47  C   UNL A   1      39.801  30.763  31.151  1.00  0.00     0.049 A 
ATOM     48  H   UNL A   1      41.317  30.437  32.543  1.00  0.00     0.167 HD
ATOM     49  C   UNL A   1      44.682  29.816  35.253  1.00  0.00     0.031 A 
ATOM     50  C   UNL A   1      39.022  31.753  31.631  1.00  0.00     0.031 A 
ATOM     51  C   UNL A   1      43.877  30.829  35.883  1.00  0.00     0.049 A 
ATOM     52  C   UNL A   1      39.360  32.371  32.961  1.00  0.00     0.074 A 
ATOM     53  C   UNL A   1      44.072  31.448  37.105  1.00  0.00     0.029 A 
ATOM     54  N   UNL A   1      42.714  31.362  35.348  1.00  0.00    -0.354 N 
ATOM     55  N   UNL A   1      40.379  32.123  33.750  1.00  0.00    -0.248 NA
ATOM     56  C   UNL A   1      38.436  33.393  33.471  1.00  0.00     0.031 C 
ATOM     57  C   UNL A   1      43.002  32.324  37.329  1.00  0.00     0.029 A 
ATOM     58  C   UNL A   1      42.170  32.288  36.221  1.00  0.00     0.049 A 
ATOM     59  H   UNL A   1      42.332  31.118  34.473  1.00  0.00     0.167 HD
ATOM     60  C   UNL A   1      40.212  32.952  34.854  1.00  0.00     0.074 A 
ATOM     61  C   UNL A   1      39.020  33.740  34.610  1.00  0.00     0.031 C 
ATOM     62  C   UNL A   1      40.968  33.045  35.976  1.00  0.00     0.031 A 
BRANCH  49  63
ATOM     63  C   UNL A   1      45.900  29.311  35.974  1.00  0.00    -0.014 A 
ATOM     64  C   UNL A   1      47.162  29.897  35.769  1.00  0.00     0.010 A 
ATOM     65  C   UNL A   1      45.780  28.237  36.874  1.00  0.00     0.010 A 
ATOM     66  C   UNL A   1      48.289  29.393  36.422  1.00  0.00     0.020 A 
ATOM     67  C   UNL A   1      46.901  27.744  37.545  1.00  0.00     0.020 A 
ATOM     68  C   UNL A   1      48.153  28.313  37.301  1.00  0.00     0.054 A 
BRANCH  68  69
ATOM     69  S   UNL A   1      49.630  27.676  38.139  1.00  0.00     0.124 S 
ATOM     70  O   UNL A   1      49.109  27.366  39.468  1.00  0.00    -0.237 OA
ATOM     71  O   UNL A   1      49.991  26.521  37.322  1.00  0.00    -0.237 OA
ATOM     72  O   UNL A   1      50.569  28.793  38.083  1.00  0.00    -0.744 OA
ENDBRANCH  68  69
ENDBRANCH  49  63
BRANCH  50  73
ATOM     73  C   UNL A   1      37.836  32.217  30.859  1.00  0.00    -0.014 A 
ATOM     74  C   UNL A   1      37.956  33.252  29.914  1.00  0.00     0.010 A 
ATOM     75  C   UNL A   1      36.575  31.630  31.072  1.00  0.00     0.010 A 
ATOM     76  C   UNL A   1      36.834  33.701  29.208  1.00  0.00     0.020 A 
ATOM     77  C   UNL A   1      35.459  32.055  30.348  1.00  0.00     0.020 A 
ATOM     78  C   UNL A   1      35.593  33.098  29.428  1.00  0.00     0.054 A 
BRANCH  78  79
ATOM     79  S   UNL A   1      34.159  33.650  28.464  1.00  0.00     0.124 S 
ATOM     80  O   UNL A   1      34.770  34.566  27.507  1.00  0.00    -0.237 OA
ATOM     81  O   UNL A   1      33.647  32.400  27.908  1.00  0.00    -0.237 OA
ATOM     82  O   UNL A   1      33.296  34.273  29.467  1.00  0.00    -0.744 OA
ENDBRANCH  78  79
ENDBRANCH  50  73
BRANCH  62  83
ATOM     83  C   UNL A   1      40.520  34.029  37.024  1.00  0.00    -0.014 A 
ATOM     84  C   UNL A   1      39.679  33.629  38.079  1.00  0.00     0.010 A 
ATOM     85  C   UNL A   1      40.952  35.366  36.961  1.00  0.00     0.010 A 
ATOM     86  C   UNL A   1      39.238  34.561  39.024  1.00  0.00     0.020 A 
ATOM     87  C   UNL A   1      40.534  36.293  37.919  1.00  0.00     0.020 A 
ATOM     88  C   UNL A   1      39.662  35.889  38.931  1.00  0.00     0.054 A 
BRANCH  88  89
ATOM     89  S   UNL A   1      39.083  37.082  40.170  1.00  0.00     0.124 S 
ATOM     90  O   UNL A   1      38.170  36.270  40.968  1.00  0.00    -0.237 OA
ATOM     91  O   UNL A   1      40.319  37.480  40.841  1.00  0.00    -0.237 OA
ATOM     92  O   UNL A   1      38.452  38.129  39.371  1.00  0.00    -0.744 OA
ENDBRANCH  88  89
ENDBRANCH  62  83
ENDBRANCH  36  37
ENDBRANCH  29  31
ENDBRANCH  28  29
ENDBRANCH  27  28
ENDBRANCH  26  27
ENDBRANCH  25  26
ENDBRANCH  24  25
ENDBRANCH   1  24
TORSDOF 24
ENDMDL
