MODEL 1
REMARK VINA RESULT:     -11.2      0.000      0.000
REMARK SMILES C[C@]12C(=O)N(c3ccc(C(=O)OCCOCCOCCOC(=O)c4ccc(-c5c6nc(c(-c7ccc(S(=O)(=O)[O-])cc7)c7ccc([nH]7)c(-c7ccc(S(=O)(=O)[O-])cc7)c7nc(c(-c8ccc(S(=O)(=O)[O-])cc8)c8ccc5[nH]8)C=C7)C=C6)cc4)cc3)C(=O)[C@H]1[C@H]1c3ccccc3[C@@H]2c2ccccc21
REMARK SMILES IDX 17 1 16 2 15 3 14 4 13 5 12 6 10 7 11 8 9 9 6 10 7 11 85 12
REMARK SMILES IDX 8 13 84 14 5 15 1 16 2 17 3 18 88 19 96 20 4 21 86 22 89 23
REMARK SMILES IDX 95 24 97 25 87 26 90 27 102 28 94 29 98 30 91 31 101 32
REMARK SMILES IDX 93 33 99 34 92 35 100 36 18 37 19 38 20 39 21 40 22 41 23 42
REMARK SMILES IDX 24 43 25 44 83 45 26 46 82 47 27 48 28 49 29 50 76 51 30 52
REMARK SMILES IDX 81 53 75 54 77 55 31 56 80 57 74 58 73 59 32 61 62 62 43 63
REMARK SMILES IDX 61 64 44 65 47 66 60 67 78 68 45 69 46 70 59 72 79 73 48 74
REMARK SMILES IDX 33 75 34 76 42 77 35 78 41 79 36 80 37 81 38 82 39 83 40 84
REMARK SMILES IDX 63 85 64 86 72 87 65 88 71 89 66 90 67 91 68 92 69 93 70 94
REMARK SMILES IDX 49 95 50 96 58 97 51 98 57 99 52 100 53 101 54 102 55 103
REMARK SMILES IDX 56 104
REMARK H PARENT 77 60 47 71
REMARK Flexibility Score: inf
ROOT
ATOM      1  C   UNL A   1      42.671  21.930  26.228  1.00  0.00     0.188 C 
ENDROOT
BRANCH   1   2
ATOM      2  C   UNL A   1      41.185  21.988  25.801  1.00  0.00     0.188 C 
BRANCH   2   3
ATOM      3  O   UNL A   1      40.286  20.967  26.192  1.00  0.00    -0.376 OA
BRANCH   3   4
ATOM      4  C   UNL A   1      38.894  21.249  26.265  1.00  0.00     0.202 C 
BRANCH   4   5
ATOM      5  C   UNL A   1      38.184  21.911  25.081  1.00  0.00     0.261 C 
BRANCH   5   6
ATOM      6  O   UNL A   1      36.989  22.606  25.473  1.00  0.00    -0.460 OA
BRANCH   6   7
ATOM      7  C   UNL A   1      35.853  22.121  24.917  1.00  0.00     0.338 C 
ATOM      8  O   UNL A   1      35.568  20.953  24.718  1.00  0.00    -0.246 OA
BRANCH   7   9
ATOM      9  C   UNL A   1      34.873  23.210  24.768  1.00  0.00     0.060 A 
ATOM     10  C   UNL A   1      32.784  25.098  24.690  1.00  0.00     0.052 A 
ATOM     11  C   UNL A   1      33.595  24.949  25.835  1.00  0.00     0.028 A 
ATOM     12  C   UNL A   1      33.128  24.363  23.548  1.00  0.00     0.028 A 
ATOM     13  C   UNL A   1      34.586  23.974  25.897  1.00  0.00     0.018 A 
ATOM     14  C   UNL A   1      34.191  23.443  23.573  1.00  0.00     0.018 A 
BRANCH  10  15
ATOM     15  N   UNL A   1      31.546  25.793  24.826  1.00  0.00    -0.250 N 
ATOM     16  C   UNL A   1      28.301  26.752  23.879  1.00  0.00     0.024 C 
ATOM     17  C   UNL A   1      29.814  27.007  23.849  1.00  0.00     0.071 C 
ATOM     18  C   UNL A   1      30.548  25.702  23.890  1.00  0.00     0.241 C 
ATOM     19  C   UNL A   1      30.248  27.752  25.145  1.00  0.00     0.107 C 
ATOM     20  C   UNL A   1      30.359  27.763  22.580  1.00  0.00     0.066 C 
ATOM     21  O   UNL A   1      30.286  24.759  23.154  1.00  0.00    -0.273 OA
ATOM     22  C   UNL A   1      31.278  26.790  25.747  1.00  0.00     0.238 C 
ATOM     23  C   UNL A   1      30.819  29.164  24.767  1.00  0.00     0.063 C 
ATOM     24  C   UNL A   1      31.847  28.115  22.796  1.00  0.00    -0.036 A 
ATOM     25  C   UNL A   1      29.628  29.089  22.587  1.00  0.00    -0.036 A 
ATOM     26  O   UNL A   1      31.746  26.938  26.868  1.00  0.00    -0.274 OA
ATOM     27  C   UNL A   1      32.089  28.880  23.969  1.00  0.00    -0.036 A 
ATOM     28  C   UNL A   1      29.841  29.841  23.776  1.00  0.00    -0.036 A 
ATOM     29  C   UNL A   1      32.908  27.739  21.987  1.00  0.00     0.005 A 
ATOM     30  C   UNL A   1      28.858  29.563  21.534  1.00  0.00     0.005 A 
ATOM     31  C   UNL A   1      33.376  29.243  24.344  1.00  0.00     0.004 A 
ATOM     32  C   UNL A   1      29.268  31.099  23.884  1.00  0.00     0.004 A 
ATOM     33  C   UNL A   1      34.206  28.086  22.376  1.00  0.00     0.000 A 
ATOM     34  C   UNL A   1      28.283  30.820  21.657  1.00  0.00     0.000 A 
ATOM     35  C   UNL A   1      34.439  28.829  23.545  1.00  0.00     0.000 A 
ATOM     36  C   UNL A   1      28.486  31.580  22.820  1.00  0.00     0.000 A 
ENDBRANCH  10  15
ENDBRANCH   7   9
ENDBRANCH   6   7
ENDBRANCH   5   6
ENDBRANCH   4   5
ENDBRANCH   3   4
ENDBRANCH   2   3
ENDBRANCH   1   2
BRANCH   1  37
ATOM     37  O   UNL A   1      43.085  22.455  27.475  1.00  0.00    -0.376 OA
BRANCH  37  38
ATOM     38  C   UNL A   1      42.217  23.339  28.166  1.00  0.00     0.202 C 
BRANCH  38  39
ATOM     39  C   UNL A   1      42.384  24.850  27.992  1.00  0.00     0.261 C 
BRANCH  39  40
ATOM     40  O   UNL A   1      41.721  25.369  26.829  1.00  0.00    -0.460 OA
BRANCH  40  41
ATOM     41  C   UNL A   1      40.413  25.690  26.993  1.00  0.00     0.338 C 
ATOM     42  O   UNL A   1      39.450  25.187  26.437  1.00  0.00    -0.246 OA
BRANCH  41  43
ATOM     43  C   UNL A   1      40.305  26.639  28.114  1.00  0.00     0.060 A 
ATOM     44  C   UNL A   1      39.429  26.383  29.169  1.00  0.00     0.016 A 
ATOM     45  C   UNL A   1      41.096  27.797  28.103  1.00  0.00     0.016 A 
ATOM     46  C   UNL A   1      39.355  27.289  30.229  1.00  0.00     0.010 A 
ATOM     47  C   UNL A   1      41.001  28.712  29.152  1.00  0.00     0.010 A 
ATOM     48  C   UNL A   1      40.142  28.455  30.231  1.00  0.00    -0.014 A 
BRANCH  48  49
ATOM     49  C   UNL A   1      40.197  29.306  31.442  1.00  0.00     0.031 A 
ATOM     50  C   UNL A   1      39.200  30.395  31.689  1.00  0.00     0.074 A 
ATOM     51  C   UNL A   1      41.183  29.067  32.329  1.00  0.00     0.049 A 
ATOM     52  N   UNL A   1      39.090  31.173  32.735  1.00  0.00    -0.248 NA
ATOM     53  C   UNL A   1      38.200  30.646  30.642  1.00  0.00     0.031 C 
ATOM     54  C   UNL A   1      42.208  28.034  32.173  1.00  0.00     0.029 A 
ATOM     55  N   UNL A   1      41.482  29.661  33.529  1.00  0.00    -0.354 N 
ATOM     56  C   UNL A   1      37.989  31.983  32.493  1.00  0.00     0.074 A 
ATOM     57  C   UNL A   1      37.496  31.640  31.175  1.00  0.00     0.031 C 
ATOM     58  C   UNL A   1      43.016  28.057  33.243  1.00  0.00     0.029 A 
ATOM     59  C   UNL A   1      42.586  29.124  34.145  1.00  0.00     0.049 A 
ATOM     60  H   UNL A   1      40.956  30.400  33.911  1.00  0.00     0.167 HD
ATOM     61  C   UNL A   1      37.436  32.908  33.312  1.00  0.00     0.031 A 
ATOM     62  C   UNL A   1      43.195  29.449  35.304  1.00  0.00     0.031 A 
ATOM     63  C   UNL A   1      37.956  33.250  34.614  1.00  0.00     0.049 A 
ATOM     64  C   UNL A   1      42.601  30.530  36.162  1.00  0.00     0.074 A 
ATOM     65  C   UNL A   1      37.441  34.154  35.527  1.00  0.00     0.029 A 
ATOM     66  N   UNL A   1      39.104  32.720  35.185  1.00  0.00    -0.354 N 
ATOM     67  N   UNL A   1      41.515  31.233  35.953  1.00  0.00    -0.248 NA
ATOM     68  C   UNL A   1      43.299  30.856  37.412  1.00  0.00     0.031 C 
ATOM     69  C   UNL A   1      38.317  34.229  36.611  1.00  0.00     0.029 A 
ATOM     70  C   UNL A   1      39.336  33.311  36.416  1.00  0.00     0.049 A 
ATOM     71  H   UNL A   1      39.671  32.026  34.775  1.00  0.00     0.167 HD
ATOM     72  C   UNL A   1      41.393  32.079  37.048  1.00  0.00     0.074 A 
ATOM     73  C   UNL A   1      42.502  31.784  37.931  1.00  0.00     0.031 C 
ATOM     74  C   UNL A   1      40.447  33.019  37.291  1.00  0.00     0.031 A 
BRANCH  61  75
ATOM     75  C   UNL A   1      36.176  33.611  32.871  1.00  0.00    -0.014 A 
ATOM     76  C   UNL A   1      36.217  34.968  32.501  1.00  0.00     0.010 A 
ATOM     77  C   UNL A   1      34.927  32.978  33.005  1.00  0.00     0.010 A 
ATOM     78  C   UNL A   1      35.035  35.693  32.323  1.00  0.00     0.020 A 
ATOM     79  C   UNL A   1      33.742  33.692  32.801  1.00  0.00     0.020 A 
ATOM     80  C   UNL A   1      33.804  35.052  32.490  1.00  0.00     0.054 A 
BRANCH  80  81
ATOM     81  S   UNL A   1      32.280  36.026  32.328  1.00  0.00     0.124 S 
ATOM     82  O   UNL A   1      32.507  37.116  33.272  1.00  0.00    -0.237 OA
ATOM     83  O   UNL A   1      32.293  36.400  30.916  1.00  0.00    -0.237 OA
ATOM     84  O   UNL A   1      31.229  35.083  32.704  1.00  0.00    -0.744 OA
ENDBRANCH  80  81
ENDBRANCH  61  75
BRANCH  62  85
ATOM     85  C   UNL A   1      44.420  28.704  35.705  1.00  0.00    -0.014 A 
ATOM     86  C   UNL A   1      44.331  27.654  36.640  1.00  0.00     0.010 A 
ATOM     87  C   UNL A   1      45.685  29.104  35.246  1.00  0.00     0.010 A 
ATOM     88  C   UNL A   1      45.485  27.064  37.158  1.00  0.00     0.020 A 
ATOM     89  C   UNL A   1      46.844  28.492  35.737  1.00  0.00     0.020 A 
ATOM     90  C   UNL A   1      46.736  27.498  36.715  1.00  0.00     0.054 A 
BRANCH  90  91
ATOM     91  S   UNL A   1      48.222  26.764  37.450  1.00  0.00     0.124 S 
ATOM     92  O   UNL A   1      48.014  25.343  37.188  1.00  0.00    -0.237 OA
ATOM     93  O   UNL A   1      49.298  27.394  36.691  1.00  0.00    -0.237 OA
ATOM     94  O   UNL A   1      48.141  27.160  38.854  1.00  0.00    -0.744 OA
ENDBRANCH  90  91
ENDBRANCH  62  85
BRANCH  74  95
ATOM     95  C   UNL A   1      40.557  33.844  38.549  1.00  0.00    -0.014 A 
ATOM     96  C   UNL A   1      41.315  35.030  38.545  1.00  0.00     0.010 A 
ATOM     97  C   UNL A   1      40.069  33.346  39.769  1.00  0.00     0.010 A 
ATOM     98  C   UNL A   1      41.637  35.668  39.746  1.00  0.00     0.020 A 
ATOM     99  C   UNL A   1      40.364  33.999  40.970  1.00  0.00     0.020 A 
ATOM    100  C   UNL A   1      41.176  35.136  40.953  1.00  0.00     0.054 A 
BRANCH 100 101
ATOM    101  S   UNL A   1      41.689  35.919  42.506  1.00  0.00     0.124 S 
ATOM    102  O   UNL A   1      42.941  36.568  42.125  1.00  0.00    -0.237 OA
ATOM    103  O   UNL A   1      40.575  36.820  42.793  1.00  0.00    -0.237 OA
ATOM    104  O   UNL A   1      41.825  34.796  43.431  1.00  0.00    -0.744 OA
ENDBRANCH 100 101
ENDBRANCH  74  95
ENDBRANCH  48  49
ENDBRANCH  41  43
ENDBRANCH  40  41
ENDBRANCH  39  40
ENDBRANCH  38  39
ENDBRANCH  37  38
ENDBRANCH   1  37
TORSDOF 21
ENDMDL
MODEL 2
REMARK VINA RESULT:     -11.0      5.324     10.164
REMARK SMILES C[C@]12C(=O)N(c3ccc(C(=O)OCCOCCOCCOC(=O)c4ccc(-c5c6nc(c(-c7ccc(S(=O)(=O)[O-])cc7)c7ccc([nH]7)c(-c7ccc(S(=O)(=O)[O-])cc7)c7nc(c(-c8ccc(S(=O)(=O)[O-])cc8)c8ccc5[nH]8)C=C7)C=C6)cc4)cc3)C(=O)[C@H]1[C@H]1c3ccccc3[C@@H]2c2ccccc21
REMARK SMILES IDX 17 1 16 2 15 3 14 4 13 5 12 6 10 7 11 8 9 9 6 10 7 11 85 12
REMARK SMILES IDX 8 13 84 14 5 15 1 16 2 17 3 18 88 19 96 20 4 21 86 22 89 23
REMARK SMILES IDX 95 24 97 25 87 26 90 27 102 28 94 29 98 30 91 31 101 32
REMARK SMILES IDX 93 33 99 34 92 35 100 36 18 37 19 38 20 39 21 40 22 41 23 42
REMARK SMILES IDX 24 43 25 44 83 45 26 46 82 47 27 48 28 49 29 50 76 51 30 52
REMARK SMILES IDX 81 53 75 54 77 55 31 56 80 57 74 58 73 59 32 61 62 62 43 63
REMARK SMILES IDX 61 64 44 65 47 66 60 67 78 68 45 69 46 70 59 72 79 73 48 74
REMARK SMILES IDX 33 75 34 76 42 77 35 78 41 79 36 80 37 81 38 82 39 83 40 84
REMARK SMILES IDX 63 85 64 86 72 87 65 88 71 89 66 90 67 91 68 92 69 93 70 94
REMARK SMILES IDX 49 95 50 96 58 97 51 98 57 99 52 100 53 101 54 102 55 103
REMARK SMILES IDX 56 104
REMARK H PARENT 77 60 47 71
REMARK Flexibility Score: inf
ROOT
ATOM      1  C   UNL A   1      45.291  22.284  25.296  1.00  0.00     0.188 C 
ENDROOT
BRANCH   1   2
ATOM      2  C   UNL A   1      44.079  22.669  24.415  1.00  0.00     0.188 C 
BRANCH   2   3
ATOM      3  O   UNL A   1      43.324  23.831  24.704  1.00  0.00    -0.376 OA
BRANCH   3   4
ATOM      4  C   UNL A   1      42.353  23.794  25.743  1.00  0.00     0.202 C 
BRANCH   4   5
ATOM      5  C   UNL A   1      42.051  25.057  26.554  1.00  0.00     0.261 C 
BRANCH   5   6
ATOM      6  O   UNL A   1      40.910  25.774  26.053  1.00  0.00    -0.460 OA
BRANCH   6   7
ATOM      7  C   UNL A   1      39.754  25.510  26.707  1.00  0.00     0.338 C 
ATOM      8  O   UNL A   1      39.019  24.551  26.551  1.00  0.00    -0.246 OA
BRANCH   7   9
ATOM      9  C   UNL A   1      39.592  26.455  27.825  1.00  0.00     0.060 A 
ATOM     10  C   UNL A   1      39.638  28.255  29.991  1.00  0.00     0.052 A 
ATOM     11  C   UNL A   1      40.014  28.661  28.694  1.00  0.00     0.028 A 
ATOM     12  C   UNL A   1      39.122  26.960  30.146  1.00  0.00     0.028 A 
ATOM     13  C   UNL A   1      40.051  27.756  27.636  1.00  0.00     0.018 A 
ATOM     14  C   UNL A   1      39.068  26.070  29.059  1.00  0.00     0.018 A 
BRANCH  10  15
ATOM     15  N   UNL A   1      40.013  29.081  31.092  1.00  0.00    -0.250 N 
ATOM     16  C   UNL A   1      39.998  30.137  34.443  1.00  0.00     0.024 C 
ATOM     17  C   UNL A   1      39.414  30.232  33.027  1.00  0.00     0.071 C 
ATOM     18  C   UNL A   1      39.505  28.897  32.353  1.00  0.00     0.241 C 
ATOM     19  C   UNL A   1      40.289  31.180  32.158  1.00  0.00     0.107 C 
ATOM     20  C   UNL A   1      37.900  30.652  32.935  1.00  0.00     0.066 C 
ATOM     21  O   UNL A   1      39.131  27.853  32.872  1.00  0.00    -0.273 OA
ATOM     22  C   UNL A   1      40.719  30.267  31.005  1.00  0.00     0.238 C 
ATOM     23  C   UNL A   1      39.434  32.422  31.721  1.00  0.00     0.063 C 
ATOM     24  C   UNL A   1      37.526  30.894  31.455  1.00  0.00    -0.036 A 
ATOM     25  C   UNL A   1      37.847  32.017  33.589  1.00  0.00    -0.036 A 
ATOM     26  O   UNL A   1      41.558  30.596  30.178  1.00  0.00    -0.274 OA
ATOM     27  C   UNL A   1      38.348  31.857  30.809  1.00  0.00    -0.036 A 
ATOM     28  C   UNL A   1      38.695  32.973  32.965  1.00  0.00    -0.036 A 
ATOM     29  C   UNL A   1      36.520  30.258  30.746  1.00  0.00     0.005 A 
ATOM     30  C   UNL A   1      37.028  32.337  34.664  1.00  0.00     0.005 A 
ATOM     31  C   UNL A   1      38.185  32.162  29.464  1.00  0.00     0.004 A 
ATOM     32  C   UNL A   1      38.698  34.276  33.439  1.00  0.00     0.004 A 
ATOM     33  C   UNL A   1      36.370  30.549  29.385  1.00  0.00     0.000 A 
ATOM     34  C   UNL A   1      37.045  33.643  35.134  1.00  0.00     0.000 A 
ATOM     35  C   UNL A   1      37.196  31.490  28.750  1.00  0.00     0.000 A 
ATOM     36  C   UNL A   1      37.871  34.602  34.527  1.00  0.00     0.000 A 
ENDBRANCH  10  15
ENDBRANCH   7   9
ENDBRANCH   6   7
ENDBRANCH   5   6
ENDBRANCH   4   5
ENDBRANCH   3   4
ENDBRANCH   2   3
ENDBRANCH   1   2
BRANCH   1  37
ATOM     37  O   UNL A   1      46.407  23.148  25.408  1.00  0.00    -0.376 OA
BRANCH  37  38
ATOM     38  C   UNL A   1      47.243  23.333  24.276  1.00  0.00     0.202 C 
BRANCH  38  39
ATOM     39  C   UNL A   1      47.633  24.749  23.848  1.00  0.00     0.261 C 
BRANCH  39  40
ATOM     40  O   UNL A   1      46.685  25.749  24.250  1.00  0.00    -0.460 OA
BRANCH  40  41
ATOM     41  C   UNL A   1      47.111  27.034  24.154  1.00  0.00     0.338 C 
ATOM     42  O   UNL A   1      47.721  27.546  23.229  1.00  0.00    -0.246 OA
BRANCH  41  43
ATOM     43  C   UNL A   1      46.553  27.795  25.285  1.00  0.00     0.060 A 
ATOM     44  C   UNL A   1      45.179  27.790  25.525  1.00  0.00     0.016 A 
ATOM     45  C   UNL A   1      47.424  28.518  26.113  1.00  0.00     0.016 A 
ATOM     46  C   UNL A   1      44.675  28.505  26.613  1.00  0.00     0.010 A 
ATOM     47  C   UNL A   1      46.913  29.250  27.184  1.00  0.00     0.010 A 
ATOM     48  C   UNL A   1      45.537  29.234  27.452  1.00  0.00    -0.014 A 
BRANCH  48  49
ATOM     49  C   UNL A   1      45.017  29.828  28.706  1.00  0.00     0.031 A 
ATOM     50  C   UNL A   1      44.941  29.045  29.979  1.00  0.00     0.074 A 
ATOM     51  C   UNL A   1      44.612  31.112  28.668  1.00  0.00     0.049 A 
ATOM     52  N   UNL A   1      44.570  29.456  31.164  1.00  0.00    -0.248 NA
ATOM     53  C   UNL A   1      45.330  27.628  29.926  1.00  0.00     0.031 C 
ATOM     54  C   UNL A   1      44.638  31.956  27.472  1.00  0.00     0.029 A 
ATOM     55  N   UNL A   1      44.110  31.930  29.647  1.00  0.00    -0.354 N 
ATOM     56  C   UNL A   1      44.713  28.364  32.009  1.00  0.00     0.074 A 
ATOM     57  C   UNL A   1      45.154  27.254  31.190  1.00  0.00     0.031 C 
ATOM     58  C   UNL A   1      44.184  33.177  27.791  1.00  0.00     0.029 A 
ATOM     59  C   UNL A   1      43.808  33.195  29.203  1.00  0.00     0.049 A 
ATOM     60  H   UNL A   1      43.978  31.639  30.579  1.00  0.00     0.167 HD
ATOM     61  C   UNL A   1      44.514  28.309  33.347  1.00  0.00     0.031 A 
ATOM     62  C   UNL A   1      43.284  34.255  29.850  1.00  0.00     0.031 A 
ATOM     63  C   UNL A   1      44.054  29.423  34.141  1.00  0.00     0.049 A 
ATOM     64  C   UNL A   1      43.005  34.147  31.322  1.00  0.00     0.074 A 
ATOM     65  C   UNL A   1      43.855  29.468  35.511  1.00  0.00     0.029 A 
ATOM     66  N   UNL A   1      43.713  30.675  33.650  1.00  0.00    -0.354 N 
ATOM     67  N   UNL A   1      43.218  33.130  32.120  1.00  0.00    -0.248 NA
ATOM     68  C   UNL A   1      42.428  35.323  31.987  1.00  0.00     0.031 C 
ATOM     69  C   UNL A   1      43.319  30.714  35.835  1.00  0.00     0.029 A 
ATOM     70  C   UNL A   1      43.262  31.481  34.682  1.00  0.00     0.049 A 
ATOM     71  H   UNL A   1      43.780  30.948  32.706  1.00  0.00     0.167 HD
ATOM     72  C   UNL A   1      42.812  33.544  33.383  1.00  0.00     0.074 A 
ATOM     73  C   UNL A   1      42.361  34.914  33.248  1.00  0.00     0.031 C 
ATOM     74  C   UNL A   1      42.808  32.844  34.543  1.00  0.00     0.031 A 
BRANCH  61  75
ATOM     75  C   UNL A   1      44.822  27.026  34.078  1.00  0.00    -0.014 A 
ATOM     76  C   UNL A   1      46.116  26.794  34.583  1.00  0.00     0.010 A 
ATOM     77  C   UNL A   1      43.885  25.978  34.096  1.00  0.00     0.010 A 
ATOM     78  C   UNL A   1      46.482  25.526  35.044  1.00  0.00     0.020 A 
ATOM     79  C   UNL A   1      44.238  24.715  34.582  1.00  0.00     0.020 A 
ATOM     80  C   UNL A   1      45.544  24.490  35.026  1.00  0.00     0.054 A 
BRANCH  80  81
ATOM     81  S   UNL A   1      46.058  22.833  35.559  1.00  0.00     0.124 S 
ATOM     82  O   UNL A   1      46.330  22.168  34.288  1.00  0.00    -0.237 OA
ATOM     83  O   UNL A   1      47.228  23.116  36.387  1.00  0.00    -0.237 OA
ATOM     84  O   UNL A   1      44.896  22.332  36.290  1.00  0.00    -0.744 OA
ENDBRANCH  80  81
ENDBRANCH  61  75
BRANCH  62  85
ATOM     85  C   UNL A   1      43.026  35.507  29.086  1.00  0.00    -0.014 A 
ATOM     86  C   UNL A   1      43.962  36.560  29.123  1.00  0.00     0.010 A 
ATOM     87  C   UNL A   1      41.809  35.699  28.413  1.00  0.00     0.010 A 
ATOM     88  C   UNL A   1      43.658  37.800  28.561  1.00  0.00     0.020 A 
ATOM     89  C   UNL A   1      41.514  36.931  27.818  1.00  0.00     0.020 A 
ATOM     90  C   UNL A   1      42.428  37.983  27.925  1.00  0.00     0.054 A 
BRANCH  90  91
ATOM     91  S   UNL A   1      42.029  39.622  27.260  1.00  0.00     0.124 S 
ATOM     92  O   UNL A   1      41.158  39.286  26.138  1.00  0.00    -0.237 OA
ATOM     93  O   UNL A   1      41.375  40.274  28.391  1.00  0.00    -0.237 OA
ATOM     94  O   UNL A   1      43.333  40.172  26.898  1.00  0.00    -0.744 OA
ENDBRANCH  90  91
ENDBRANCH  62  85
BRANCH  74  95
ATOM     95  C   UNL A   1      42.275  33.513  35.786  1.00  0.00    -0.014 A 
ATOM     96  C   UNL A   1      40.937  33.308  36.174  1.00  0.00     0.010 A 
ATOM     97  C   UNL A   1      43.041  34.483  36.455  1.00  0.00     0.010 A 
ATOM     98  C   UNL A   1      40.357  34.107  37.162  1.00  0.00     0.020 A 
ATOM     99  C   UNL A   1      42.472  35.262  37.466  1.00  0.00     0.020 A 
ATOM    100  C   UNL A   1      41.123  35.093  37.788  1.00  0.00     0.054 A 
BRANCH 100 101
ATOM    101  S   UNL A   1      40.325  36.186  38.996  1.00  0.00     0.124 S 
ATOM    102  O   UNL A   1      39.402  35.277  39.670  1.00  0.00    -0.237 OA
ATOM    103  O   UNL A   1      41.453  36.650  39.801  1.00  0.00    -0.237 OA
ATOM    104  O   UNL A   1      39.695  37.213  38.169  1.00  0.00    -0.744 OA
ENDBRANCH 100 101
ENDBRANCH  74  95
ENDBRANCH  48  49
ENDBRANCH  41  43
ENDBRANCH  40  41
ENDBRANCH  39  40
ENDBRANCH  38  39
ENDBRANCH  37  38
ENDBRANCH   1  37
TORSDOF 21
ENDMDL
MODEL 3
REMARK VINA RESULT:     -10.5      5.483      9.546
REMARK SMILES C[C@]12C(=O)N(c3ccc(C(=O)OCCOCCOCCOC(=O)c4ccc(-c5c6nc(c(-c7ccc(S(=O)(=O)[O-])cc7)c7ccc([nH]7)c(-c7ccc(S(=O)(=O)[O-])cc7)c7nc(c(-c8ccc(S(=O)(=O)[O-])cc8)c8ccc5[nH]8)C=C7)C=C6)cc4)cc3)C(=O)[C@H]1[C@H]1c3ccccc3[C@@H]2c2ccccc21
REMARK SMILES IDX 17 1 16 2 15 3 14 4 13 5 12 6 10 7 11 8 9 9 6 10 7 11 85 12
REMARK SMILES IDX 8 13 84 14 5 15 1 16 2 17 3 18 88 19 96 20 4 21 86 22 89 23
REMARK SMILES IDX 95 24 97 25 87 26 90 27 102 28 94 29 98 30 91 31 101 32
REMARK SMILES IDX 93 33 99 34 92 35 100 36 18 37 19 38 20 39 21 40 22 41 23 42
REMARK SMILES IDX 24 43 25 44 83 45 26 46 82 47 27 48 28 49 29 50 76 51 30 52
REMARK SMILES IDX 81 53 75 54 77 55 31 56 80 57 74 58 73 59 32 61 62 62 43 63
REMARK SMILES IDX 61 64 44 65 47 66 60 67 78 68 45 69 46 70 59 72 79 73 48 74
REMARK SMILES IDX 33 75 34 76 42 77 35 78 41 79 36 80 37 81 38 82 39 83 40 84
REMARK SMILES IDX 63 85 64 86 72 87 65 88 71 89 66 90 67 91 68 92 69 93 70 94
REMARK SMILES IDX 49 95 50 96 58 97 51 98 57 99 52 100 53 101 54 102 55 103
REMARK SMILES IDX 56 104
REMARK H PARENT 77 60 47 71
REMARK Flexibility Score: inf
ROOT
ATOM      1  C   UNL A   1      33.623  26.727  25.774  1.00  0.00     0.188 C 
ENDROOT
BRANCH   1   2
ATOM      2  C   UNL A   1      34.006  26.011  24.458  1.00  0.00     0.188 C 
BRANCH   2   3
ATOM      3  O   UNL A   1      34.150  24.603  24.424  1.00  0.00    -0.376 OA
BRANCH   3   4
ATOM      4  C   UNL A   1      34.302  23.885  25.642  1.00  0.00     0.202 C 
BRANCH   4   5
ATOM      5  C   UNL A   1      35.456  22.893  25.808  1.00  0.00     0.261 C 
BRANCH   5   6
ATOM      6  O   UNL A   1      36.721  23.546  26.003  1.00  0.00    -0.460 OA
BRANCH   6   7
ATOM      7  C   UNL A   1      37.780  22.704  26.072  1.00  0.00     0.338 C 
ATOM      8  O   UNL A   1      37.832  21.550  25.685  1.00  0.00    -0.246 OA
BRANCH   7   9
ATOM      9  C   UNL A   1      38.976  23.450  26.498  1.00  0.00     0.060 A 
ATOM     10  C   UNL A   1      41.267  25.015  26.985  1.00  0.00     0.052 A 
ATOM     11  C   UNL A   1      39.981  25.593  26.939  1.00  0.00     0.028 A 
ATOM     12  C   UNL A   1      41.357  23.618  26.905  1.00  0.00     0.028 A 
ATOM     13  C   UNL A   1      38.857  24.830  26.635  1.00  0.00     0.018 A 
ATOM     14  C   UNL A   1      40.211  22.831  26.694  1.00  0.00     0.018 A 
BRANCH  10  15
ATOM     15  N   UNL A   1      42.399  25.877  26.877  1.00  0.00    -0.250 N 
ATOM     16  C   UNL A   1      45.426  27.319  27.926  1.00  0.00     0.024 C 
ATOM     17  C   UNL A   1      43.892  27.355  27.883  1.00  0.00     0.071 C 
ATOM     18  C   UNL A   1      43.355  25.957  27.858  1.00  0.00     0.241 C 
ATOM     19  C   UNL A   1      43.417  27.992  26.546  1.00  0.00     0.107 C 
ATOM     20  C   UNL A   1      43.187  28.059  29.101  1.00  0.00     0.066 C 
ATOM     21  O   UNL A   1      43.714  25.083  28.637  1.00  0.00    -0.273 OA
ATOM     22  C   UNL A   1      42.564  26.875  25.935  1.00  0.00     0.238 C 
ATOM     23  C   UNL A   1      42.634  29.317  26.850  1.00  0.00     0.063 C 
ATOM     24  C   UNL A   1      41.675  28.188  28.812  1.00  0.00    -0.036 A 
ATOM     25  C   UNL A   1      43.721  29.476  29.079  1.00  0.00    -0.036 A 
ATOM     26  O   UNL A   1      42.132  26.922  24.791  1.00  0.00    -0.274 OA
ATOM     27  C   UNL A   1      41.382  28.876  27.603  1.00  0.00    -0.036 A 
ATOM     28  C   UNL A   1      43.459  30.156  27.856  1.00  0.00    -0.036 A 
ATOM     29  C   UNL A   1      40.642  27.687  29.588  1.00  0.00     0.005 A 
ATOM     30  C   UNL A   1      44.366  30.086  30.146  1.00  0.00     0.005 A 
ATOM     31  C   UNL A   1      40.075  29.040  27.162  1.00  0.00     0.004 A 
ATOM     32  C   UNL A   1      43.851  31.480  27.730  1.00  0.00     0.004 A 
ATOM     33  C   UNL A   1      39.327  27.832  29.133  1.00  0.00     0.000 A 
ATOM     34  C   UNL A   1      44.761  31.409  30.004  1.00  0.00     0.000 A 
ATOM     35  C   UNL A   1      39.046  28.500  27.930  1.00  0.00     0.000 A 
ATOM     36  C   UNL A   1      44.506  32.099  28.808  1.00  0.00     0.000 A 
ENDBRANCH  10  15
ENDBRANCH   7   9
ENDBRANCH   6   7
ENDBRANCH   5   6
ENDBRANCH   4   5
ENDBRANCH   3   4
ENDBRANCH   2   3
ENDBRANCH   1   2
BRANCH   1  37
ATOM     37  O   UNL A   1      34.060  28.049  26.030  1.00  0.00    -0.376 OA
BRANCH  37  38
ATOM     38  C   UNL A   1      33.519  28.744  27.143  1.00  0.00     0.202 C 
BRANCH  38  39
ATOM     39  C   UNL A   1      33.547  30.273  27.165  1.00  0.00     0.261 C 
BRANCH  39  40
ATOM     40  O   UNL A   1      34.234  30.816  28.303  1.00  0.00    -0.460 OA
BRANCH  40  41
ATOM     41  C   UNL A   1      34.462  32.153  28.268  1.00  0.00     0.338 C 
ATOM     42  O   UNL A   1      33.645  33.040  28.077  1.00  0.00    -0.246 OA
BRANCH  41  43
ATOM     43  C   UNL A   1      35.851  32.399  28.690  1.00  0.00     0.060 A 
ATOM     44  C   UNL A   1      36.181  33.571  29.371  1.00  0.00     0.016 A 
ATOM     45  C   UNL A   1      36.830  31.439  28.399  1.00  0.00     0.016 A 
ATOM     46  C   UNL A   1      37.502  33.776  29.776  1.00  0.00     0.010 A 
ATOM     47  C   UNL A   1      38.153  31.658  28.783  1.00  0.00     0.010 A 
ATOM     48  C   UNL A   1      38.494  32.820  29.490  1.00  0.00    -0.014 A 
BRANCH  48  49
ATOM     49  C   UNL A   1      39.842  32.957  30.088  1.00  0.00     0.031 A 
ATOM     50  C   UNL A   1      40.767  34.071  29.708  1.00  0.00     0.074 A 
ATOM     51  C   UNL A   1      40.219  32.038  30.998  1.00  0.00     0.049 A 
ATOM     52  N   UNL A   1      41.948  34.349  30.197  1.00  0.00    -0.248 NA
ATOM     53  C   UNL A   1      40.318  34.991  28.653  1.00  0.00     0.031 C 
ATOM     54  C   UNL A   1      39.392  30.908  31.429  1.00  0.00     0.029 A 
ATOM     55  N   UNL A   1      41.373  31.906  31.726  1.00  0.00    -0.354 N 
ATOM     56  C   UNL A   1      42.373  35.495  29.539  1.00  0.00     0.074 A 
ATOM     57  C   UNL A   1      41.345  35.832  28.576  1.00  0.00     0.031 C 
ATOM     58  C   UNL A   1      40.061  30.207  32.355  1.00  0.00     0.029 A 
ATOM     59  C   UNL A   1      41.373  30.816  32.562  1.00  0.00     0.049 A 
ATOM     60  H   UNL A   1      42.130  32.533  31.655  1.00  0.00     0.167 HD
ATOM     61  C   UNL A   1      43.506  36.207  29.746  1.00  0.00     0.031 A 
ATOM     62  C   UNL A   1      42.318  30.349  33.403  1.00  0.00     0.031 A 
ATOM     63  C   UNL A   1      44.527  35.841  30.697  1.00  0.00     0.049 A 
ATOM     64  C   UNL A   1      43.599  31.118  33.561  1.00  0.00     0.074 A 
ATOM     65  C   UNL A   1      45.696  36.521  30.997  1.00  0.00     0.029 A 
ATOM     66  N   UNL A   1      44.515  34.704  31.493  1.00  0.00    -0.354 N 
ATOM     67  N   UNL A   1      43.951  32.243  32.988  1.00  0.00    -0.248 NA
ATOM     68  C   UNL A   1      44.604  30.571  34.482  1.00  0.00     0.031 C 
ATOM     69  C   UNL A   1      46.425  35.758  31.909  1.00  0.00     0.029 A 
ATOM     70  C   UNL A   1      45.675  34.642  32.247  1.00  0.00     0.049 A 
ATOM     71  H   UNL A   1      43.789  34.040  31.517  1.00  0.00     0.167 HD
ATOM     72  C   UNL A   1      45.214  32.544  33.484  1.00  0.00     0.074 A 
ATOM     73  C   UNL A   1      45.555  31.496  34.423  1.00  0.00     0.031 C 
ATOM     74  C   UNL A   1      46.015  33.593  33.178  1.00  0.00     0.031 A 
BRANCH  61  75
ATOM     75  C   UNL A   1      43.717  37.483  28.969  1.00  0.00    -0.014 A 
ATOM     76  C   UNL A   1      44.466  37.467  27.777  1.00  0.00     0.010 A 
ATOM     77  C   UNL A   1      43.335  38.719  29.519  1.00  0.00     0.010 A 
ATOM     78  C   UNL A   1      44.872  38.664  27.177  1.00  0.00     0.020 A 
ATOM     79  C   UNL A   1      43.715  39.918  28.908  1.00  0.00     0.020 A 
ATOM     80  C   UNL A   1      44.506  39.882  27.757  1.00  0.00     0.054 A 
BRANCH  80  81
ATOM     81  S   UNL A   1      45.104  41.423  27.007  1.00  0.00     0.124 S 
ATOM     82  O   UNL A   1      44.719  42.421  28.000  1.00  0.00    -0.237 OA
ATOM     83  O   UNL A   1      46.538  41.178  26.881  1.00  0.00    -0.237 OA
ATOM     84  O   UNL A   1      44.379  41.492  25.740  1.00  0.00    -0.744 OA
ENDBRANCH  80  81
ENDBRANCH  61  75
BRANCH  62  85
ATOM     85  C   UNL A   1      42.046  29.100  34.166  1.00  0.00    -0.014 A 
ATOM     86  C   UNL A   1      41.602  29.173  35.502  1.00  0.00     0.010 A 
ATOM     87  C   UNL A   1      42.331  27.843  33.609  1.00  0.00     0.010 A 
ATOM     88  C   UNL A   1      41.512  28.022  36.284  1.00  0.00     0.020 A 
ATOM     89  C   UNL A   1      42.208  26.682  34.381  1.00  0.00     0.020 A 
ATOM     90  C   UNL A   1      41.831  26.783  35.723  1.00  0.00     0.054 A 
BRANCH  90  91
ATOM     91  S   UNL A   1      41.770  25.310  36.778  1.00  0.00     0.124 S 
ATOM     92  O   UNL A   1      42.946  25.497  37.622  1.00  0.00    -0.237 OA
ATOM     93  O   UNL A   1      40.483  25.453  37.451  1.00  0.00    -0.237 OA
ATOM     94  O   UNL A   1      41.852  24.204  35.827  1.00  0.00    -0.744 OA
ENDBRANCH  90  91
ENDBRANCH  62  85
BRANCH  74  95
ATOM     95  C   UNL A   1      47.373  33.676  33.831  1.00  0.00    -0.014 A 
ATOM     96  C   UNL A   1      47.517  34.331  35.069  1.00  0.00     0.010 A 
ATOM     97  C   UNL A   1      48.523  33.273  33.131  1.00  0.00     0.010 A 
ATOM     98  C   UNL A   1      48.787  34.639  35.562  1.00  0.00     0.020 A 
ATOM     99  C   UNL A   1      49.795  33.553  33.637  1.00  0.00     0.020 A 
ATOM    100  C   UNL A   1      49.918  34.266  34.832  1.00  0.00     0.054 A 
BRANCH 100 101
ATOM    101  S   UNL A   1      51.554  34.764  35.440  1.00  0.00     0.124 S 
ATOM    102  O   UNL A   1      51.442  34.504  36.872  1.00  0.00    -0.237 OA
ATOM    103  O   UNL A   1      52.451  33.874  34.706  1.00  0.00    -0.237 OA
ATOM    104  O   UNL A   1      51.646  36.174  35.066  1.00  0.00    -0.744 OA
ENDBRANCH 100 101
ENDBRANCH  74  95
ENDBRANCH  48  49
ENDBRANCH  41  43
ENDBRANCH  40  41
ENDBRANCH  39  40
ENDBRANCH  38  39
ENDBRANCH  37  38
ENDBRANCH   1  37
TORSDOF 21
ENDMDL
