MODEL 1
REMARK VINA RESULT:     -10.3      0.000      0.000
REMARK SMILES Cc1ccc(-c2cnnc(-n3nc(C)c4c3NC(=O)C[C@@H]4c3ccc(C(=O)OCCOCCOCCOC(=O)c4ccc(-c5c6nc(c(-c7ccc(S(=O)(=O)[O-])cc7)c7ccc([nH]7)c(-c7ccc(S(=O)(=O)[O-])cc7)c7nc(c(-c8ccc(S(=O)(=O)[O-])cc8)c8ccc5[nH]8)C=C7)C=C6)cc4)cc3)n2)cc1
REMARK SMILES IDX 32 1 31 2 30 3 29 4 28 5 26 6 27 7 25 8 22 9 23 10 101 11
REMARK SMILES IDX 24 12 100 13 21 14 11 15 12 16 16 17 13 18 15 19 17 20 14 21
REMARK SMILES IDX 18 22 20 24 19 25 10 26 6 27 7 28 102 29 8 30 9 31 5 32 1 33
REMARK SMILES IDX 2 34 3 35 104 36 4 37 103 38 33 39 34 40 35 41 36 42 37 43
REMARK SMILES IDX 38 44 39 45 40 46 41 47 99 48 42 49 98 50 43 51 44 52 45 53
REMARK SMILES IDX 92 54 46 55 97 56 91 57 93 58 47 59 96 60 90 61 89 62 48 64
REMARK SMILES IDX 78 65 59 66 77 67 60 68 63 69 76 70 94 71 61 72 62 73 75 75
REMARK SMILES IDX 95 76 64 77 49 78 50 79 58 80 51 81 57 82 52 83 53 84 54 85
REMARK SMILES IDX 55 86 56 87 79 88 80 89 88 90 81 91 87 92 82 93 83 94 84 95
REMARK SMILES IDX 85 96 86 97 65 98 66 99 74 100 67 101 73 102 68 103 69 104
REMARK SMILES IDX 70 105 71 106 72 107
REMARK H PARENT 17 23 93 63 63 74
REMARK Flexibility Score: inf
ROOT
ATOM      1  C   UNL A   1      34.579  32.782  30.467  1.00  0.00     0.188 C 
ENDROOT
BRANCH   1   2
ATOM      2  O   UNL A   1      33.827  33.397  29.402  1.00  0.00    -0.376 OA
BRANCH   2   3
ATOM      3  C   UNL A   1      33.937  33.024  28.021  1.00  0.00     0.202 C 
BRANCH   3   4
ATOM      4  C   UNL A   1      33.578  31.535  27.534  1.00  0.00     0.261 C 
BRANCH   4   5
ATOM      5  O   UNL A   1      32.161  31.144  27.209  1.00  0.00    -0.460 OA
BRANCH   5   6
ATOM      6  C   UNL A   1      31.443  31.232  26.045  1.00  0.00     0.338 C 
ATOM      7  O   UNL A   1      30.765  32.214  25.759  1.00  0.00    -0.246 OA
BRANCH   6   8
ATOM      8  C   UNL A   1      31.470  29.951  25.085  1.00  0.00     0.060 A 
ATOM      9  C   UNL A   1      31.609  27.402  23.733  1.00  0.00    -0.040 A 
ATOM     10  C   UNL A   1      30.394  27.903  24.051  1.00  0.00     0.005 A 
ATOM     11  C   UNL A   1      32.720  28.284  23.830  1.00  0.00     0.005 A 
ATOM     12  C   UNL A   1      30.390  29.115  24.709  1.00  0.00     0.016 A 
ATOM     13  C   UNL A   1      32.655  29.525  24.523  1.00  0.00     0.016 A 
BRANCH   9  14
ATOM     14  C   UNL A   1      31.598  25.899  23.601  1.00  0.00     0.064 C 
ATOM     15  N   UNL A   1      34.621  24.675  25.060  1.00  0.00    -0.180 N 
ATOM     16  N   UNL A   1      34.158  25.313  26.169  1.00  0.00    -0.168 NA
ATOM     17  C   UNL A   1      33.902  25.046  23.942  1.00  0.00     0.143 A 
ATOM     18  C   UNL A   1      32.906  25.638  25.850  1.00  0.00     0.066 A 
ATOM     19  C   UNL A   1      32.710  25.483  24.453  1.00  0.00     0.026 A 
ATOM     20  N   UNL A   1      34.120  25.013  22.574  1.00  0.00    -0.310 N 
ATOM     21  C   UNL A   1      32.016  26.217  26.890  1.00  0.00     0.069 C 
ATOM     22  C   UNL A   1      33.055  25.354  21.666  1.00  0.00     0.226 C 
ATOM     23  H   UNL A   1      35.004  24.757  22.223  1.00  0.00     0.171 HD
ATOM     24  C   UNL A   1      31.649  25.347  22.192  1.00  0.00     0.113 C 
ATOM     25  O   UNL A   1      33.356  25.471  20.488  1.00  0.00    -0.275 OA
BRANCH  15  26
ATOM     26  C   UNL A   1      35.406  23.516  25.205  1.00  0.00     0.272 A 
ATOM     27  C   UNL A   1      37.407  22.509  25.493  1.00  0.00     0.095 A 
ATOM     28  C   UNL A   1      36.924  21.399  24.819  1.00  0.00     0.164 A 
ATOM     29  N   UNL A   1      36.668  23.628  25.660  1.00  0.00    -0.208 NA
ATOM     30  N   UNL A   1      35.660  21.341  24.388  1.00  0.00    -0.153 NA
ATOM     31  N   UNL A   1      34.881  22.401  24.628  1.00  0.00    -0.109 NA
BRANCH  27  32
ATOM     32  C   UNL A   1      38.688  22.466  26.187  1.00  0.00     0.002 A 
ATOM     33  C   UNL A   1      42.712  22.489  27.731  1.00  0.00     0.044 C 
ATOM     34  C   UNL A   1      41.304  22.459  27.220  1.00  0.00    -0.051 A 
ATOM     35  C   UNL A   1      40.470  23.564  27.416  1.00  0.00     0.004 A 
ATOM     36  C   UNL A   1      40.814  21.340  26.544  1.00  0.00     0.004 A 
ATOM     37  C   UNL A   1      39.171  23.567  26.908  1.00  0.00     0.011 A 
ATOM     38  C   UNL A   1      39.517  21.342  26.038  1.00  0.00     0.011 A 
ENDBRANCH  27  32
ENDBRANCH  15  26
ENDBRANCH   9  14
ENDBRANCH   6   8
ENDBRANCH   5   6
ENDBRANCH   4   5
ENDBRANCH   3   4
ENDBRANCH   2   3
ENDBRANCH   1   2
BRANCH   1  39
ATOM     39  C   UNL A   1      35.422  33.591  31.474  1.00  0.00     0.188 C 
BRANCH  39  40
ATOM     40  O   UNL A   1      35.006  33.341  32.811  1.00  0.00    -0.376 OA
BRANCH  40  41
ATOM     41  C   UNL A   1      35.958  33.537  33.847  1.00  0.00     0.202 C 
BRANCH  41  42
ATOM     42  C   UNL A   1      37.156  32.562  33.835  1.00  0.00     0.261 C 
BRANCH  42  43
ATOM     43  O   UNL A   1      38.447  33.232  33.861  1.00  0.00    -0.460 OA
BRANCH  43  44
ATOM     44  C   UNL A   1      39.068  33.490  32.657  1.00  0.00     0.338 C 
ATOM     45  O   UNL A   1      38.993  34.573  32.102  1.00  0.00    -0.246 OA
BRANCH  44  46
ATOM     46  C   UNL A   1      39.972  32.366  32.246  1.00  0.00     0.060 A 
ATOM     47  C   UNL A   1      40.536  31.374  33.058  1.00  0.00     0.016 A 
ATOM     48  C   UNL A   1      40.391  32.380  30.955  1.00  0.00     0.016 A 
ATOM     49  C   UNL A   1      41.593  30.498  32.577  1.00  0.00     0.010 A 
ATOM     50  C   UNL A   1      41.572  31.718  30.639  1.00  0.00     0.010 A 
ATOM     51  C   UNL A   1      42.191  30.665  31.318  1.00  0.00    -0.014 A 
BRANCH  51  52
ATOM     52  C   UNL A   1      43.423  29.909  30.642  1.00  0.00     0.031 A 
ATOM     53  C   UNL A   1      44.934  30.402  30.086  1.00  0.00     0.074 A 
ATOM     54  C   UNL A   1      43.282  28.568  30.667  1.00  0.00     0.049 A 
ATOM     55  N   UNL A   1      45.874  29.547  29.762  1.00  0.00    -0.248 NA
ATOM     56  C   UNL A   1      45.529  31.760  29.799  1.00  0.00     0.031 C 
ATOM     57  C   UNL A   1      44.317  27.550  30.593  1.00  0.00     0.029 A 
ATOM     58  N   UNL A   1      42.102  27.852  30.501  1.00  0.00    -0.354 N 
ATOM     59  C   UNL A   1      47.085  30.198  29.589  1.00  0.00     0.074 A 
ATOM     60  C   UNL A   1      46.814  31.575  29.544  1.00  0.00     0.031 C 
ATOM     61  C   UNL A   1      43.788  26.452  30.046  1.00  0.00     0.029 A 
ATOM     62  C   UNL A   1      42.434  26.786  29.660  1.00  0.00     0.049 A 
ATOM     63  H   UNL A   1      41.220  28.053  30.890  1.00  0.00     0.167 HD
ATOM     64  C   UNL A   1      48.270  29.554  29.471  1.00  0.00     0.031 A 
ATOM     65  C   UNL A   1      41.877  26.604  28.432  1.00  0.00     0.031 A 
ATOM     66  C   UNL A   1      48.034  28.241  28.926  1.00  0.00     0.049 A 
ATOM     67  C   UNL A   1      42.902  26.489  27.320  1.00  0.00     0.074 A 
ATOM     68  C   UNL A   1      48.009  26.951  29.408  1.00  0.00     0.029 A 
ATOM     69  N   UNL A   1      47.392  28.215  27.698  1.00  0.00    -0.354 N 
ATOM     70  N   UNL A   1      44.196  26.592  27.475  1.00  0.00    -0.248 NA
ATOM     71  C   UNL A   1      42.539  26.303  25.922  1.00  0.00     0.031 C 
ATOM     72  C   UNL A   1      47.268  26.161  28.469  1.00  0.00     0.029 A 
ATOM     73  C   UNL A   1      46.906  26.963  27.398  1.00  0.00     0.049 A 
ATOM     74  H   UNL A   1      47.296  28.998  27.110  1.00  0.00     0.167 HD
ATOM     75  C   UNL A   1      44.830  26.576  26.253  1.00  0.00     0.074 A 
ATOM     76  C   UNL A   1      43.739  26.362  25.317  1.00  0.00     0.031 C 
ATOM     77  C   UNL A   1      46.181  26.804  26.134  1.00  0.00     0.031 A 
BRANCH  64  78
ATOM     78  C   UNL A   1      49.596  30.169  29.889  1.00  0.00    -0.014 A 
ATOM     79  C   UNL A   1      49.874  30.406  31.246  1.00  0.00     0.010 A 
ATOM     80  C   UNL A   1      50.543  30.696  28.970  1.00  0.00     0.010 A 
ATOM     81  C   UNL A   1      51.003  31.149  31.656  1.00  0.00     0.020 A 
ATOM     82  C   UNL A   1      51.692  31.395  29.364  1.00  0.00     0.020 A 
ATOM     83  C   UNL A   1      51.902  31.647  30.710  1.00  0.00     0.054 A 
BRANCH  83  84
ATOM     84  S   UNL A   1      53.299  32.681  31.233  1.00  0.00     0.124 S 
ATOM     85  O   UNL A   1      54.360  32.247  30.328  1.00  0.00    -0.237 OA
ATOM     86  O   UNL A   1      52.796  34.034  31.016  1.00  0.00    -0.237 OA
ATOM     87  O   UNL A   1      53.497  32.315  32.635  1.00  0.00    -0.744 OA
ENDBRANCH  83  84
ENDBRANCH  64  78
BRANCH  65  88
ATOM     88  C   UNL A   1      40.465  27.094  28.353  1.00  0.00    -0.014 A 
ATOM     89  C   UNL A   1      39.593  26.593  29.350  1.00  0.00     0.010 A 
ATOM     90  C   UNL A   1      40.119  28.295  27.705  1.00  0.00     0.010 A 
ATOM     91  C   UNL A   1      38.519  27.352  29.818  1.00  0.00     0.020 A 
ATOM     92  C   UNL A   1      39.009  29.043  28.150  1.00  0.00     0.020 A 
ATOM     93  C   UNL A   1      38.267  28.599  29.251  1.00  0.00     0.054 A 
BRANCH  93  94
ATOM     94  S   UNL A   1      37.121  29.708  30.131  1.00  0.00     0.124 S 
ATOM     95  O   UNL A   1      36.951  29.036  31.414  1.00  0.00    -0.237 OA
ATOM     96  O   UNL A   1      37.887  30.953  30.164  1.00  0.00    -0.237 OA
ATOM     97  O   UNL A   1      35.947  29.727  29.263  1.00  0.00    -0.744 OA
ENDBRANCH  93  94
ENDBRANCH  65  88
BRANCH  77  98
ATOM     98  C   UNL A   1      46.970  27.037  24.838  1.00  0.00    -0.014 A 
ATOM     99  C   UNL A   1      46.651  27.971  23.845  1.00  0.00     0.010 A 
ATOM    100  C   UNL A   1      48.150  26.277  24.596  1.00  0.00     0.010 A 
ATOM    101  C   UNL A   1      47.490  28.193  22.735  1.00  0.00     0.020 A 
ATOM    102  C   UNL A   1      49.007  26.500  23.513  1.00  0.00     0.020 A 
ATOM    103  C   UNL A   1      48.669  27.466  22.585  1.00  0.00     0.054 A 
BRANCH 103 104
ATOM    104  S   UNL A   1      49.748  27.800  21.172  1.00  0.00     0.124 S 
ATOM    105  O   UNL A   1      49.004  27.191  20.073  1.00  0.00    -0.237 OA
ATOM    106  O   UNL A   1      49.805  29.260  21.161  1.00  0.00    -0.237 OA
ATOM    107  O   UNL A   1      51.000  27.138  21.526  1.00  0.00    -0.744 OA
ENDBRANCH 103 104
ENDBRANCH  77  98
ENDBRANCH  51  52
ENDBRANCH  44  46
ENDBRANCH  43  44
ENDBRANCH  42  43
ENDBRANCH  41  42
ENDBRANCH  40  41
ENDBRANCH  39  40
ENDBRANCH   1  39
TORSDOF 23
ENDMDL
MODEL 2
REMARK VINA RESULT:     -10.1      9.579     16.286
REMARK SMILES Cc1ccc(-c2cnnc(-n3nc(C)c4c3NC(=O)C[C@@H]4c3ccc(C(=O)OCCOCCOCCOC(=O)c4ccc(-c5c6nc(c(-c7ccc(S(=O)(=O)[O-])cc7)c7ccc([nH]7)c(-c7ccc(S(=O)(=O)[O-])cc7)c7nc(c(-c8ccc(S(=O)(=O)[O-])cc8)c8ccc5[nH]8)C=C7)C=C6)cc4)cc3)n2)cc1
REMARK SMILES IDX 32 1 31 2 30 3 29 4 28 5 26 6 27 7 25 8 22 9 23 10 101 11
REMARK SMILES IDX 24 12 100 13 21 14 11 15 12 16 16 17 13 18 15 19 17 20 14 21
REMARK SMILES IDX 18 22 20 24 19 25 10 26 6 27 7 28 102 29 8 30 9 31 5 32 1 33
REMARK SMILES IDX 2 34 3 35 104 36 4 37 103 38 33 39 34 40 35 41 36 42 37 43
REMARK SMILES IDX 38 44 39 45 40 46 41 47 99 48 42 49 98 50 43 51 44 52 45 53
REMARK SMILES IDX 92 54 46 55 97 56 91 57 93 58 47 59 96 60 90 61 89 62 48 64
REMARK SMILES IDX 78 65 59 66 77 67 60 68 63 69 76 70 94 71 61 72 62 73 75 75
REMARK SMILES IDX 95 76 64 77 49 78 50 79 58 80 51 81 57 82 52 83 53 84 54 85
REMARK SMILES IDX 55 86 56 87 79 88 80 89 88 90 81 91 87 92 82 93 83 94 84 95
REMARK SMILES IDX 85 96 86 97 65 98 66 99 74 100 67 101 73 102 68 103 69 104
REMARK SMILES IDX 70 105 71 106 72 107
REMARK H PARENT 17 23 93 63 63 74
REMARK Flexibility Score: inf
ROOT
ATOM      1  C   UNL A   1      51.549  35.831  28.788  1.00  0.00     0.188 C 
ENDROOT
BRANCH   1   2
ATOM      2  O   UNL A   1      50.181  36.274  28.889  1.00  0.00    -0.376 OA
BRANCH   2   3
ATOM      3  C   UNL A   1      49.764  37.639  28.742  1.00  0.00     0.202 C 
BRANCH   3   4
ATOM      4  C   UNL A   1      48.479  38.022  27.856  1.00  0.00     0.261 C 
BRANCH   4   5
ATOM      5  O   UNL A   1      48.490  39.225  26.951  1.00  0.00    -0.460 OA
BRANCH   5   6
ATOM      6  C   UNL A   1      48.239  40.548  27.202  1.00  0.00     0.338 C 
ATOM      7  O   UNL A   1      48.879  41.199  28.022  1.00  0.00    -0.246 OA
BRANCH   6   8
ATOM      8  C   UNL A   1      47.009  41.209  26.416  1.00  0.00     0.060 A 
ATOM      9  C   UNL A   1      44.985  42.800  25.108  1.00  0.00    -0.040 A 
ATOM     10  C   UNL A   1      45.970  42.257  24.357  1.00  0.00     0.005 A 
ATOM     11  C   UNL A   1      44.849  42.326  26.441  1.00  0.00     0.005 A 
ATOM     12  C   UNL A   1      46.917  41.521  25.038  1.00  0.00     0.016 A 
ATOM     13  C   UNL A   1      45.862  41.567  27.092  1.00  0.00     0.016 A 
BRANCH   9  14
ATOM     14  C   UNL A   1      44.383  44.027  24.470  1.00  0.00     0.064 C 
ATOM     15  N   UNL A   1      43.562  43.187  21.096  1.00  0.00    -0.180 N 
ATOM     16  N   UNL A   1      42.803  42.225  21.687  1.00  0.00    -0.168 NA
ATOM     17  C   UNL A   1      44.430  43.758  22.004  1.00  0.00     0.143 A 
ATOM     18  C   UNL A   1      42.822  42.552  22.977  1.00  0.00     0.066 A 
ATOM     19  C   UNL A   1      43.838  43.515  23.214  1.00  0.00     0.026 A 
ATOM     20  N   UNL A   1      45.609  44.480  21.923  1.00  0.00    -0.310 N 
ATOM     21  C   UNL A   1      41.957  41.810  23.931  1.00  0.00     0.069 C 
ATOM     22  C   UNL A   1      46.181  45.066  23.109  1.00  0.00     0.226 C 
ATOM     23  H   UNL A   1      46.058  44.593  21.053  1.00  0.00     0.171 HD
ATOM     24  C   UNL A   1      45.298  45.223  24.313  1.00  0.00     0.113 C 
ATOM     25  O   UNL A   1      47.300  45.540  23.000  1.00  0.00    -0.275 OA
BRANCH  15  26
ATOM     26  C   UNL A   1      43.146  43.745  19.872  1.00  0.00     0.272 A 
ATOM     27  C   UNL A   1      42.692  45.532  18.570  1.00  0.00     0.095 A 
ATOM     28  C   UNL A   1      41.773  44.766  17.871  1.00  0.00     0.164 A 
ATOM     29  N   UNL A   1      43.372  45.050  19.632  1.00  0.00    -0.208 NA
ATOM     30  N   UNL A   1      41.589  43.472  18.151  1.00  0.00    -0.153 NA
ATOM     31  N   UNL A   1      42.323  42.948  19.139  1.00  0.00    -0.109 NA
BRANCH  27  32
ATOM     32  C   UNL A   1      43.080  46.856  18.095  1.00  0.00     0.002 A 
ATOM     33  C   UNL A   1      44.683  50.502  16.448  1.00  0.00     0.044 C 
ATOM     34  C   UNL A   1      44.109  49.254  17.045  1.00  0.00    -0.051 A 
ATOM     35  C   UNL A   1      43.077  48.578  16.385  1.00  0.00     0.004 A 
ATOM     36  C   UNL A   1      44.596  48.751  18.253  1.00  0.00     0.004 A 
ATOM     37  C   UNL A   1      42.564  47.391  16.907  1.00  0.00     0.011 A 
ATOM     38  C   UNL A   1      44.082  47.567  18.775  1.00  0.00     0.011 A 
ENDBRANCH  27  32
ENDBRANCH  15  26
ENDBRANCH   9  14
ENDBRANCH   6   8
ENDBRANCH   5   6
ENDBRANCH   4   5
ENDBRANCH   3   4
ENDBRANCH   2   3
ENDBRANCH   1   2
BRANCH   1  39
ATOM     39  C   UNL A   1      52.144  35.234  27.497  1.00  0.00     0.188 C 
BRANCH  39  40
ATOM     40  O   UNL A   1      51.291  34.237  26.950  1.00  0.00    -0.376 OA
BRANCH  40  41
ATOM     41  C   UNL A   1      51.034  33.083  27.736  1.00  0.00     0.202 C 
BRANCH  41  42
ATOM     42  C   UNL A   1      49.823  32.235  27.288  1.00  0.00     0.261 C 
BRANCH  42  43
ATOM     43  O   UNL A   1      49.016  32.876  26.261  1.00  0.00    -0.460 OA
BRANCH  43  44
ATOM     44  C   UNL A   1      48.135  33.863  26.650  1.00  0.00     0.338 C 
ATOM     45  O   UNL A   1      48.257  35.023  26.297  1.00  0.00    -0.246 OA
BRANCH  44  46
ATOM     46  C   UNL A   1      46.947  33.295  27.367  1.00  0.00     0.060 A 
ATOM     47  C   UNL A   1      46.931  32.562  28.560  1.00  0.00     0.016 A 
ATOM     48  C   UNL A   1      45.756  33.401  26.724  1.00  0.00     0.016 A 
ATOM     49  C   UNL A   1      45.742  31.857  29.012  1.00  0.00     0.010 A 
ATOM     50  C   UNL A   1      44.749  32.500  27.051  1.00  0.00     0.010 A 
ATOM     51  C   UNL A   1      44.578  31.771  28.232  1.00  0.00    -0.014 A 
BRANCH  51  52
ATOM     52  C   UNL A   1      43.220  30.969  28.471  1.00  0.00     0.031 A 
ATOM     53  C   UNL A   1      42.433  29.731  27.644  1.00  0.00     0.074 A 
ATOM     54  C   UNL A   1      42.670  31.233  29.674  1.00  0.00     0.049 A 
ATOM     55  N   UNL A   1      41.421  29.077  28.162  1.00  0.00    -0.248 NA
ATOM     56  C   UNL A   1      42.609  29.145  26.264  1.00  0.00     0.031 C 
ATOM     57  C   UNL A   1      41.746  30.415  30.443  1.00  0.00     0.029 A 
ATOM     58  N   UNL A   1      42.650  32.459  30.329  1.00  0.00    -0.354 N 
ATOM     59  C   UNL A   1      41.127  27.955  27.402  1.00  0.00     0.074 A 
ATOM     60  C   UNL A   1      41.833  28.074  26.194  1.00  0.00     0.031 C 
ATOM     61  C   UNL A   1      40.999  31.224  31.199  1.00  0.00     0.029 A 
ATOM     62  C   UNL A   1      41.356  32.581  30.843  1.00  0.00     0.049 A 
ATOM     63  H   UNL A   1      43.389  33.105  30.412  1.00  0.00     0.167 HD
ATOM     64  C   UNL A   1      40.286  26.977  27.809  1.00  0.00     0.031 A 
ATOM     65  C   UNL A   1      40.499  33.571  30.476  1.00  0.00     0.031 A 
ATOM     66  C   UNL A   1      39.328  27.538  28.729  1.00  0.00     0.049 A 
ATOM     67  C   UNL A   1      39.167  33.054  29.966  1.00  0.00     0.074 A 
ATOM     68  C   UNL A   1      39.124  27.519  30.091  1.00  0.00     0.029 A 
ATOM     69  N   UNL A   1      38.575  28.590  28.233  1.00  0.00    -0.354 N 
ATOM     70  N   UNL A   1      38.850  31.792  29.834  1.00  0.00    -0.248 NA
ATOM     71  C   UNL A   1      38.099  33.929  29.506  1.00  0.00     0.031 C 
ATOM     72  C   UNL A   1      38.285  28.636  30.410  1.00  0.00     0.029 A 
ATOM     73  C   UNL A   1      37.937  29.284  29.235  1.00  0.00     0.049 A 
ATOM     74  H   UNL A   1      38.505  28.814  27.277  1.00  0.00     0.167 HD
ATOM     75  C   UNL A   1      37.625  31.665  29.220  1.00  0.00     0.074 A 
ATOM     76  C   UNL A   1      37.188  33.043  29.065  1.00  0.00     0.031 C 
ATOM     77  C   UNL A   1      37.125  30.440  28.846  1.00  0.00     0.031 A 
BRANCH  64  78
ATOM     78  C   UNL A   1      40.405  25.533  27.348  1.00  0.00    -0.014 A 
ATOM     79  C   UNL A   1      39.271  24.834  26.896  1.00  0.00     0.010 A 
ATOM     80  C   UNL A   1      41.582  24.753  27.500  1.00  0.00     0.010 A 
ATOM     81  C   UNL A   1      39.304  23.445  26.646  1.00  0.00     0.020 A 
ATOM     82  C   UNL A   1      41.642  23.382  27.212  1.00  0.00     0.020 A 
ATOM     83  C   UNL A   1      40.489  22.725  26.815  1.00  0.00     0.054 A 
BRANCH  83  84
ATOM     84  S   UNL A   1      40.504  20.924  26.586  1.00  0.00     0.124 S 
ATOM     85  O   UNL A   1      40.786  20.444  27.937  1.00  0.00    -0.237 OA
ATOM     86  O   UNL A   1      39.161  20.653  26.084  1.00  0.00    -0.237 OA
ATOM     87  O   UNL A   1      41.579  20.705  25.618  1.00  0.00    -0.744 OA
ENDBRANCH  83  84
ENDBRANCH  64  78
BRANCH  65  88
ATOM     88  C   UNL A   1      41.197  34.850  30.131  1.00  0.00    -0.014 A 
ATOM     89  C   UNL A   1      42.218  35.243  31.030  1.00  0.00     0.010 A 
ATOM     90  C   UNL A   1      41.225  35.365  28.822  1.00  0.00     0.010 A 
ATOM     91  C   UNL A   1      43.328  35.968  30.591  1.00  0.00     0.020 A 
ATOM     92  C   UNL A   1      42.327  36.131  28.389  1.00  0.00     0.020 A 
ATOM     93  C   UNL A   1      43.401  36.360  29.257  1.00  0.00     0.054 A 
BRANCH  93  94
ATOM     94  S   UNL A   1      45.009  36.952  28.640  1.00  0.00     0.124 S 
ATOM     95  O   UNL A   1      45.952  36.067  29.313  1.00  0.00    -0.237 OA
ATOM     96  O   UNL A   1      44.862  36.746  27.200  1.00  0.00    -0.237 OA
ATOM     97  O   UNL A   1      45.032  38.348  29.066  1.00  0.00    -0.744 OA
ENDBRANCH  93  94
ENDBRANCH  65  88
BRANCH  77  98
ATOM     98  C   UNL A   1      35.897  30.171  27.964  1.00  0.00    -0.014 A 
ATOM     99  C   UNL A   1      35.702  29.042  27.159  1.00  0.00     0.010 A 
ATOM    100  C   UNL A   1      34.829  31.113  27.954  1.00  0.00     0.010 A 
ATOM    101  C   UNL A   1      34.498  28.824  26.461  1.00  0.00     0.020 A 
ATOM    102  C   UNL A   1      33.617  30.903  27.287  1.00  0.00     0.020 A 
ATOM    103  C   UNL A   1      33.458  29.750  26.542  1.00  0.00     0.054 A 
BRANCH 103 104
ATOM    104  S   UNL A   1      31.908  29.425  25.670  1.00  0.00     0.124 S 
ATOM    105  O   UNL A   1      31.334  28.343  26.465  1.00  0.00    -0.237 OA
ATOM    106  O   UNL A   1      31.220  30.711  25.766  1.00  0.00    -0.237 OA
ATOM    107  O   UNL A   1      32.337  29.056  24.324  1.00  0.00    -0.744 OA
ENDBRANCH 103 104
ENDBRANCH  77  98
ENDBRANCH  51  52
ENDBRANCH  44  46
ENDBRANCH  43  44
ENDBRANCH  42  43
ENDBRANCH  41  42
ENDBRANCH  40  41
ENDBRANCH  39  40
ENDBRANCH   1  39
TORSDOF 23
ENDMDL
MODEL 3
REMARK VINA RESULT:      -9.1      7.186     14.686
REMARK SMILES Cc1ccc(-c2cnnc(-n3nc(C)c4c3NC(=O)C[C@@H]4c3ccc(C(=O)OCCOCCOCCOC(=O)c4ccc(-c5c6nc(c(-c7ccc(S(=O)(=O)[O-])cc7)c7ccc([nH]7)c(-c7ccc(S(=O)(=O)[O-])cc7)c7nc(c(-c8ccc(S(=O)(=O)[O-])cc8)c8ccc5[nH]8)C=C7)C=C6)cc4)cc3)n2)cc1
REMARK SMILES IDX 32 1 31 2 30 3 29 4 28 5 26 6 27 7 25 8 22 9 23 10 101 11
REMARK SMILES IDX 24 12 100 13 21 14 11 15 12 16 16 17 13 18 15 19 17 20 14 21
REMARK SMILES IDX 18 22 20 24 19 25 10 26 6 27 7 28 102 29 8 30 9 31 5 32 1 33
REMARK SMILES IDX 2 34 3 35 104 36 4 37 103 38 33 39 34 40 35 41 36 42 37 43
REMARK SMILES IDX 38 44 39 45 40 46 41 47 99 48 42 49 98 50 43 51 44 52 45 53
REMARK SMILES IDX 92 54 46 55 97 56 91 57 93 58 47 59 96 60 90 61 89 62 48 64
REMARK SMILES IDX 78 65 59 66 77 67 60 68 63 69 76 70 94 71 61 72 62 73 75 75
REMARK SMILES IDX 95 76 64 77 49 78 50 79 58 80 51 81 57 82 52 83 53 84 54 85
REMARK SMILES IDX 55 86 56 87 79 88 80 89 88 90 81 91 87 92 82 93 83 94 84 95
REMARK SMILES IDX 85 96 86 97 65 98 66 99 74 100 67 101 73 102 68 103 69 104
REMARK SMILES IDX 70 105 71 106 72 107
REMARK H PARENT 17 23 93 63 63 74
REMARK Flexibility Score: inf
ROOT
ATOM      1  C   UNL A   1      47.648  34.336  34.559  1.00  0.00     0.188 C 
ENDROOT
BRANCH   1   2
ATOM      2  O   UNL A   1      48.622  34.933  35.438  1.00  0.00    -0.376 OA
BRANCH   2   3
ATOM      3  C   UNL A   1      48.464  36.216  36.061  1.00  0.00     0.202 C 
BRANCH   3   4
ATOM      4  C   UNL A   1      47.854  37.462  35.249  1.00  0.00     0.261 C 
BRANCH   4   5
ATOM      5  O   UNL A   1      47.105  38.559  35.957  1.00  0.00    -0.460 OA
BRANCH   5   6
ATOM      6  C   UNL A   1      47.300  39.914  35.988  1.00  0.00     0.338 C 
ATOM      7  O   UNL A   1      48.204  40.438  36.631  1.00  0.00    -0.246 OA
BRANCH   6   8
ATOM      8  C   UNL A   1      46.241  40.812  35.189  1.00  0.00     0.060 A 
ATOM      9  C   UNL A   1      44.200  42.037  33.553  1.00  0.00    -0.040 A 
ATOM     10  C   UNL A   1      43.919  41.766  34.848  1.00  0.00     0.005 A 
ATOM     11  C   UNL A   1      45.563  41.962  33.156  1.00  0.00     0.005 A 
ATOM     12  C   UNL A   1      44.926  41.167  35.575  1.00  0.00     0.016 A 
ATOM     13  C   UNL A   1      46.560  41.331  33.951  1.00  0.00     0.016 A 
BRANCH   9  14
ATOM     14  C   UNL A   1      42.962  42.098  32.693  1.00  0.00     0.064 C 
ATOM     15  N   UNL A   1      43.685  40.364  29.654  1.00  0.00    -0.180 N 
ATOM     16  N   UNL A   1      43.940  39.324  30.494  1.00  0.00    -0.168 NA
ATOM     17  C   UNL A   1      43.581  41.548  30.354  1.00  0.00     0.143 A 
ATOM     18  C   UNL A   1      43.491  39.748  31.673  1.00  0.00     0.066 A 
ATOM     19  C   UNL A   1      43.256  41.147  31.622  1.00  0.00     0.026 A 
ATOM     20  N   UNL A   1      43.682  42.893  30.038  1.00  0.00    -0.310 N 
ATOM     21  C   UNL A   1      43.453  38.806  32.821  1.00  0.00     0.069 C 
ATOM     22  C   UNL A   1      43.354  43.893  31.023  1.00  0.00     0.226 C 
ATOM     23  H   UNL A   1      43.979  43.166  29.139  1.00  0.00     0.171 HD
ATOM     24  C   UNL A   1      42.542  43.471  32.213  1.00  0.00     0.113 C 
ATOM     25  O   UNL A   1      43.626  45.049  30.741  1.00  0.00    -0.275 OA
BRANCH  15  26
ATOM     26  C   UNL A   1      43.184  40.107  28.364  1.00  0.00     0.272 A 
ATOM     27  C   UNL A   1      42.493  40.820  26.336  1.00  0.00     0.095 A 
ATOM     28  C   UNL A   1      41.664  39.714  26.251  1.00  0.00     0.164 A 
ATOM     29  N   UNL A   1      43.244  41.074  27.430  1.00  0.00    -0.208 NA
ATOM     30  N   UNL A   1      41.644  38.782  27.209  1.00  0.00    -0.153 NA
ATOM     31  N   UNL A   1      42.453  38.964  28.259  1.00  0.00    -0.109 NA
BRANCH  27  32
ATOM     32  C   UNL A   1      42.709  41.687  25.183  1.00  0.00     0.002 A 
ATOM     33  C   UNL A   1      43.657  43.811  21.555  1.00  0.00     0.044 C 
ATOM     34  C   UNL A   1      43.322  43.104  22.833  1.00  0.00    -0.051 A 
ATOM     35  C   UNL A   1      42.091  42.453  22.965  1.00  0.00     0.004 A 
ATOM     36  C   UNL A   1      44.229  43.080  23.894  1.00  0.00     0.004 A 
ATOM     37  C   UNL A   1      41.785  41.754  24.132  1.00  0.00     0.011 A 
ATOM     38  C   UNL A   1      43.922  42.384  25.060  1.00  0.00     0.011 A 
ENDBRANCH  27  32
ENDBRANCH  15  26
ENDBRANCH   9  14
ENDBRANCH   6   8
ENDBRANCH   5   6
ENDBRANCH   4   5
ENDBRANCH   3   4
ENDBRANCH   2   3
ENDBRANCH   1   2
BRANCH   1  39
ATOM     39  C   UNL A   1      46.272  33.839  35.046  1.00  0.00     0.188 C 
BRANCH  39  40
ATOM     40  O   UNL A   1      46.398  33.029  36.207  1.00  0.00    -0.376 OA
BRANCH  40  41
ATOM     41  C   UNL A   1      46.578  31.632  36.023  1.00  0.00     0.202 C 
BRANCH  41  42
ATOM     42  C   UNL A   1      46.458  30.776  37.303  1.00  0.00     0.261 C 
BRANCH  42  43
ATOM     43  O   UNL A   1      45.083  30.510  37.695  1.00  0.00    -0.460 OA
BRANCH  43  44
ATOM     44  C   UNL A   1      44.697  29.196  37.853  1.00  0.00     0.338 C 
ATOM     45  O   UNL A   1      44.921  28.567  38.873  1.00  0.00    -0.246 OA
BRANCH  44  46
ATOM     46  C   UNL A   1      43.822  28.733  36.726  1.00  0.00     0.060 A 
ATOM     47  C   UNL A   1      43.544  27.418  36.336  1.00  0.00     0.016 A 
ATOM     48  C   UNL A   1      43.338  29.705  35.910  1.00  0.00     0.016 A 
ATOM     49  C   UNL A   1      42.885  27.114  35.075  1.00  0.00     0.010 A 
ATOM     50  C   UNL A   1      42.971  29.356  34.616  1.00  0.00     0.010 A 
ATOM     51  C   UNL A   1      42.594  28.103  34.123  1.00  0.00    -0.014 A 
BRANCH  51  52
ATOM     52  C   UNL A   1      41.992  27.986  32.650  1.00  0.00     0.031 A 
ATOM     53  C   UNL A   1      40.436  28.081  32.013  1.00  0.00     0.074 A 
ATOM     54  C   UNL A   1      42.951  27.963  31.702  1.00  0.00     0.049 A 
ATOM     55  N   UNL A   1      40.213  28.169  30.723  1.00  0.00    -0.248 NA
ATOM     56  C   UNL A   1      39.065  28.047  32.643  1.00  0.00     0.031 C 
ATOM     57  C   UNL A   1      42.839  28.319  30.297  1.00  0.00     0.029 A 
ATOM     58  N   UNL A   1      44.191  27.341  31.787  1.00  0.00    -0.354 N 
ATOM     59  C   UNL A   1      38.887  28.493  30.480  1.00  0.00     0.074 A 
ATOM     60  C   UNL A   1      38.191  28.333  31.690  1.00  0.00     0.031 C 
ATOM     61  C   UNL A   1      43.744  27.614  29.611  1.00  0.00     0.029 A 
ATOM     62  C   UNL A   1      44.374  26.713  30.552  1.00  0.00     0.049 A 
ATOM     63  H   UNL A   1      44.808  27.341  32.554  1.00  0.00     0.167 HD
ATOM     64  C   UNL A   1      38.418  28.867  29.267  1.00  0.00     0.031 A 
ATOM     65  C   UNL A   1      44.508  25.366  30.413  1.00  0.00     0.031 A 
ATOM     66  C   UNL A   1      39.252  28.283  28.246  1.00  0.00     0.049 A 
ATOM     67  C   UNL A   1      43.512  24.761  29.441  1.00  0.00     0.074 A 
ATOM     68  C   UNL A   1      40.236  28.725  27.389  1.00  0.00     0.029 A 
ATOM     69  N   UNL A   1      39.348  26.901  28.277  1.00  0.00    -0.354 N 
ATOM     70  N   UNL A   1      42.576  25.423  28.813  1.00  0.00    -0.248 NA
ATOM     71  C   UNL A   1      43.459  23.337  29.143  1.00  0.00     0.031 C 
ATOM     72  C   UNL A   1      40.975  27.573  26.962  1.00  0.00     0.029 A 
ATOM     73  C   UNL A   1      40.395  26.441  27.512  1.00  0.00     0.049 A 
ATOM     74  H   UNL A   1      38.739  26.318  28.785  1.00  0.00     0.167 HD
ATOM     75  C   UNL A   1      41.762  24.560  28.116  1.00  0.00     0.074 A 
ATOM     76  C   UNL A   1      42.385  23.266  28.337  1.00  0.00     0.031 C 
ATOM     77  C   UNL A   1      40.623  24.993  27.479  1.00  0.00     0.031 A 
BRANCH  64  78
ATOM     78  C   UNL A   1      37.215  29.778  29.085  1.00  0.00    -0.014 A 
ATOM     79  C   UNL A   1      36.531  29.816  27.857  1.00  0.00     0.010 A 
ATOM     80  C   UNL A   1      36.815  30.753  30.037  1.00  0.00     0.010 A 
ATOM     81  C   UNL A   1      35.539  30.784  27.588  1.00  0.00     0.020 A 
ATOM     82  C   UNL A   1      35.800  31.691  29.801  1.00  0.00     0.020 A 
ATOM     83  C   UNL A   1      35.185  31.722  28.560  1.00  0.00     0.054 A 
BRANCH  83  84
ATOM     84  S   UNL A   1      33.979  33.024  28.178  1.00  0.00     0.124 S 
ATOM     85  O   UNL A   1      32.948  32.285  27.452  1.00  0.00    -0.237 OA
ATOM     86  O   UNL A   1      33.599  33.508  29.501  1.00  0.00    -0.237 OA
ATOM     87  O   UNL A   1      34.739  33.976  27.368  1.00  0.00    -0.744 OA
ENDBRANCH  83  84
ENDBRANCH  64  78
BRANCH  65  88
ATOM     88  C   UNL A   1      45.174  24.721  31.588  1.00  0.00    -0.014 A 
ATOM     89  C   UNL A   1      46.431  25.267  31.946  1.00  0.00     0.010 A 
ATOM     90  C   UNL A   1      44.456  24.005  32.564  1.00  0.00     0.010 A 
ATOM     91  C   UNL A   1      46.870  25.263  33.271  1.00  0.00     0.020 A 
ATOM     92  C   UNL A   1      44.919  23.966  33.895  1.00  0.00     0.020 A 
ATOM     93  C   UNL A   1      46.082  24.660  34.248  1.00  0.00     0.054 A 
BRANCH  93  94
ATOM     94  S   UNL A   1      46.487  25.007  35.990  1.00  0.00     0.124 S 
ATOM     95  O   UNL A   1      46.714  26.448  35.982  1.00  0.00    -0.237 OA
ATOM     96  O   UNL A   1      45.270  24.561  36.666  1.00  0.00    -0.237 OA
ATOM     97  O   UNL A   1      47.666  24.179  36.226  1.00  0.00    -0.744 OA
ENDBRANCH  93  94
ENDBRANCH  65  88
BRANCH  77  98
ATOM     98  C   UNL A   1      39.517  24.122  26.865  1.00  0.00    -0.014 A 
ATOM     99  C   UNL A   1      39.596  22.743  26.638  1.00  0.00     0.010 A 
ATOM    100  C   UNL A   1      38.279  24.725  26.504  1.00  0.00     0.010 A 
ATOM    101  C   UNL A   1      38.495  22.002  26.166  1.00  0.00     0.020 A 
ATOM    102  C   UNL A   1      37.167  24.002  26.057  1.00  0.00     0.020 A 
ATOM    103  C   UNL A   1      37.283  22.635  25.893  1.00  0.00     0.054 A 
BRANCH 103 104
ATOM    104  S   UNL A   1      35.873  21.654  25.328  1.00  0.00     0.124 S 
ATOM    105  O   UNL A   1      35.185  22.593  24.447  1.00  0.00    -0.237 OA
ATOM    106  O   UNL A   1      36.523  20.527  24.663  1.00  0.00    -0.237 OA
ATOM    107  O   UNL A   1      35.167  21.317  26.561  1.00  0.00    -0.744 OA
ENDBRANCH 103 104
ENDBRANCH  77  98
ENDBRANCH  51  52
ENDBRANCH  44  46
ENDBRANCH  43  44
ENDBRANCH  42  43
ENDBRANCH  41  42
ENDBRANCH  40  41
ENDBRANCH  39  40
ENDBRANCH   1  39
TORSDOF 23
ENDMDL
