MODEL 1
REMARK VINA RESULT:      -5.1      0.000      0.000
REMARK SMILES CC(C)C[C@H](NC(=O)[C@H](Cc1ccccc1)NC(=O)CNC(=O)C[NH3+])C(=O)OCCOCCOCCOC(=O)c1ccc(-c2c3nc(c(-c4ccc(S(=O)(=O)[O-])cc4)c4ccc([nH]4)c(-c4ccc(S(=O)(=O)[O-])cc4)c4nc(c(-c5ccc(S(=O)(=O)[O-])cc5)c5ccc2[nH]5)C=C4)C=C3)cc1
REMARK SMILES IDX 30 1 29 2 28 3 26 4 27 5 5 6 4 7 2 8 1 9 3 10 6 11 7 12 8 14
REMARK SMILES IDX 9 15 17 16 18 17 19 19 20 20 21 21 22 22 23 24 24 25 25 26
REMARK SMILES IDX 10 30 11 31 12 32 16 33 13 34 15 35 14 36 31 37 32 38 33 39
REMARK SMILES IDX 34 40 35 41 36 42 37 43 38 44 39 45 40 46 41 47 99 48 42 49
REMARK SMILES IDX 98 50 43 51 44 52 45 53 92 54 46 55 97 56 91 57 93 58 47 59
REMARK SMILES IDX 96 60 90 61 89 62 48 64 78 65 59 66 77 67 60 68 63 69 76 70
REMARK SMILES IDX 94 71 61 72 62 73 75 75 95 76 64 77 49 78 50 79 58 80 51 81
REMARK SMILES IDX 57 82 52 83 53 84 54 85 55 86 56 87 79 88 80 89 88 90 81 91
REMARK SMILES IDX 87 92 82 93 83 94 84 95 85 96 86 97 65 98 66 99 74 100
REMARK SMILES IDX 67 101 73 102 68 103 69 104 70 105 71 106 72 107
REMARK H PARENT 6 13 17 18 21 23 25 27 25 28 25 29 93 63 63 74
REMARK Flexibility Score: inf
ROOT
ATOM      1  C   UNL A   1      35.937  31.096  31.136  1.00  0.00     0.202 C 
ENDROOT
BRANCH   1   2
ATOM      2  C   UNL A   1      36.010  31.520  32.614  1.00  0.00     0.261 C 
BRANCH   2   3
ATOM      3  O   UNL A   1      37.140  32.390  32.803  1.00  0.00    -0.462 OA
BRANCH   3   4
ATOM      4  C   UNL A   1      38.280  31.883  33.319  1.00  0.00     0.328 C 
ATOM      5  O   UNL A   1      38.360  31.437  34.456  1.00  0.00    -0.250 OA
BRANCH   4   6
ATOM      6  C   UNL A   1      39.374  31.776  32.202  1.00  0.00     0.192 C 
BRANCH   6   7
ATOM      7  C   UNL A   1      39.078  32.896  31.202  1.00  0.00     0.040 C 
BRANCH   7   8
ATOM      8  C   UNL A   1      40.063  34.074  31.374  1.00  0.00    -0.015 C 
ATOM      9  C   UNL A   1      41.064  33.871  32.506  1.00  0.00     0.007 C 
ATOM     10  C   UNL A   1      40.788  34.329  30.062  1.00  0.00     0.007 C 
ENDBRANCH   7   8
ENDBRANCH   6   7
BRANCH   6  11
ATOM     11  N   UNL A   1      39.567  30.476  31.545  1.00  0.00    -0.341 N 
ATOM     12  C   UNL A   1      40.440  29.461  31.862  1.00  0.00     0.243 C 
ATOM     13  H   UNL A   1      38.987  30.308  30.766  1.00  0.00     0.164 HD
ATOM     14  O   UNL A   1      40.286  28.387  31.269  1.00  0.00    -0.273 OA
BRANCH  12  15
ATOM     15  C   UNL A   1      41.611  29.637  32.887  1.00  0.00     0.175 C 
BRANCH  15  16
ATOM     16  N   UNL A   1      41.047  29.691  34.254  1.00  0.00    -0.342 N 
ATOM     17  C   UNL A   1      40.992  28.869  35.328  1.00  0.00     0.240 C 
ATOM     18  H   UNL A   1      40.595  30.547  34.428  1.00  0.00     0.164 HD
ATOM     19  O   UNL A   1      40.351  29.305  36.292  1.00  0.00    -0.273 OA
BRANCH  17  20
ATOM     20  C   UNL A   1      41.786  27.565  35.490  1.00  0.00     0.216 C 
BRANCH  20  21
ATOM     21  N   UNL A   1      42.084  27.011  36.797  1.00  0.00    -0.342 N 
ATOM     22  C   UNL A   1      43.248  26.425  37.219  1.00  0.00     0.275 C 
ATOM     23  H   UNL A   1      41.360  27.062  37.463  1.00  0.00     0.164 HD
ATOM     24  O   UNL A   1      43.485  26.409  38.430  1.00  0.00    -0.268 OA
BRANCH  22  25
ATOM     25  C   UNL A   1      44.257  25.780  36.259  1.00  0.00     0.360 C 
BRANCH  25  26
ATOM     26  N   UNL A   1      45.110  24.777  36.897  1.00  0.00    -0.350 N 
ATOM     27  H   UNL A   1      45.086  23.915  36.354  1.00  0.00     0.344 HD
ATOM     28  H   UNL A   1      44.770  24.593  37.842  1.00  0.00     0.344 HD
ATOM     29  H   UNL A   1      46.068  25.124  36.942  1.00  0.00     0.344 HD
ENDBRANCH  25  26
ENDBRANCH  22  25
ENDBRANCH  20  21
ENDBRANCH  17  20
ENDBRANCH  15  16
BRANCH  15  30
ATOM     30  C   UNL A   1      42.517  28.352  32.820  1.00  0.00     0.070 C 
BRANCH  30  31
ATOM     31  C   UNL A   1      44.020  28.512  32.722  1.00  0.00    -0.045 A 
ATOM     32  C   UNL A   1      44.652  28.473  31.467  1.00  0.00     0.004 A 
ATOM     33  C   UNL A   1      44.829  28.630  33.854  1.00  0.00     0.004 A 
ATOM     34  C   UNL A   1      46.032  28.678  31.348  1.00  0.00     0.000 A 
ATOM     35  C   UNL A   1      46.199  28.879  33.735  1.00  0.00     0.000 A 
ATOM     36  C   UNL A   1      46.798  28.924  32.482  1.00  0.00     0.000 A 
ENDBRANCH  30  31
ENDBRANCH  15  30
ENDBRANCH  12  15
ENDBRANCH   6  11
ENDBRANCH   4   6
ENDBRANCH   3   4
ENDBRANCH   2   3
ENDBRANCH   1   2
BRANCH   1  37
ATOM     37  O   UNL A   1      36.696  29.941  30.780  1.00  0.00    -0.376 OA
BRANCH  37  38
ATOM     38  C   UNL A   1      36.777  29.668  29.387  1.00  0.00     0.188 C 
BRANCH  38  39
ATOM     39  C   UNL A   1      37.828  30.475  28.598  1.00  0.00     0.188 C 
BRANCH  39  40
ATOM     40  O   UNL A   1      39.108  29.922  28.351  1.00  0.00    -0.376 OA
BRANCH  40  41
ATOM     41  C   UNL A   1      39.215  28.892  27.382  1.00  0.00     0.202 C 
BRANCH  41  42
ATOM     42  C   UNL A   1      40.583  28.511  26.771  1.00  0.00     0.261 C 
BRANCH  42  43
ATOM     43  O   UNL A   1      41.755  28.727  27.583  1.00  0.00    -0.460 OA
BRANCH  43  44
ATOM     44  C   UNL A   1      42.676  29.570  27.064  1.00  0.00     0.338 C 
ATOM     45  O   UNL A   1      42.898  29.758  25.866  1.00  0.00    -0.246 OA
BRANCH  44  46
ATOM     46  C   UNL A   1      43.284  30.412  28.116  1.00  0.00     0.060 A 
ATOM     47  C   UNL A   1      42.584  30.596  29.320  1.00  0.00     0.016 A 
ATOM     48  C   UNL A   1      44.467  31.116  27.881  1.00  0.00     0.016 A 
ATOM     49  C   UNL A   1      43.023  31.526  30.261  1.00  0.00     0.010 A 
ATOM     50  C   UNL A   1      44.889  32.076  28.812  1.00  0.00     0.010 A 
ATOM     51  C   UNL A   1      44.137  32.324  29.977  1.00  0.00    -0.014 A 
BRANCH  51  52
ATOM     52  C   UNL A   1      44.348  33.570  30.759  1.00  0.00     0.031 A 
ATOM     53  C   UNL A   1      44.579  33.450  32.244  1.00  0.00     0.074 A 
ATOM     54  C   UNL A   1      44.392  34.777  30.169  1.00  0.00     0.049 A 
ATOM     55  N   UNL A   1      44.776  34.388  33.134  1.00  0.00    -0.248 NA
ATOM     56  C   UNL A   1      44.576  32.086  32.800  1.00  0.00     0.031 C 
ATOM     57  C   UNL A   1      44.241  35.022  28.738  1.00  0.00     0.029 A 
ATOM     58  N   UNL A   1      44.589  36.026  30.705  1.00  0.00    -0.354 N 
ATOM     59  C   UNL A   1      44.895  33.732  34.354  1.00  0.00     0.074 A 
ATOM     60  C   UNL A   1      44.725  32.320  34.094  1.00  0.00     0.031 C 
ATOM     61  C   UNL A   1      44.381  36.338  28.502  1.00  0.00     0.029 A 
ATOM     62  C   UNL A   1      44.578  37.036  29.772  1.00  0.00     0.049 A 
ATOM     63  H   UNL A   1      44.725  36.183  31.667  1.00  0.00     0.167 HD
ATOM     64  C   UNL A   1      45.125  34.257  35.582  1.00  0.00     0.031 A 
ATOM     65  C   UNL A   1      44.697  38.370  29.929  1.00  0.00     0.031 A 
ATOM     66  C   UNL A   1      45.290  35.663  35.839  1.00  0.00     0.049 A 
ATOM     67  C   UNL A   1      44.886  38.936  31.313  1.00  0.00     0.074 A 
ATOM     68  C   UNL A   1      45.542  36.293  37.044  1.00  0.00     0.029 A 
ATOM     69  N   UNL A   1      45.215  36.658  34.875  1.00  0.00    -0.354 N 
ATOM     70  N   UNL A   1      45.002  38.303  32.458  1.00  0.00    -0.248 NA
ATOM     71  C   UNL A   1      44.960  40.399  31.427  1.00  0.00     0.031 C 
ATOM     72  C   UNL A   1      45.549  37.674  36.822  1.00  0.00     0.029 A 
ATOM     73  C   UNL A   1      45.380  37.900  35.465  1.00  0.00     0.049 A 
ATOM     74  H   UNL A   1      45.066  36.504  33.915  1.00  0.00     0.167 HD
ATOM     75  C   UNL A   1      45.199  39.291  33.419  1.00  0.00     0.074 A 
ATOM     76  C   UNL A   1      45.197  40.559  32.721  1.00  0.00     0.031 C 
ATOM     77  C   UNL A   1      45.372  39.158  34.759  1.00  0.00     0.031 A 
BRANCH  64  78
ATOM     78  C   UNL A   1      45.149  33.304  36.751  1.00  0.00    -0.014 A 
ATOM     79  C   UNL A   1      43.977  32.957  37.447  1.00  0.00     0.010 A 
ATOM     80  C   UNL A   1      46.373  32.735  37.148  1.00  0.00     0.010 A 
ATOM     81  C   UNL A   1      44.037  32.097  38.548  1.00  0.00     0.020 A 
ATOM     82  C   UNL A   1      46.431  31.849  38.227  1.00  0.00     0.020 A 
ATOM     83  C   UNL A   1      45.266  31.551  38.933  1.00  0.00     0.054 A 
BRANCH  83  84
ATOM     84  S   UNL A   1      45.315  30.432  40.360  1.00  0.00     0.124 S 
ATOM     85  O   UNL A   1      45.142  29.128  39.726  1.00  0.00    -0.237 OA
ATOM     86  O   UNL A   1      46.640  30.687  40.920  1.00  0.00    -0.237 OA
ATOM     87  O   UNL A   1      44.196  30.875  41.188  1.00  0.00    -0.744 OA
ENDBRANCH  83  84
ENDBRANCH  64  78
BRANCH  65  88
ATOM     88  C   UNL A   1      44.631  39.272  28.744  1.00  0.00    -0.014 A 
ATOM     89  C   UNL A   1      43.399  39.795  28.309  1.00  0.00     0.010 A 
ATOM     90  C   UNL A   1      45.799  39.604  28.034  1.00  0.00     0.010 A 
ATOM     91  C   UNL A   1      43.335  40.615  27.178  1.00  0.00     0.020 A 
ATOM     92  C   UNL A   1      45.744  40.450  26.923  1.00  0.00     0.020 A 
ATOM     93  C   UNL A   1      44.510  40.941  26.494  1.00  0.00     0.054 A 
BRANCH  93  94
ATOM     94  S   UNL A   1      44.408  42.044  25.058  1.00  0.00     0.124 S 
ATOM     95  O   UNL A   1      44.489  43.362  25.680  1.00  0.00    -0.237 OA
ATOM     96  O   UNL A   1      45.571  41.643  24.270  1.00  0.00    -0.237 OA
ATOM     97  O   UNL A   1      43.115  41.713  24.462  1.00  0.00    -0.744 OA
ENDBRANCH  93  94
ENDBRANCH  65  88
BRANCH  77  98
ATOM     98  C   UNL A   1      45.622  40.414  35.557  1.00  0.00    -0.014 A 
ATOM     99  C   UNL A   1      44.577  41.100  36.200  1.00  0.00     0.010 A 
ATOM    100  C   UNL A   1      46.939  40.891  35.697  1.00  0.00     0.010 A 
ATOM    101  C   UNL A   1      44.839  42.264  36.929  1.00  0.00     0.020 A 
ATOM    102  C   UNL A   1      47.209  42.035  36.453  1.00  0.00     0.020 A 
ATOM    103  C   UNL A   1      46.153  42.726  37.049  1.00  0.00     0.054 A 
BRANCH 103 104
ATOM    104  S   UNL A   1      46.469  44.226  38.019  1.00  0.00     0.124 S 
ATOM    105  O   UNL A   1      47.757  43.923  38.637  1.00  0.00    -0.237 OA
ATOM    106  O   UNL A   1      46.493  45.269  36.998  1.00  0.00    -0.237 OA
ATOM    107  O   UNL A   1      45.336  44.288  38.939  1.00  0.00    -0.744 OA
ENDBRANCH 103 104
ENDBRANCH  77  98
ENDBRANCH  51  52
ENDBRANCH  44  46
ENDBRANCH  43  44
ENDBRANCH  42  43
ENDBRANCH  41  42
ENDBRANCH  40  41
ENDBRANCH  39  40
ENDBRANCH  38  39
ENDBRANCH  37  38
ENDBRANCH   1  37
TORSDOF 31
ENDMDL
MODEL 2
REMARK VINA RESULT:      -5.0      1.548      7.958
REMARK SMILES CC(C)C[C@H](NC(=O)[C@H](Cc1ccccc1)NC(=O)CNC(=O)C[NH3+])C(=O)OCCOCCOCCOC(=O)c1ccc(-c2c3nc(c(-c4ccc(S(=O)(=O)[O-])cc4)c4ccc([nH]4)c(-c4ccc(S(=O)(=O)[O-])cc4)c4nc(c(-c5ccc(S(=O)(=O)[O-])cc5)c5ccc2[nH]5)C=C4)C=C3)cc1
REMARK SMILES IDX 30 1 29 2 28 3 26 4 27 5 5 6 4 7 2 8 1 9 3 10 6 11 7 12 8 14
REMARK SMILES IDX 9 15 17 16 18 17 19 19 20 20 21 21 22 22 23 24 24 25 25 26
REMARK SMILES IDX 10 30 11 31 12 32 16 33 13 34 15 35 14 36 31 37 32 38 33 39
REMARK SMILES IDX 34 40 35 41 36 42 37 43 38 44 39 45 40 46 41 47 99 48 42 49
REMARK SMILES IDX 98 50 43 51 44 52 45 53 92 54 46 55 97 56 91 57 93 58 47 59
REMARK SMILES IDX 96 60 90 61 89 62 48 64 78 65 59 66 77 67 60 68 63 69 76 70
REMARK SMILES IDX 94 71 61 72 62 73 75 75 95 76 64 77 49 78 50 79 58 80 51 81
REMARK SMILES IDX 57 82 52 83 53 84 54 85 55 86 56 87 79 88 80 89 88 90 81 91
REMARK SMILES IDX 87 92 82 93 83 94 84 95 85 96 86 97 65 98 66 99 74 100
REMARK SMILES IDX 67 101 73 102 68 103 69 104 70 105 71 106 72 107
REMARK H PARENT 6 13 17 18 21 23 25 27 25 28 25 29 93 63 63 74
REMARK Flexibility Score: inf
ROOT
ATOM      1  C   UNL A   1      35.931  31.041  30.714  1.00  0.00     0.202 C 
ENDROOT
BRANCH   1   2
ATOM      2  C   UNL A   1      35.935  31.702  32.104  1.00  0.00     0.261 C 
BRANCH   2   3
ATOM      3  O   UNL A   1      37.150  32.455  32.268  1.00  0.00    -0.462 OA
BRANCH   3   4
ATOM      4  C   UNL A   1      38.174  31.906  32.954  1.00  0.00     0.328 C 
ATOM      5  O   UNL A   1      38.064  31.479  34.096  1.00  0.00    -0.250 OA
BRANCH   4   6
ATOM      6  C   UNL A   1      39.416  31.729  32.014  1.00  0.00     0.192 C 
BRANCH   6   7
ATOM      7  C   UNL A   1      39.329  32.846  30.972  1.00  0.00     0.040 C 
BRANCH   7   8
ATOM      8  C   UNL A   1      40.646  33.650  30.901  1.00  0.00    -0.015 C 
ATOM      9  C   UNL A   1      40.738  34.563  29.684  1.00  0.00     0.007 C 
ATOM     10  C   UNL A   1      40.823  34.451  32.182  1.00  0.00     0.007 C 
ENDBRANCH   7   8
ENDBRANCH   6   7
BRANCH   6  11
ATOM     11  N   UNL A   1      39.639  30.411  31.406  1.00  0.00    -0.341 N 
ATOM     12  C   UNL A   1      40.350  29.337  31.889  1.00  0.00     0.243 C 
ATOM     13  H   UNL A   1      39.219  30.277  30.525  1.00  0.00     0.164 HD
ATOM     14  O   UNL A   1      40.240  28.271  31.274  1.00  0.00    -0.273 OA
BRANCH  12  15
ATOM     15  C   UNL A   1      41.298  29.437  33.133  1.00  0.00     0.175 C 
BRANCH  15  16
ATOM     16  N   UNL A   1      40.484  29.347  34.365  1.00  0.00    -0.342 N 
ATOM     17  C   UNL A   1      40.298  30.094  35.477  1.00  0.00     0.240 C 
ATOM     18  H   UNL A   1      39.934  28.531  34.378  1.00  0.00     0.164 HD
ATOM     19  O   UNL A   1      39.533  29.605  36.318  1.00  0.00    -0.273 OA
BRANCH  17  20
ATOM     20  C   UNL A   1      40.808  31.528  35.679  1.00  0.00     0.216 C 
BRANCH  20  21
ATOM     21  N   UNL A   1      40.055  32.505  36.443  1.00  0.00    -0.342 N 
ATOM     22  C   UNL A   1      40.057  33.868  36.303  1.00  0.00     0.275 C 
ATOM     23  H   UNL A   1      39.471  32.144  37.150  1.00  0.00     0.164 HD
ATOM     24  O   UNL A   1      39.075  34.495  36.709  1.00  0.00    -0.268 OA
BRANCH  22  25
ATOM     25  C   UNL A   1      41.223  34.644  35.679  1.00  0.00     0.360 C 
BRANCH  25  26
ATOM     26  N   UNL A   1      42.453  34.585  36.471  1.00  0.00    -0.350 N 
ATOM     27  H   UNL A   1      42.354  35.173  37.298  1.00  0.00     0.344 HD
ATOM     28  H   UNL A   1      43.235  34.920  35.907  1.00  0.00     0.344 HD
ATOM     29  H   UNL A   1      42.628  33.622  36.757  1.00  0.00     0.344 HD
ENDBRANCH  25  26
ENDBRANCH  22  25
ENDBRANCH  20  21
ENDBRANCH  17  20
ENDBRANCH  15  16
BRANCH  15  30
ATOM     30  C   UNL A   1      42.249  28.182  33.124  1.00  0.00     0.070 C 
BRANCH  30  31
ATOM     31  C   UNL A   1      43.572  28.262  32.391  1.00  0.00    -0.045 A 
ATOM     32  C   UNL A   1      43.743  27.584  31.172  1.00  0.00     0.004 A 
ATOM     33  C   UNL A   1      44.673  28.940  32.917  1.00  0.00     0.004 A 
ATOM     34  C   UNL A   1      44.936  27.692  30.447  1.00  0.00     0.000 A 
ATOM     35  C   UNL A   1      45.849  29.086  32.176  1.00  0.00     0.000 A 
ATOM     36  C   UNL A   1      45.974  28.480  30.932  1.00  0.00     0.000 A 
ENDBRANCH  30  31
ENDBRANCH  15  30
ENDBRANCH  12  15
ENDBRANCH   6  11
ENDBRANCH   4   6
ENDBRANCH   3   4
ENDBRANCH   2   3
ENDBRANCH   1   2
BRANCH   1  37
ATOM     37  O   UNL A   1      36.689  29.837  30.593  1.00  0.00    -0.376 OA
BRANCH  37  38
ATOM     38  C   UNL A   1      36.910  29.384  29.264  1.00  0.00     0.188 C 
BRANCH  38  39
ATOM     39  C   UNL A   1      37.922  30.194  28.431  1.00  0.00     0.188 C 
BRANCH  39  40
ATOM     40  O   UNL A   1      39.299  29.867  28.471  1.00  0.00    -0.376 OA
BRANCH  40  41
ATOM     41  C   UNL A   1      39.780  28.888  27.564  1.00  0.00     0.202 C 
BRANCH  41  42
ATOM     42  C   UNL A   1      41.266  28.858  27.138  1.00  0.00     0.261 C 
BRANCH  42  43
ATOM     43  O   UNL A   1      42.248  29.205  28.134  1.00  0.00    -0.460 OA
BRANCH  43  44
ATOM     44  C   UNL A   1      43.200  30.079  27.735  1.00  0.00     0.338 C 
ATOM     45  O   UNL A   1      43.469  30.381  26.571  1.00  0.00    -0.246 OA
BRANCH  44  46
ATOM     46  C   UNL A   1      43.780  30.802  28.887  1.00  0.00     0.060 A 
ATOM     47  C   UNL A   1      42.969  31.041  30.010  1.00  0.00     0.016 A 
ATOM     48  C   UNL A   1      45.062  31.350  28.822  1.00  0.00     0.016 A 
ATOM     49  C   UNL A   1      43.407  31.877  31.035  1.00  0.00     0.010 A 
ATOM     50  C   UNL A   1      45.488  32.218  29.838  1.00  0.00     0.010 A 
ATOM     51  C   UNL A   1      44.639  32.529  30.918  1.00  0.00    -0.014 A 
BRANCH  51  52
ATOM     52  C   UNL A   1      44.912  33.713  31.774  1.00  0.00     0.031 A 
ATOM     53  C   UNL A   1      44.784  35.083  31.158  1.00  0.00     0.074 A 
ATOM     54  C   UNL A   1      45.210  33.590  33.079  1.00  0.00     0.049 A 
ATOM     55  N   UNL A   1      44.979  36.259  31.696  1.00  0.00    -0.248 NA
ATOM     56  C   UNL A   1      44.394  35.130  29.738  1.00  0.00     0.031 C 
ATOM     57  C   UNL A   1      45.307  32.329  33.806  1.00  0.00     0.029 A 
ATOM     58  N   UNL A   1      45.475  34.546  34.028  1.00  0.00    -0.354 N 
ATOM     59  C   UNL A   1      44.760  37.181  30.678  1.00  0.00     0.074 A 
ATOM     60  C   UNL A   1      44.441  36.429  29.486  1.00  0.00     0.031 C 
ATOM     61  C   UNL A   1      45.581  32.587  35.097  1.00  0.00     0.029 A 
ATOM     62  C   UNL A   1      45.731  34.031  35.276  1.00  0.00     0.049 A 
ATOM     63  H   UNL A   1      45.480  35.511  33.832  1.00  0.00     0.167 HD
ATOM     64  C   UNL A   1      44.820  38.534  30.730  1.00  0.00     0.031 A 
ATOM     65  C   UNL A   1      46.064  34.652  36.426  1.00  0.00     0.031 A 
ATOM     66  C   UNL A   1      45.141  39.281  31.917  1.00  0.00     0.049 A 
ATOM     67  C   UNL A   1      46.189  36.154  36.443  1.00  0.00     0.074 A 
ATOM     68  C   UNL A   1      45.212  40.653  32.077  1.00  0.00     0.029 A 
ATOM     69  N   UNL A   1      45.450  38.719  33.147  1.00  0.00    -0.354 N 
ATOM     70  N   UNL A   1      45.974  37.014  35.474  1.00  0.00    -0.248 NA
ATOM     71  C   UNL A   1      46.602  36.770  37.711  1.00  0.00     0.031 C 
ATOM     72  C   UNL A   1      45.633  40.920  33.384  1.00  0.00     0.029 A 
ATOM     73  C   UNL A   1      45.747  39.716  34.061  1.00  0.00     0.049 A 
ATOM     74  H   UNL A   1      45.457  37.754  33.341  1.00  0.00     0.167 HD
ATOM     75  C   UNL A   1      46.191  38.273  36.029  1.00  0.00     0.074 A 
ATOM     76  C   UNL A   1      46.543  38.062  37.417  1.00  0.00     0.031 C 
ATOM     77  C   UNL A   1      46.101  39.493  35.442  1.00  0.00     0.031 A 
BRANCH  64  78
ATOM     78  C   UNL A   1      44.590  39.289  29.445  1.00  0.00    -0.014 A 
ATOM     79  C   UNL A   1      43.301  39.672  29.032  1.00  0.00     0.010 A 
ATOM     80  C   UNL A   1      45.694  39.632  28.643  1.00  0.00     0.010 A 
ATOM     81  C   UNL A   1      43.118  40.342  27.818  1.00  0.00     0.020 A 
ATOM     82  C   UNL A   1      45.518  40.331  27.446  1.00  0.00     0.020 A 
ATOM     83  C   UNL A   1      44.228  40.664  27.030  1.00  0.00     0.054 A 
BRANCH  83  84
ATOM     84  S   UNL A   1      43.964  41.539  25.464  1.00  0.00     0.124 S 
ATOM     85  O   UNL A   1      45.089  41.066  24.661  1.00  0.00    -0.237 OA
ATOM     86  O   UNL A   1      42.649  41.059  25.048  1.00  0.00    -0.237 OA
ATOM     87  O   UNL A   1      44.019  42.949  25.841  1.00  0.00    -0.744 OA
ENDBRANCH  83  84
ENDBRANCH  64  78
BRANCH  65  88
ATOM     88  C   UNL A   1      46.315  33.856  37.661  1.00  0.00    -0.014 A 
ATOM     89  C   UNL A   1      47.587  33.308  37.914  1.00  0.00     0.010 A 
ATOM     90  C   UNL A   1      45.281  33.630  38.587  1.00  0.00     0.010 A 
ATOM     91  C   UNL A   1      47.812  32.536  39.059  1.00  0.00     0.020 A 
ATOM     92  C   UNL A   1      45.510  32.887  39.748  1.00  0.00     0.020 A 
ATOM     93  C   UNL A   1      46.772  32.333  39.970  1.00  0.00     0.054 A 
BRANCH  93  94
ATOM     94  S   UNL A   1      47.100  31.366  41.470  1.00  0.00     0.124 S 
ATOM     95  O   UNL A   1      47.882  30.251  40.947  1.00  0.00    -0.237 OA
ATOM     96  O   UNL A   1      47.831  32.317  42.304  1.00  0.00    -0.237 OA
ATOM     97  O   UNL A   1      45.765  31.021  41.954  1.00  0.00    -0.744 OA
ENDBRANCH  93  94
ENDBRANCH  65  88
BRANCH  77  98
ATOM     98  C   UNL A   1      46.341  40.703  36.310  1.00  0.00    -0.014 A 
ATOM     99  C   UNL A   1      47.622  41.263  36.459  1.00  0.00     0.010 A 
ATOM    100  C   UNL A   1      45.250  41.315  36.957  1.00  0.00     0.010 A 
ATOM    101  C   UNL A   1      47.815  42.382  37.275  1.00  0.00     0.020 A 
ATOM    102  C   UNL A   1      45.433  42.454  37.746  1.00  0.00     0.020 A 
ATOM    103  C   UNL A   1      46.719  42.970  37.915  1.00  0.00     0.054 A 
BRANCH 103 104
ATOM    104  S   UNL A   1      46.991  44.435  38.949  1.00  0.00     0.124 S 
ATOM    105  O   UNL A   1      45.890  45.303  38.543  1.00  0.00    -0.237 OA
ATOM    106  O   UNL A   1      46.897  43.894  40.303  1.00  0.00    -0.237 OA
ATOM    107  O   UNL A   1      48.322  44.892  38.558  1.00  0.00    -0.744 OA
ENDBRANCH 103 104
ENDBRANCH  77  98
ENDBRANCH  51  52
ENDBRANCH  44  46
ENDBRANCH  43  44
ENDBRANCH  42  43
ENDBRANCH  41  42
ENDBRANCH  40  41
ENDBRANCH  39  40
ENDBRANCH  38  39
ENDBRANCH  37  38
ENDBRANCH   1  37
TORSDOF 31
ENDMDL
MODEL 3
REMARK VINA RESULT:      -4.9      6.262     12.700
REMARK SMILES CC(C)C[C@H](NC(=O)[C@H](Cc1ccccc1)NC(=O)CNC(=O)C[NH3+])C(=O)OCCOCCOCCOC(=O)c1ccc(-c2c3nc(c(-c4ccc(S(=O)(=O)[O-])cc4)c4ccc([nH]4)c(-c4ccc(S(=O)(=O)[O-])cc4)c4nc(c(-c5ccc(S(=O)(=O)[O-])cc5)c5ccc2[nH]5)C=C4)C=C3)cc1
REMARK SMILES IDX 30 1 29 2 28 3 26 4 27 5 5 6 4 7 2 8 1 9 3 10 6 11 7 12 8 14
REMARK SMILES IDX 9 15 17 16 18 17 19 19 20 20 21 21 22 22 23 24 24 25 25 26
REMARK SMILES IDX 10 30 11 31 12 32 16 33 13 34 15 35 14 36 31 37 32 38 33 39
REMARK SMILES IDX 34 40 35 41 36 42 37 43 38 44 39 45 40 46 41 47 99 48 42 49
REMARK SMILES IDX 98 50 43 51 44 52 45 53 92 54 46 55 97 56 91 57 93 58 47 59
REMARK SMILES IDX 96 60 90 61 89 62 48 64 78 65 59 66 77 67 60 68 63 69 76 70
REMARK SMILES IDX 94 71 61 72 62 73 75 75 95 76 64 77 49 78 50 79 58 80 51 81
REMARK SMILES IDX 57 82 52 83 53 84 54 85 55 86 56 87 79 88 80 89 88 90 81 91
REMARK SMILES IDX 87 92 82 93 83 94 84 95 85 96 86 97 65 98 66 99 74 100
REMARK SMILES IDX 67 101 73 102 68 103 69 104 70 105 71 106 72 107
REMARK H PARENT 6 13 17 18 21 23 25 27 25 28 25 29 93 63 63 74
REMARK Flexibility Score: inf
ROOT
ATOM      1  C   UNL A   1      42.090  31.348  32.275  1.00  0.00     0.202 C 
ENDROOT
BRANCH   1   2
ATOM      2  C   UNL A   1      41.128  30.452  33.075  1.00  0.00     0.261 C 
BRANCH   2   3
ATOM      3  O   UNL A   1      41.511  29.075  32.908  1.00  0.00    -0.462 OA
BRANCH   3   4
ATOM      4  C   UNL A   1      41.794  28.335  34.000  1.00  0.00     0.328 C 
ATOM      5  O   UNL A   1      40.934  27.811  34.696  1.00  0.00    -0.250 OA
BRANCH   4   6
ATOM      6  C   UNL A   1      43.340  28.100  34.104  1.00  0.00     0.192 C 
BRANCH   6   7
ATOM      7  C   UNL A   1      43.537  26.974  35.120  1.00  0.00     0.040 C 
BRANCH   7   8
ATOM      8  C   UNL A   1      44.148  25.720  34.456  1.00  0.00    -0.015 C 
ATOM      9  C   UNL A   1      45.556  25.396  34.944  1.00  0.00     0.007 C 
ATOM     10  C   UNL A   1      43.225  24.530  34.666  1.00  0.00     0.007 C 
ENDBRANCH   7   8
ENDBRANCH   6   7
BRANCH   6  11
ATOM     11  N   UNL A   1      44.199  29.260  34.380  1.00  0.00    -0.341 N 
ATOM     12  C   UNL A   1      45.184  29.820  33.601  1.00  0.00     0.243 C 
ATOM     13  H   UNL A   1      44.046  29.699  35.248  1.00  0.00     0.164 HD
ATOM     14  O   UNL A   1      45.642  30.906  33.974  1.00  0.00    -0.273 OA
BRANCH  12  15
ATOM     15  C   UNL A   1      45.753  29.121  32.319  1.00  0.00     0.175 C 
BRANCH  15  16
ATOM     16  N   UNL A   1      46.629  28.003  32.731  1.00  0.00    -0.342 N 
ATOM     17  C   UNL A   1      47.906  27.859  33.153  1.00  0.00     0.240 C 
ATOM     18  H   UNL A   1      46.161  27.138  32.688  1.00  0.00     0.164 HD
ATOM     19  O   UNL A   1      48.268  26.691  33.350  1.00  0.00    -0.273 OA
BRANCH  17  20
ATOM     20  C   UNL A   1      48.842  29.006  33.561  1.00  0.00     0.216 C 
BRANCH  20  21
ATOM     21  N   UNL A   1      49.294  29.173  34.929  1.00  0.00    -0.342 N 
ATOM     22  C   UNL A   1      49.545  30.342  35.597  1.00  0.00     0.275 C 
ATOM     23  H   UNL A   1      49.439  28.344  35.440  1.00  0.00     0.164 HD
ATOM     24  O   UNL A   1      49.496  30.329  36.830  1.00  0.00    -0.268 OA
BRANCH  22  25
ATOM     25  C   UNL A   1      49.896  31.655  34.885  1.00  0.00     0.360 C 
BRANCH  25  26
ATOM     26  N   UNL A   1      51.328  31.955  34.886  1.00  0.00    -0.350 N 
ATOM     27  H   UNL A   1      51.833  31.202  35.351  1.00  0.00     0.344 HD
ATOM     28  H   UNL A   1      51.491  32.831  35.382  1.00  0.00     0.344 HD
ATOM     29  H   UNL A   1      51.657  32.042  33.925  1.00  0.00     0.344 HD
ENDBRANCH  25  26
ENDBRANCH  22  25
ENDBRANCH  20  21
ENDBRANCH  17  20
ENDBRANCH  15  16
BRANCH  15  30
ATOM     30  C   UNL A   1      44.546  28.485  31.533  1.00  0.00     0.070 C 
BRANCH  30  31
ATOM     31  C   UNL A   1      44.741  27.160  30.825  1.00  0.00    -0.045 A 
ATOM     32  C   UNL A   1      45.939  26.898  30.138  1.00  0.00     0.004 A 
ATOM     33  C   UNL A   1      43.734  26.194  30.768  1.00  0.00     0.004 A 
ATOM     34  C   UNL A   1      46.164  25.659  29.527  1.00  0.00     0.000 A 
ATOM     35  C   UNL A   1      43.973  24.940  30.198  1.00  0.00     0.000 A 
ATOM     36  C   UNL A   1      45.195  24.664  29.596  1.00  0.00     0.000 A 
ENDBRANCH  30  31
ENDBRANCH  15  30
ENDBRANCH  12  15
ENDBRANCH   6  11
ENDBRANCH   4   6
ENDBRANCH   3   4
ENDBRANCH   2   3
ENDBRANCH   1   2
BRANCH   1  37
ATOM     37  O   UNL A   1      41.741  32.731  32.202  1.00  0.00    -0.376 OA
BRANCH  37  38
ATOM     38  C   UNL A   1      42.378  33.469  31.169  1.00  0.00     0.188 C 
BRANCH  38  39
ATOM     39  C   UNL A   1      41.845  34.896  30.928  1.00  0.00     0.188 C 
BRANCH  39  40
ATOM     40  O   UNL A   1      41.686  35.381  29.607  1.00  0.00    -0.376 OA
BRANCH  40  41
ATOM     41  C   UNL A   1      42.729  36.168  29.054  1.00  0.00     0.202 C 
BRANCH  41  42
ATOM     42  C   UNL A   1      44.115  36.245  29.734  1.00  0.00     0.261 C 
BRANCH  42  43
ATOM     43  O   UNL A   1      44.980  37.335  29.356  1.00  0.00    -0.460 OA
BRANCH  43  44
ATOM     44  C   UNL A   1      46.298  37.139  29.585  1.00  0.00     0.338 C 
ATOM     45  O   UNL A   1      47.048  37.891  30.211  1.00  0.00    -0.246 OA
BRANCH  44  46
ATOM     46  C   UNL A   1      46.722  35.790  29.153  1.00  0.00     0.060 A 
ATOM     47  C   UNL A   1      46.690  35.480  27.783  1.00  0.00     0.016 A 
ATOM     48  C   UNL A   1      47.028  34.798  30.086  1.00  0.00     0.016 A 
ATOM     49  C   UNL A   1      46.896  34.174  27.346  1.00  0.00     0.010 A 
ATOM     50  C   UNL A   1      47.202  33.477  29.649  1.00  0.00     0.010 A 
ATOM     51  C   UNL A   1      47.080  33.152  28.284  1.00  0.00    -0.014 A 
BRANCH  51  52
ATOM     52  C   UNL A   1      46.879  31.741  27.860  1.00  0.00     0.031 A 
ATOM     53  C   UNL A   1      45.480  31.178  27.897  1.00  0.00     0.074 A 
ATOM     54  C   UNL A   1      47.892  30.988  27.399  1.00  0.00     0.049 A 
ATOM     55  N   UNL A   1      45.058  29.980  27.588  1.00  0.00    -0.248 NA
ATOM     56  C   UNL A   1      44.419  32.089  28.358  1.00  0.00     0.031 C 
ATOM     57  C   UNL A   1      49.276  31.432  27.259  1.00  0.00     0.029 A 
ATOM     58  N   UNL A   1      47.909  29.691  26.951  1.00  0.00    -0.354 N 
ATOM     59  C   UNL A   1      43.690  29.985  27.839  1.00  0.00     0.074 A 
ATOM     60  C   UNL A   1      43.358  31.297  28.348  1.00  0.00     0.031 C 
ATOM     61  C   UNL A   1      50.004  30.434  26.730  1.00  0.00     0.029 A 
ATOM     62  C   UNL A   1      49.150  29.262  26.544  1.00  0.00     0.049 A 
ATOM     63  H   UNL A   1      47.106  29.121  26.923  1.00  0.00     0.167 HD
ATOM     64  C   UNL A   1      42.790  28.988  27.662  1.00  0.00     0.031 A 
ATOM     65  C   UNL A   1      49.551  28.058  26.089  1.00  0.00     0.031 A 
ATOM     66  C   UNL A   1      43.123  27.682  27.159  1.00  0.00     0.049 A 
ATOM     67  C   UNL A   1      48.543  26.943  25.963  1.00  0.00     0.074 A 
ATOM     68  C   UNL A   1      42.281  26.608  26.929  1.00  0.00     0.029 A 
ATOM     69  N   UNL A   1      44.401  27.269  26.812  1.00  0.00    -0.354 N 
ATOM     70  N   UNL A   1      47.252  26.964  26.199  1.00  0.00    -0.248 NA
ATOM     71  C   UNL A   1      49.049  25.640  25.509  1.00  0.00     0.031 C 
ATOM     72  C   UNL A   1      43.060  25.524  26.510  1.00  0.00     0.029 A 
ATOM     73  C   UNL A   1      44.376  25.947  26.403  1.00  0.00     0.049 A 
ATOM     74  H   UNL A   1      45.207  27.834  26.850  1.00  0.00     0.167 HD
ATOM     75  C   UNL A   1      46.788  25.689  25.886  1.00  0.00     0.074 A 
ATOM     76  C   UNL A   1      47.934  24.927  25.435  1.00  0.00     0.031 C 
ATOM     77  C   UNL A   1      45.525  25.196  25.960  1.00  0.00     0.031 A 
BRANCH  64  78
ATOM     78  C   UNL A   1      41.365  29.258  28.076  1.00  0.00    -0.014 A 
ATOM     79  C   UNL A   1      40.320  29.321  27.137  1.00  0.00     0.010 A 
ATOM     80  C   UNL A   1      41.069  29.437  29.440  1.00  0.00     0.010 A 
ATOM     81  C   UNL A   1      39.014  29.606  27.549  1.00  0.00     0.020 A 
ATOM     82  C   UNL A   1      39.760  29.688  29.859  1.00  0.00     0.020 A 
ATOM     83  C   UNL A   1      38.743  29.792  28.909  1.00  0.00     0.054 A 
BRANCH  83  84
ATOM     84  S   UNL A   1      37.041  30.153  29.418  1.00  0.00     0.124 S 
ATOM     85  O   UNL A   1      37.240  31.211  30.406  1.00  0.00    -0.237 OA
ATOM     86  O   UNL A   1      36.415  30.573  28.167  1.00  0.00    -0.237 OA
ATOM     87  O   UNL A   1      36.562  28.882  29.956  1.00  0.00    -0.744 OA
ENDBRANCH  83  84
ENDBRANCH  64  78
BRANCH  65  88
ATOM     88  C   UNL A   1      50.980  27.832  25.725  1.00  0.00    -0.014 A 
ATOM     89  C   UNL A   1      51.913  27.436  26.701  1.00  0.00     0.010 A 
ATOM     90  C   UNL A   1      51.418  28.025  24.403  1.00  0.00     0.010 A 
ATOM     91  C   UNL A   1      53.259  27.256  26.364  1.00  0.00     0.020 A 
ATOM     92  C   UNL A   1      52.755  27.814  24.056  1.00  0.00     0.020 A 
ATOM     93  C   UNL A   1      53.670  27.443  25.042  1.00  0.00     0.054 A 
BRANCH  93  94
ATOM     94  S   UNL A   1      55.412  27.159  24.620  1.00  0.00     0.124 S 
ATOM     95  O   UNL A   1      55.304  26.314  23.434  1.00  0.00    -0.237 OA
ATOM     96  O   UNL A   1      55.905  28.514  24.390  1.00  0.00    -0.237 OA
ATOM     97  O   UNL A   1      55.949  26.500  25.808  1.00  0.00    -0.744 OA
ENDBRANCH  93  94
ENDBRANCH  65  88
BRANCH  77  98
ATOM     98  C   UNL A   1      45.304  23.777  25.500  1.00  0.00    -0.014 A 
ATOM     99  C   UNL A   1      44.723  23.487  24.252  1.00  0.00     0.010 A 
ATOM    100  C   UNL A   1      45.727  22.712  26.318  1.00  0.00     0.010 A 
ATOM    101  C   UNL A   1      44.527  22.161  23.854  1.00  0.00     0.020 A 
ATOM    102  C   UNL A   1      45.563  21.386  25.909  1.00  0.00     0.020 A 
ATOM    103  C   UNL A   1      44.946  21.118  24.686  1.00  0.00     0.054 A 
BRANCH 103 104
ATOM    104  S   UNL A   1      44.701  19.408  24.137  1.00  0.00     0.124 S 
ATOM    105  O   UNL A   1      45.854  18.731  24.724  1.00  0.00    -0.237 OA
ATOM    106  O   UNL A   1      43.408  19.065  24.722  1.00  0.00    -0.237 OA
ATOM    107  O   UNL A   1      44.713  19.506  22.679  1.00  0.00    -0.744 OA
ENDBRANCH 103 104
ENDBRANCH  77  98
ENDBRANCH  51  52
ENDBRANCH  44  46
ENDBRANCH  43  44
ENDBRANCH  42  43
ENDBRANCH  41  42
ENDBRANCH  40  41
ENDBRANCH  39  40
ENDBRANCH  38  39
ENDBRANCH  37  38
ENDBRANCH   1  37
TORSDOF 31
ENDMDL
