MODEL 1
REMARK VINA RESULT:     -10.1      0.000      0.000
REMARK SMILES Cc1ccc2c(c1C)O[C@@H](C(=O)OCCOCCOCCOC(=O)c1ccc(-c3c4nc(c(-c5ccc(S(=O)(=O)[O-])cc5)c5ccc([nH]5)c(-c5ccc(S(=O)(=O)[O-])cc5)c5nc(c(-c6ccc(S(=O)(=O)[O-])cc6)c6ccc3[nH]6)C=C5)C=C4)cc1)CC2=O
REMARK SMILES IDX 19 1 18 2 17 3 16 4 15 5 14 6 13 7 11 8 12 9 10 10 1 11 2 12
REMARK SMILES IDX 3 13 7 14 4 15 6 16 8 17 5 18 9 19 86 20 85 21 87 22 20 23
REMARK SMILES IDX 21 24 22 25 23 26 24 27 25 28 26 29 84 30 27 31 83 32 28 33
REMARK SMILES IDX 29 34 30 35 77 36 31 37 82 38 76 39 78 40 32 41 81 42 75 43
REMARK SMILES IDX 74 44 33 46 63 47 44 48 62 49 45 50 48 51 61 52 79 53 46 54
REMARK SMILES IDX 47 55 60 57 80 58 49 59 34 60 35 61 43 62 36 63 42 64 37 65
REMARK SMILES IDX 38 66 39 67 40 68 41 69 64 70 65 71 73 72 66 73 72 74 67 75
REMARK SMILES IDX 68 76 69 77 70 78 71 79 50 80 51 81 59 82 52 83 58 84 53 85
REMARK SMILES IDX 54 86 55 87 56 88 57 89
REMARK H PARENT 78 45 48 56
REMARK Flexibility Score: inf
ROOT
ATOM      1  O   UNL A   1      36.032  22.851  26.347  1.00  0.00    -0.376 OA
ENDROOT
BRANCH   1   2
ATOM      2  C   UNL A   1      36.151  21.695  25.546  1.00  0.00     0.188 C 
BRANCH   2   3
ATOM      3  C   UNL A   1      34.834  21.171  24.962  1.00  0.00     0.188 C 
BRANCH   3   4
ATOM      4  O   UNL A   1      34.409  21.672  23.705  1.00  0.00    -0.376 OA
BRANCH   4   5
ATOM      5  C   UNL A   1      33.338  22.606  23.686  1.00  0.00     0.202 C 
BRANCH   5   6
ATOM      6  C   UNL A   1      33.312  23.650  22.557  1.00  0.00     0.261 C 
BRANCH   6   7
ATOM      7  O   UNL A   1      34.037  24.884  22.799  1.00  0.00    -0.460 OA
BRANCH   7   8
ATOM      8  C   UNL A   1      33.600  25.975  22.111  1.00  0.00     0.347 C 
ATOM      9  O   UNL A   1      33.298  25.948  20.920  1.00  0.00    -0.248 OA
BRANCH   8  10
ATOM     10  C   UNL A   1      33.593  27.305  22.902  1.00  0.00     0.290 C 
ATOM     11  C   UNL A   1      30.006  24.264  26.646  1.00  0.00     0.045 C 
ATOM     12  C   UNL A   1      30.378  25.304  25.628  1.00  0.00    -0.044 A 
ATOM     13  C   UNL A   1      29.355  25.895  24.860  1.00  0.00     0.005 A 
ATOM     14  C   UNL A   1      31.719  25.667  25.400  1.00  0.00    -0.005 A 
ATOM     15  C   UNL A   1      29.642  26.856  23.892  1.00  0.00     0.016 A 
ATOM     16  C   UNL A   1      31.991  26.650  24.441  1.00  0.00     0.134 A 
ATOM     17  C   UNL A   1      32.889  25.005  26.083  1.00  0.00     0.049 C 
ATOM     18  C   UNL A   1      30.964  27.234  23.693  1.00  0.00     0.060 A 
ATOM     19  O   UNL A   1      33.313  26.994  24.271  1.00  0.00    -0.477 OA
ATOM     20  C   UNL A   1      31.316  28.235  22.669  1.00  0.00     0.170 C 
ATOM     21  C   UNL A   1      32.780  28.529  22.522  1.00  0.00     0.138 C 
ATOM     22  O   UNL A   1      30.455  28.829  22.031  1.00  0.00    -0.294 OA
ENDBRANCH   8  10
ENDBRANCH   7   8
ENDBRANCH   6   7
ENDBRANCH   5   6
ENDBRANCH   4   5
ENDBRANCH   3   4
ENDBRANCH   2   3
ENDBRANCH   1   2
BRANCH   1  23
ATOM     23  C   UNL A   1      36.623  24.030  25.821  1.00  0.00     0.202 C 
BRANCH  23  24
ATOM     24  C   UNL A   1      38.158  23.955  25.844  1.00  0.00     0.261 C 
BRANCH  24  25
ATOM     25  O   UNL A   1      38.788  24.413  27.061  1.00  0.00    -0.460 OA
BRANCH  25  26
ATOM     26  C   UNL A   1      39.820  25.282  26.939  1.00  0.00     0.338 C 
ATOM     27  O   UNL A   1      40.581  25.375  25.989  1.00  0.00    -0.246 OA
BRANCH  26  28
ATOM     28  C   UNL A   1      39.684  26.305  28.011  1.00  0.00     0.060 A 
ATOM     29  C   UNL A   1      40.236  27.582  27.805  1.00  0.00     0.016 A 
ATOM     30  C   UNL A   1      38.970  26.037  29.180  1.00  0.00     0.016 A 
ATOM     31  C   UNL A   1      40.088  28.584  28.768  1.00  0.00     0.010 A 
ATOM     32  C   UNL A   1      38.863  27.027  30.165  1.00  0.00     0.010 A 
ATOM     33  C   UNL A   1      39.443  28.295  29.978  1.00  0.00    -0.014 A 
BRANCH  33  34
ATOM     34  C   UNL A   1      39.604  29.207  31.140  1.00  0.00     0.031 A 
ATOM     35  C   UNL A   1      40.778  28.962  32.054  1.00  0.00     0.074 A 
ATOM     36  C   UNL A   1      38.756  30.221  31.396  1.00  0.00     0.049 A 
ATOM     37  N   UNL A   1      41.085  29.549  33.181  1.00  0.00    -0.248 NA
ATOM     38  C   UNL A   1      41.732  27.916  31.641  1.00  0.00     0.031 C 
ATOM     39  C   UNL A   1      37.619  30.613  30.566  1.00  0.00     0.029 A 
ATOM     40  N   UNL A   1      38.722  31.105  32.451  1.00  0.00    -0.354 N 
ATOM     41  C   UNL A   1      42.259  28.943  33.610  1.00  0.00     0.074 A 
ATOM     42  C   UNL A   1      42.606  27.935  32.635  1.00  0.00     0.031 C 
ATOM     43  C   UNL A   1      36.986  31.646  31.154  1.00  0.00     0.029 A 
ATOM     44  C   UNL A   1      37.650  31.968  32.418  1.00  0.00     0.049 A 
ATOM     45  H   UNL A   1      39.401  31.120  33.162  1.00  0.00     0.167 HD
ATOM     46  C   UNL A   1      42.987  29.202  34.718  1.00  0.00     0.031 A 
ATOM     47  C   UNL A   1      37.235  32.887  33.316  1.00  0.00     0.031 A 
ATOM     48  C   UNL A   1      42.648  30.194  35.698  1.00  0.00     0.049 A 
ATOM     49  C   UNL A   1      38.016  33.097  34.592  1.00  0.00     0.074 A 
ATOM     50  C   UNL A   1      43.336  30.520  36.854  1.00  0.00     0.029 A 
ATOM     51  N   UNL A   1      41.534  31.012  35.644  1.00  0.00    -0.354 N 
ATOM     52  N   UNL A   1      39.122  32.511  34.985  1.00  0.00    -0.248 NA
ATOM     53  C   UNL A   1      37.493  34.087  35.547  1.00  0.00     0.031 C 
ATOM     54  C   UNL A   1      42.609  31.504  37.527  1.00  0.00     0.029 A 
ATOM     55  C   UNL A   1      41.502  31.829  36.759  1.00  0.00     0.049 A 
ATOM     56  H   UNL A   1      40.865  31.013  34.923  1.00  0.00     0.167 HD
ATOM     57  C   UNL A   1      39.437  33.077  36.217  1.00  0.00     0.074 A 
ATOM     58  C   UNL A   1      38.412  34.057  36.505  1.00  0.00     0.031 C 
ATOM     59  C   UNL A   1      40.484  32.809  37.034  1.00  0.00     0.031 A 
BRANCH  46  60
ATOM     60  C   UNL A   1      44.232  28.396  34.954  1.00  0.00    -0.014 A 
ATOM     61  C   UNL A   1      44.171  27.174  35.644  1.00  0.00     0.010 A 
ATOM     62  C   UNL A   1      45.442  28.800  34.362  1.00  0.00     0.010 A 
ATOM     63  C   UNL A   1      45.302  26.358  35.723  1.00  0.00     0.020 A 
ATOM     64  C   UNL A   1      46.569  27.978  34.424  1.00  0.00     0.020 A 
ATOM     65  C   UNL A   1      46.487  26.758  35.097  1.00  0.00     0.054 A 
BRANCH  65  66
ATOM     66  S   UNL A   1      47.908  25.632  35.145  1.00  0.00     0.124 S 
ATOM     67  O   UNL A   1      49.036  26.561  35.161  1.00  0.00    -0.237 OA
ATOM     68  O   UNL A   1      47.682  24.897  36.386  1.00  0.00    -0.237 OA
ATOM     69  O   UNL A   1      47.772  24.848  33.920  1.00  0.00    -0.744 OA
ENDBRANCH  65  66
ENDBRANCH  46  60
BRANCH  47  70
ATOM     70  C   UNL A   1      35.987  33.663  33.066  1.00  0.00    -0.014 A 
ATOM     71  C   UNL A   1      36.040  34.988  32.599  1.00  0.00     0.010 A 
ATOM     72  C   UNL A   1      34.730  33.078  33.310  1.00  0.00     0.010 A 
ATOM     73  C   UNL A   1      34.863  35.714  32.386  1.00  0.00     0.020 A 
ATOM     74  C   UNL A   1      33.550  33.791  33.075  1.00  0.00     0.020 A 
ATOM     75  C   UNL A   1      33.625  35.107  32.616  1.00  0.00     0.054 A 
BRANCH  75  76
ATOM     76  S   UNL A   1      32.114  36.060  32.298  1.00  0.00     0.124 S 
ATOM     77  O   UNL A   1      32.248  36.390  30.882  1.00  0.00    -0.237 OA
ATOM     78  O   UNL A   1      31.067  35.095  32.626  1.00  0.00    -0.237 OA
ATOM     79  O   UNL A   1      32.220  37.194  33.214  1.00  0.00    -0.744 OA
ENDBRANCH  75  76
ENDBRANCH  47  70
BRANCH  59  80
ATOM     80  C   UNL A   1      40.621  33.591  38.313  1.00  0.00    -0.014 A 
ATOM     81  C   UNL A   1      41.332  34.802  38.347  1.00  0.00     0.010 A 
ATOM     82  C   UNL A   1      39.912  33.176  39.456  1.00  0.00     0.010 A 
ATOM     83  C   UNL A   1      41.333  35.585  39.506  1.00  0.00     0.020 A 
ATOM     84  C   UNL A   1      39.892  33.967  40.608  1.00  0.00     0.020 A 
ATOM     85  C   UNL A   1      40.603  35.168  40.625  1.00  0.00     0.054 A 
BRANCH  85  86
ATOM     86  S   UNL A   1      40.580  36.234  42.092  1.00  0.00     0.124 S 
ATOM     87  O   UNL A   1      41.344  35.449  43.058  1.00  0.00    -0.237 OA
ATOM     88  O   UNL A   1      41.236  37.447  41.608  1.00  0.00    -0.237 OA
ATOM     89  O   UNL A   1      39.159  36.378  42.397  1.00  0.00    -0.744 OA
ENDBRANCH  85  86
ENDBRANCH  59  80
ENDBRANCH  33  34
ENDBRANCH  26  28
ENDBRANCH  25  26
ENDBRANCH  24  25
ENDBRANCH  23  24
ENDBRANCH   1  23
TORSDOF 20
ENDMDL
MODEL 2
REMARK VINA RESULT:      -9.9      6.979     11.670
REMARK SMILES Cc1ccc2c(c1C)O[C@@H](C(=O)OCCOCCOCCOC(=O)c1ccc(-c3c4nc(c(-c5ccc(S(=O)(=O)[O-])cc5)c5ccc([nH]5)c(-c5ccc(S(=O)(=O)[O-])cc5)c5nc(c(-c6ccc(S(=O)(=O)[O-])cc6)c6ccc3[nH]6)C=C5)C=C4)cc1)CC2=O
REMARK SMILES IDX 19 1 18 2 17 3 16 4 15 5 14 6 13 7 11 8 12 9 10 10 1 11 2 12
REMARK SMILES IDX 3 13 7 14 4 15 6 16 8 17 5 18 9 19 86 20 85 21 87 22 20 23
REMARK SMILES IDX 21 24 22 25 23 26 24 27 25 28 26 29 84 30 27 31 83 32 28 33
REMARK SMILES IDX 29 34 30 35 77 36 31 37 82 38 76 39 78 40 32 41 81 42 75 43
REMARK SMILES IDX 74 44 33 46 63 47 44 48 62 49 45 50 48 51 61 52 79 53 46 54
REMARK SMILES IDX 47 55 60 57 80 58 49 59 34 60 35 61 43 62 36 63 42 64 37 65
REMARK SMILES IDX 38 66 39 67 40 68 41 69 64 70 65 71 73 72 66 73 72 74 67 75
REMARK SMILES IDX 68 76 69 77 70 78 71 79 50 80 51 81 59 82 52 83 58 84 53 85
REMARK SMILES IDX 54 86 55 87 56 88 57 89
REMARK H PARENT 78 45 48 56
REMARK Flexibility Score: inf
ROOT
ATOM      1  O   UNL A   1      32.731  30.403  27.267  1.00  0.00    -0.376 OA
ENDROOT
BRANCH   1   2
ATOM      2  C   UNL A   1      31.739  30.010  26.344  1.00  0.00     0.188 C 
BRANCH   2   3
ATOM      3  C   UNL A   1      32.261  29.608  24.960  1.00  0.00     0.188 C 
BRANCH   3   4
ATOM      4  O   UNL A   1      31.365  28.977  24.060  1.00  0.00    -0.376 OA
BRANCH   4   5
ATOM      5  C   UNL A   1      31.864  28.575  22.791  1.00  0.00     0.202 C 
BRANCH   5   6
ATOM      6  C   UNL A   1      31.588  27.134  22.332  1.00  0.00     0.261 C 
BRANCH   6   7
ATOM      7  O   UNL A   1      31.961  26.077  23.255  1.00  0.00    -0.460 OA
BRANCH   7   8
ATOM      8  C   UNL A   1      33.295  25.826  23.363  1.00  0.00     0.347 C 
ATOM      9  O   UNL A   1      34.007  25.524  22.408  1.00  0.00    -0.248 OA
BRANCH   8  10
ATOM     10  C   UNL A   1      33.864  25.847  24.802  1.00  0.00     0.290 C 
ATOM     11  C   UNL A   1      33.451  19.870  24.317  1.00  0.00     0.045 C 
ATOM     12  C   UNL A   1      33.115  21.241  24.829  1.00  0.00    -0.044 A 
ATOM     13  C   UNL A   1      31.865  21.445  25.448  1.00  0.00     0.005 A 
ATOM     14  C   UNL A   1      33.999  22.326  24.668  1.00  0.00    -0.005 A 
ATOM     15  C   UNL A   1      31.495  22.699  25.930  1.00  0.00     0.016 A 
ATOM     16  C   UNL A   1      33.623  23.574  25.179  1.00  0.00     0.134 A 
ATOM     17  C   UNL A   1      35.302  22.235  23.914  1.00  0.00     0.049 C 
ATOM     18  C   UNL A   1      32.383  23.759  25.798  1.00  0.00     0.060 A 
ATOM     19  O   UNL A   1      34.529  24.599  25.024  1.00  0.00    -0.477 OA
ATOM     20  C   UNL A   1      32.027  25.107  26.280  1.00  0.00     0.170 C 
ATOM     21  C   UNL A   1      33.053  26.175  26.043  1.00  0.00     0.138 C 
ATOM     22  O   UNL A   1      30.984  25.314  26.890  1.00  0.00    -0.294 OA
ENDBRANCH   8  10
ENDBRANCH   7   8
ENDBRANCH   6   7
ENDBRANCH   5   6
ENDBRANCH   4   5
ENDBRANCH   3   4
ENDBRANCH   2   3
ENDBRANCH   1   2
BRANCH   1  23
ATOM     23  C   UNL A   1      33.964  29.702  27.185  1.00  0.00     0.202 C 
BRANCH  23  24
ATOM     24  C   UNL A   1      35.064  30.392  28.009  1.00  0.00     0.261 C 
BRANCH  24  25
ATOM     25  O   UNL A   1      36.392  29.844  27.861  1.00  0.00    -0.460 OA
BRANCH  25  26
ATOM     26  C   UNL A   1      37.115  29.652  28.991  1.00  0.00     0.338 C 
ATOM     27  O   UNL A   1      36.673  29.516  30.121  1.00  0.00    -0.246 OA
BRANCH  26  28
ATOM     28  C   UNL A   1      38.511  29.330  28.589  1.00  0.00     0.060 A 
ATOM     29  C   UNL A   1      39.444  28.994  29.586  1.00  0.00     0.016 A 
ATOM     30  C   UNL A   1      38.888  29.297  27.246  1.00  0.00     0.016 A 
ATOM     31  C   UNL A   1      40.752  28.638  29.244  1.00  0.00     0.010 A 
ATOM     32  C   UNL A   1      40.211  28.988  26.907  1.00  0.00     0.010 A 
ATOM     33  C   UNL A   1      41.157  28.683  27.904  1.00  0.00    -0.014 A 
BRANCH  33  34
ATOM     34  C   UNL A   1      42.605  28.680  27.567  1.00  0.00     0.031 A 
ATOM     35  C   UNL A   1      43.191  27.392  27.047  1.00  0.00     0.074 A 
ATOM     36  C   UNL A   1      43.389  29.765  27.708  1.00  0.00     0.049 A 
ATOM     37  N   UNL A   1      44.435  27.101  26.775  1.00  0.00    -0.248 NA
ATOM     38  C   UNL A   1      42.246  26.287  26.800  1.00  0.00     0.031 C 
ATOM     39  C   UNL A   1      42.947  31.089  28.138  1.00  0.00     0.029 A 
ATOM     40  N   UNL A   1      44.743  29.912  27.508  1.00  0.00    -0.354 N 
ATOM     41  C   UNL A   1      44.423  25.784  26.331  1.00  0.00     0.074 A 
ATOM     42  C   UNL A   1      43.053  25.325  26.381  1.00  0.00     0.031 C 
ATOM     43  C   UNL A   1      44.012  31.910  28.190  1.00  0.00     0.029 A 
ATOM     44  C   UNL A   1      45.219  31.163  27.831  1.00  0.00     0.049 A 
ATOM     45  H   UNL A   1      45.318  29.191  27.166  1.00  0.00     0.167 HD
ATOM     46  C   UNL A   1      45.459  25.023  25.917  1.00  0.00     0.031 A 
ATOM     47  C   UNL A   1      46.482  31.641  27.863  1.00  0.00     0.031 A 
ATOM     48  C   UNL A   1      46.823  25.465  25.871  1.00  0.00     0.049 A 
ATOM     49  C   UNL A   1      47.635  30.742  27.482  1.00  0.00     0.074 A 
ATOM     50  C   UNL A   1      47.936  24.752  25.463  1.00  0.00     0.029 A 
ATOM     51  N   UNL A   1      47.262  26.722  26.247  1.00  0.00    -0.354 N 
ATOM     52  N   UNL A   1      47.606  29.497  27.070  1.00  0.00    -0.248 NA
ATOM     53  C   UNL A   1      48.990  31.310  27.572  1.00  0.00     0.031 C 
ATOM     54  C   UNL A   1      49.059  25.563  25.638  1.00  0.00     0.029 A 
ATOM     55  C   UNL A   1      48.634  26.798  26.100  1.00  0.00     0.049 A 
ATOM     56  H   UNL A   1      46.685  27.451  26.569  1.00  0.00     0.167 HD
ATOM     57  C   UNL A   1      48.931  29.142  26.831  1.00  0.00     0.074 A 
ATOM     58  C   UNL A   1      49.739  30.303  27.137  1.00  0.00     0.031 C 
ATOM     59  C   UNL A   1      49.431  27.960  26.397  1.00  0.00     0.031 A 
BRANCH  46  60
ATOM     60  C   UNL A   1      45.174  23.614  25.482  1.00  0.00    -0.014 A 
ATOM     61  C   UNL A   1      44.919  23.321  24.133  1.00  0.00     0.010 A 
ATOM     62  C   UNL A   1      45.300  22.563  26.409  1.00  0.00     0.010 A 
ATOM     63  C   UNL A   1      44.810  21.994  23.713  1.00  0.00     0.020 A 
ATOM     64  C   UNL A   1      45.211  21.235  25.989  1.00  0.00     0.020 A 
ATOM     65  C   UNL A   1      44.974  20.960  24.641  1.00  0.00     0.054 A 
BRANCH  65  66
ATOM     66  S   UNL A   1      44.915  19.249  24.044  1.00  0.00     0.124 S 
ATOM     67  O   UNL A   1      44.483  19.422  22.658  1.00  0.00    -0.237 OA
ATOM     68  O   UNL A   1      46.295  18.808  24.221  1.00  0.00    -0.237 OA
ATOM     69  O   UNL A   1      43.936  18.608  24.919  1.00  0.00    -0.744 OA
ENDBRANCH  65  66
ENDBRANCH  46  60
BRANCH  47  70
ATOM     70  C   UNL A   1      46.740  33.038  28.314  1.00  0.00    -0.014 A 
ATOM     71  C   UNL A   1      46.682  34.112  27.409  1.00  0.00     0.010 A 
ATOM     72  C   UNL A   1      47.060  33.299  29.660  1.00  0.00     0.010 A 
ATOM     73  C   UNL A   1      46.944  35.418  27.838  1.00  0.00     0.020 A 
ATOM     74  C   UNL A   1      47.298  34.605  30.099  1.00  0.00     0.020 A 
ATOM     75  C   UNL A   1      47.241  35.657  29.183  1.00  0.00     0.054 A 
BRANCH  75  76
ATOM     76  S   UNL A   1      47.542  37.364  29.719  1.00  0.00     0.124 S 
ATOM     77  O   UNL A   1      48.936  37.312  30.153  1.00  0.00    -0.237 OA
ATOM     78  O   UNL A   1      47.289  38.120  28.495  1.00  0.00    -0.237 OA
ATOM     79  O   UNL A   1      46.565  37.569  30.787  1.00  0.00    -0.744 OA
ENDBRANCH  75  76
ENDBRANCH  47  70
BRANCH  59  80
ATOM     80  C   UNL A   1      50.916  27.838  26.184  1.00  0.00    -0.014 A 
ATOM     81  C   UNL A   1      51.754  27.350  27.199  1.00  0.00     0.010 A 
ATOM     82  C   UNL A   1      51.452  28.084  24.906  1.00  0.00     0.010 A 
ATOM     83  C   UNL A   1      53.108  27.112  26.940  1.00  0.00     0.020 A 
ATOM     84  C   UNL A   1      52.800  27.826  24.637  1.00  0.00     0.020 A 
ATOM     85  C   UNL A   1      53.619  27.340  25.658  1.00  0.00     0.054 A 
BRANCH  85  86
ATOM     86  S   UNL A   1      55.365  26.968  25.341  1.00  0.00     0.124 S 
ATOM     87  O   UNL A   1      55.308  26.293  24.046  1.00  0.00    -0.237 OA
ATOM     88  O   UNL A   1      55.972  28.297  25.330  1.00  0.00    -0.237 OA
ATOM     89  O   UNL A   1      55.752  26.119  26.465  1.00  0.00    -0.744 OA
ENDBRANCH  85  86
ENDBRANCH  59  80
ENDBRANCH  33  34
ENDBRANCH  26  28
ENDBRANCH  25  26
ENDBRANCH  24  25
ENDBRANCH  23  24
ENDBRANCH   1  23
TORSDOF 20
ENDMDL
MODEL 3
REMARK VINA RESULT:      -9.9      6.388     11.548
REMARK SMILES Cc1ccc2c(c1C)O[C@@H](C(=O)OCCOCCOCCOC(=O)c1ccc(-c3c4nc(c(-c5ccc(S(=O)(=O)[O-])cc5)c5ccc([nH]5)c(-c5ccc(S(=O)(=O)[O-])cc5)c5nc(c(-c6ccc(S(=O)(=O)[O-])cc6)c6ccc3[nH]6)C=C5)C=C4)cc1)CC2=O
REMARK SMILES IDX 19 1 18 2 17 3 16 4 15 5 14 6 13 7 11 8 12 9 10 10 1 11 2 12
REMARK SMILES IDX 3 13 7 14 4 15 6 16 8 17 5 18 9 19 86 20 85 21 87 22 20 23
REMARK SMILES IDX 21 24 22 25 23 26 24 27 25 28 26 29 84 30 27 31 83 32 28 33
REMARK SMILES IDX 29 34 30 35 77 36 31 37 82 38 76 39 78 40 32 41 81 42 75 43
REMARK SMILES IDX 74 44 33 46 63 47 44 48 62 49 45 50 48 51 61 52 79 53 46 54
REMARK SMILES IDX 47 55 60 57 80 58 49 59 34 60 35 61 43 62 36 63 42 64 37 65
REMARK SMILES IDX 38 66 39 67 40 68 41 69 64 70 65 71 73 72 66 73 72 74 67 75
REMARK SMILES IDX 68 76 69 77 70 78 71 79 50 80 51 81 59 82 52 83 58 84 53 85
REMARK SMILES IDX 54 86 55 87 56 88 57 89
REMARK H PARENT 78 45 48 56
REMARK Flexibility Score: inf
ROOT
ATOM      1  O   UNL A   1      37.987  21.727  25.222  1.00  0.00    -0.376 OA
ENDROOT
BRANCH   1   2
ATOM      2  C   UNL A   1      36.840  22.523  25.425  1.00  0.00     0.188 C 
BRANCH   2   3
ATOM      3  C   UNL A   1      35.662  21.807  26.095  1.00  0.00     0.188 C 
BRANCH   3   4
ATOM      4  O   UNL A   1      34.581  22.591  26.571  1.00  0.00    -0.376 OA
BRANCH   4   5
ATOM      5  C   UNL A   1      33.330  21.949  26.780  1.00  0.00     0.202 C 
BRANCH   5   6
ATOM      6  C   UNL A   1      32.061  22.815  26.745  1.00  0.00     0.261 C 
BRANCH   6   7
ATOM      7  O   UNL A   1      32.019  23.865  25.744  1.00  0.00    -0.460 OA
BRANCH   7   8
ATOM      8  C   UNL A   1      32.286  25.124  26.190  1.00  0.00     0.347 C 
ATOM      9  O   UNL A   1      31.534  25.754  26.929  1.00  0.00    -0.248 OA
BRANCH   8  10
ATOM     10  C   UNL A   1      33.574  25.772  25.628  1.00  0.00     0.290 C 
ATOM     11  C   UNL A   1      29.754  29.929  23.562  1.00  0.00     0.045 C 
ATOM     12  C   UNL A   1      30.738  28.797  23.486  1.00  0.00    -0.044 A 
ATOM     13  C   UNL A   1      30.770  28.006  22.320  1.00  0.00     0.005 A 
ATOM     14  C   UNL A   1      31.592  28.488  24.562  1.00  0.00    -0.005 A 
ATOM     15  C   UNL A   1      31.653  26.935  22.199  1.00  0.00     0.016 A 
ATOM     16  C   UNL A   1      32.490  27.424  24.417  1.00  0.00     0.134 A 
ATOM     17  C   UNL A   1      31.547  29.197  25.892  1.00  0.00     0.049 C 
ATOM     18  C   UNL A   1      32.517  26.653  23.251  1.00  0.00     0.060 A 
ATOM     19  O   UNL A   1      33.325  27.175  25.483  1.00  0.00    -0.477 OA
ATOM     20  C   UNL A   1      33.457  25.520  23.172  1.00  0.00     0.170 C 
ATOM     21  C   UNL A   1      34.308  25.295  24.387  1.00  0.00     0.138 C 
ATOM     22  O   UNL A   1      33.572  24.852  22.151  1.00  0.00    -0.294 OA
ENDBRANCH   8  10
ENDBRANCH   7   8
ENDBRANCH   6   7
ENDBRANCH   5   6
ENDBRANCH   4   5
ENDBRANCH   3   4
ENDBRANCH   2   3
ENDBRANCH   1   2
BRANCH   1  23
ATOM     23  C   UNL A   1      37.747  20.352  24.960  1.00  0.00     0.202 C 
BRANCH  23  24
ATOM     24  C   UNL A   1      38.937  19.477  25.386  1.00  0.00     0.261 C 
BRANCH  24  25
ATOM     25  O   UNL A   1      39.886  20.104  26.277  1.00  0.00    -0.460 OA
BRANCH  25  26
ATOM     26  C   UNL A   1      41.182  19.719  26.177  1.00  0.00     0.338 C 
ATOM     27  O   UNL A   1      41.592  18.665  25.717  1.00  0.00    -0.246 OA
BRANCH  26  28
ATOM     28  C   UNL A   1      42.032  20.912  26.434  1.00  0.00     0.060 A 
ATOM     29  C   UNL A   1      42.220  21.339  27.761  1.00  0.00     0.016 A 
ATOM     30  C   UNL A   1      42.688  21.572  25.393  1.00  0.00     0.016 A 
ATOM     31  C   UNL A   1      43.050  22.427  28.046  1.00  0.00     0.010 A 
ATOM     32  C   UNL A   1      43.481  22.691  25.676  1.00  0.00     0.010 A 
ATOM     33  C   UNL A   1      43.644  23.142  26.999  1.00  0.00    -0.014 A 
BRANCH  33  34
ATOM     34  C   UNL A   1      44.206  24.495  27.249  1.00  0.00     0.031 A 
ATOM     35  C   UNL A   1      43.246  25.571  27.692  1.00  0.00     0.074 A 
ATOM     36  C   UNL A   1      45.512  24.783  27.097  1.00  0.00     0.049 A 
ATOM     37  N   UNL A   1      43.463  26.846  27.880  1.00  0.00    -0.248 NA
ATOM     38  C   UNL A   1      41.858  25.151  27.958  1.00  0.00     0.031 C 
ATOM     39  C   UNL A   1      46.560  23.832  26.736  1.00  0.00     0.029 A 
ATOM     40  N   UNL A   1      46.176  25.983  27.220  1.00  0.00    -0.354 N 
ATOM     41  C   UNL A   1      42.244  27.377  28.280  1.00  0.00     0.074 A 
ATOM     42  C   UNL A   1      41.286  26.295  28.298  1.00  0.00     0.031 C 
ATOM     43  C   UNL A   1      47.733  24.487  26.647  1.00  0.00     0.029 A 
ATOM     44  C   UNL A   1      47.515  25.911  26.910  1.00  0.00     0.049 A 
ATOM     45  H   UNL A   1      45.735  26.815  27.504  1.00  0.00     0.167 HD
ATOM     46  C   UNL A   1      41.946  28.654  28.608  1.00  0.00     0.031 A 
ATOM     47  C   UNL A   1      48.449  26.882  26.817  1.00  0.00     0.031 A 
ATOM     48  C   UNL A   1      42.885  29.737  28.586  1.00  0.00     0.049 A 
ATOM     49  C   UNL A   1      48.070  28.317  27.100  1.00  0.00     0.074 A 
ATOM     50  C   UNL A   1      42.662  31.065  28.905  1.00  0.00     0.029 A 
ATOM     51  N   UNL A   1      44.216  29.625  28.226  1.00  0.00    -0.354 N 
ATOM     52  N   UNL A   1      46.910  28.804  27.473  1.00  0.00    -0.248 NA
ATOM     53  C   UNL A   1      49.123  29.334  26.947  1.00  0.00     0.031 C 
ATOM     54  C   UNL A   1      43.849  31.768  28.688  1.00  0.00     0.029 A 
ATOM     55  C   UNL A   1      44.823  30.865  28.292  1.00  0.00     0.049 A 
ATOM     56  H   UNL A   1      44.664  28.789  27.962  1.00  0.00     0.167 HD
ATOM     57  C   UNL A   1      47.101  30.175  27.620  1.00  0.00     0.074 A 
ATOM     58  C   UNL A   1      48.487  30.444  27.305  1.00  0.00     0.031 C 
ATOM     59  C   UNL A   1      46.205  31.124  27.987  1.00  0.00     0.031 A 
BRANCH  46  60
ATOM     60  C   UNL A   1      40.535  28.971  29.013  1.00  0.00    -0.014 A 
ATOM     61  C   UNL A   1      40.192  29.090  30.370  1.00  0.00     0.010 A 
ATOM     62  C   UNL A   1      39.584  29.286  28.026  1.00  0.00     0.010 A 
ATOM     63  C   UNL A   1      38.920  29.536  30.734  1.00  0.00     0.020 A 
ATOM     64  C   UNL A   1      38.318  29.751  28.387  1.00  0.00     0.020 A 
ATOM     65  C   UNL A   1      37.998  29.880  29.739  1.00  0.00     0.054 A 
BRANCH  65  66
ATOM     66  S   UNL A   1      36.388  30.541  30.249  1.00  0.00     0.124 S 
ATOM     67  O   UNL A   1      36.720  31.919  30.605  1.00  0.00    -0.237 OA
ATOM     68  O   UNL A   1      35.587  30.381  29.038  1.00  0.00    -0.237 OA
ATOM     69  O   UNL A   1      36.002  29.689  31.372  1.00  0.00    -0.744 OA
ENDBRANCH  65  66
ENDBRANCH  46  60
BRANCH  47  70
ATOM     70  C   UNL A   1      49.838  26.544  26.397  1.00  0.00    -0.014 A 
ATOM     71  C   UNL A   1      50.800  26.139  27.339  1.00  0.00     0.010 A 
ATOM     72  C   UNL A   1      50.210  26.639  25.042  1.00  0.00     0.010 A 
ATOM     73  C   UNL A   1      52.107  25.841  26.936  1.00  0.00     0.020 A 
ATOM     74  C   UNL A   1      51.508  26.319  24.632  1.00  0.00     0.020 A 
ATOM     75  C   UNL A   1      52.450  25.925  25.584  1.00  0.00     0.054 A 
BRANCH  75  76
ATOM     76  S   UNL A   1      54.142  25.500  25.085  1.00  0.00     0.124 S 
ATOM     77  O   UNL A   1      54.112  24.040  25.102  1.00  0.00    -0.237 OA
ATOM     78  O   UNL A   1      54.237  26.115  23.764  1.00  0.00    -0.237 OA
ATOM     79  O   UNL A   1      54.972  26.117  26.118  1.00  0.00    -0.744 OA
ENDBRANCH  75  76
ENDBRANCH  47  70
BRANCH  59  80
ATOM     80  C   UNL A   1      46.673  32.550  28.107  1.00  0.00    -0.014 A 
ATOM     81  C   UNL A   1      47.270  33.018  29.289  1.00  0.00     0.010 A 
ATOM     82  C   UNL A   1      46.640  33.385  26.974  1.00  0.00     0.010 A 
ATOM     83  C   UNL A   1      47.823  34.301  29.337  1.00  0.00     0.020 A 
ATOM     84  C   UNL A   1      47.212  34.659  27.012  1.00  0.00     0.020 A 
ATOM     85  C   UNL A   1      47.802  35.109  28.195  1.00  0.00     0.054 A 
BRANCH  85  86
ATOM     86  S   UNL A   1      48.579  36.746  28.274  1.00  0.00     0.124 S 
ATOM     87  O   UNL A   1      49.232  36.843  26.971  1.00  0.00    -0.237 OA
ATOM     88  O   UNL A   1      47.431  37.629  28.469  1.00  0.00    -0.237 OA
ATOM     89  O   UNL A   1      49.486  36.648  29.415  1.00  0.00    -0.744 OA
ENDBRANCH  85  86
ENDBRANCH  59  80
ENDBRANCH  33  34
ENDBRANCH  26  28
ENDBRANCH  25  26
ENDBRANCH  24  25
ENDBRANCH  23  24
ENDBRANCH   1  23
TORSDOF 20
ENDMDL
