MODEL 1
REMARK VINA RESULT:     -10.6      0.000      0.000
REMARK SMILES C[C@@H](C(=O)OCCOCCOCCOC(=O)c1ccc(-c2c3nc(c(-c4ccc(S(=O)(=O)[O-])cc4)c4ccc([nH]4)c(-c4ccc(S(=O)(=O)[O-])cc4)c4nc(c(-c5ccc(S(=O)(=O)[O-])cc5)c5ccc2[nH]5)C=C4)C=C3)cc1)c1ccc(C[C@H]2CCCC2=O)c(-c2ccccc2)c1
REMARK SMILES IDX 9 1 8 2 7 3 6 4 5 5 3 6 4 7 2 8 1 9 77 10 78 11 95 12 79 13
REMARK SMILES IDX 88 14 80 15 89 16 90 17 94 18 91 19 93 20 92 21 81 22 82 23
REMARK SMILES IDX 83 24 86 25 84 26 85 27 87 28 10 29 11 30 12 31 13 32 14 33
REMARK SMILES IDX 15 34 16 35 17 36 18 37 76 38 19 39 75 40 20 41 21 42 22 43
REMARK SMILES IDX 69 44 23 45 74 46 68 47 70 48 24 49 73 50 67 51 66 52 25 54
REMARK SMILES IDX 55 55 36 56 54 57 37 58 40 59 53 60 71 61 38 62 39 63 52 65
REMARK SMILES IDX 72 66 41 67 26 68 27 69 35 70 28 71 34 72 29 73 30 74 31 75
REMARK SMILES IDX 32 76 33 77 56 78 57 79 65 80 58 81 64 82 59 83 60 84 61 85
REMARK SMILES IDX 62 86 63 87 42 88 43 89 51 90 44 91 50 92 45 93 46 94 47 95
REMARK SMILES IDX 48 96 49 97
REMARK H PARENT 70 53 40 64
REMARK Flexibility Score: inf
ROOT
ATOM      1  C   UNL A   1      32.666  29.288  24.622  1.00  0.00     0.188 C 
ENDROOT
BRANCH   1   2
ATOM      2  O   UNL A   1      31.496  28.514  24.393  1.00  0.00    -0.376 OA
BRANCH   2   3
ATOM      3  C   UNL A   1      31.657  27.152  23.999  1.00  0.00     0.202 C 
BRANCH   3   4
ATOM      4  C   UNL A   1      30.441  26.200  24.005  1.00  0.00     0.261 C 
BRANCH   4   5
ATOM      5  O   UNL A   1      30.737  24.855  24.441  1.00  0.00    -0.463 OA
BRANCH   5   6
ATOM      6  C   UNL A   1      30.575  24.584  25.764  1.00  0.00     0.313 C 
ATOM      7  O   UNL A   1      30.467  25.454  26.623  1.00  0.00    -0.252 OA
BRANCH   6   8
ATOM      8  C   UNL A   1      30.462  23.080  26.089  1.00  0.00     0.126 C 
ATOM      9  C   UNL A   1      29.521  22.766  27.264  1.00  0.00     0.025 C 
BRANCH   8  10
ATOM     10  C   UNL A   1      31.792  22.308  26.107  1.00  0.00    -0.033 A 
ATOM     11  C   UNL A   1      32.915  22.799  26.777  1.00  0.00     0.005 A 
ATOM     12  C   UNL A   1      31.975  21.133  25.342  1.00  0.00     0.013 A 
ATOM     13  C   UNL A   1      34.159  22.178  26.661  1.00  0.00     0.004 A 
ATOM     14  C   UNL A   1      33.242  20.509  25.164  1.00  0.00    -0.015 A 
ATOM     15  C   UNL A   1      34.365  21.092  25.794  1.00  0.00    -0.039 A 
BRANCH  14  16
ATOM     16  C   UNL A   1      33.351  19.326  24.278  1.00  0.00    -0.018 A 
ATOM     17  C   UNL A   1      32.525  19.163  23.150  1.00  0.00     0.009 A 
ATOM     18  C   UNL A   1      34.258  18.296  24.574  1.00  0.00     0.009 A 
ATOM     19  C   UNL A   1      32.551  17.986  22.395  1.00  0.00     0.001 A 
ATOM     20  C   UNL A   1      34.303  17.128  23.806  1.00  0.00     0.001 A 
ATOM     21  C   UNL A   1      33.438  16.966  22.728  1.00  0.00     0.000 A 
ENDBRANCH  14  16
BRANCH  15  22
ATOM     22  C   UNL A   1      35.803  20.667  25.525  1.00  0.00     0.047 C 
BRANCH  22  23
ATOM     23  C   UNL A   1      36.661  21.588  24.643  1.00  0.00     0.060 C 
ATOM     24  C   UNL A   1      35.917  22.730  23.946  1.00  0.00     0.012 C 
ATOM     25  C   UNL A   1      37.726  22.324  25.420  1.00  0.00     0.136 C 
ATOM     26  C   UNL A   1      36.154  23.972  24.796  1.00  0.00     0.009 C 
ATOM     27  C   UNL A   1      37.561  23.817  25.359  1.00  0.00     0.076 C 
ATOM     28  O   UNL A   1      38.610  21.767  26.060  1.00  0.00    -0.299 OA
ENDBRANCH  22  23
ENDBRANCH  15  22
ENDBRANCH   8  10
ENDBRANCH   6   8
ENDBRANCH   5   6
ENDBRANCH   4   5
ENDBRANCH   3   4
ENDBRANCH   2   3
ENDBRANCH   1   2
BRANCH   1  29
ATOM     29  C   UNL A   1      32.783  30.057  25.946  1.00  0.00     0.188 C 
BRANCH  29  30
ATOM     30  O   UNL A   1      34.074  30.094  26.505  1.00  0.00    -0.376 OA
BRANCH  30  31
ATOM     31  C   UNL A   1      34.304  30.832  27.691  1.00  0.00     0.202 C 
BRANCH  31  32
ATOM     32  C   UNL A   1      35.604  30.760  28.519  1.00  0.00     0.261 C 
BRANCH  32  33
ATOM     33  O   UNL A   1      36.452  29.616  28.362  1.00  0.00    -0.460 OA
BRANCH  33  34
ATOM     34  C   UNL A   1      37.170  29.227  29.442  1.00  0.00     0.338 C 
ATOM     35  O   UNL A   1      36.732  28.918  30.540  1.00  0.00    -0.246 OA
BRANCH  34  36
ATOM     36  C   UNL A   1      38.562  29.004  28.991  1.00  0.00     0.060 A 
ATOM     37  C   UNL A   1      39.503  28.498  29.899  1.00  0.00     0.016 A 
ATOM     38  C   UNL A   1      38.929  29.261  27.668  1.00  0.00     0.016 A 
ATOM     39  C   UNL A   1      40.818  28.265  29.490  1.00  0.00     0.010 A 
ATOM     40  C   UNL A   1      40.253  29.060  27.271  1.00  0.00     0.010 A 
ATOM     41  C   UNL A   1      41.212  28.589  28.186  1.00  0.00    -0.014 A 
BRANCH  41  42
ATOM     42  C   UNL A   1      42.652  28.621  27.830  1.00  0.00     0.031 A 
ATOM     43  C   UNL A   1      43.254  27.402  27.184  1.00  0.00     0.074 A 
ATOM     44  C   UNL A   1      43.418  29.700  28.078  1.00  0.00     0.049 A 
ATOM     45  N   UNL A   1      44.494  27.171  26.843  1.00  0.00    -0.248 NA
ATOM     46  C   UNL A   1      42.333  26.288  26.902  1.00  0.00     0.031 C 
ATOM     47  C   UNL A   1      42.950  30.946  28.676  1.00  0.00     0.029 A 
ATOM     48  N   UNL A   1      44.756  29.916  27.850  1.00  0.00    -0.354 N 
ATOM     49  C   UNL A   1      44.512  25.874  26.343  1.00  0.00     0.074 A 
ATOM     50  C   UNL A   1      43.160  25.367  26.430  1.00  0.00     0.031 C 
ATOM     51  C   UNL A   1      43.982  31.806  28.751  1.00  0.00     0.029 A 
ATOM     52  C   UNL A   1      45.191  31.159  28.243  1.00  0.00     0.049 A 
ATOM     53  H   UNL A   1      45.348  29.242  27.443  1.00  0.00     0.167 HD
ATOM     54  C   UNL A   1      45.561  25.164  25.867  1.00  0.00     0.031 A 
ATOM     55  C   UNL A   1      46.423  31.709  28.208  1.00  0.00     0.031 A 
ATOM     56  C   UNL A   1      46.908  25.666  25.793  1.00  0.00     0.049 A 
ATOM     57  C   UNL A   1      47.582  30.883  27.703  1.00  0.00     0.074 A 
ATOM     58  C   UNL A   1      48.036  25.028  25.309  1.00  0.00     0.029 A 
ATOM     59  N   UNL A   1      47.312  26.921  26.222  1.00  0.00    -0.354 N 
ATOM     60  N   UNL A   1      47.580  29.666  27.208  1.00  0.00    -0.248 NA
ATOM     61  C   UNL A   1      48.915  31.501  27.762  1.00  0.00     0.031 C 
ATOM     62  C   UNL A   1      49.134  25.870  25.506  1.00  0.00     0.029 A 
ATOM     63  C   UNL A   1      48.678  27.065  26.041  1.00  0.00     0.049 A 
ATOM     64  H   UNL A   1      46.717  27.608  26.599  1.00  0.00     0.167 HD
ATOM     65  C   UNL A   1      48.904  29.384  26.884  1.00  0.00     0.074 A 
ATOM     66  C   UNL A   1      49.675  30.566  27.210  1.00  0.00     0.031 C 
ATOM     67  C   UNL A   1      49.435  28.248  26.366  1.00  0.00     0.031 A 
BRANCH  54  68
ATOM     68  C   UNL A   1      45.304  23.743  25.438  1.00  0.00    -0.014 A 
ATOM     69  C   UNL A   1      44.956  23.425  24.113  1.00  0.00     0.010 A 
ATOM     70  C   UNL A   1      45.455  22.702  26.374  1.00  0.00     0.010 A 
ATOM     71  C   UNL A   1      44.728  22.098  23.741  1.00  0.00     0.020 A 
ATOM     72  C   UNL A   1      45.260  21.371  25.999  1.00  0.00     0.020 A 
ATOM     73  C   UNL A   1      44.882  21.079  24.687  1.00  0.00     0.054 A 
BRANCH  73  74
ATOM     74  S   UNL A   1      44.611  19.363  24.166  1.00  0.00     0.124 S 
ATOM     75  O   UNL A   1      43.349  19.043  24.830  1.00  0.00    -0.237 OA
ATOM     76  O   UNL A   1      44.544  19.478  22.713  1.00  0.00    -0.237 OA
ATOM     77  O   UNL A   1      45.781  18.654  24.680  1.00  0.00    -0.744 OA
ENDBRANCH  73  74
ENDBRANCH  54  68
BRANCH  55  78
ATOM     78  C   UNL A   1      46.643  33.108  28.679  1.00  0.00    -0.014 A 
ATOM     79  C   UNL A   1      46.778  34.162  27.757  1.00  0.00     0.010 A 
ATOM     80  C   UNL A   1      46.741  33.396  30.053  1.00  0.00     0.010 A 
ATOM     81  C   UNL A   1      47.027  35.467  28.195  1.00  0.00     0.020 A 
ATOM     82  C   UNL A   1      46.953  34.706  30.498  1.00  0.00     0.020 A 
ATOM     83  C   UNL A   1      47.109  35.731  29.565  1.00  0.00     0.054 A 
BRANCH  83  84
ATOM     84  S   UNL A   1      47.400  37.437  30.111  1.00  0.00     0.124 S 
ATOM     85  O   UNL A   1      46.335  38.162  29.423  1.00  0.00    -0.237 OA
ATOM     86  O   UNL A   1      47.257  37.339  31.562  1.00  0.00    -0.237 OA
ATOM     87  O   UNL A   1      48.753  37.727  29.642  1.00  0.00    -0.744 OA
ENDBRANCH  83  84
ENDBRANCH  55  78
BRANCH  67  88
ATOM     88  C   UNL A   1      50.916  28.232  26.077  1.00  0.00    -0.014 A 
ATOM     89  C   UNL A   1      51.429  28.646  24.834  1.00  0.00     0.010 A 
ATOM     90  C   UNL A   1      51.815  27.856  27.093  1.00  0.00     0.010 A 
ATOM     91  C   UNL A   1      52.809  28.652  24.603  1.00  0.00     0.020 A 
ATOM     92  C   UNL A   1      53.195  27.892  26.878  1.00  0.00     0.020 A 
ATOM     93  C   UNL A   1      53.683  28.276  25.628  1.00  0.00     0.054 A 
BRANCH  93  94
ATOM     94  S   UNL A   1      55.470  28.333  25.317  1.00  0.00     0.124 S 
ATOM     95  O   UNL A   1      55.589  27.575  24.076  1.00  0.00    -0.237 OA
ATOM     96  O   UNL A   1      55.729  29.766  25.205  1.00  0.00    -0.237 OA
ATOM     97  O   UNL A   1      56.049  27.692  26.496  1.00  0.00    -0.744 OA
ENDBRANCH  93  94
ENDBRANCH  67  88
ENDBRANCH  41  42
ENDBRANCH  34  36
ENDBRANCH  33  34
ENDBRANCH  32  33
ENDBRANCH  31  32
ENDBRANCH  30  31
ENDBRANCH  29  30
ENDBRANCH   1  29
TORSDOF 24
ENDMDL
MODEL 2
REMARK VINA RESULT:     -10.6      2.166      4.151
REMARK SMILES C[C@@H](C(=O)OCCOCCOCCOC(=O)c1ccc(-c2c3nc(c(-c4ccc(S(=O)(=O)[O-])cc4)c4ccc([nH]4)c(-c4ccc(S(=O)(=O)[O-])cc4)c4nc(c(-c5ccc(S(=O)(=O)[O-])cc5)c5ccc2[nH]5)C=C4)C=C3)cc1)c1ccc(C[C@H]2CCCC2=O)c(-c2ccccc2)c1
REMARK SMILES IDX 9 1 8 2 7 3 6 4 5 5 3 6 4 7 2 8 1 9 77 10 78 11 95 12 79 13
REMARK SMILES IDX 88 14 80 15 89 16 90 17 94 18 91 19 93 20 92 21 81 22 82 23
REMARK SMILES IDX 83 24 86 25 84 26 85 27 87 28 10 29 11 30 12 31 13 32 14 33
REMARK SMILES IDX 15 34 16 35 17 36 18 37 76 38 19 39 75 40 20 41 21 42 22 43
REMARK SMILES IDX 69 44 23 45 74 46 68 47 70 48 24 49 73 50 67 51 66 52 25 54
REMARK SMILES IDX 55 55 36 56 54 57 37 58 40 59 53 60 71 61 38 62 39 63 52 65
REMARK SMILES IDX 72 66 41 67 26 68 27 69 35 70 28 71 34 72 29 73 30 74 31 75
REMARK SMILES IDX 32 76 33 77 56 78 57 79 65 80 58 81 64 82 59 83 60 84 61 85
REMARK SMILES IDX 62 86 63 87 42 88 43 89 51 90 44 91 50 92 45 93 46 94 47 95
REMARK SMILES IDX 48 96 49 97
REMARK H PARENT 70 53 40 64
REMARK Flexibility Score: inf
ROOT
ATOM      1  C   UNL A   1      32.948  34.979  29.927  1.00  0.00     0.188 C 
ENDROOT
BRANCH   1   2
ATOM      2  O   UNL A   1      32.657  34.361  28.680  1.00  0.00    -0.376 OA
BRANCH   2   3
ATOM      3  C   UNL A   1      33.736  33.786  27.946  1.00  0.00     0.202 C 
BRANCH   3   4
ATOM      4  C   UNL A   1      34.148  32.321  28.204  1.00  0.00     0.261 C 
BRANCH   4   5
ATOM      5  O   UNL A   1      33.221  31.339  27.692  1.00  0.00    -0.463 OA
BRANCH   5   6
ATOM      6  C   UNL A   1      33.751  30.194  27.184  1.00  0.00     0.313 C 
ATOM      7  O   UNL A   1      34.945  29.914  27.253  1.00  0.00    -0.252 OA
BRANCH   6   8
ATOM      8  C   UNL A   1      32.708  29.232  26.576  1.00  0.00     0.126 C 
ATOM      9  C   UNL A   1      31.660  28.733  27.585  1.00  0.00     0.025 C 
BRANCH   8  10
ATOM     10  C   UNL A   1      33.277  28.146  25.648  1.00  0.00    -0.033 A 
ATOM     11  C   UNL A   1      33.340  28.324  24.264  1.00  0.00     0.005 A 
ATOM     12  C   UNL A   1      33.643  26.872  26.140  1.00  0.00     0.013 A 
ATOM     13  C   UNL A   1      33.709  27.281  23.414  1.00  0.00     0.004 A 
ATOM     14  C   UNL A   1      33.972  25.776  25.293  1.00  0.00    -0.015 A 
ATOM     15  C   UNL A   1      33.940  25.982  23.895  1.00  0.00    -0.039 A 
BRANCH  14  16
ATOM     16  C   UNL A   1      34.265  24.455  25.896  1.00  0.00    -0.018 A 
ATOM     17  C   UNL A   1      35.485  23.789  25.673  1.00  0.00     0.009 A 
ATOM     18  C   UNL A   1      33.300  23.796  26.676  1.00  0.00     0.009 A 
ATOM     19  C   UNL A   1      35.701  22.490  26.143  1.00  0.00     0.001 A 
ATOM     20  C   UNL A   1      33.522  22.507  27.168  1.00  0.00     0.001 A 
ATOM     21  C   UNL A   1      34.716  21.847  26.887  1.00  0.00     0.000 A 
ENDBRANCH  14  16
BRANCH  15  22
ATOM     22  C   UNL A   1      34.059  24.860  22.870  1.00  0.00     0.047 C 
BRANCH  22  23
ATOM     23  C   UNL A   1      32.758  24.184  22.407  1.00  0.00     0.060 C 
ATOM     24  C   UNL A   1      32.169  23.142  23.362  1.00  0.00     0.012 C 
ATOM     25  C   UNL A   1      31.614  25.155  22.244  1.00  0.00     0.136 C 
ATOM     26  C   UNL A   1      31.065  23.852  24.135  1.00  0.00     0.009 C 
ATOM     27  C   UNL A   1      30.458  24.848  23.156  1.00  0.00     0.076 C 
ATOM     28  O   UNL A   1      31.635  26.110  21.477  1.00  0.00    -0.299 OA
ENDBRANCH  22  23
ENDBRANCH  15  22
ENDBRANCH   8  10
ENDBRANCH   6   8
ENDBRANCH   5   6
ENDBRANCH   4   5
ENDBRANCH   3   4
ENDBRANCH   2   3
ENDBRANCH   1   2
BRANCH   1  29
ATOM     29  C   UNL A   1      34.417  35.077  30.366  1.00  0.00     0.188 C 
BRANCH  29  30
ATOM     30  O   UNL A   1      34.704  34.516  31.624  1.00  0.00    -0.376 OA
BRANCH  30  31
ATOM     31  C   UNL A   1      35.159  33.178  31.707  1.00  0.00     0.202 C 
BRANCH  31  32
ATOM     32  C   UNL A   1      36.507  32.683  31.142  1.00  0.00     0.261 C 
BRANCH  32  33
ATOM     33  O   UNL A   1      36.532  31.450  30.411  1.00  0.00    -0.460 OA
BRANCH  33  34
ATOM     34  C   UNL A   1      36.932  30.344  31.081  1.00  0.00     0.338 C 
ATOM     35  O   UNL A   1      36.290  29.718  31.911  1.00  0.00    -0.246 OA
BRANCH  34  36
ATOM     36  C   UNL A   1      38.191  29.880  30.456  1.00  0.00     0.060 A 
ATOM     37  C   UNL A   1      39.200  29.340  31.267  1.00  0.00     0.016 A 
ATOM     38  C   UNL A   1      38.362  29.946  29.071  1.00  0.00     0.016 A 
ATOM     39  C   UNL A   1      40.389  28.882  30.696  1.00  0.00     0.010 A 
ATOM     40  C   UNL A   1      39.566  29.519  28.507  1.00  0.00     0.010 A 
ATOM     41  C   UNL A   1      40.597  29.012  29.318  1.00  0.00    -0.014 A 
BRANCH  41  42
ATOM     42  C   UNL A   1      41.951  28.801  28.747  1.00  0.00     0.031 A 
ATOM     43  C   UNL A   1      42.301  27.433  28.228  1.00  0.00     0.074 A 
ATOM     44  C   UNL A   1      42.858  29.794  28.694  1.00  0.00     0.049 A 
ATOM     45  N   UNL A   1      43.433  26.993  27.745  1.00  0.00    -0.248 NA
ATOM     46  C   UNL A   1      41.232  26.421  28.277  1.00  0.00     0.031 C 
ATOM     47  C   UNL A   1      42.634  31.165  29.141  1.00  0.00     0.029 A 
ATOM     48  N   UNL A   1      44.153  29.797  28.234  1.00  0.00    -0.354 N 
ATOM     49  C   UNL A   1      43.228  25.646  27.470  1.00  0.00     0.074 A 
ATOM     50  C   UNL A   1      41.864  25.340  27.844  1.00  0.00     0.031 C 
ATOM     51  C   UNL A   1      43.749  31.883  28.916  1.00  0.00     0.029 A 
ATOM     52  C   UNL A   1      44.778  31.016  28.345  1.00  0.00     0.049 A 
ATOM     53  H   UNL A   1      44.592  28.999  27.859  1.00  0.00     0.167 HD
ATOM     54  C   UNL A   1      44.099  24.742  26.965  1.00  0.00     0.031 A 
ATOM     55  C   UNL A   1      46.037  31.388  28.033  1.00  0.00     0.031 A 
ATOM     56  C   UNL A   1      45.460  25.046  26.605  1.00  0.00     0.049 A 
ATOM     57  C   UNL A   1      46.999  30.352  27.502  1.00  0.00     0.074 A 
ATOM     58  C   UNL A   1      46.414  24.201  26.068  1.00  0.00     0.029 A 
ATOM     59  N   UNL A   1      46.061  26.287  26.754  1.00  0.00    -0.354 N 
ATOM     60  N   UNL A   1      46.784  29.087  27.221  1.00  0.00    -0.248 NA
ATOM     61  C   UNL A   1      48.380  30.791  27.255  1.00  0.00     0.031 C 
ATOM     62  C   UNL A   1      47.612  24.912  25.955  1.00  0.00     0.029 A 
ATOM     63  C   UNL A   1      47.384  26.222  26.347  1.00  0.00     0.049 A 
ATOM     64  H   UNL A   1      45.616  27.094  27.099  1.00  0.00     0.167 HD
ATOM     65  C   UNL A   1      47.995  28.589  26.751  1.00  0.00     0.074 A 
ATOM     66  C   UNL A   1      48.932  29.693  26.756  1.00  0.00     0.031 C 
ATOM     67  C   UNL A   1      48.307  27.329  26.354  1.00  0.00     0.031 A 
BRANCH  54  68
ATOM     68  C   UNL A   1      43.623  23.320  26.821  1.00  0.00    -0.014 A 
ATOM     69  C   UNL A   1      43.074  22.614  27.906  1.00  0.00     0.010 A 
ATOM     70  C   UNL A   1      43.692  22.694  25.562  1.00  0.00     0.010 A 
ATOM     71  C   UNL A   1      42.636  21.297  27.743  1.00  0.00     0.020 A 
ATOM     72  C   UNL A   1      43.226  21.389  25.387  1.00  0.00     0.020 A 
ATOM     73  C   UNL A   1      42.714  20.694  26.484  1.00  0.00     0.054 A 
BRANCH  73  74
ATOM     74  S   UNL A   1      42.108  18.994  26.297  1.00  0.00     0.124 S 
ATOM     75  O   UNL A   1      40.746  19.211  25.816  1.00  0.00    -0.237 OA
ATOM     76  O   UNL A   1      43.036  18.432  25.321  1.00  0.00    -0.237 OA
ATOM     77  O   UNL A   1      42.211  18.438  27.644  1.00  0.00    -0.744 OA
ENDBRANCH  73  74
ENDBRANCH  54  68
BRANCH  55  78
ATOM     78  C   UNL A   1      46.482  32.799  28.227  1.00  0.00    -0.014 A 
ATOM     79  C   UNL A   1      46.451  33.714  27.159  1.00  0.00     0.010 A 
ATOM     80  C   UNL A   1      46.959  33.236  29.477  1.00  0.00     0.010 A 
ATOM     81  C   UNL A   1      46.908  35.025  27.328  1.00  0.00     0.020 A 
ATOM     82  C   UNL A   1      47.382  34.557  29.661  1.00  0.00     0.020 A 
ATOM     83  C   UNL A   1      47.367  35.440  28.580  1.00  0.00     0.054 A 
BRANCH  83  84
ATOM     84  S   UNL A   1      47.923  37.156  28.785  1.00  0.00     0.124 S 
ATOM     85  O   UNL A   1      49.224  36.978  29.425  1.00  0.00    -0.237 OA
ATOM     86  O   UNL A   1      47.960  37.648  27.410  1.00  0.00    -0.237 OA
ATOM     87  O   UNL A   1      46.893  37.757  29.628  1.00  0.00    -0.744 OA
ENDBRANCH  83  84
ENDBRANCH  55  78
BRANCH  67  88
ATOM     88  C   UNL A   1      49.707  27.076  25.850  1.00  0.00    -0.014 A 
ATOM     89  C   UNL A   1      50.682  26.467  26.662  1.00  0.00     0.010 A 
ATOM     90  C   UNL A   1      50.032  27.394  24.518  1.00  0.00     0.010 A 
ATOM     91  C   UNL A   1      51.963  26.213  26.160  1.00  0.00     0.020 A 
ATOM     92  C   UNL A   1      51.299  27.112  24.003  1.00  0.00     0.020 A 
ATOM     93  C   UNL A   1      52.263  26.536  24.833  1.00  0.00     0.054 A 
BRANCH  93  94
ATOM     94  S   UNL A   1      53.918  26.157  24.193  1.00  0.00     0.124 S 
ATOM     95  O   UNL A   1      53.692  26.140  22.751  1.00  0.00    -0.237 OA
ATOM     96  O   UNL A   1      54.717  27.274  24.692  1.00  0.00    -0.237 OA
ATOM     97  O   UNL A   1      54.232  24.859  24.789  1.00  0.00    -0.744 OA
ENDBRANCH  93  94
ENDBRANCH  67  88
ENDBRANCH  41  42
ENDBRANCH  34  36
ENDBRANCH  33  34
ENDBRANCH  32  33
ENDBRANCH  31  32
ENDBRANCH  30  31
ENDBRANCH  29  30
ENDBRANCH   1  29
TORSDOF 24
ENDMDL
MODEL 3
REMARK VINA RESULT:     -10.6      1.978      8.464
REMARK SMILES C[C@@H](C(=O)OCCOCCOCCOC(=O)c1ccc(-c2c3nc(c(-c4ccc(S(=O)(=O)[O-])cc4)c4ccc([nH]4)c(-c4ccc(S(=O)(=O)[O-])cc4)c4nc(c(-c5ccc(S(=O)(=O)[O-])cc5)c5ccc2[nH]5)C=C4)C=C3)cc1)c1ccc(C[C@H]2CCCC2=O)c(-c2ccccc2)c1
REMARK SMILES IDX 9 1 8 2 7 3 6 4 5 5 3 6 4 7 2 8 1 9 77 10 78 11 95 12 79 13
REMARK SMILES IDX 88 14 80 15 89 16 90 17 94 18 91 19 93 20 92 21 81 22 82 23
REMARK SMILES IDX 83 24 86 25 84 26 85 27 87 28 10 29 11 30 12 31 13 32 14 33
REMARK SMILES IDX 15 34 16 35 17 36 18 37 76 38 19 39 75 40 20 41 21 42 22 43
REMARK SMILES IDX 69 44 23 45 74 46 68 47 70 48 24 49 73 50 67 51 66 52 25 54
REMARK SMILES IDX 55 55 36 56 54 57 37 58 40 59 53 60 71 61 38 62 39 63 52 65
REMARK SMILES IDX 72 66 41 67 26 68 27 69 35 70 28 71 34 72 29 73 30 74 31 75
REMARK SMILES IDX 32 76 33 77 56 78 57 79 65 80 58 81 64 82 59 83 60 84 61 85
REMARK SMILES IDX 62 86 63 87 42 88 43 89 51 90 44 91 50 92 45 93 46 94 47 95
REMARK SMILES IDX 48 96 49 97
REMARK H PARENT 70 53 40 64
REMARK Flexibility Score: inf
ROOT
ATOM      1  C   UNL A   1      32.923  30.790  27.350  1.00  0.00     0.188 C 
ENDROOT
BRANCH   1   2
ATOM      2  O   UNL A   1      32.098  31.728  26.671  1.00  0.00    -0.376 OA
BRANCH   2   3
ATOM      3  C   UNL A   1      31.082  31.227  25.804  1.00  0.00     0.202 C 
BRANCH   3   4
ATOM      4  C   UNL A   1      31.234  29.829  25.168  1.00  0.00     0.261 C 
BRANCH   4   5
ATOM      5  O   UNL A   1      30.615  29.691  23.870  1.00  0.00    -0.463 OA
BRANCH   5   6
ATOM      6  C   UNL A   1      31.098  28.715  23.055  1.00  0.00     0.313 C 
ATOM      7  O   UNL A   1      30.493  28.295  22.073  1.00  0.00    -0.252 OA
BRANCH   6   8
ATOM      8  C   UNL A   1      32.515  28.229  23.426  1.00  0.00     0.126 C 
ATOM      9  C   UNL A   1      33.558  28.445  22.316  1.00  0.00     0.025 C 
BRANCH   8  10
ATOM     10  C   UNL A   1      32.580  26.853  24.111  1.00  0.00    -0.033 A 
ATOM     11  C   UNL A   1      31.559  26.405  24.952  1.00  0.00     0.005 A 
ATOM     12  C   UNL A   1      33.731  26.037  24.021  1.00  0.00     0.013 A 
ATOM     13  C   UNL A   1      31.693  25.230  25.693  1.00  0.00     0.004 A 
ATOM     14  C   UNL A   1      33.915  24.862  24.803  1.00  0.00    -0.015 A 
ATOM     15  C   UNL A   1      32.890  24.495  25.704  1.00  0.00    -0.039 A 
BRANCH  14  16
ATOM     16  C   UNL A   1      35.189  24.113  24.700  1.00  0.00    -0.018 A 
ATOM     17  C   UNL A   1      35.541  23.400  23.538  1.00  0.00     0.009 A 
ATOM     18  C   UNL A   1      36.070  24.050  25.792  1.00  0.00     0.009 A 
ATOM     19  C   UNL A   1      36.685  22.596  23.498  1.00  0.00     0.001 A 
ATOM     20  C   UNL A   1      37.227  23.266  25.746  1.00  0.00     0.001 A 
ATOM     21  C   UNL A   1      37.525  22.525  24.605  1.00  0.00     0.000 A 
ENDBRANCH  14  16
BRANCH  15  22
ATOM     22  C   UNL A   1      33.034  23.396  26.750  1.00  0.00     0.047 C 
BRANCH  22  23
ATOM     23  C   UNL A   1      32.572  21.983  26.360  1.00  0.00     0.060 C 
ATOM     24  C   UNL A   1      31.532  21.904  25.238  1.00  0.00     0.012 C 
ATOM     25  C   UNL A   1      33.691  21.124  25.823  1.00  0.00     0.136 C 
ATOM     26  C   UNL A   1      32.305  21.580  23.967  1.00  0.00     0.009 C 
ATOM     27  C   UNL A   1      33.453  20.681  24.406  1.00  0.00     0.076 C 
ATOM     28  O   UNL A   1      34.700  20.844  26.458  1.00  0.00    -0.299 OA
ENDBRANCH  22  23
ENDBRANCH  15  22
ENDBRANCH   8  10
ENDBRANCH   6   8
ENDBRANCH   5   6
ENDBRANCH   4   5
ENDBRANCH   3   4
ENDBRANCH   2   3
ENDBRANCH   1   2
BRANCH   1  29
ATOM     29  C   UNL A   1      34.390  31.162  27.609  1.00  0.00     0.188 C 
BRANCH  29  30
ATOM     30  O   UNL A   1      34.660  32.543  27.642  1.00  0.00    -0.376 OA
BRANCH  30  31
ATOM     31  C   UNL A   1      34.402  33.279  28.824  1.00  0.00     0.202 C 
BRANCH  31  32
ATOM     32  C   UNL A   1      34.756  32.791  30.245  1.00  0.00     0.261 C 
BRANCH  32  33
ATOM     33  O   UNL A   1      35.630  31.664  30.382  1.00  0.00    -0.460 OA
BRANCH  33  34
ATOM     34  C   UNL A   1      36.593  31.742  31.331  1.00  0.00     0.338 C 
ATOM     35  O   UNL A   1      36.457  32.127  32.483  1.00  0.00    -0.246 OA
BRANCH  34  36
ATOM     36  C   UNL A   1      37.790  31.048  30.804  1.00  0.00     0.060 A 
ATOM     37  C   UNL A   1      38.739  30.542  31.705  1.00  0.00     0.016 A 
ATOM     38  C   UNL A   1      37.957  30.867  29.430  1.00  0.00     0.016 A 
ATOM     39  C   UNL A   1      39.868  29.871  31.230  1.00  0.00     0.010 A 
ATOM     40  C   UNL A   1      39.105  30.225  28.956  1.00  0.00     0.010 A 
ATOM     41  C   UNL A   1      40.080  29.749  29.851  1.00  0.00    -0.014 A 
BRANCH  41  42
ATOM     42  C   UNL A   1      41.399  29.302  29.338  1.00  0.00     0.031 A 
ATOM     43  C   UNL A   1      42.528  30.296  29.313  1.00  0.00     0.074 A 
ATOM     44  C   UNL A   1      41.596  28.046  28.895  1.00  0.00     0.049 A 
ATOM     45  N   UNL A   1      43.744  30.158  28.854  1.00  0.00    -0.248 NA
ATOM     46  C   UNL A   1      42.239  31.630  29.864  1.00  0.00     0.031 C 
ATOM     47  C   UNL A   1      40.592  26.987  28.889  1.00  0.00     0.029 A 
ATOM     48  N   UNL A   1      42.717  27.452  28.367  1.00  0.00    -0.354 N 
ATOM     49  C   UNL A   1      44.353  31.397  29.024  1.00  0.00     0.074 A 
ATOM     50  C   UNL A   1      43.371  32.274  29.623  1.00  0.00     0.031 C 
ATOM     51  C   UNL A   1      41.148  25.865  28.399  1.00  0.00     0.029 A 
ATOM     52  C   UNL A   1      42.534  26.134  28.021  1.00  0.00     0.049 A 
ATOM     53  H   UNL A   1      43.572  27.927  28.248  1.00  0.00     0.167 HD
ATOM     54  C   UNL A   1      45.612  31.773  28.699  1.00  0.00     0.031 A 
ATOM     55  C   UNL A   1      43.382  25.251  27.454  1.00  0.00     0.031 A 
ATOM     56  C   UNL A   1      46.583  30.902  28.091  1.00  0.00     0.049 A 
ATOM     57  C   UNL A   1      44.771  25.707  27.071  1.00  0.00     0.074 A 
ATOM     58  C   UNL A   1      47.890  31.187  27.741  1.00  0.00     0.029 A 
ATOM     59  N   UNL A   1      46.352  29.582  27.735  1.00  0.00    -0.354 N 
ATOM     60  N   UNL A   1      45.342  26.873  27.262  1.00  0.00    -0.248 NA
ATOM     61  C   UNL A   1      45.625  24.728  26.383  1.00  0.00     0.031 C 
ATOM     62  C   UNL A   1      48.430  30.062  27.112  1.00  0.00     0.029 A 
ATOM     63  C   UNL A   1      47.485  29.048  27.141  1.00  0.00     0.049 A 
ATOM     64  H   UNL A   1      45.509  29.096  27.882  1.00  0.00     0.167 HD
ATOM     65  C   UNL A   1      46.625  26.760  26.734  1.00  0.00     0.074 A 
ATOM     66  C   UNL A   1      46.757  25.404  26.242  1.00  0.00     0.031 C 
ATOM     67  C   UNL A   1      47.606  27.695  26.658  1.00  0.00     0.031 A 
BRANCH  54  68
ATOM     68  C   UNL A   1      45.995  33.210  28.944  1.00  0.00    -0.014 A 
ATOM     69  C   UNL A   1      46.591  33.617  30.150  1.00  0.00     0.010 A 
ATOM     70  C   UNL A   1      45.790  34.161  27.927  1.00  0.00     0.010 A 
ATOM     71  C   UNL A   1      46.942  34.955  30.349  1.00  0.00     0.020 A 
ATOM     72  C   UNL A   1      46.168  35.493  28.109  1.00  0.00     0.020 A 
ATOM     73  C   UNL A   1      46.728  35.884  29.326  1.00  0.00     0.054 A 
BRANCH  73  74
ATOM     74  S   UNL A   1      47.222  37.608  29.602  1.00  0.00     0.124 S 
ATOM     75  O   UNL A   1      48.527  37.655  28.949  1.00  0.00    -0.237 OA
ATOM     76  O   UNL A   1      46.159  38.354  28.935  1.00  0.00    -0.237 OA
ATOM     77  O   UNL A   1      47.249  37.733  31.058  1.00  0.00    -0.744 OA
ENDBRANCH  73  74
ENDBRANCH  54  68
BRANCH  55  78
ATOM     78  C   UNL A   1      42.951  23.846  27.192  1.00  0.00    -0.014 A 
ATOM     79  C   UNL A   1      43.166  22.840  28.151  1.00  0.00     0.010 A 
ATOM     80  C   UNL A   1      42.341  23.499  25.973  1.00  0.00     0.010 A 
ATOM     81  C   UNL A   1      42.801  21.515  27.889  1.00  0.00     0.020 A 
ATOM     82  C   UNL A   1      41.940  22.181  25.721  1.00  0.00     0.020 A 
ATOM     83  C   UNL A   1      42.186  21.194  26.676  1.00  0.00     0.054 A 
BRANCH  83  84
ATOM     84  S   UNL A   1      41.691  19.475  26.372  1.00  0.00     0.124 S 
ATOM     85  O   UNL A   1      41.777  18.894  27.709  1.00  0.00    -0.237 OA
ATOM     86  O   UNL A   1      40.341  19.620  25.834  1.00  0.00    -0.237 OA
ATOM     87  O   UNL A   1      42.687  18.990  25.419  1.00  0.00    -0.744 OA
ENDBRANCH  83  84
ENDBRANCH  55  78
BRANCH  67  88
ATOM     88  C   UNL A   1      48.928  27.282  26.059  1.00  0.00    -0.014 A 
ATOM     89  C   UNL A   1      49.171  27.373  24.676  1.00  0.00     0.010 A 
ATOM     90  C   UNL A   1      49.969  26.857  26.906  1.00  0.00     0.010 A 
ATOM     91  C   UNL A   1      50.416  27.015  24.150  1.00  0.00     0.020 A 
ATOM     92  C   UNL A   1      51.225  26.530  26.390  1.00  0.00     0.020 A 
ATOM     93  C   UNL A   1      51.436  26.597  25.012  1.00  0.00     0.054 A 
BRANCH  93  94
ATOM     94  S   UNL A   1      53.056  26.179  24.309  1.00  0.00     0.124 S 
ATOM     95  O   UNL A   1      53.232  24.798  24.746  1.00  0.00    -0.237 OA
ATOM     96  O   UNL A   1      52.841  26.363  22.876  1.00  0.00    -0.237 OA
ATOM     97  O   UNL A   1      53.962  27.147  24.926  1.00  0.00    -0.744 OA
ENDBRANCH  93  94
ENDBRANCH  67  88
ENDBRANCH  41  42
ENDBRANCH  34  36
ENDBRANCH  33  34
ENDBRANCH  32  33
ENDBRANCH  31  32
ENDBRANCH  30  31
ENDBRANCH  29  30
ENDBRANCH   1  29
TORSDOF 24
ENDMDL
