MODEL 1
REMARK VINA RESULT:     -10.2      0.000      0.000
REMARK SMILES O=C(OCCOCCOCCOC(=O)[C@@H]1CC[C@@H](CN2C(=O)CC3(CCCC3)CC2=O)O1)c1ccc(-c2c3nc(c(-c4ccc(S(=O)(=O)[O-])cc4)c4ccc([nH]4)c(-c4ccc(S(=O)(=O)[O-])cc4)c4nc(c(-c5ccc(S(=O)(=O)[O-])cc5)c5ccc2[nH]5)C=C4)C=C3)cc1
REMARK SMILES IDX 7 1 6 2 5 3 4 4 3 5 2 6 1 7 33 8 34 9 92 10 35 11 91 12
REMARK SMILES IDX 36 13 37 14 38 15 85 16 39 17 90 18 84 19 86 20 40 21 89 22
REMARK SMILES IDX 83 23 82 24 41 26 71 27 52 28 70 29 53 30 56 31 69 32 87 33
REMARK SMILES IDX 54 34 55 35 68 37 88 38 57 39 42 40 43 41 51 42 44 43 50 44
REMARK SMILES IDX 45 45 46 46 47 47 48 48 49 49 72 50 73 51 81 52 74 53 80 54
REMARK SMILES IDX 75 55 76 56 77 57 78 58 79 59 58 60 59 61 67 62 60 63 66 64
REMARK SMILES IDX 61 65 62 66 63 67 64 68 65 69 8 70 9 71 10 72 11 73 12 74
REMARK SMILES IDX 13 75 14 76 15 77 16 78 32 79 17 80 18 81 19 82 20 83 21 84
REMARK SMILES IDX 30 85 22 86 23 87 29 88 31 89 24 90 25 91 28 92 26 93 27 94
REMARK H PARENT 86 25 56 36
REMARK Flexibility Score: inf
ROOT
ATOM      1  C   UNL A   1      44.179  20.299  25.138  1.00  0.00     0.188 C 
ENDROOT
BRANCH   1   2
ATOM      2  O   UNL A   1      44.450  21.542  25.791  1.00  0.00    -0.376 OA
BRANCH   2   3
ATOM      3  C   UNL A   1      43.936  22.696  25.116  1.00  0.00     0.202 C 
BRANCH   3   4
ATOM      4  C   UNL A   1      42.811  23.484  25.819  1.00  0.00     0.261 C 
BRANCH   4   5
ATOM      5  O   UNL A   1      43.128  24.859  26.101  1.00  0.00    -0.460 OA
BRANCH   5   6
ATOM      6  C   UNL A   1      42.277  25.910  26.258  1.00  0.00     0.338 C 
ATOM      7  O   UNL A   1      41.676  26.321  25.267  1.00  0.00    -0.246 OA
BRANCH   6   8
ATOM      8  C   UNL A   1      42.053  26.590  27.574  1.00  0.00     0.060 A 
ATOM      9  C   UNL A   1      40.997  26.310  28.437  1.00  0.00     0.016 A 
ATOM     10  C   UNL A   1      42.982  27.550  27.993  1.00  0.00     0.016 A 
ATOM     11  C   UNL A   1      40.764  27.028  29.595  1.00  0.00     0.010 A 
ATOM     12  C   UNL A   1      42.815  28.215  29.216  1.00  0.00     0.010 A 
ATOM     13  C   UNL A   1      41.675  27.978  30.007  1.00  0.00    -0.014 A 
BRANCH  13  14
ATOM     14  C   UNL A   1      41.376  28.795  31.199  1.00  0.00     0.031 A 
ATOM     15  C   UNL A   1      40.395  29.904  31.043  1.00  0.00     0.074 A 
ATOM     16  C   UNL A   1      41.866  28.507  32.421  1.00  0.00     0.049 A 
ATOM     17  N   UNL A   1      40.052  30.810  31.912  1.00  0.00    -0.248 NA
ATOM     18  C   UNL A   1      39.631  29.941  29.782  1.00  0.00     0.031 C 
ATOM     19  C   UNL A   1      42.538  27.271  32.805  1.00  0.00     0.029 A 
ATOM     20  N   UNL A   1      41.940  29.264  33.562  1.00  0.00    -0.354 N 
ATOM     21  C   UNL A   1      38.985  31.475  31.336  1.00  0.00     0.074 A 
ATOM     22  C   UNL A   1      38.804  30.948  30.003  1.00  0.00     0.031 C 
ATOM     23  C   UNL A   1      43.139  27.430  33.994  1.00  0.00     0.029 A 
ATOM     24  C   UNL A   1      42.859  28.768  34.465  1.00  0.00     0.049 A 
ATOM     25  H   UNL A   1      41.398  30.071  33.720  1.00  0.00     0.167 HD
ATOM     26  C   UNL A   1      38.191  32.400  31.912  1.00  0.00     0.031 A 
ATOM     27  C   UNL A   1      43.441  29.348  35.528  1.00  0.00     0.031 A 
ATOM     28  C   UNL A   1      38.435  32.922  33.226  1.00  0.00     0.049 A 
ATOM     29  C   UNL A   1      42.812  30.617  35.999  1.00  0.00     0.074 A 
ATOM     30  C   UNL A   1      37.746  33.904  33.906  1.00  0.00     0.029 A 
ATOM     31  N   UNL A   1      39.477  32.511  34.051  1.00  0.00    -0.354 N 
ATOM     32  N   UNL A   1      41.821  31.273  35.446  1.00  0.00    -0.248 NA
ATOM     33  C   UNL A   1      43.275  31.159  37.277  1.00  0.00     0.031 C 
ATOM     34  C   UNL A   1      38.418  34.140  35.111  1.00  0.00     0.029 A 
ATOM     35  C   UNL A   1      39.483  33.256  35.214  1.00  0.00     0.049 A 
ATOM     36  H   UNL A   1      40.117  31.794  33.836  1.00  0.00     0.167 HD
ATOM     37  C   UNL A   1      41.461  32.245  36.360  1.00  0.00     0.074 A 
ATOM     38  C   UNL A   1      42.381  32.119  37.478  1.00  0.00     0.031 C 
ATOM     39  C   UNL A   1      40.427  33.118  36.299  1.00  0.00     0.031 A 
BRANCH  26  40
ATOM     40  C   UNL A   1      37.043  32.899  31.087  1.00  0.00    -0.014 A 
ATOM     41  C   UNL A   1      37.256  33.748  29.983  1.00  0.00     0.010 A 
ATOM     42  C   UNL A   1      35.731  32.571  31.461  1.00  0.00     0.010 A 
ATOM     43  C   UNL A   1      36.171  34.292  29.293  1.00  0.00     0.020 A 
ATOM     44  C   UNL A   1      34.645  33.092  30.756  1.00  0.00     0.020 A 
ATOM     45  C   UNL A   1      34.871  33.963  29.687  1.00  0.00     0.054 A 
BRANCH  45  46
ATOM     46  S   UNL A   1      33.480  34.678  28.772  1.00  0.00     0.124 S 
ATOM     47  O   UNL A   1      33.169  33.616  27.816  1.00  0.00    -0.237 OA
ATOM     48  O   UNL A   1      32.484  34.891  29.818  1.00  0.00    -0.237 OA
ATOM     49  O   UNL A   1      34.039  35.896  28.189  1.00  0.00    -0.744 OA
ENDBRANCH  45  46
ENDBRANCH  26  40
BRANCH  27  50
ATOM     50  C   UNL A   1      44.604  28.722  36.213  1.00  0.00    -0.014 A 
ATOM     51  C   UNL A   1      44.429  27.834  37.286  1.00  0.00     0.010 A 
ATOM     52  C   UNL A   1      45.915  29.023  35.788  1.00  0.00     0.010 A 
ATOM     53  C   UNL A   1      45.536  27.284  37.942  1.00  0.00     0.020 A 
ATOM     54  C   UNL A   1      47.025  28.466  36.434  1.00  0.00     0.020 A 
ATOM     55  C   UNL A   1      46.828  27.607  37.516  1.00  0.00     0.054 A 
BRANCH  55  56
ATOM     56  S   UNL A   1      48.242  26.870  38.387  1.00  0.00     0.124 S 
ATOM     57  O   UNL A   1      49.188  26.642  37.301  1.00  0.00    -0.237 OA
ATOM     58  O   UNL A   1      48.605  27.923  39.333  1.00  0.00    -0.237 OA
ATOM     59  O   UNL A   1      47.681  25.665  38.995  1.00  0.00    -0.744 OA
ENDBRANCH  55  56
ENDBRANCH  27  50
BRANCH  39  60
ATOM     60  C   UNL A   1      40.215  33.978  37.505  1.00  0.00    -0.014 A 
ATOM     61  C   UNL A   1      40.890  35.200  37.652  1.00  0.00     0.010 A 
ATOM     62  C   UNL A   1      39.277  33.575  38.473  1.00  0.00     0.010 A 
ATOM     63  C   UNL A   1      40.645  35.999  38.766  1.00  0.00     0.020 A 
ATOM     64  C   UNL A   1      39.004  34.390  39.569  1.00  0.00     0.020 A 
ATOM     65  C   UNL A   1      39.697  35.593  39.711  1.00  0.00     0.054 A 
BRANCH  65  66
ATOM     66  S   UNL A   1      39.344  36.690  41.107  1.00  0.00     0.124 S 
ATOM     67  O   UNL A   1      38.503  35.846  41.950  1.00  0.00    -0.237 OA
ATOM     68  O   UNL A   1      40.678  36.975  41.632  1.00  0.00    -0.237 OA
ATOM     69  O   UNL A   1      38.669  37.829  40.489  1.00  0.00    -0.744 OA
ENDBRANCH  65  66
ENDBRANCH  39  60
ENDBRANCH  13  14
ENDBRANCH   6   8
ENDBRANCH   5   6
ENDBRANCH   4   5
ENDBRANCH   3   4
ENDBRANCH   2   3
ENDBRANCH   1   2
BRANCH   1  70
ATOM     70  C   UNL A   1      43.067  19.485  25.800  1.00  0.00     0.188 C 
BRANCH  70  71
ATOM     71  O   UNL A   1      41.723  19.793  25.434  1.00  0.00    -0.376 OA
BRANCH  71  72
ATOM     72  C   UNL A   1      40.804  20.040  26.491  1.00  0.00     0.202 C 
BRANCH  72  73
ATOM     73  C   UNL A   1      39.968  21.331  26.451  1.00  0.00     0.261 C 
BRANCH  73  74
ATOM     74  O   UNL A   1      38.751  21.260  25.695  1.00  0.00    -0.461 OA
BRANCH  74  75
ATOM     75  C   UNL A   1      37.977  22.379  25.752  1.00  0.00     0.335 C 
ATOM     76  O   UNL A   1      38.305  23.428  26.300  1.00  0.00    -0.249 OA
BRANCH  75  77
ATOM     77  C   UNL A   1      36.638  22.230  25.015  1.00  0.00     0.228 C 
ATOM     78  C   UNL A   1      36.828  22.604  23.551  1.00  0.00     0.047 C 
ATOM     79  O   UNL A   1      35.465  22.916  25.468  1.00  0.00    -0.361 OA
ATOM     80  C   UNL A   1      35.431  22.936  23.098  1.00  0.00     0.037 C 
ATOM     81  C   UNL A   1      34.871  23.600  24.342  1.00  0.00     0.139 C 
BRANCH  81  82
ATOM     82  C   UNL A   1      33.324  23.679  24.420  1.00  0.00     0.160 C 
BRANCH  82  83
ATOM     83  N   UNL A   1      32.878  24.967  23.937  1.00  0.00    -0.280 N 
ATOM     84  C   UNL A   1      32.604  25.144  22.598  1.00  0.00     0.229 C 
ATOM     85  C   UNL A   1      32.834  26.013  24.825  1.00  0.00     0.229 C 
ATOM     86  O   UNL A   1      33.162  24.530  21.694  1.00  0.00    -0.274 OA
ATOM     87  C   UNL A   1      31.429  26.050  22.314  1.00  0.00     0.108 C 
ATOM     88  C   UNL A   1      31.522  26.722  24.777  1.00  0.00     0.108 C 
ATOM     89  O   UNL A   1      33.705  26.288  25.650  1.00  0.00    -0.274 OA
ATOM     90  C   UNL A   1      31.142  27.143  23.360  1.00  0.00    -0.012 C 
ATOM     91  C   UNL A   1      29.626  27.481  23.334  1.00  0.00     0.008 C 
ATOM     92  C   UNL A   1      31.858  28.459  22.985  1.00  0.00     0.008 C 
ATOM     93  C   UNL A   1      29.546  28.987  23.171  1.00  0.00     0.001 C 
ATOM     94  C   UNL A   1      30.775  29.315  22.344  1.00  0.00     0.001 C 
ENDBRANCH  82  83
ENDBRANCH  81  82
ENDBRANCH  75  77
ENDBRANCH  74  75
ENDBRANCH  73  74
ENDBRANCH  72  73
ENDBRANCH  71  72
ENDBRANCH  70  71
ENDBRANCH   1  70
TORSDOF 22
ENDMDL
MODEL 2
REMARK VINA RESULT:     -10.2      1.369      8.299
REMARK SMILES O=C(OCCOCCOCCOC(=O)[C@@H]1CC[C@@H](CN2C(=O)CC3(CCCC3)CC2=O)O1)c1ccc(-c2c3nc(c(-c4ccc(S(=O)(=O)[O-])cc4)c4ccc([nH]4)c(-c4ccc(S(=O)(=O)[O-])cc4)c4nc(c(-c5ccc(S(=O)(=O)[O-])cc5)c5ccc2[nH]5)C=C4)C=C3)cc1
REMARK SMILES IDX 7 1 6 2 5 3 4 4 3 5 2 6 1 7 33 8 34 9 92 10 35 11 91 12
REMARK SMILES IDX 36 13 37 14 38 15 85 16 39 17 90 18 84 19 86 20 40 21 89 22
REMARK SMILES IDX 83 23 82 24 41 26 71 27 52 28 70 29 53 30 56 31 69 32 87 33
REMARK SMILES IDX 54 34 55 35 68 37 88 38 57 39 42 40 43 41 51 42 44 43 50 44
REMARK SMILES IDX 45 45 46 46 47 47 48 48 49 49 72 50 73 51 81 52 74 53 80 54
REMARK SMILES IDX 75 55 76 56 77 57 78 58 79 59 58 60 59 61 67 62 60 63 66 64
REMARK SMILES IDX 61 65 62 66 63 67 64 68 65 69 8 70 9 71 10 72 11 73 12 74
REMARK SMILES IDX 13 75 14 76 15 77 16 78 32 79 17 80 18 81 19 82 20 83 21 84
REMARK SMILES IDX 30 85 22 86 23 87 29 88 31 89 24 90 25 91 28 92 26 93 27 94
REMARK H PARENT 86 25 56 36
REMARK Flexibility Score: inf
ROOT
ATOM      1  C   UNL A   1      39.881  21.839  26.200  1.00  0.00     0.188 C 
ENDROOT
BRANCH   1   2
ATOM      2  O   UNL A   1      40.280  21.108  27.363  1.00  0.00    -0.376 OA
BRANCH   2   3
ATOM      3  C   UNL A   1      41.643  21.307  27.755  1.00  0.00     0.202 C 
BRANCH   3   4
ATOM      4  C   UNL A   1      42.565  22.044  26.761  1.00  0.00     0.261 C 
BRANCH   4   5
ATOM      5  O   UNL A   1      42.970  23.359  27.181  1.00  0.00    -0.460 OA
BRANCH   5   6
ATOM      6  C   UNL A   1      42.454  24.564  26.811  1.00  0.00     0.338 C 
ATOM      7  O   UNL A   1      42.206  24.746  25.620  1.00  0.00    -0.246 OA
BRANCH   6   8
ATOM      8  C   UNL A   1      42.190  25.672  27.783  1.00  0.00     0.060 A 
ATOM      9  C   UNL A   1      43.056  26.735  28.021  1.00  0.00     0.016 A 
ATOM     10  C   UNL A   1      40.976  25.669  28.482  1.00  0.00     0.016 A 
ATOM     11  C   UNL A   1      42.828  27.685  28.999  1.00  0.00     0.010 A 
ATOM     12  C   UNL A   1      40.685  26.684  29.404  1.00  0.00     0.010 A 
ATOM     13  C   UNL A   1      41.635  27.682  29.692  1.00  0.00    -0.014 A 
BRANCH  13  14
ATOM     14  C   UNL A   1      41.435  28.648  30.790  1.00  0.00     0.031 A 
ATOM     15  C   UNL A   1      42.177  28.410  32.058  1.00  0.00     0.074 A 
ATOM     16  C   UNL A   1      40.707  29.773  30.645  1.00  0.00     0.049 A 
ATOM     17  N   UNL A   1      42.086  29.057  33.183  1.00  0.00    -0.248 NA
ATOM     18  C   UNL A   1      43.224  27.372  32.029  1.00  0.00     0.031 C 
ATOM     19  C   UNL A   1      40.222  30.324  29.385  1.00  0.00     0.029 A 
ATOM     20  N   UNL A   1      40.181  30.630  31.578  1.00  0.00    -0.354 N 
ATOM     21  C   UNL A   1      43.110  28.559  33.968  1.00  0.00     0.074 A 
ATOM     22  C   UNL A   1      43.741  27.483  33.241  1.00  0.00     0.031 C 
ATOM     23  C   UNL A   1      39.308  31.276  29.626  1.00  0.00     0.029 A 
ATOM     24  C   UNL A   1      39.176  31.421  31.059  1.00  0.00     0.049 A 
ATOM     25  H   UNL A   1      40.487  30.676  32.513  1.00  0.00     0.167 HD
ATOM     26  C   UNL A   1      43.518  29.021  35.168  1.00  0.00     0.031 A 
ATOM     27  C   UNL A   1      38.228  32.146  31.676  1.00  0.00     0.031 A 
ATOM     28  C   UNL A   1      42.833  30.067  35.871  1.00  0.00     0.049 A 
ATOM     29  C   UNL A   1      38.439  32.382  33.134  1.00  0.00     0.074 A 
ATOM     30  C   UNL A   1      43.103  30.589  37.119  1.00  0.00     0.029 A 
ATOM     31  N   UNL A   1      41.715  30.736  35.383  1.00  0.00    -0.354 N 
ATOM     32  N   UNL A   1      39.387  31.892  33.896  1.00  0.00    -0.248 NA
ATOM     33  C   UNL A   1      37.553  33.344  33.791  1.00  0.00     0.031 C 
ATOM     34  C   UNL A   1      42.103  31.521  37.417  1.00  0.00     0.029 A 
ATOM     35  C   UNL A   1      41.250  31.632  36.327  1.00  0.00     0.049 A 
ATOM     36  H   UNL A   1      41.314  30.592  34.495  1.00  0.00     0.167 HD
ATOM     37  C   UNL A   1      39.287  32.569  35.097  1.00  0.00     0.074 A 
ATOM     38  C   UNL A   1      38.148  33.463  34.971  1.00  0.00     0.031 C 
ATOM     39  C   UNL A   1      40.101  32.494  36.177  1.00  0.00     0.031 A 
BRANCH  26  40
ATOM     40  C   UNL A   1      44.717  28.349  35.766  1.00  0.00    -0.014 A 
ATOM     41  C   UNL A   1      44.579  27.236  36.618  1.00  0.00     0.010 A 
ATOM     42  C   UNL A   1      45.994  28.879  35.527  1.00  0.00     0.010 A 
ATOM     43  C   UNL A   1      45.697  26.691  37.254  1.00  0.00     0.020 A 
ATOM     44  C   UNL A   1      47.117  28.320  36.141  1.00  0.00     0.020 A 
ATOM     45  C   UNL A   1      46.959  27.241  37.013  1.00  0.00     0.054 A 
BRANCH  45  46
ATOM     46  S   UNL A   1      48.395  26.512  37.846  1.00  0.00     0.124 S 
ATOM     47  O   UNL A   1      47.841  26.162  39.152  1.00  0.00    -0.237 OA
ATOM     48  O   UNL A   1      48.726  25.383  36.982  1.00  0.00    -0.237 OA
ATOM     49  O   UNL A   1      49.376  27.595  37.856  1.00  0.00    -0.744 OA
ENDBRANCH  45  46
ENDBRANCH  26  40
BRANCH  27  50
ATOM     50  C   UNL A   1      37.077  32.716  30.925  1.00  0.00    -0.014 A 
ATOM     51  C   UNL A   1      37.236  33.814  30.065  1.00  0.00     0.010 A 
ATOM     52  C   UNL A   1      35.792  32.153  31.076  1.00  0.00     0.010 A 
ATOM     53  C   UNL A   1      36.135  34.360  29.396  1.00  0.00     0.020 A 
ATOM     54  C   UNL A   1      34.689  32.688  30.399  1.00  0.00     0.020 A 
ATOM     55  C   UNL A   1      34.866  33.797  29.571  1.00  0.00     0.054 A 
BRANCH  55  56
ATOM     56  S   UNL A   1      33.459  34.528  28.682  1.00  0.00     0.124 S 
ATOM     57  O   UNL A   1      33.047  33.436  27.808  1.00  0.00    -0.237 OA
ATOM     58  O   UNL A   1      32.540  34.850  29.771  1.00  0.00    -0.237 OA
ATOM     59  O   UNL A   1      34.044  35.685  28.008  1.00  0.00    -0.744 OA
ENDBRANCH  55  56
ENDBRANCH  27  50
BRANCH  39  60
ATOM     60  C   UNL A   1      39.806  33.444  37.295  1.00  0.00    -0.014 A 
ATOM     61  C   UNL A   1      39.031  33.049  38.397  1.00  0.00     0.010 A 
ATOM     62  C   UNL A   1      40.369  34.732  37.260  1.00  0.00     0.010 A 
ATOM     63  C   UNL A   1      38.805  33.942  39.442  1.00  0.00     0.020 A 
ATOM     64  C   UNL A   1      40.174  35.613  38.321  1.00  0.00     0.020 A 
ATOM     65  C   UNL A   1      39.385  35.213  39.401  1.00  0.00     0.054 A 
BRANCH  65  66
ATOM     66  S   UNL A   1      39.137  36.322  40.810  1.00  0.00     0.124 S 
ATOM     67  O   UNL A   1      37.897  35.810  41.383  1.00  0.00    -0.237 OA
ATOM     68  O   UNL A   1      40.341  36.096  41.607  1.00  0.00    -0.237 OA
ATOM     69  O   UNL A   1      39.043  37.645  40.197  1.00  0.00    -0.744 OA
ENDBRANCH  65  66
ENDBRANCH  39  60
ENDBRANCH  13  14
ENDBRANCH   6   8
ENDBRANCH   5   6
ENDBRANCH   4   5
ENDBRANCH   3   4
ENDBRANCH   2   3
ENDBRANCH   1   2
BRANCH   1  70
ATOM     70  C   UNL A   1      39.006  23.054  26.507  1.00  0.00     0.188 C 
BRANCH  70  71
ATOM     71  O   UNL A   1      37.659  23.026  26.034  1.00  0.00    -0.376 OA
BRANCH  71  72
ATOM     72  C   UNL A   1      37.298  21.957  25.168  1.00  0.00     0.202 C 
BRANCH  72  73
ATOM     73  C   UNL A   1      36.146  22.175  24.172  1.00  0.00     0.261 C 
BRANCH  73  74
ATOM     74  O   UNL A   1      35.009  21.316  24.339  1.00  0.00    -0.461 OA
BRANCH  74  75
ATOM     75  C   UNL A   1      34.213  21.623  25.400  1.00  0.00     0.335 C 
ATOM     76  O   UNL A   1      34.131  20.957  26.428  1.00  0.00    -0.249 OA
BRANCH  75  77
ATOM     77  C   UNL A   1      33.434  22.935  25.215  1.00  0.00     0.228 C 
ATOM     78  C   UNL A   1      32.162  22.883  26.052  1.00  0.00     0.047 C 
ATOM     79  O   UNL A   1      33.053  23.391  23.913  1.00  0.00    -0.361 OA
ATOM     80  C   UNL A   1      31.279  23.910  25.395  1.00  0.00     0.037 C 
ATOM     81  C   UNL A   1      31.646  23.721  23.936  1.00  0.00     0.139 C 
BRANCH  81  82
ATOM     82  C   UNL A   1      31.277  24.897  22.994  1.00  0.00     0.160 C 
BRANCH  82  83
ATOM     83  N   UNL A   1      31.655  26.149  23.610  1.00  0.00    -0.280 N 
ATOM     84  C   UNL A   1      30.699  26.940  24.210  1.00  0.00     0.229 C 
ATOM     85  C   UNL A   1      32.959  26.562  23.492  1.00  0.00     0.229 C 
ATOM     86  O   UNL A   1      29.525  26.987  23.857  1.00  0.00    -0.274 OA
ATOM     87  C   UNL A   1      31.165  27.641  25.464  1.00  0.00     0.108 C 
ATOM     88  C   UNL A   1      33.536  26.954  24.811  1.00  0.00     0.108 C 
ATOM     89  O   UNL A   1      33.633  26.520  22.461  1.00  0.00    -0.274 OA
ATOM     90  C   UNL A   1      32.666  27.970  25.545  1.00  0.00    -0.012 C 
ATOM     91  C   UNL A   1      33.097  28.004  27.037  1.00  0.00     0.008 C 
ATOM     92  C   UNL A   1      32.943  29.393  25.011  1.00  0.00     0.008 C 
ATOM     93  C   UNL A   1      33.792  29.338  27.233  1.00  0.00     0.001 C 
ATOM     94  C   UNL A   1      33.071  30.253  26.260  1.00  0.00     0.001 C 
ENDBRANCH  82  83
ENDBRANCH  81  82
ENDBRANCH  75  77
ENDBRANCH  74  75
ENDBRANCH  73  74
ENDBRANCH  72  73
ENDBRANCH  71  72
ENDBRANCH  70  71
ENDBRANCH   1  70
TORSDOF 22
ENDMDL
MODEL 3
REMARK VINA RESULT:     -10.0      1.477      8.195
REMARK SMILES O=C(OCCOCCOCCOC(=O)[C@@H]1CC[C@@H](CN2C(=O)CC3(CCCC3)CC2=O)O1)c1ccc(-c2c3nc(c(-c4ccc(S(=O)(=O)[O-])cc4)c4ccc([nH]4)c(-c4ccc(S(=O)(=O)[O-])cc4)c4nc(c(-c5ccc(S(=O)(=O)[O-])cc5)c5ccc2[nH]5)C=C4)C=C3)cc1
REMARK SMILES IDX 7 1 6 2 5 3 4 4 3 5 2 6 1 7 33 8 34 9 92 10 35 11 91 12
REMARK SMILES IDX 36 13 37 14 38 15 85 16 39 17 90 18 84 19 86 20 40 21 89 22
REMARK SMILES IDX 83 23 82 24 41 26 71 27 52 28 70 29 53 30 56 31 69 32 87 33
REMARK SMILES IDX 54 34 55 35 68 37 88 38 57 39 42 40 43 41 51 42 44 43 50 44
REMARK SMILES IDX 45 45 46 46 47 47 48 48 49 49 72 50 73 51 81 52 74 53 80 54
REMARK SMILES IDX 75 55 76 56 77 57 78 58 79 59 58 60 59 61 67 62 60 63 66 64
REMARK SMILES IDX 61 65 62 66 63 67 64 68 65 69 8 70 9 71 10 72 11 73 12 74
REMARK SMILES IDX 13 75 14 76 15 77 16 78 32 79 17 80 18 81 19 82 20 83 21 84
REMARK SMILES IDX 30 85 22 86 23 87 29 88 31 89 24 90 25 91 28 92 26 93 27 94
REMARK H PARENT 86 25 56 36
REMARK Flexibility Score: inf
ROOT
ATOM      1  C   UNL A   1      43.640  22.176  25.464  1.00  0.00     0.188 C 
ENDROOT
BRANCH   1   2
ATOM      2  O   UNL A   1      44.669  22.946  26.091  1.00  0.00    -0.376 OA
BRANCH   2   3
ATOM      3  C   UNL A   1      44.342  24.325  26.297  1.00  0.00     0.202 C 
BRANCH   3   4
ATOM      4  C   UNL A   1      44.213  25.217  25.044  1.00  0.00     0.261 C 
BRANCH   4   5
ATOM      5  O   UNL A   1      43.325  26.339  25.196  1.00  0.00    -0.460 OA
BRANCH   5   6
ATOM      6  C   UNL A   1      42.154  26.406  25.887  1.00  0.00     0.338 C 
ATOM      7  O   UNL A   1      41.164  25.858  25.404  1.00  0.00    -0.246 OA
BRANCH   6   8
ATOM      8  C   UNL A   1      42.018  27.123  27.194  1.00  0.00     0.060 A 
ATOM      9  C   UNL A   1      41.123  26.767  28.200  1.00  0.00     0.016 A 
ATOM     10  C   UNL A   1      42.867  28.207  27.451  1.00  0.00     0.016 A 
ATOM     11  C   UNL A   1      40.952  27.513  29.351  1.00  0.00     0.010 A 
ATOM     12  C   UNL A   1      42.776  28.911  28.659  1.00  0.00     0.010 A 
ATOM     13  C   UNL A   1      41.784  28.584  29.604  1.00  0.00    -0.014 A 
BRANCH  13  14
ATOM     14  C   UNL A   1      41.541  29.423  30.793  1.00  0.00     0.031 A 
ATOM     15  C   UNL A   1      42.322  29.114  32.022  1.00  0.00     0.074 A 
ATOM     16  C   UNL A   1      40.737  30.503  30.770  1.00  0.00     0.049 A 
ATOM     17  N   UNL A   1      42.210  29.640  33.207  1.00  0.00    -0.248 NA
ATOM     18  C   UNL A   1      43.436  28.158  31.877  1.00  0.00     0.031 C 
ATOM     19  C   UNL A   1      40.191  31.140  29.577  1.00  0.00     0.029 A 
ATOM     20  N   UNL A   1      40.173  31.227  31.789  1.00  0.00    -0.354 N 
ATOM     21  C   UNL A   1      43.281  29.140  33.925  1.00  0.00     0.074 A 
ATOM     22  C   UNL A   1      43.969  28.186  33.087  1.00  0.00     0.031 C 
ATOM     23  C   UNL A   1      39.219  31.999  29.923  1.00  0.00     0.029 A 
ATOM     24  C   UNL A   1      39.107  31.994  31.364  1.00  0.00     0.049 A 
ATOM     25  H   UNL A   1      40.493  31.202  32.720  1.00  0.00     0.167 HD
ATOM     26  C   UNL A   1      43.681  29.509  35.159  1.00  0.00     0.031 A 
ATOM     27  C   UNL A   1      38.124  32.588  32.062  1.00  0.00     0.031 A 
ATOM     28  C   UNL A   1      42.941  30.433  35.971  1.00  0.00     0.049 A 
ATOM     29  C   UNL A   1      38.347  32.694  33.534  1.00  0.00     0.074 A 
ATOM     30  C   UNL A   1      43.200  30.847  37.261  1.00  0.00     0.029 A 
ATOM     31  N   UNL A   1      41.771  31.067  35.566  1.00  0.00    -0.354 N 
ATOM     32  N   UNL A   1      39.341  32.200  34.231  1.00  0.00    -0.248 NA
ATOM     33  C   UNL A   1      37.412  33.524  34.294  1.00  0.00     0.031 C 
ATOM     34  C   UNL A   1      42.145  31.675  37.662  1.00  0.00     0.029 A 
ATOM     35  C   UNL A   1      41.265  31.832  36.600  1.00  0.00     0.049 A 
ATOM     36  H   UNL A   1      41.363  30.983  34.674  1.00  0.00     0.167 HD
ATOM     37  C   UNL A   1      39.219  32.747  35.494  1.00  0.00     0.074 A 
ATOM     38  C   UNL A   1      38.021  33.569  35.472  1.00  0.00     0.031 C 
ATOM     39  C   UNL A   1      40.058  32.623  36.551  1.00  0.00     0.031 A 
BRANCH  26  40
ATOM     40  C   UNL A   1      44.934  28.867  35.673  1.00  0.00    -0.014 A 
ATOM     41  C   UNL A   1      46.197  29.443  35.434  1.00  0.00     0.010 A 
ATOM     42  C   UNL A   1      44.853  27.638  36.345  1.00  0.00     0.010 A 
ATOM     43  C   UNL A   1      47.361  28.775  35.823  1.00  0.00     0.020 A 
ATOM     44  C   UNL A   1      46.014  26.981  36.759  1.00  0.00     0.020 A 
ATOM     45  C   UNL A   1      47.261  27.546  36.480  1.00  0.00     0.054 A 
BRANCH  45  46
ATOM     46  S   UNL A   1      48.785  26.703  36.980  1.00  0.00     0.124 S 
ATOM     47  O   UNL A   1      49.759  27.792  36.940  1.00  0.00    -0.237 OA
ATOM     48  O   UNL A   1      48.454  26.207  38.312  1.00  0.00    -0.237 OA
ATOM     49  O   UNL A   1      48.962  25.673  35.959  1.00  0.00    -0.744 OA
ENDBRANCH  45  46
ENDBRANCH  26  40
BRANCH  27  50
ATOM     50  C   UNL A   1      36.922  33.148  31.387  1.00  0.00    -0.014 A 
ATOM     51  C   UNL A   1      35.626  32.767  31.768  1.00  0.00     0.010 A 
ATOM     52  C   UNL A   1      37.076  34.078  30.338  1.00  0.00     0.010 A 
ATOM     53  C   UNL A   1      34.509  33.276  31.096  1.00  0.00     0.020 A 
ATOM     54  C   UNL A   1      35.960  34.600  29.671  1.00  0.00     0.020 A 
ATOM     55  C   UNL A   1      34.682  34.186  30.048  1.00  0.00     0.054 A 
BRANCH  55  56
ATOM     56  S   UNL A   1      33.209  34.831  29.202  1.00  0.00     0.124 S 
ATOM     57  O   UNL A   1      33.765  35.917  28.403  1.00  0.00    -0.237 OA
ATOM     58  O   UNL A   1      32.747  33.665  28.453  1.00  0.00    -0.237 OA
ATOM     59  O   UNL A   1      32.335  35.242  30.299  1.00  0.00    -0.744 OA
ENDBRANCH  55  56
ENDBRANCH  27  50
BRANCH  39  60
ATOM     60  C   UNL A   1      39.722  33.437  37.761  1.00  0.00    -0.014 A 
ATOM     61  C   UNL A   1      38.892  32.926  38.771  1.00  0.00     0.010 A 
ATOM     62  C   UNL A   1      40.301  34.710  37.907  1.00  0.00     0.010 A 
ATOM     63  C   UNL A   1      38.627  33.691  39.904  1.00  0.00     0.020 A 
ATOM     64  C   UNL A   1      40.067  35.461  39.057  1.00  0.00     0.020 A 
ATOM     65  C   UNL A   1      39.223  34.948  40.044  1.00  0.00     0.054 A 
BRANCH  65  66
ATOM     66  S   UNL A   1      38.922  35.884  41.564  1.00  0.00     0.124 S 
ATOM     67  O   UNL A   1      37.620  35.373  41.981  1.00  0.00    -0.237 OA
ATOM     68  O   UNL A   1      40.052  35.494  42.405  1.00  0.00    -0.237 OA
ATOM     69  O   UNL A   1      38.935  37.276  41.121  1.00  0.00    -0.744 OA
ENDBRANCH  65  66
ENDBRANCH  39  60
ENDBRANCH  13  14
ENDBRANCH   6   8
ENDBRANCH   5   6
ENDBRANCH   4   5
ENDBRANCH   3   4
ENDBRANCH   2   3
ENDBRANCH   1   2
BRANCH   1  70
ATOM     70  C   UNL A   1      43.901  20.670  25.483  1.00  0.00     0.188 C 
BRANCH  70  71
ATOM     71  O   UNL A   1      42.788  19.810  25.241  1.00  0.00    -0.376 OA
BRANCH  71  72
ATOM     72  C   UNL A   1      42.431  18.904  26.278  1.00  0.00     0.202 C 
BRANCH  72  73
ATOM     73  C   UNL A   1      41.796  19.469  27.560  1.00  0.00     0.261 C 
BRANCH  73  74
ATOM     74  O   UNL A   1      40.546  20.152  27.385  1.00  0.00    -0.461 OA
BRANCH  74  75
ATOM     75  C   UNL A   1      40.628  21.510  27.420  1.00  0.00     0.335 C 
ATOM     76  O   UNL A   1      41.319  22.148  28.209  1.00  0.00    -0.249 OA
BRANCH  75  77
ATOM     77  C   UNL A   1      39.794  22.197  26.328  1.00  0.00     0.228 C 
ATOM     78  C   UNL A   1      39.211  23.490  26.884  1.00  0.00     0.047 C 
ATOM     79  O   UNL A   1      38.723  21.509  25.674  1.00  0.00    -0.361 OA
ATOM     80  C   UNL A   1      38.046  23.760  25.969  1.00  0.00     0.037 C 
ATOM     81  C   UNL A   1      37.549  22.351  25.705  1.00  0.00     0.139 C 
BRANCH  81  82
ATOM     82  C   UNL A   1      36.641  22.184  24.458  1.00  0.00     0.160 C 
BRANCH  82  83
ATOM     83  N   UNL A   1      35.357  22.799  24.707  1.00  0.00    -0.280 N 
ATOM     84  C   UNL A   1      34.670  22.517  25.868  1.00  0.00     0.229 C 
ATOM     85  C   UNL A   1      34.810  23.581  23.720  1.00  0.00     0.229 C 
ATOM     86  O   UNL A   1      34.744  21.452  26.471  1.00  0.00    -0.274 OA
ATOM     87  C   UNL A   1      33.924  23.693  26.455  1.00  0.00     0.108 C 
ATOM     88  C   UNL A   1      34.361  24.903  24.248  1.00  0.00     0.108 C 
ATOM     89  O   UNL A   1      34.782  23.304  22.521  1.00  0.00    -0.274 OA
ATOM     90  C   UNL A   1      33.441  24.761  25.458  1.00  0.00    -0.012 C 
ATOM     91  C   UNL A   1      33.364  26.133  26.183  1.00  0.00     0.008 C 
ATOM     92  C   UNL A   1      31.997  24.465  24.996  1.00  0.00     0.008 C 
ATOM     93  C   UNL A   1      31.965  26.657  25.920  1.00  0.00     0.001 C 
ATOM     94  C   UNL A   1      31.129  25.392  25.833  1.00  0.00     0.001 C 
ENDBRANCH  82  83
ENDBRANCH  81  82
ENDBRANCH  75  77
ENDBRANCH  74  75
ENDBRANCH  73  74
ENDBRANCH  72  73
ENDBRANCH  71  72
ENDBRANCH  70  71
ENDBRANCH   1  70
TORSDOF 22
ENDMDL
