MODEL 1
REMARK VINA RESULT:     -11.0      0.000      0.000
REMARK SMILES O=C(OCCOCCOCCOC(=O)[C@H]1CN(C(=O)C[C@H]2NC(=O)c3ccccc32)C[C@@H]1c1ccc(F)cc1)c1ccc(-c2c3nc(c(-c4ccc(S(=O)(=O)[O-])cc4)c4ccc([nH]4)c(-c4ccc(S(=O)(=O)[O-])cc4)c4nc(c(-c5ccc(S(=O)(=O)[O-])cc5)c5ccc2[nH]5)C=C4)C=C3)cc1
REMARK SMILES IDX 7 1 6 2 5 3 4 4 3 5 2 6 1 7 40 8 41 9 99 10 42 11 98 12
REMARK SMILES IDX 43 13 44 14 45 15 92 16 46 17 97 18 91 19 93 20 47 21 96 22
REMARK SMILES IDX 90 23 89 24 48 26 78 27 59 28 77 29 60 30 63 31 76 32 94 33
REMARK SMILES IDX 61 34 62 35 75 37 95 38 64 39 49 40 50 41 58 42 51 43 57 44
REMARK SMILES IDX 52 45 53 46 54 47 55 48 56 49 79 50 80 51 88 52 81 53 87 54
REMARK SMILES IDX 82 55 83 56 84 57 85 58 86 59 65 60 66 61 74 62 67 63 73 64
REMARK SMILES IDX 68 65 69 66 70 67 71 68 72 69 8 70 9 71 10 72 11 73 12 74
REMARK SMILES IDX 13 75 14 76 15 77 16 78 32 79 17 80 31 81 33 82 34 83 39 84
REMARK SMILES IDX 35 85 38 86 36 87 37 88 18 89 19 90 20 91 21 92 22 93 30 94
REMARK SMILES IDX 23 95 25 97 29 98 24 99 26 100 28 101 27 102
REMARK H PARENT 93 25 63 36 22 96
REMARK Flexibility Score: inf
ROOT
ATOM      1  C   UNL A   1      31.009  29.412  24.428  1.00  0.00     0.188 C 
ENDROOT
BRANCH   1   2
ATOM      2  O   UNL A   1      32.392  29.110  24.257  1.00  0.00    -0.376 OA
BRANCH   2   3
ATOM      3  C   UNL A   1      33.231  29.389  25.382  1.00  0.00     0.202 C 
BRANCH   3   4
ATOM      4  C   UNL A   1      32.677  30.319  26.479  1.00  0.00     0.261 C 
BRANCH   4   5
ATOM      5  O   UNL A   1      33.510  30.482  27.642  1.00  0.00    -0.460 OA
BRANCH   5   6
ATOM      6  C   UNL A   1      34.571  31.298  27.846  1.00  0.00     0.338 C 
ATOM      7  O   UNL A   1      34.506  32.461  27.451  1.00  0.00    -0.246 OA
BRANCH   6   8
ATOM      8  C   UNL A   1      35.833  30.856  28.499  1.00  0.00     0.060 A 
ATOM      9  C   UNL A   1      36.000  29.623  29.123  1.00  0.00     0.016 A 
ATOM     10  C   UNL A   1      36.958  31.684  28.369  1.00  0.00     0.016 A 
ATOM     11  C   UNL A   1      37.199  29.254  29.708  1.00  0.00     0.010 A 
ATOM     12  C   UNL A   1      38.194  31.296  28.895  1.00  0.00     0.010 A 
ATOM     13  C   UNL A   1      38.304  30.089  29.594  1.00  0.00    -0.014 A 
BRANCH  13  14
ATOM     14  C   UNL A   1      39.540  29.678  30.279  1.00  0.00     0.031 A 
ATOM     15  C   UNL A   1      39.846  30.291  31.600  1.00  0.00     0.074 A 
ATOM     16  C   UNL A   1      40.299  28.702  29.747  1.00  0.00     0.049 A 
ATOM     17  N   UNL A   1      40.869  30.073  32.373  1.00  0.00    -0.248 NA
ATOM     18  C   UNL A   1      38.887  31.283  32.119  1.00  0.00     0.031 C 
ATOM     19  C   UNL A   1      39.993  28.031  28.489  1.00  0.00     0.029 A 
ATOM     20  N   UNL A   1      41.439  28.077  30.175  1.00  0.00    -0.354 N 
ATOM     21  C   UNL A   1      40.717  30.948  33.436  1.00  0.00     0.074 A 
ATOM     22  C   UNL A   1      39.490  31.680  33.229  1.00  0.00     0.031 C 
ATOM     23  C   UNL A   1      40.898  27.072  28.258  1.00  0.00     0.029 A 
ATOM     24  C   UNL A   1      41.869  27.070  29.338  1.00  0.00     0.049 A 
ATOM     25  H   UNL A   1      41.907  28.324  31.005  1.00  0.00     0.167 HD
ATOM     26  C   UNL A   1      41.569  31.136  34.465  1.00  0.00     0.031 A 
ATOM     27  C   UNL A   1      42.927  26.240  29.438  1.00  0.00     0.031 A 
ATOM     28  C   UNL A   1      42.780  30.380  34.623  1.00  0.00     0.049 A 
ATOM     29  C   UNL A   1      43.820  26.452  30.632  1.00  0.00     0.074 A 
ATOM     30  C   UNL A   1      43.750  30.509  35.597  1.00  0.00     0.029 A 
ATOM     31  N   UNL A   1      43.183  29.352  33.779  1.00  0.00    -0.354 N 
ATOM     32  N   UNL A   1      43.653  27.277  31.640  1.00  0.00    -0.248 NA
ATOM     33  C   UNL A   1      45.049  25.655  30.696  1.00  0.00     0.031 C 
ATOM     34  C   UNL A   1      44.776  29.607  35.300  1.00  0.00     0.029 A 
ATOM     35  C   UNL A   1      44.410  28.866  34.186  1.00  0.00     0.049 A 
ATOM     36  H   UNL A   1      42.669  29.020  33.007  1.00  0.00     0.167 HD
ATOM     37  C   UNL A   1      44.765  27.107  32.450  1.00  0.00     0.074 A 
ATOM     38  C   UNL A   1      45.551  26.041  31.860  1.00  0.00     0.031 C 
ATOM     39  C   UNL A   1      45.140  27.799  33.553  1.00  0.00     0.031 A 
BRANCH  26  40
ATOM     40  C   UNL A   1      41.277  32.263  35.407  1.00  0.00    -0.014 A 
ATOM     41  C   UNL A   1      40.457  32.099  36.536  1.00  0.00     0.010 A 
ATOM     42  C   UNL A   1      41.871  33.514  35.162  1.00  0.00     0.010 A 
ATOM     43  C   UNL A   1      40.237  33.172  37.403  1.00  0.00     0.020 A 
ATOM     44  C   UNL A   1      41.675  34.580  36.039  1.00  0.00     0.020 A 
ATOM     45  C   UNL A   1      40.857  34.401  37.155  1.00  0.00     0.054 A 
BRANCH  45  46
ATOM     46  S   UNL A   1      40.622  35.748  38.345  1.00  0.00     0.124 S 
ATOM     47  O   UNL A   1      41.988  36.233  38.528  1.00  0.00    -0.237 OA
ATOM     48  O   UNL A   1      39.727  36.651  37.627  1.00  0.00    -0.237 OA
ATOM     49  O   UNL A   1      40.036  35.087  39.508  1.00  0.00    -0.744 OA
ENDBRANCH  45  46
ENDBRANCH  26  40
BRANCH  27  50
ATOM     50  C   UNL A   1      43.212  25.177  28.420  1.00  0.00    -0.014 A 
ATOM     51  C   UNL A   1      43.534  25.524  27.096  1.00  0.00     0.010 A 
ATOM     52  C   UNL A   1      43.146  23.807  28.739  1.00  0.00     0.010 A 
ATOM     53  C   UNL A   1      43.757  24.546  26.123  1.00  0.00     0.020 A 
ATOM     54  C   UNL A   1      43.432  22.820  27.785  1.00  0.00     0.020 A 
ATOM     55  C   UNL A   1      43.721  23.199  26.476  1.00  0.00     0.054 A 
BRANCH  55  56
ATOM     56  S   UNL A   1      44.077  21.963  25.200  1.00  0.00     0.124 S 
ATOM     57  O   UNL A   1      43.948  22.745  23.975  1.00  0.00    -0.237 OA
ATOM     58  O   UNL A   1      45.434  21.549  25.545  1.00  0.00    -0.237 OA
ATOM     59  O   UNL A   1      43.044  20.951  25.408  1.00  0.00    -0.744 OA
ENDBRANCH  55  56
ENDBRANCH  27  50
BRANCH  39  60
ATOM     60  C   UNL A   1      46.464  27.424  34.151  1.00  0.00    -0.014 A 
ATOM     61  C   UNL A   1      46.538  26.445  35.158  1.00  0.00     0.010 A 
ATOM     62  C   UNL A   1      47.642  28.015  33.664  1.00  0.00     0.010 A 
ATOM     63  C   UNL A   1      47.772  26.086  35.696  1.00  0.00     0.020 A 
ATOM     64  C   UNL A   1      48.881  27.629  34.173  1.00  0.00     0.020 A 
ATOM     65  C   UNL A   1      48.936  26.678  35.195  1.00  0.00     0.054 A 
BRANCH  65  66
ATOM     66  S   UNL A   1      50.529  26.148  35.871  1.00  0.00     0.124 S 
ATOM     67  O   UNL A   1      51.393  26.212  34.695  1.00  0.00    -0.237 OA
ATOM     68  O   UNL A   1      50.788  27.151  36.899  1.00  0.00    -0.237 OA
ATOM     69  O   UNL A   1      50.261  24.802  36.373  1.00  0.00    -0.744 OA
ENDBRANCH  65  66
ENDBRANCH  39  60
ENDBRANCH  13  14
ENDBRANCH   6   8
ENDBRANCH   5   6
ENDBRANCH   4   5
ENDBRANCH   3   4
ENDBRANCH   2   3
ENDBRANCH   1   2
BRANCH   1  70
ATOM     70  C   UNL A   1      30.141  28.976  23.250  1.00  0.00     0.188 C 
BRANCH  70  71
ATOM     71  O   UNL A   1      30.750  28.190  22.232  1.00  0.00    -0.376 OA
BRANCH  71  72
ATOM     72  C   UNL A   1      30.634  26.774  22.312  1.00  0.00     0.202 C 
BRANCH  72  73
ATOM     73  C   UNL A   1      31.805  25.966  22.893  1.00  0.00     0.261 C 
BRANCH  73  74
ATOM     74  O   UNL A   1      31.969  24.650  22.358  1.00  0.00    -0.463 OA
BRANCH  74  75
ATOM     75  C   UNL A   1      31.574  23.638  23.185  1.00  0.00     0.311 C 
ATOM     76  O   UNL A   1      30.649  23.701  23.982  1.00  0.00    -0.252 OA
BRANCH  75  77
ATOM     77  C   UNL A   1      32.436  22.414  22.936  1.00  0.00     0.128 C 
ATOM     78  C   UNL A   1      33.861  22.914  22.981  1.00  0.00     0.135 C 
ATOM     79  C   UNL A   1      32.382  21.412  24.110  1.00  0.00     0.055 C 
ATOM     80  N   UNL A   1      34.120  23.058  24.392  1.00  0.00    -0.341 N 
ATOM     81  C   UNL A   1      33.312  22.100  25.152  1.00  0.00     0.128 C 
BRANCH  79  82
ATOM     82  C   UNL A   1      32.795  19.965  23.821  1.00  0.00    -0.042 A 
ATOM     83  C   UNL A   1      33.836  19.401  24.585  1.00  0.00     0.007 A 
ATOM     84  C   UNL A   1      32.185  19.146  22.856  1.00  0.00     0.007 A 
ATOM     85  C   UNL A   1      34.282  18.096  24.355  1.00  0.00     0.039 A 
ATOM     86  C   UNL A   1      32.648  17.848  22.606  1.00  0.00     0.039 A 
ATOM     87  C   UNL A   1      33.694  17.335  23.356  1.00  0.00     0.123 A 
ATOM     88  F   UNL A   1      34.129  16.090  23.126  1.00  0.00    -0.207 F 
ENDBRANCH  79  82
BRANCH  80  89
ATOM     89  C   UNL A   1      34.763  24.106  25.016  1.00  0.00     0.225 C 
ATOM     90  O   UNL A   1      34.573  25.270  24.662  1.00  0.00    -0.275 OA
BRANCH  89  91
ATOM     91  C   UNL A   1      35.800  23.793  26.087  1.00  0.00     0.130 C 
BRANCH  91  92
ATOM     92  C   UNL A   1      37.198  23.589  25.508  1.00  0.00     0.123 C 
ATOM     93  N   UNL A   1      38.242  24.206  26.326  1.00  0.00    -0.345 N 
ATOM     94  C   UNL A   1      37.668  22.159  25.493  1.00  0.00    -0.012 A 
ATOM     95  C   UNL A   1      39.257  23.352  26.671  1.00  0.00     0.252 C 
ATOM     96  H   UNL A   1      38.217  25.151  26.603  1.00  0.00     0.164 HD
ATOM     97  C   UNL A   1      38.913  22.048  26.119  1.00  0.00     0.045 A 
ATOM     98  C   UNL A   1      37.113  21.053  24.873  1.00  0.00     0.007 A 
ATOM     99  O   UNL A   1      40.247  23.633  27.323  1.00  0.00    -0.269 OA
ATOM    100  C   UNL A   1      39.666  20.890  26.114  1.00  0.00     0.014 A 
ATOM    101  C   UNL A   1      37.847  19.859  24.870  1.00  0.00     0.000 A 
ATOM    102  C   UNL A   1      39.118  19.782  25.470  1.00  0.00     0.001 A 
ENDBRANCH  91  92
ENDBRANCH  89  91
ENDBRANCH  80  89
ENDBRANCH  75  77
ENDBRANCH  74  75
ENDBRANCH  73  74
ENDBRANCH  72  73
ENDBRANCH  71  72
ENDBRANCH  70  71
ENDBRANCH   1  70
TORSDOF 24
ENDMDL
MODEL 2
REMARK VINA RESULT:     -10.8      3.216      9.534
REMARK SMILES O=C(OCCOCCOCCOC(=O)[C@H]1CN(C(=O)C[C@H]2NC(=O)c3ccccc32)C[C@@H]1c1ccc(F)cc1)c1ccc(-c2c3nc(c(-c4ccc(S(=O)(=O)[O-])cc4)c4ccc([nH]4)c(-c4ccc(S(=O)(=O)[O-])cc4)c4nc(c(-c5ccc(S(=O)(=O)[O-])cc5)c5ccc2[nH]5)C=C4)C=C3)cc1
REMARK SMILES IDX 7 1 6 2 5 3 4 4 3 5 2 6 1 7 40 8 41 9 99 10 42 11 98 12
REMARK SMILES IDX 43 13 44 14 45 15 92 16 46 17 97 18 91 19 93 20 47 21 96 22
REMARK SMILES IDX 90 23 89 24 48 26 78 27 59 28 77 29 60 30 63 31 76 32 94 33
REMARK SMILES IDX 61 34 62 35 75 37 95 38 64 39 49 40 50 41 58 42 51 43 57 44
REMARK SMILES IDX 52 45 53 46 54 47 55 48 56 49 79 50 80 51 88 52 81 53 87 54
REMARK SMILES IDX 82 55 83 56 84 57 85 58 86 59 65 60 66 61 74 62 67 63 73 64
REMARK SMILES IDX 68 65 69 66 70 67 71 68 72 69 8 70 9 71 10 72 11 73 12 74
REMARK SMILES IDX 13 75 14 76 15 77 16 78 32 79 17 80 31 81 33 82 34 83 39 84
REMARK SMILES IDX 35 85 38 86 36 87 37 88 18 89 19 90 20 91 21 92 22 93 30 94
REMARK SMILES IDX 23 95 25 97 29 98 24 99 26 100 28 101 27 102
REMARK H PARENT 93 25 63 36 22 96
REMARK Flexibility Score: inf
ROOT
ATOM      1  C   UNL A   1      35.608  32.939  28.321  1.00  0.00     0.188 C 
ENDROOT
BRANCH   1   2
ATOM      2  O   UNL A   1      35.026  34.120  27.775  1.00  0.00    -0.376 OA
BRANCH   2   3
ATOM      3  C   UNL A   1      33.613  34.255  27.953  1.00  0.00     0.202 C 
BRANCH   3   4
ATOM      4  C   UNL A   1      33.111  35.370  28.893  1.00  0.00     0.261 C 
BRANCH   4   5
ATOM      5  O   UNL A   1      32.592  34.931  30.162  1.00  0.00    -0.460 OA
BRANCH   5   6
ATOM      6  C   UNL A   1      33.090  35.096  31.410  1.00  0.00     0.338 C 
ATOM      7  O   UNL A   1      32.527  35.880  32.173  1.00  0.00    -0.246 OA
BRANCH   6   8
ATOM      8  C   UNL A   1      34.309  34.400  31.906  1.00  0.00     0.060 A 
ATOM      9  C   UNL A   1      34.312  33.114  32.439  1.00  0.00     0.016 A 
ATOM     10  C   UNL A   1      35.545  35.033  31.710  1.00  0.00     0.016 A 
ATOM     11  C   UNL A   1      35.476  32.506  32.877  1.00  0.00     0.010 A 
ATOM     12  C   UNL A   1      36.736  34.404  32.085  1.00  0.00     0.010 A 
ATOM     13  C   UNL A   1      36.695  33.148  32.699  1.00  0.00    -0.014 A 
BRANCH  13  14
ATOM     14  C   UNL A   1      37.897  32.484  33.231  1.00  0.00     0.031 A 
ATOM     15  C   UNL A   1      38.604  31.510  32.355  1.00  0.00     0.074 A 
ATOM     16  C   UNL A   1      38.372  32.842  34.437  1.00  0.00     0.049 A 
ATOM     17  N   UNL A   1      39.676  30.820  32.617  1.00  0.00    -0.248 NA
ATOM     18  C   UNL A   1      38.034  31.271  31.017  1.00  0.00     0.031 C 
ATOM     19  C   UNL A   1      37.744  33.842  35.292  1.00  0.00     0.029 A 
ATOM     20  N   UNL A   1      39.477  32.461  35.148  1.00  0.00    -0.354 N 
ATOM     21  C   UNL A   1      39.872  30.014  31.508  1.00  0.00     0.074 A 
ATOM     22  C   UNL A   1      38.829  30.318  30.556  1.00  0.00     0.031 C 
ATOM     23  C   UNL A   1      38.482  34.020  36.396  1.00  0.00     0.029 A 
ATOM     24  C   UNL A   1      39.627  33.129  36.345  1.00  0.00     0.049 A 
ATOM     25  H   UNL A   1      40.108  31.773  34.834  1.00  0.00     0.167 HD
ATOM     26  C   UNL A   1      40.825  29.074  31.343  1.00  0.00     0.031 A 
ATOM     27  C   UNL A   1      40.585  33.032  37.289  1.00  0.00     0.031 A 
ATOM     28  C   UNL A   1      41.839  28.810  32.324  1.00  0.00     0.049 A 
ATOM     29  C   UNL A   1      41.658  32.007  37.035  1.00  0.00     0.074 A 
ATOM     30  C   UNL A   1      42.833  27.851  32.295  1.00  0.00     0.029 A 
ATOM     31  N   UNL A   1      41.986  29.513  33.514  1.00  0.00    -0.354 N 
ATOM     32  N   UNL A   1      41.838  31.259  35.969  1.00  0.00    -0.248 NA
ATOM     33  C   UNL A   1      42.637  31.784  38.104  1.00  0.00     0.031 C 
ATOM     34  C   UNL A   1      43.535  27.927  33.500  1.00  0.00     0.029 A 
ATOM     35  C   UNL A   1      43.028  28.980  34.247  1.00  0.00     0.049 A 
ATOM     36  H   UNL A   1      41.430  30.277  33.792  1.00  0.00     0.167 HD
ATOM     37  C   UNL A   1      42.941  30.469  36.249  1.00  0.00     0.074 A 
ATOM     38  C   UNL A   1      43.438  30.890  37.545  1.00  0.00     0.031 C 
ATOM     39  C   UNL A   1      43.473  29.449  35.534  1.00  0.00     0.031 A 
BRANCH  26  40
ATOM     40  C   UNL A   1      40.734  28.204  30.126  1.00  0.00    -0.014 A 
ATOM     41  C   UNL A   1      41.608  28.350  29.037  1.00  0.00     0.010 A 
ATOM     42  C   UNL A   1      39.757  27.192  30.097  1.00  0.00     0.010 A 
ATOM     43  C   UNL A   1      41.504  27.496  27.937  1.00  0.00     0.020 A 
ATOM     44  C   UNL A   1      39.666  26.321  29.012  1.00  0.00     0.020 A 
ATOM     45  C   UNL A   1      40.541  26.479  27.937  1.00  0.00     0.054 A 
BRANCH  45  46
ATOM     46  S   UNL A   1      40.488  25.332  26.535  1.00  0.00     0.124 S 
ATOM     47  O   UNL A   1      40.929  26.182  25.432  1.00  0.00    -0.237 OA
ATOM     48  O   UNL A   1      41.428  24.292  26.942  1.00  0.00    -0.237 OA
ATOM     49  O   UNL A   1      39.088  24.917  26.478  1.00  0.00    -0.744 OA
ENDBRANCH  45  46
ENDBRANCH  26  40
BRANCH  27  50
ATOM     50  C   UNL A   1      40.582  33.879  38.526  1.00  0.00    -0.014 A 
ATOM     51  C   UNL A   1      39.895  33.458  39.678  1.00  0.00     0.010 A 
ATOM     52  C   UNL A   1      41.238  35.124  38.574  1.00  0.00     0.010 A 
ATOM     53  C   UNL A   1      39.843  34.255  40.824  1.00  0.00     0.020 A 
ATOM     54  C   UNL A   1      41.245  35.901  39.741  1.00  0.00     0.020 A 
ATOM     55  C   UNL A   1      40.532  35.466  40.856  1.00  0.00     0.054 A 
BRANCH  55  56
ATOM     56  S   UNL A   1      40.491  36.442  42.382  1.00  0.00     0.124 S 
ATOM     57  O   UNL A   1      41.003  37.732  41.931  1.00  0.00    -0.237 OA
ATOM     58  O   UNL A   1      39.072  36.411  42.727  1.00  0.00    -0.237 OA
ATOM     59  O   UNL A   1      41.368  35.701  43.285  1.00  0.00    -0.744 OA
ENDBRANCH  55  56
ENDBRANCH  27  50
BRANCH  39  60
ATOM     60  C   UNL A   1      44.625  28.724  36.167  1.00  0.00    -0.014 A 
ATOM     61  C   UNL A   1      44.396  27.602  36.984  1.00  0.00     0.010 A 
ATOM     62  C   UNL A   1      45.940  29.135  35.897  1.00  0.00     0.010 A 
ATOM     63  C   UNL A   1      45.469  26.921  37.553  1.00  0.00     0.020 A 
ATOM     64  C   UNL A   1      47.017  28.432  36.434  1.00  0.00     0.020 A 
ATOM     65  C   UNL A   1      46.774  27.338  37.269  1.00  0.00     0.054 A 
BRANCH  65  66
ATOM     66  S   UNL A   1      48.150  26.397  37.973  1.00  0.00     0.124 S 
ATOM     67  O   UNL A   1      47.908  26.535  39.407  1.00  0.00    -0.237 OA
ATOM     68  O   UNL A   1      47.937  25.061  37.424  1.00  0.00    -0.237 OA
ATOM     69  O   UNL A   1      49.335  27.090  37.473  1.00  0.00    -0.744 OA
ENDBRANCH  65  66
ENDBRANCH  39  60
ENDBRANCH  13  14
ENDBRANCH   6   8
ENDBRANCH   5   6
ENDBRANCH   4   5
ENDBRANCH   3   4
ENDBRANCH   2   3
ENDBRANCH   1   2
BRANCH   1  70
ATOM     70  C   UNL A   1      34.587  31.856  28.657  1.00  0.00     0.188 C 
BRANCH  70  71
ATOM     71  O   UNL A   1      34.690  30.611  27.975  1.00  0.00    -0.376 OA
BRANCH  71  72
ATOM     72  C   UNL A   1      33.553  30.137  27.262  1.00  0.00     0.202 C 
BRANCH  72  73
ATOM     73  C   UNL A   1      33.271  28.626  27.238  1.00  0.00     0.261 C 
BRANCH  73  74
ATOM     74  O   UNL A   1      32.423  28.176  26.178  1.00  0.00    -0.463 OA
BRANCH  74  75
ATOM     75  C   UNL A   1      33.044  28.012  24.973  1.00  0.00     0.311 C 
ATOM     76  O   UNL A   1      33.970  27.243  24.758  1.00  0.00    -0.252 OA
BRANCH  75  77
ATOM     77  C   UNL A   1      32.384  28.903  23.937  1.00  0.00     0.128 C 
ATOM     78  C   UNL A   1      32.924  28.435  22.606  1.00  0.00     0.135 C 
ATOM     79  C   UNL A   1      30.868  28.631  23.813  1.00  0.00     0.055 C 
ATOM     80  N   UNL A   1      32.172  27.232  22.345  1.00  0.00    -0.341 N 
ATOM     81  C   UNL A   1      30.854  27.315  22.980  1.00  0.00     0.128 C 
BRANCH  79  82
ATOM     82  C   UNL A   1      30.004  29.730  23.187  1.00  0.00    -0.042 A 
ATOM     83  C   UNL A   1      29.568  30.788  24.009  1.00  0.00     0.007 A 
ATOM     84  C   UNL A   1      29.635  29.771  21.832  1.00  0.00     0.007 A 
ATOM     85  C   UNL A   1      28.754  31.809  23.509  1.00  0.00     0.039 A 
ATOM     86  C   UNL A   1      28.798  30.778  21.335  1.00  0.00     0.039 A 
ATOM     87  C   UNL A   1      28.363  31.788  22.179  1.00  0.00     0.123 A 
ATOM     88  F   UNL A   1      27.574  32.758  21.702  1.00  0.00    -0.207 F 
ENDBRANCH  79  82
BRANCH  80  89
ATOM     89  C   UNL A   1      32.659  26.037  21.860  1.00  0.00     0.225 C 
ATOM     90  O   UNL A   1      33.250  25.983  20.781  1.00  0.00    -0.275 OA
BRANCH  89  91
ATOM     91  C   UNL A   1      32.362  24.758  22.633  1.00  0.00     0.130 C 
BRANCH  91  92
ATOM     92  C   UNL A   1      33.550  23.800  22.662  1.00  0.00     0.123 C 
ATOM     93  N   UNL A   1      34.668  24.314  23.454  1.00  0.00    -0.345 N 
ATOM     94  C   UNL A   1      33.287  22.496  23.366  1.00  0.00    -0.012 A 
ATOM     95  C   UNL A   1      35.116  23.443  24.413  1.00  0.00     0.252 C 
ATOM     96  H   UNL A   1      35.062  25.204  23.311  1.00  0.00     0.164 HD
ATOM     97  C   UNL A   1      34.258  22.267  24.345  1.00  0.00     0.045 A 
ATOM     98  C   UNL A   1      32.346  21.519  23.093  1.00  0.00     0.007 A 
ATOM     99  O   UNL A   1      36.045  23.628  25.180  1.00  0.00    -0.269 OA
ATOM    100  C   UNL A   1      34.371  21.079  25.041  1.00  0.00     0.014 A 
ATOM    101  C   UNL A   1      32.424  20.310  23.798  1.00  0.00     0.000 A 
ATOM    102  C   UNL A   1      33.436  20.085  24.751  1.00  0.00     0.001 A 
ENDBRANCH  91  92
ENDBRANCH  89  91
ENDBRANCH  80  89
ENDBRANCH  75  77
ENDBRANCH  74  75
ENDBRANCH  73  74
ENDBRANCH  72  73
ENDBRANCH  71  72
ENDBRANCH  70  71
ENDBRANCH   1  70
TORSDOF 24
ENDMDL
MODEL 3
REMARK VINA RESULT:     -10.5      5.097      7.119
REMARK SMILES O=C(OCCOCCOCCOC(=O)[C@H]1CN(C(=O)C[C@H]2NC(=O)c3ccccc32)C[C@@H]1c1ccc(F)cc1)c1ccc(-c2c3nc(c(-c4ccc(S(=O)(=O)[O-])cc4)c4ccc([nH]4)c(-c4ccc(S(=O)(=O)[O-])cc4)c4nc(c(-c5ccc(S(=O)(=O)[O-])cc5)c5ccc2[nH]5)C=C4)C=C3)cc1
REMARK SMILES IDX 7 1 6 2 5 3 4 4 3 5 2 6 1 7 40 8 41 9 99 10 42 11 98 12
REMARK SMILES IDX 43 13 44 14 45 15 92 16 46 17 97 18 91 19 93 20 47 21 96 22
REMARK SMILES IDX 90 23 89 24 48 26 78 27 59 28 77 29 60 30 63 31 76 32 94 33
REMARK SMILES IDX 61 34 62 35 75 37 95 38 64 39 49 40 50 41 58 42 51 43 57 44
REMARK SMILES IDX 52 45 53 46 54 47 55 48 56 49 79 50 80 51 88 52 81 53 87 54
REMARK SMILES IDX 82 55 83 56 84 57 85 58 86 59 65 60 66 61 74 62 67 63 73 64
REMARK SMILES IDX 68 65 69 66 70 67 71 68 72 69 8 70 9 71 10 72 11 73 12 74
REMARK SMILES IDX 13 75 14 76 15 77 16 78 32 79 17 80 31 81 33 82 34 83 39 84
REMARK SMILES IDX 35 85 38 86 36 87 37 88 18 89 19 90 20 91 21 92 22 93 30 94
REMARK SMILES IDX 23 95 25 97 29 98 24 99 26 100 28 101 27 102
REMARK H PARENT 93 25 63 36 22 96
REMARK Flexibility Score: inf
ROOT
ATOM      1  C   UNL A   1      33.423  30.437  27.536  1.00  0.00     0.188 C 
ENDROOT
BRANCH   1   2
ATOM      2  O   UNL A   1      34.682  30.574  26.883  1.00  0.00    -0.376 OA
BRANCH   2   3
ATOM      3  C   UNL A   1      35.766  29.843  27.465  1.00  0.00     0.202 C 
BRANCH   3   4
ATOM      4  C   UNL A   1      36.296  30.311  28.835  1.00  0.00     0.261 C 
BRANCH   4   5
ATOM      5  O   UNL A   1      36.435  29.285  29.835  1.00  0.00    -0.460 OA
BRANCH   5   6
ATOM      6  C   UNL A   1      37.495  28.969  30.616  1.00  0.00     0.338 C 
ATOM      7  O   UNL A   1      37.311  28.794  31.819  1.00  0.00    -0.246 OA
BRANCH   6   8
ATOM      8  C   UNL A   1      38.886  28.850  30.101  1.00  0.00     0.060 A 
ATOM      9  C   UNL A   1      39.948  28.322  30.830  1.00  0.00     0.016 A 
ATOM     10  C   UNL A   1      39.112  29.178  28.755  1.00  0.00     0.016 A 
ATOM     11  C   UNL A   1      41.223  28.224  30.301  1.00  0.00     0.010 A 
ATOM     12  C   UNL A   1      40.380  29.020  28.186  1.00  0.00     0.010 A 
ATOM     13  C   UNL A   1      41.445  28.570  28.974  1.00  0.00    -0.014 A 
BRANCH  13  14
ATOM     14  C   UNL A   1      42.827  28.500  28.474  1.00  0.00     0.031 A 
ATOM     15  C   UNL A   1      43.749  29.622  28.803  1.00  0.00     0.074 A 
ATOM     16  C   UNL A   1      43.243  27.396  27.827  1.00  0.00     0.049 A 
ATOM     17  N   UNL A   1      44.999  29.762  28.473  1.00  0.00    -0.248 NA
ATOM     18  C   UNL A   1      43.198  30.733  29.598  1.00  0.00     0.031 C 
ATOM     19  C   UNL A   1      42.386  26.249  27.547  1.00  0.00     0.029 A 
ATOM     20  N   UNL A   1      44.456  27.021  27.317  1.00  0.00    -0.354 N 
ATOM     21  C   UNL A   1      45.368  31.006  28.956  1.00  0.00     0.074 A 
ATOM     22  C   UNL A   1      44.223  31.571  29.631  1.00  0.00     0.031 C 
ATOM     23  C   UNL A   1      43.100  25.289  26.946  1.00  0.00     0.029 A 
ATOM     24  C   UNL A   1      44.463  25.756  26.770  1.00  0.00     0.049 A 
ATOM     25  H   UNL A   1      45.250  27.603  27.339  1.00  0.00     0.167 HD
ATOM     26  C   UNL A   1      46.558  31.621  28.799  1.00  0.00     0.031 A 
ATOM     27  C   UNL A   1      45.463  25.055  26.197  1.00  0.00     0.031 A 
ATOM     28  C   UNL A   1      47.666  31.014  28.117  1.00  0.00     0.049 A 
ATOM     29  C   UNL A   1      46.788  25.763  26.092  1.00  0.00     0.074 A 
ATOM     30  C   UNL A   1      48.909  31.553  27.850  1.00  0.00     0.029 A 
ATOM     31  N   UNL A   1      47.660  29.726  27.594  1.00  0.00    -0.354 N 
ATOM     32  N   UNL A   1      47.126  26.939  26.570  1.00  0.00    -0.248 NA
ATOM     33  C   UNL A   1      47.854  25.078  25.354  1.00  0.00     0.031 C 
ATOM     34  C   UNL A   1      49.629  30.618  27.102  1.00  0.00     0.029 A 
ATOM     35  C   UNL A   1      48.863  29.469  26.967  1.00  0.00     0.049 A 
ATOM     36  H   UNL A   1      46.909  29.092  27.661  1.00  0.00     0.167 HD
ATOM     37  C   UNL A   1      48.439  27.140  26.177  1.00  0.00     0.074 A 
ATOM     38  C   UNL A   1      48.859  25.929  25.499  1.00  0.00     0.031 C 
ATOM     39  C   UNL A   1      49.220  28.238  26.310  1.00  0.00     0.031 A 
BRANCH  26  40
ATOM     40  C   UNL A   1      46.669  33.041  29.263  1.00  0.00    -0.014 A 
ATOM     41  C   UNL A   1      46.101  34.108  28.546  1.00  0.00     0.010 A 
ATOM     42  C   UNL A   1      47.340  33.302  30.472  1.00  0.00     0.010 A 
ATOM     43  C   UNL A   1      46.205  35.412  29.033  1.00  0.00     0.020 A 
ATOM     44  C   UNL A   1      47.423  34.599  30.975  1.00  0.00     0.020 A 
ATOM     45  C   UNL A   1      46.854  35.648  30.250  1.00  0.00     0.054 A 
BRANCH  45  46
ATOM     46  S   UNL A   1      46.896  37.339  30.900  1.00  0.00     0.124 S 
ATOM     47  O   UNL A   1      46.773  37.115  32.337  1.00  0.00    -0.237 OA
ATOM     48  O   UNL A   1      48.199  37.818  30.448  1.00  0.00    -0.237 OA
ATOM     49  O   UNL A   1      45.746  37.983  30.269  1.00  0.00    -0.744 OA
ENDBRANCH  45  46
ENDBRANCH  26  40
BRANCH  27  50
ATOM     50  C   UNL A   1      45.271  23.661  25.680  1.00  0.00    -0.014 A 
ATOM     51  C   UNL A   1      45.005  23.434  24.319  1.00  0.00     0.010 A 
ATOM     52  C   UNL A   1      45.327  22.540  26.531  1.00  0.00     0.010 A 
ATOM     53  C   UNL A   1      44.778  22.145  23.828  1.00  0.00     0.020 A 
ATOM     54  C   UNL A   1      45.165  21.239  26.036  1.00  0.00     0.020 A 
ATOM     55  C   UNL A   1      44.876  21.053  24.686  1.00  0.00     0.054 A 
BRANCH  55  56
ATOM     56  S   UNL A   1      44.636  19.393  23.999  1.00  0.00     0.124 S 
ATOM     57  O   UNL A   1      44.429  19.676  22.583  1.00  0.00    -0.237 OA
ATOM     58  O   UNL A   1      45.898  18.738  24.335  1.00  0.00    -0.237 OA
ATOM     59  O   UNL A   1      43.464  18.893  24.715  1.00  0.00    -0.744 OA
ENDBRANCH  55  56
ENDBRANCH  27  50
BRANCH  39  60
ATOM     60  C   UNL A   1      50.581  28.165  25.684  1.00  0.00    -0.014 A 
ATOM     61  C   UNL A   1      51.721  27.957  26.482  1.00  0.00     0.010 A 
ATOM     62  C   UNL A   1      50.712  28.248  24.288  1.00  0.00     0.010 A 
ATOM     63  C   UNL A   1      52.980  27.869  25.893  1.00  0.00     0.020 A 
ATOM     64  C   UNL A   1      51.967  28.121  23.693  1.00  0.00     0.020 A 
ATOM     65  C   UNL A   1      53.093  27.946  24.502  1.00  0.00     0.054 A 
BRANCH  65  66
ATOM     66  S   UNL A   1      54.735  27.767  23.761  1.00  0.00     0.124 S 
ATOM     67  O   UNL A   1      54.593  28.530  22.523  1.00  0.00    -0.237 OA
ATOM     68  O   UNL A   1      55.606  28.360  24.771  1.00  0.00    -0.237 OA
ATOM     69  O   UNL A   1      54.881  26.323  23.589  1.00  0.00    -0.744 OA
ENDBRANCH  65  66
ENDBRANCH  39  60
ENDBRANCH  13  14
ENDBRANCH   6   8
ENDBRANCH   5   6
ENDBRANCH   4   5
ENDBRANCH   3   4
ENDBRANCH   2   3
ENDBRANCH   1   2
BRANCH   1  70
ATOM     70  C   UNL A   1      32.393  29.663  26.717  1.00  0.00     0.188 C 
BRANCH  70  71
ATOM     71  O   UNL A   1      32.756  28.370  26.246  1.00  0.00    -0.376 OA
BRANCH  71  72
ATOM     72  C   UNL A   1      33.361  28.265  24.962  1.00  0.00     0.202 C 
BRANCH  72  73
ATOM     73  C   UNL A   1      33.626  26.868  24.380  1.00  0.00     0.261 C 
BRANCH  73  74
ATOM     74  O   UNL A   1      34.211  25.926  25.283  1.00  0.00    -0.463 OA
BRANCH  74  75
ATOM     75  C   UNL A   1      34.764  24.826  24.692  1.00  0.00     0.311 C 
ATOM     76  O   UNL A   1      34.574  24.480  23.535  1.00  0.00    -0.252 OA
BRANCH  75  77
ATOM     77  C   UNL A   1      35.677  24.125  25.679  1.00  0.00     0.128 C 
ATOM     78  C   UNL A   1      34.868  22.969  26.220  1.00  0.00     0.135 C 
ATOM     79  C   UNL A   1      36.864  23.422  24.982  1.00  0.00     0.055 C 
ATOM     80  N   UNL A   1      34.930  21.993  25.160  1.00  0.00    -0.341 N 
ATOM     81  C   UNL A   1      36.178  22.148  24.407  1.00  0.00     0.128 C 
BRANCH  79  82
ATOM     82  C   UNL A   1      38.089  23.092  25.839  1.00  0.00    -0.042 A 
ATOM     83  C   UNL A   1      38.613  24.099  26.675  1.00  0.00     0.007 A 
ATOM     84  C   UNL A   1      38.718  21.836  25.871  1.00  0.00     0.007 A 
ATOM     85  C   UNL A   1      39.746  23.875  27.462  1.00  0.00     0.039 A 
ATOM     86  C   UNL A   1      39.869  21.617  26.639  1.00  0.00     0.039 A 
ATOM     87  C   UNL A   1      40.374  22.640  27.426  1.00  0.00     0.123 A 
ATOM     88  F   UNL A   1      41.467  22.427  28.170  1.00  0.00    -0.207 F 
ENDBRANCH  79  82
BRANCH  80  89
ATOM     89  C   UNL A   1      33.893  21.223  24.678  1.00  0.00     0.225 C 
ATOM     90  O   UNL A   1      33.799  20.030  24.968  1.00  0.00    -0.275 OA
BRANCH  89  91
ATOM     91  C   UNL A   1      32.917  21.849  23.690  1.00  0.00     0.130 C 
BRANCH  91  92
ATOM     92  C   UNL A   1      31.558  22.148  24.318  1.00  0.00     0.123 C 
ATOM     93  N   UNL A   1      31.538  21.902  25.760  1.00  0.00    -0.345 N 
ATOM     94  C   UNL A   1      31.156  23.598  24.279  1.00  0.00    -0.012 A 
ATOM     95  C   UNL A   1      31.088  22.965  26.500  1.00  0.00     0.252 C 
ATOM     96  H   UNL A   1      31.822  21.049  26.161  1.00  0.00     0.164 HD
ATOM     97  C   UNL A   1      30.815  24.044  25.559  1.00  0.00     0.045 A 
ATOM     98  C   UNL A   1      30.979  24.437  23.193  1.00  0.00     0.007 A 
ATOM     99  O   UNL A   1      30.957  22.998  27.711  1.00  0.00    -0.269 OA
ATOM    100  C   UNL A   1      30.251  25.280  25.809  1.00  0.00     0.014 A 
ATOM    101  C   UNL A   1      30.428  25.706  23.420  1.00  0.00     0.000 A 
ATOM    102  C   UNL A   1      30.052  26.118  24.713  1.00  0.00     0.001 A 
ENDBRANCH  91  92
ENDBRANCH  89  91
ENDBRANCH  80  89
ENDBRANCH  75  77
ENDBRANCH  74  75
ENDBRANCH  73  74
ENDBRANCH  72  73
ENDBRANCH  71  72
ENDBRANCH  70  71
ENDBRANCH   1  70
TORSDOF 24
ENDMDL
