MODEL 1
REMARK VINA RESULT:      -9.6      0.000      0.000
REMARK SMILES COc1cccc(C(=O)N[C@H]2C=C[C@@H](C(=O)OCCOCCOCCOC(=O)c3ccc(-c4c5nc(c(-c6ccc(S(=O)(=O)[O-])cc6)c6ccc([nH]6)c(-c6ccc(S(=O)(=O)[O-])cc6)c6nc(c(-c7ccc(S(=O)(=O)[O-])cc7)c7ccc4[nH]7)C=C6)C=C5)cc3)C2)c1
REMARK SMILES IDX 21 1 20 2 19 3 18 4 17 5 15 6 16 7 14 8 11 9 12 10 89 11
REMARK SMILES IDX 13 12 10 13 8 14 9 15 7 17 3 18 4 19 90 20 5 21 6 22 2 23
REMARK SMILES IDX 1 24 22 25 23 26 24 27 25 28 26 29 27 30 28 31 29 32 30 33
REMARK SMILES IDX 88 34 31 35 87 36 32 37 33 38 34 39 81 40 35 41 86 42 80 43
REMARK SMILES IDX 82 44 36 45 85 46 79 47 78 48 37 50 67 51 48 52 66 53 49 54
REMARK SMILES IDX 52 55 65 56 83 57 50 58 51 59 64 61 84 62 53 63 38 64 39 65
REMARK SMILES IDX 47 66 40 67 46 68 41 69 42 70 43 71 44 72 45 73 68 74 69 75
REMARK SMILES IDX 77 76 70 77 76 78 71 79 72 80 73 81 74 82 75 83 54 84 55 85
REMARK SMILES IDX 63 86 56 87 62 88 57 89 58 90 59 91 60 92 61 93
REMARK H PARENT 10 16 82 49 52 60
REMARK Flexibility Score: inf
ROOT
ATOM      1  C   UNL A   1      34.245  31.354  28.144  1.00  0.00     0.188 C 
ENDROOT
BRANCH   1   2
ATOM      2  O   UNL A   1      33.694  30.575  27.090  1.00  0.00    -0.376 OA
BRANCH   2   3
ATOM      3  C   UNL A   1      32.309  30.246  27.130  1.00  0.00     0.202 C 
BRANCH   3   4
ATOM      4  C   UNL A   1      31.427  30.549  25.905  1.00  0.00     0.261 C 
BRANCH   4   5
ATOM      5  O   UNL A   1      31.817  29.892  24.678  1.00  0.00    -0.463 OA
BRANCH   5   6
ATOM      6  C   UNL A   1      31.041  28.851  24.281  1.00  0.00     0.312 C 
ATOM      7  O   UNL A   1      30.002  28.978  23.639  1.00  0.00    -0.252 OA
BRANCH   6   8
ATOM      8  C   UNL A   1      31.560  27.465  24.685  1.00  0.00     0.124 C 
ATOM      9  C   UNL A   1      32.612  25.387  23.906  1.00  0.00     0.106 C 
ATOM     10  C   UNL A   1      33.634  26.396  24.305  1.00  0.00    -0.006 C 
ATOM     11  C   UNL A   1      31.359  26.258  23.766  1.00  0.00     0.048 C 
ATOM     12  C   UNL A   1      33.061  27.509  24.780  1.00  0.00    -0.014 C 
BRANCH   9  13
ATOM     13  N   UNL A   1      32.945  24.764  22.648  1.00  0.00    -0.346 N 
ATOM     14  C   UNL A   1      33.360  23.494  22.324  1.00  0.00     0.251 C 
ATOM     15  O   UNL A   1      33.470  23.231  21.124  1.00  0.00    -0.269 OA
ATOM     16  H   UNL A   1      32.861  25.365  21.872  1.00  0.00     0.164 HD
BRANCH  14  17
ATOM     17  C   UNL A   1      33.750  22.452  23.324  1.00  0.00     0.043 A 
ATOM     18  C   UNL A   1      35.308  21.294  24.793  1.00  0.00     0.119 A 
ATOM     19  C   UNL A   1      34.343  20.320  25.051  1.00  0.00     0.046 A 
ATOM     20  C   UNL A   1      34.991  22.378  23.968  1.00  0.00     0.060 A 
ATOM     21  C   UNL A   1      33.070  20.428  24.500  1.00  0.00     0.005 A 
ATOM     22  C   UNL A   1      32.779  21.483  23.635  1.00  0.00     0.014 A 
BRANCH  18  23
ATOM     23  O   UNL A   1      36.519  21.062  25.385  1.00  0.00    -0.497 OA
ATOM     24  C   UNL A   1      37.504  22.082  25.299  1.00  0.00     0.278 C 
ENDBRANCH  18  23
ENDBRANCH  14  17
ENDBRANCH   9  13
ENDBRANCH   6   8
ENDBRANCH   5   6
ENDBRANCH   4   5
ENDBRANCH   3   4
ENDBRANCH   2   3
ENDBRANCH   1   2
BRANCH   1  25
ATOM     25  C   UNL A   1      35.611  32.027  27.932  1.00  0.00     0.188 C 
BRANCH  25  26
ATOM     26  O   UNL A   1      35.904  33.068  28.832  1.00  0.00    -0.376 OA
BRANCH  26  27
ATOM     27  C   UNL A   1      35.127  33.167  30.012  1.00  0.00     0.202 C 
BRANCH  27  28
ATOM     28  C   UNL A   1      35.778  32.961  31.395  1.00  0.00     0.261 C 
BRANCH  28  29
ATOM     29  O   UNL A   1      37.074  32.344  31.435  1.00  0.00    -0.460 OA
BRANCH  29  30
ATOM     30  C   UNL A   1      37.121  31.009  31.644  1.00  0.00     0.338 C 
ATOM     31  O   UNL A   1      36.234  30.314  32.122  1.00  0.00    -0.246 OA
BRANCH  30  32
ATOM     32  C   UNL A   1      38.333  30.482  30.976  1.00  0.00     0.060 A 
ATOM     33  C   UNL A   1      39.414  30.051  31.762  1.00  0.00     0.016 A 
ATOM     34  C   UNL A   1      38.403  30.406  29.584  1.00  0.00     0.016 A 
ATOM     35  C   UNL A   1      40.575  29.565  31.155  1.00  0.00     0.010 A 
ATOM     36  C   UNL A   1      39.577  29.943  28.978  1.00  0.00     0.010 A 
ATOM     37  C   UNL A   1      40.679  29.546  29.759  1.00  0.00    -0.014 A 
BRANCH  37  38
ATOM     38  C   UNL A   1      41.992  29.296  29.112  1.00  0.00     0.031 A 
ATOM     39  C   UNL A   1      42.273  27.918  28.573  1.00  0.00     0.074 A 
ATOM     40  C   UNL A   1      42.920  30.265  28.997  1.00  0.00     0.049 A 
ATOM     41  N   UNL A   1      43.365  27.445  28.031  1.00  0.00    -0.248 NA
ATOM     42  C   UNL A   1      41.172  26.944  28.658  1.00  0.00     0.031 C 
ATOM     43  C   UNL A   1      42.757  31.651  29.433  1.00  0.00     0.029 A 
ATOM     44  N   UNL A   1      44.193  30.221  28.483  1.00  0.00    -0.354 N 
ATOM     45  C   UNL A   1      43.090  26.117  27.725  1.00  0.00     0.074 A 
ATOM     46  C   UNL A   1      41.737  25.853  28.165  1.00  0.00     0.031 C 
ATOM     47  C   UNL A   1      43.894  32.324  29.178  1.00  0.00     0.029 A 
ATOM     48  C   UNL A   1      44.877  31.408  28.601  1.00  0.00     0.049 A 
ATOM     49  H   UNL A   1      44.580  29.415  28.071  1.00  0.00     0.167 HD
ATOM     50  C   UNL A   1      43.888  25.199  27.130  1.00  0.00     0.031 A 
ATOM     51  C   UNL A   1      46.157  31.713  28.303  1.00  0.00     0.031 A 
ATOM     52  C   UNL A   1      45.240  25.458  26.709  1.00  0.00     0.049 A 
ATOM     53  C   UNL A   1      47.056  30.651  27.718  1.00  0.00     0.074 A 
ATOM     54  C   UNL A   1      46.125  24.596  26.085  1.00  0.00     0.029 A 
ATOM     55  N   UNL A   1      45.906  26.662  26.876  1.00  0.00    -0.354 N 
ATOM     56  N   UNL A   1      46.774  29.405  27.413  1.00  0.00    -0.248 NA
ATOM     57  C   UNL A   1      48.445  31.039  27.431  1.00  0.00     0.031 C 
ATOM     58  C   UNL A   1      47.347  25.259  25.936  1.00  0.00     0.029 A 
ATOM     59  C   UNL A   1      47.200  26.557  26.396  1.00  0.00     0.049 A 
ATOM     60  H   UNL A   1      45.517  27.472  27.278  1.00  0.00     0.167 HD
ATOM     61  C   UNL A   1      47.940  28.874  26.867  1.00  0.00     0.074 A 
ATOM     62  C   UNL A   1      48.924  29.937  26.870  1.00  0.00     0.031 C 
ATOM     63  C   UNL A   1      48.173  27.622  26.402  1.00  0.00     0.031 A 
BRANCH  50  64
ATOM     64  C   UNL A   1      43.332  23.812  26.935  1.00  0.00    -0.014 A 
ATOM     65  C   UNL A   1      42.749  23.422  25.715  1.00  0.00     0.010 A 
ATOM     66  C   UNL A   1      43.432  22.872  27.976  1.00  0.00     0.010 A 
ATOM     67  C   UNL A   1      42.245  22.129  25.555  1.00  0.00     0.020 A 
ATOM     68  C   UNL A   1      42.957  21.568  27.809  1.00  0.00     0.020 A 
ATOM     69  C   UNL A   1      42.353  21.210  26.603  1.00  0.00     0.054 A 
BRANCH  69  70
ATOM     70  S   UNL A   1      41.715  19.530  26.355  1.00  0.00     0.124 S 
ATOM     71  O   UNL A   1      40.296  19.779  26.114  1.00  0.00    -0.237 OA
ATOM     72  O   UNL A   1      42.477  19.067  25.198  1.00  0.00    -0.237 OA
ATOM     73  O   UNL A   1      42.022  18.852  27.611  1.00  0.00    -0.744 OA
ENDBRANCH  69  70
ENDBRANCH  50  64
BRANCH  51  74
ATOM     74  C   UNL A   1      46.683  33.083  28.571  1.00  0.00    -0.014 A 
ATOM     75  C   UNL A   1      47.268  33.399  29.810  1.00  0.00     0.010 A 
ATOM     76  C   UNL A   1      46.581  34.086  27.590  1.00  0.00     0.010 A 
ATOM     77  C   UNL A   1      47.725  34.696  30.068  1.00  0.00     0.020 A 
ATOM     78  C   UNL A   1      47.066  35.375  27.832  1.00  0.00     0.020 A 
ATOM     79  C   UNL A   1      47.625  35.674  29.076  1.00  0.00     0.054 A 
BRANCH  79  80
ATOM     80  S   UNL A   1      48.270  37.335  29.419  1.00  0.00     0.124 S 
ATOM     81  O   UNL A   1      47.331  38.182  28.691  1.00  0.00    -0.237 OA
ATOM     82  O   UNL A   1      48.193  37.407  30.875  1.00  0.00    -0.237 OA
ATOM     83  O   UNL A   1      49.626  37.294  28.874  1.00  0.00    -0.744 OA
ENDBRANCH  79  80
ENDBRANCH  51  74
BRANCH  63  84
ATOM     84  C   UNL A   1      49.530  27.334  25.808  1.00  0.00    -0.014 A 
ATOM     85  C   UNL A   1      50.538  26.692  26.550  1.00  0.00     0.010 A 
ATOM     86  C   UNL A   1      49.780  27.665  24.463  1.00  0.00     0.010 A 
ATOM     87  C   UNL A   1      51.780  26.421  25.969  1.00  0.00     0.020 A 
ATOM     88  C   UNL A   1      51.008  27.366  23.869  1.00  0.00     0.020 A 
ATOM     89  C   UNL A   1      52.007  26.759  24.630  1.00  0.00     0.054 A 
BRANCH  89  90
ATOM     90  S   UNL A   1      53.615  26.363  23.890  1.00  0.00     0.124 S 
ATOM     91  O   UNL A   1      53.234  25.932  22.547  1.00  0.00    -0.237 OA
ATOM     92  O   UNL A   1      54.324  27.638  23.963  1.00  0.00    -0.237 OA
ATOM     93  O   UNL A   1      54.145  25.311  24.754  1.00  0.00    -0.744 OA
ENDBRANCH  89  90
ENDBRANCH  63  84
ENDBRANCH  37  38
ENDBRANCH  30  32
ENDBRANCH  29  30
ENDBRANCH  28  29
ENDBRANCH  27  28
ENDBRANCH  26  27
ENDBRANCH  25  26
ENDBRANCH   1  25
TORSDOF 23
ENDMDL
MODEL 2
REMARK VINA RESULT:      -9.4      6.022     12.068
REMARK SMILES COc1cccc(C(=O)N[C@H]2C=C[C@@H](C(=O)OCCOCCOCCOC(=O)c3ccc(-c4c5nc(c(-c6ccc(S(=O)(=O)[O-])cc6)c6ccc([nH]6)c(-c6ccc(S(=O)(=O)[O-])cc6)c6nc(c(-c7ccc(S(=O)(=O)[O-])cc7)c7ccc4[nH]7)C=C6)C=C5)cc3)C2)c1
REMARK SMILES IDX 21 1 20 2 19 3 18 4 17 5 15 6 16 7 14 8 11 9 12 10 89 11
REMARK SMILES IDX 13 12 10 13 8 14 9 15 7 17 3 18 4 19 90 20 5 21 6 22 2 23
REMARK SMILES IDX 1 24 22 25 23 26 24 27 25 28 26 29 27 30 28 31 29 32 30 33
REMARK SMILES IDX 88 34 31 35 87 36 32 37 33 38 34 39 81 40 35 41 86 42 80 43
REMARK SMILES IDX 82 44 36 45 85 46 79 47 78 48 37 50 67 51 48 52 66 53 49 54
REMARK SMILES IDX 52 55 65 56 83 57 50 58 51 59 64 61 84 62 53 63 38 64 39 65
REMARK SMILES IDX 47 66 40 67 46 68 41 69 42 70 43 71 44 72 45 73 68 74 69 75
REMARK SMILES IDX 77 76 70 77 76 78 71 79 72 80 73 81 74 82 75 83 54 84 55 85
REMARK SMILES IDX 63 86 56 87 62 88 57 89 58 90 59 91 60 92 61 93
REMARK H PARENT 10 16 82 49 52 60
REMARK Flexibility Score: inf
ROOT
ATOM      1  C   UNL A   1      41.565  21.486  26.995  1.00  0.00     0.188 C 
ENDROOT
BRANCH   1   2
ATOM      2  O   UNL A   1      40.599  22.317  26.366  1.00  0.00    -0.376 OA
BRANCH   2   3
ATOM      3  C   UNL A   1      39.259  21.848  26.252  1.00  0.00     0.202 C 
BRANCH   3   4
ATOM      4  C   UNL A   1      38.176  22.788  25.692  1.00  0.00     0.261 C 
BRANCH   4   5
ATOM      5  O   UNL A   1      37.475  22.304  24.524  1.00  0.00    -0.463 OA
BRANCH   5   6
ATOM      6  C   UNL A   1      36.121  22.247  24.617  1.00  0.00     0.312 C 
ATOM      7  O   UNL A   1      35.359  22.547  23.701  1.00  0.00    -0.252 OA
BRANCH   6   8
ATOM      8  C   UNL A   1      35.584  21.760  25.969  1.00  0.00     0.124 C 
ATOM      9  C   UNL A   1      33.711  21.838  27.555  1.00  0.00     0.106 C 
ATOM     10  C   UNL A   1      33.540  20.735  26.567  1.00  0.00    -0.006 C 
ATOM     11  C   UNL A   1      34.781  22.698  26.873  1.00  0.00     0.048 C 
ATOM     12  C   UNL A   1      34.588  20.659  25.736  1.00  0.00    -0.014 C 
BRANCH   9  13
ATOM     13  N   UNL A   1      32.489  22.586  27.730  1.00  0.00    -0.346 N 
ATOM     14  C   UNL A   1      31.626  23.174  26.836  1.00  0.00     0.251 C 
ATOM     15  O   UNL A   1      30.593  23.665  27.296  1.00  0.00    -0.269 OA
ATOM     16  H   UNL A   1      32.224  22.698  28.672  1.00  0.00     0.164 HD
BRANCH  14  17
ATOM     17  C   UNL A   1      31.895  23.316  25.371  1.00  0.00     0.043 A 
ATOM     18  C   UNL A   1      32.038  22.511  23.077  1.00  0.00     0.119 A 
ATOM     19  C   UNL A   1      32.624  23.717  22.690  1.00  0.00     0.046 A 
ATOM     20  C   UNL A   1      31.635  22.335  24.406  1.00  0.00     0.060 A 
ATOM     21  C   UNL A   1      32.800  24.742  23.614  1.00  0.00     0.005 A 
ATOM     22  C   UNL A   1      32.446  24.538  24.948  1.00  0.00     0.014 A 
BRANCH  18  23
ATOM     23  O   UNL A   1      31.934  21.585  22.077  1.00  0.00    -0.497 OA
ATOM     24  C   UNL A   1      32.131  20.219  22.416  1.00  0.00     0.278 C 
ENDBRANCH  18  23
ENDBRANCH  14  17
ENDBRANCH   9  13
ENDBRANCH   6   8
ENDBRANCH   5   6
ENDBRANCH   4   5
ENDBRANCH   3   4
ENDBRANCH   2   3
ENDBRANCH   1   2
BRANCH   1  25
ATOM     25  C   UNL A   1      42.910  21.249  26.291  1.00  0.00     0.188 C 
BRANCH  25  26
ATOM     26  O   UNL A   1      43.010  21.805  25.002  1.00  0.00    -0.376 OA
BRANCH  26  27
ATOM     27  C   UNL A   1      43.898  22.891  24.812  1.00  0.00     0.202 C 
BRANCH  27  28
ATOM     28  C   UNL A   1      43.385  24.343  24.892  1.00  0.00     0.261 C 
BRANCH  28  29
ATOM     29  O   UNL A   1      42.831  24.785  26.142  1.00  0.00    -0.460 OA
BRANCH  29  30
ATOM     30  C   UNL A   1      41.881  25.746  26.095  1.00  0.00     0.338 C 
ATOM     31  O   UNL A   1      41.074  25.930  25.193  1.00  0.00    -0.246 OA
BRANCH  30  32
ATOM     32  C   UNL A   1      41.816  26.393  27.425  1.00  0.00     0.060 A 
ATOM     33  C   UNL A   1      40.764  26.064  28.294  1.00  0.00     0.016 A 
ATOM     34  C   UNL A   1      42.790  27.312  27.818  1.00  0.00     0.016 A 
ATOM     35  C   UNL A   1      40.672  26.673  29.549  1.00  0.00     0.010 A 
ATOM     36  C   UNL A   1      42.682  27.939  29.064  1.00  0.00     0.010 A 
ATOM     37  C   UNL A   1      41.608  27.644  29.925  1.00  0.00    -0.014 A 
BRANCH  37  38
ATOM     38  C   UNL A   1      41.367  28.487  31.124  1.00  0.00     0.031 A 
ATOM     39  C   UNL A   1      40.249  29.495  31.077  1.00  0.00     0.074 A 
ATOM     40  C   UNL A   1      42.114  28.362  32.237  1.00  0.00     0.049 A 
ATOM     41  N   UNL A   1      39.893  30.382  31.970  1.00  0.00    -0.248 NA
ATOM     42  C   UNL A   1      39.424  29.503  29.857  1.00  0.00     0.031 C 
ATOM     43  C   UNL A   1      43.192  27.394  32.431  1.00  0.00     0.029 A 
ATOM     44  N   UNL A   1      42.080  29.068  33.415  1.00  0.00    -0.354 N 
ATOM     45  C   UNL A   1      38.815  31.064  31.415  1.00  0.00     0.074 A 
ATOM     46  C   UNL A   1      38.592  30.504  30.100  1.00  0.00     0.031 C 
ATOM     47  C   UNL A   1      43.726  27.576  33.653  1.00  0.00     0.029 A 
ATOM     48  C   UNL A   1      43.056  28.698  34.310  1.00  0.00     0.049 A 
ATOM     49  H   UNL A   1      41.419  29.774  33.601  1.00  0.00     0.167 HD
ATOM     50  C   UNL A   1      38.075  32.063  31.952  1.00  0.00     0.031 A 
ATOM     51  C   UNL A   1      43.388  29.221  35.508  1.00  0.00     0.031 A 
ATOM     52  C   UNL A   1      38.309  32.631  33.253  1.00  0.00     0.049 A 
ATOM     53  C   UNL A   1      42.604  30.390  36.051  1.00  0.00     0.074 A 
ATOM     54  C   UNL A   1      37.606  33.638  33.890  1.00  0.00     0.029 A 
ATOM     55  N   UNL A   1      39.329  32.250  34.113  1.00  0.00    -0.354 N 
ATOM     56  N   UNL A   1      41.572  31.009  35.524  1.00  0.00    -0.248 NA
ATOM     57  C   UNL A   1      43.025  30.928  37.352  1.00  0.00     0.031 C 
ATOM     58  C   UNL A   1      38.240  33.912  35.106  1.00  0.00     0.029 A 
ATOM     59  C   UNL A   1      39.291  33.023  35.261  1.00  0.00     0.049 A 
ATOM     60  H   UNL A   1      39.982  31.537  33.934  1.00  0.00     0.167 HD
ATOM     61  C   UNL A   1      41.202  31.984  36.447  1.00  0.00     0.074 A 
ATOM     62  C   UNL A   1      42.109  31.862  37.569  1.00  0.00     0.031 C 
ATOM     63  C   UNL A   1      40.199  32.894  36.374  1.00  0.00     0.031 A 
BRANCH  50  64
ATOM     64  C   UNL A   1      36.964  32.636  31.111  1.00  0.00    -0.014 A 
ATOM     65  C   UNL A   1      35.622  32.271  31.323  1.00  0.00     0.010 A 
ATOM     66  C   UNL A   1      37.265  33.588  30.120  1.00  0.00     0.010 A 
ATOM     67  C   UNL A   1      34.607  32.820  30.535  1.00  0.00     0.020 A 
ATOM     68  C   UNL A   1      36.249  34.163  29.350  1.00  0.00     0.020 A 
ATOM     69  C   UNL A   1      34.928  33.763  29.554  1.00  0.00     0.054 A 
BRANCH  69  70
ATOM     70  S   UNL A   1      33.585  34.480  28.566  1.00  0.00     0.124 S 
ATOM     71  O   UNL A   1      33.238  33.371  27.681  1.00  0.00    -0.237 OA
ATOM     72  O   UNL A   1      32.586  34.811  29.580  1.00  0.00    -0.237 OA
ATOM     73  O   UNL A   1      34.208  35.626  27.912  1.00  0.00    -0.744 OA
ENDBRANCH  69  70
ENDBRANCH  50  64
BRANCH  51  74
ATOM     74  C   UNL A   1      44.537  28.660  36.277  1.00  0.00    -0.014 A 
ATOM     75  C   UNL A   1      44.341  27.628  37.212  1.00  0.00     0.010 A 
ATOM     76  C   UNL A   1      45.834  29.173  36.091  1.00  0.00     0.010 A 
ATOM     77  C   UNL A   1      45.417  27.132  37.957  1.00  0.00     0.020 A 
ATOM     78  C   UNL A   1      46.917  28.658  36.810  1.00  0.00     0.020 A 
ATOM     79  C   UNL A   1      46.698  27.648  37.747  1.00  0.00     0.054 A 
BRANCH  79  80
ATOM     80  S   UNL A   1      48.084  26.953  38.691  1.00  0.00     0.124 S 
ATOM     81  O   UNL A   1      47.700  25.550  38.807  1.00  0.00    -0.237 OA
ATOM     82  O   UNL A   1      49.225  27.228  37.821  1.00  0.00    -0.237 OA
ATOM     83  O   UNL A   1      48.063  27.713  39.939  1.00  0.00    -0.744 OA
ENDBRANCH  79  80
ENDBRANCH  51  74
BRANCH  63  84
ATOM     84  C   UNL A   1      39.990  33.805  37.559  1.00  0.00    -0.014 A 
ATOM     85  C   UNL A   1      40.682  35.022  37.683  1.00  0.00     0.010 A 
ATOM     86  C   UNL A   1      39.039  33.459  38.538  1.00  0.00     0.010 A 
ATOM     87  C   UNL A   1      40.455  35.856  38.781  1.00  0.00     0.020 A 
ATOM     88  C   UNL A   1      38.784  34.305  39.619  1.00  0.00     0.020 A 
ATOM     89  C   UNL A   1      39.506  35.492  39.743  1.00  0.00     0.054 A 
BRANCH  89  90
ATOM     90  S   UNL A   1      39.203  36.611  41.139  1.00  0.00     0.124 S 
ATOM     91  O   UNL A   1      38.717  37.813  40.467  1.00  0.00    -0.237 OA
ATOM     92  O   UNL A   1      38.208  35.882  41.922  1.00  0.00    -0.237 OA
ATOM     93  O   UNL A   1      40.514  36.739  41.772  1.00  0.00    -0.744 OA
ENDBRANCH  89  90
ENDBRANCH  63  84
ENDBRANCH  37  38
ENDBRANCH  30  32
ENDBRANCH  29  30
ENDBRANCH  28  29
ENDBRANCH  27  28
ENDBRANCH  26  27
ENDBRANCH  25  26
ENDBRANCH   1  25
TORSDOF 23
ENDMDL
MODEL 3
REMARK VINA RESULT:      -9.4      0.596      8.013
REMARK SMILES COc1cccc(C(=O)N[C@H]2C=C[C@@H](C(=O)OCCOCCOCCOC(=O)c3ccc(-c4c5nc(c(-c6ccc(S(=O)(=O)[O-])cc6)c6ccc([nH]6)c(-c6ccc(S(=O)(=O)[O-])cc6)c6nc(c(-c7ccc(S(=O)(=O)[O-])cc7)c7ccc4[nH]7)C=C6)C=C5)cc3)C2)c1
REMARK SMILES IDX 21 1 20 2 19 3 18 4 17 5 15 6 16 7 14 8 11 9 12 10 89 11
REMARK SMILES IDX 13 12 10 13 8 14 9 15 7 17 3 18 4 19 90 20 5 21 6 22 2 23
REMARK SMILES IDX 1 24 22 25 23 26 24 27 25 28 26 29 27 30 28 31 29 32 30 33
REMARK SMILES IDX 88 34 31 35 87 36 32 37 33 38 34 39 81 40 35 41 86 42 80 43
REMARK SMILES IDX 82 44 36 45 85 46 79 47 78 48 37 50 67 51 48 52 66 53 49 54
REMARK SMILES IDX 52 55 65 56 83 57 50 58 51 59 64 61 84 62 53 63 38 64 39 65
REMARK SMILES IDX 47 66 40 67 46 68 41 69 42 70 43 71 44 72 45 73 68 74 69 75
REMARK SMILES IDX 77 76 70 77 76 78 71 79 72 80 73 81 74 82 75 83 54 84 55 85
REMARK SMILES IDX 63 86 56 87 62 88 57 89 58 90 59 91 60 92 61 93
REMARK H PARENT 10 16 82 49 52 60
REMARK Flexibility Score: inf
ROOT
ATOM      1  C   UNL A   1      35.369  31.046  27.712  1.00  0.00     0.188 C 
ENDROOT
BRANCH   1   2
ATOM      2  O   UNL A   1      34.231  30.392  27.166  1.00  0.00    -0.376 OA
BRANCH   2   3
ATOM      3  C   UNL A   1      32.948  30.983  27.346  1.00  0.00     0.202 C 
BRANCH   3   4
ATOM      4  C   UNL A   1      31.814  30.636  26.364  1.00  0.00     0.261 C 
BRANCH   4   5
ATOM      5  O   UNL A   1      32.215  29.908  25.181  1.00  0.00    -0.463 OA
BRANCH   5   6
ATOM      6  C   UNL A   1      31.247  29.181  24.566  1.00  0.00     0.312 C 
ATOM      7  O   UNL A   1      30.348  29.673  23.889  1.00  0.00    -0.252 OA
BRANCH   6   8
ATOM      8  C   UNL A   1      31.353  27.664  24.764  1.00  0.00     0.124 C 
ATOM      9  C   UNL A   1      32.046  25.530  23.764  1.00  0.00     0.106 C 
ATOM     10  C   UNL A   1      33.167  26.171  24.507  1.00  0.00    -0.006 C 
ATOM     11  C   UNL A   1      31.072  26.704  23.606  1.00  0.00     0.048 C 
ATOM     12  C   UNL A   1      32.775  27.308  25.098  1.00  0.00    -0.014 C 
BRANCH   9  13
ATOM     13  N   UNL A   1      32.474  25.044  22.475  1.00  0.00    -0.346 N 
ATOM     14  C   UNL A   1      33.217  23.951  22.097  1.00  0.00     0.251 C 
ATOM     15  O   UNL A   1      33.332  23.744  20.886  1.00  0.00    -0.269 OA
ATOM     16  H   UNL A   1      32.177  25.603  21.720  1.00  0.00     0.164 HD
BRANCH  14  17
ATOM     17  C   UNL A   1      33.946  23.055  23.049  1.00  0.00     0.043 A 
ATOM     18  C   UNL A   1      35.927  22.191  24.170  1.00  0.00     0.119 A 
ATOM     19  C   UNL A   1      35.161  21.172  24.739  1.00  0.00     0.046 A 
ATOM     20  C   UNL A   1      35.306  23.153  23.365  1.00  0.00     0.060 A 
ATOM     21  C   UNL A   1      33.789  21.116  24.517  1.00  0.00     0.005 A 
ATOM     22  C   UNL A   1      33.188  22.047  23.669  1.00  0.00     0.014 A 
BRANCH  18  23
ATOM     23  O   UNL A   1      37.262  22.124  24.457  1.00  0.00    -0.497 OA
ATOM     24  C   UNL A   1      37.755  20.923  25.036  1.00  0.00     0.278 C 
ENDBRANCH  18  23
ENDBRANCH  14  17
ENDBRANCH   9  13
ENDBRANCH   6   8
ENDBRANCH   5   6
ENDBRANCH   4   5
ENDBRANCH   3   4
ENDBRANCH   2   3
ENDBRANCH   1   2
BRANCH   1  25
ATOM     25  C   UNL A   1      35.423  32.582  27.691  1.00  0.00     0.188 C 
BRANCH  25  26
ATOM     26  O   UNL A   1      36.119  33.166  28.765  1.00  0.00    -0.376 OA
BRANCH  26  27
ATOM     27  C   UNL A   1      35.519  33.126  30.048  1.00  0.00     0.202 C 
BRANCH  27  28
ATOM     28  C   UNL A   1      36.335  33.497  31.302  1.00  0.00     0.261 C 
BRANCH  28  29
ATOM     29  O   UNL A   1      37.356  32.581  31.727  1.00  0.00    -0.460 OA
BRANCH  29  30
ATOM     30  C   UNL A   1      37.092  31.260  31.615  1.00  0.00     0.338 C 
ATOM     31  O   UNL A   1      36.011  30.715  31.798  1.00  0.00    -0.246 OA
BRANCH  30  32
ATOM     32  C   UNL A   1      38.268  30.607  30.998  1.00  0.00     0.060 A 
ATOM     33  C   UNL A   1      39.141  29.863  31.809  1.00  0.00     0.016 A 
ATOM     34  C   UNL A   1      38.508  30.720  29.628  1.00  0.00     0.016 A 
ATOM     35  C   UNL A   1      40.267  29.251  31.253  1.00  0.00     0.010 A 
ATOM     36  C   UNL A   1      39.651  30.127  29.078  1.00  0.00     0.010 A 
ATOM     37  C   UNL A   1      40.551  29.414  29.891  1.00  0.00    -0.014 A 
BRANCH  37  38
ATOM     38  C   UNL A   1      41.873  29.005  29.352  1.00  0.00     0.031 A 
ATOM     39  C   UNL A   1      42.969  30.036  29.286  1.00  0.00     0.074 A 
ATOM     40  C   UNL A   1      42.107  27.747  28.933  1.00  0.00     0.049 A 
ATOM     41  N   UNL A   1      44.177  29.934  28.796  1.00  0.00    -0.248 NA
ATOM     42  C   UNL A   1      42.657  31.361  29.849  1.00  0.00     0.031 C 
ATOM     43  C   UNL A   1      41.151  26.643  28.987  1.00  0.00     0.029 A 
ATOM     44  N   UNL A   1      43.230  27.193  28.367  1.00  0.00    -0.354 N 
ATOM     45  C   UNL A   1      44.764  31.181  28.976  1.00  0.00     0.074 A 
ATOM     46  C   UNL A   1      43.771  32.031  29.597  1.00  0.00     0.031 C 
ATOM     47  C   UNL A   1      41.724  25.544  28.464  1.00  0.00     0.029 A 
ATOM     48  C   UNL A   1      43.070  25.877  28.000  1.00  0.00     0.049 A 
ATOM     49  H   UNL A   1      44.069  27.690  28.236  1.00  0.00     0.167 HD
ATOM     50  C   UNL A   1      46.017  31.585  28.656  1.00  0.00     0.031 A 
ATOM     51  C   UNL A   1      43.905  25.046  27.342  1.00  0.00     0.031 A 
ATOM     52  C   UNL A   1      46.998  30.744  28.023  1.00  0.00     0.049 A 
ATOM     53  C   UNL A   1      45.265  25.541  26.919  1.00  0.00     0.074 A 
ATOM     54  C   UNL A   1      48.299  31.058  27.671  1.00  0.00     0.029 A 
ATOM     55  N   UNL A   1      46.786  29.429  27.637  1.00  0.00    -0.354 N 
ATOM     56  N   UNL A   1      45.815  26.718  27.117  1.00  0.00    -0.248 NA
ATOM     57  C   UNL A   1      46.122  24.595  26.190  1.00  0.00     0.031 C 
ATOM     58  C   UNL A   1      48.851  29.955  27.012  1.00  0.00     0.029 A 
ATOM     59  C   UNL A   1      47.921  28.928  27.023  1.00  0.00     0.049 A 
ATOM     60  H   UNL A   1      45.951  28.927  27.779  1.00  0.00     0.167 HD
ATOM     61  C   UNL A   1      47.092  26.638  26.568  1.00  0.00     0.074 A 
ATOM     62  C   UNL A   1      47.238  25.296  26.044  1.00  0.00     0.031 C 
ATOM     63  C   UNL A   1      48.057  27.589  26.506  1.00  0.00     0.031 A 
BRANCH  50  64
ATOM     64  C   UNL A   1      46.384  33.016  28.951  1.00  0.00    -0.014 A 
ATOM     65  C   UNL A   1      46.974  33.384  30.174  1.00  0.00     0.010 A 
ATOM     66  C   UNL A   1      46.175  34.002  27.970  1.00  0.00     0.010 A 
ATOM     67  C   UNL A   1      47.312  34.716  30.424  1.00  0.00     0.020 A 
ATOM     68  C   UNL A   1      46.541  35.331  28.203  1.00  0.00     0.020 A 
ATOM     69  C   UNL A   1      47.094  35.681  29.436  1.00  0.00     0.054 A 
BRANCH  69  70
ATOM     70  S   UNL A   1      47.571  37.398  29.778  1.00  0.00     0.124 S 
ATOM     71  O   UNL A   1      48.789  37.221  30.564  1.00  0.00    -0.237 OA
ATOM     72  O   UNL A   1      47.762  37.949  28.439  1.00  0.00    -0.237 OA
ATOM     73  O   UNL A   1      46.429  37.936  30.513  1.00  0.00    -0.744 OA
ENDBRANCH  69  70
ENDBRANCH  50  64
BRANCH  51  74
ATOM     74  C   UNL A   1      43.473  23.655  27.017  1.00  0.00    -0.014 A 
ATOM     75  C   UNL A   1      43.295  22.700  28.034  1.00  0.00     0.010 A 
ATOM     76  C   UNL A   1      43.257  23.274  25.680  1.00  0.00     0.010 A 
ATOM     77  C   UNL A   1      42.926  21.388  27.718  1.00  0.00     0.020 A 
ATOM     78  C   UNL A   1      42.857  21.972  25.363  1.00  0.00     0.020 A 
ATOM     79  C   UNL A   1      42.705  21.035  26.385  1.00  0.00     0.054 A 
BRANCH  79  80
ATOM     80  S   UNL A   1      42.179  19.339  26.007  1.00  0.00     0.124 S 
ATOM     81  O   UNL A   1      42.970  19.033  24.819  1.00  0.00    -0.237 OA
ATOM     82  O   UNL A   1      42.552  18.617  27.220  1.00  0.00    -0.237 OA
ATOM     83  O   UNL A   1      40.741  19.469  25.784  1.00  0.00    -0.744 OA
ENDBRANCH  79  80
ENDBRANCH  51  74
BRANCH  63  84
ATOM     84  C   UNL A   1      49.382  27.206  25.893  1.00  0.00    -0.014 A 
ATOM     85  C   UNL A   1      50.386  26.571  26.646  1.00  0.00     0.010 A 
ATOM     86  C   UNL A   1      49.602  27.437  24.522  1.00  0.00     0.010 A 
ATOM     87  C   UNL A   1      51.597  26.210  26.048  1.00  0.00     0.020 A 
ATOM     88  C   UNL A   1      50.796  27.047  23.913  1.00  0.00     0.020 A 
ATOM     89  C   UNL A   1      51.794  26.450  24.683  1.00  0.00     0.054 A 
BRANCH  89  90
ATOM     90  S   UNL A   1      53.359  25.937  23.924  1.00  0.00     0.124 S 
ATOM     91  O   UNL A   1      53.586  24.633  24.541  1.00  0.00    -0.237 OA
ATOM     92  O   UNL A   1      53.030  25.910  22.500  1.00  0.00    -0.237 OA
ATOM     93  O   UNL A   1      54.297  26.985  24.321  1.00  0.00    -0.744 OA
ENDBRANCH  89  90
ENDBRANCH  63  84
ENDBRANCH  37  38
ENDBRANCH  30  32
ENDBRANCH  29  30
ENDBRANCH  28  29
ENDBRANCH  27  28
ENDBRANCH  26  27
ENDBRANCH  25  26
ENDBRANCH   1  25
TORSDOF 23
ENDMDL
