MODEL 1
REMARK VINA RESULT:     -10.3      0.000      0.000
REMARK SMILES CC[C@H](C)[C@@H](NC(=S)Nc1ccccc1)C(=O)OCCOCCOCCOC(=O)c1ccc(-c2c3nc(c(-c4ccc(S(=O)(=O)[O-])cc4)c4ccc([nH]4)c(-c4ccc(S(=O)(=O)[O-])cc4)c4nc(c(-c5ccc(S(=O)(=O)[O-])cc5)c5ccc2[nH]5)C=C4)C=C3)cc1
REMARK SMILES IDX 22 1 21 2 20 3 19 4 18 5 16 6 17 7 5 8 3 9 4 10 2 11 1 12
REMARK SMILES IDX 6 13 7 15 8 16 9 17 10 19 11 20 15 21 12 22 14 23 13 24
REMARK SMILES IDX 23 25 24 26 25 27 26 28 27 29 28 30 29 31 30 32 31 33 89 34
REMARK SMILES IDX 32 35 88 36 33 37 34 38 35 39 82 40 36 41 87 42 81 43 83 44
REMARK SMILES IDX 37 45 86 46 80 47 79 48 38 50 68 51 49 52 67 53 50 54 53 55
REMARK SMILES IDX 66 56 84 57 51 58 52 59 65 61 85 62 54 63 39 64 40 65 48 66
REMARK SMILES IDX 41 67 47 68 42 69 43 70 44 71 45 72 46 73 69 74 70 75 78 76
REMARK SMILES IDX 71 77 77 78 72 79 73 80 74 81 75 82 76 83 55 84 56 85 64 86
REMARK SMILES IDX 57 87 63 88 58 89 59 90 60 91 61 92 62 93
REMARK H PARENT 6 14 9 18 83 49 53 60
REMARK Flexibility Score: inf
ROOT
ATOM      1  C   UNL A   1      40.874  19.147  26.120  1.00  0.00     0.188 C 
ENDROOT
BRANCH   1   2
ATOM      2  O   UNL A   1      39.039  19.403  25.317  1.00  0.00    -0.376 OA
BRANCH   2   3
ATOM      3  C   UNL A   1      37.968  20.667  24.992  1.00  0.00     0.202 C 
BRANCH   3   4
ATOM      4  C   UNL A   1      36.246  20.763  25.211  1.00  0.00     0.261 C 
BRANCH   4   5
ATOM      5  O   UNL A   1      35.590  21.789  26.110  1.00  0.00    -0.462 OA
BRANCH   5   6
ATOM      6  C   UNL A   1      35.602  23.202  26.015  1.00  0.00     0.328 C 
ATOM      7  O   UNL A   1      36.628  23.870  26.081  1.00  0.00    -0.250 OA
BRANCH   6   8
ATOM      8  C   UNL A   1      34.104  23.790  26.219  1.00  0.00     0.194 C 
BRANCH   8   9
ATOM      9  C   UNL A   1      33.378  24.807  25.261  1.00  0.00     0.019 C 
ATOM     10  C   UNL A   1      33.363  26.256  25.779  1.00  0.00     0.010 C 
BRANCH   9  11
ATOM     11  C   UNL A   1      33.988  24.771  23.796  1.00  0.00     0.002 C 
ATOM     12  C   UNL A   1      33.813  23.516  22.931  1.00  0.00     0.004 C 
ENDBRANCH   9  11
ENDBRANCH   8   9
BRANCH   8  13
ATOM     13  N   UNL A   1      33.275  22.695  26.666  1.00  0.00    -0.349 N 
ATOM     14  H   UNL A   1      33.646  22.079  27.339  1.00  0.00     0.163 HD
BRANCH  13  15
ATOM     15  C   UNL A   1      32.034  22.466  26.223  1.00  0.00     0.171 C 
ATOM     16  S   UNL A   1      30.826  23.544  26.638  1.00  0.00    -0.041 S 
BRANCH  15  17
ATOM     17  N   UNL A   1      31.728  21.416  25.445  1.00  0.00    -0.333 N 
ATOM     18  H   UNL A   1      30.763  21.222  25.461  1.00  0.00     0.169 HD
BRANCH  17  19
ATOM     19  C   UNL A   1      32.432  20.511  24.604  1.00  0.00     0.040 A 
ATOM     20  C   UNL A   1      32.229  20.143  22.789  1.00  0.00     0.026 A 
ATOM     21  C   UNL A   1      33.006  19.203  25.667  1.00  0.00     0.026 A 
ATOM     22  C   UNL A   1      32.421  18.404  22.214  1.00  0.00     0.002 A 
ATOM     23  C   UNL A   1      33.280  17.584  25.055  1.00  0.00     0.002 A 
ATOM     24  C   UNL A   1      33.002  17.179  23.358  1.00  0.00     0.000 A 
ENDBRANCH  17  19
ENDBRANCH  15  17
ENDBRANCH  13  15
ENDBRANCH   8  13
ENDBRANCH   6   8
ENDBRANCH   5   6
ENDBRANCH   4   5
ENDBRANCH   3   4
ENDBRANCH   2   3
ENDBRANCH   1   2
BRANCH   1  25
ATOM     25  C   UNL A   1      41.672  20.129  27.282  1.00  0.00     0.188 C 
BRANCH  25  26
ATOM     26  O   UNL A   1      42.160  21.470  27.089  1.00  0.00    -0.376 OA
BRANCH  26  27
ATOM     27  C   UNL A   1      43.303  21.646  26.236  1.00  0.00     0.202 C 
BRANCH  27  28
ATOM     28  C   UNL A   1      43.239  22.587  25.009  1.00  0.00     0.261 C 
BRANCH  28  29
ATOM     29  O   UNL A   1      42.479  23.791  25.186  1.00  0.00    -0.460 OA
BRANCH  29  30
ATOM     30  C   UNL A   1      43.240  24.880  25.474  1.00  0.00     0.338 C 
ATOM     31  O   UNL A   1      44.208  25.265  24.838  1.00  0.00    -0.246 OA
BRANCH  30  32
ATOM     32  C   UNL A   1      42.582  25.709  26.519  1.00  0.00     0.060 A 
ATOM     33  C   UNL A   1      42.810  27.095  26.464  1.00  0.00     0.016 A 
ATOM     34  C   UNL A   1      41.741  25.188  27.502  1.00  0.00     0.016 A 
ATOM     35  C   UNL A   1      42.223  27.961  27.381  1.00  0.00     0.010 A 
ATOM     36  C   UNL A   1      41.205  26.051  28.472  1.00  0.00     0.010 A 
ATOM     37  C   UNL A   1      41.474  27.435  28.434  1.00  0.00    -0.014 A 
BRANCH  37  38
ATOM     38  C   UNL A   1      41.230  28.290  29.625  1.00  0.00     0.031 A 
ATOM     39  C   UNL A   1      42.139  28.105  30.812  1.00  0.00     0.074 A 
ATOM     40  C   UNL A   1      40.294  29.257  29.643  1.00  0.00     0.049 A 
ATOM     41  N   UNL A   1      42.088  28.658  31.995  1.00  0.00    -0.248 NA
ATOM     42  C   UNL A   1      43.262  27.167  30.634  1.00  0.00     0.031 C 
ATOM     43  C   UNL A   1      39.423  29.622  28.526  1.00  0.00     0.029 A 
ATOM     44  N   UNL A   1      39.923  30.112  30.653  1.00  0.00    -0.354 N 
ATOM     45  C   UNL A   1      43.149  28.113  32.710  1.00  0.00     0.074 A 
ATOM     46  C   UNL A   1      43.816  27.175  31.836  1.00  0.00     0.031 C 
ATOM     47  C   UNL A   1      38.606  30.616  28.920  1.00  0.00     0.029 A 
ATOM     48  C   UNL A   1      38.863  30.924  30.328  1.00  0.00     0.049 A 
ATOM     49  H   UNL A   1      40.374  30.140  31.527  1.00  0.00     0.167 HD
ATOM     50  C   UNL A   1      43.536  28.369  33.982  1.00  0.00     0.031 A 
ATOM     51  C   UNL A   1      38.157  31.789  31.087  1.00  0.00     0.031 A 
ATOM     52  C   UNL A   1      42.869  29.302  34.851  1.00  0.00     0.049 A 
ATOM     53  C   UNL A   1      38.537  31.980  32.536  1.00  0.00     0.074 A 
ATOM     54  C   UNL A   1      43.178  29.625  36.161  1.00  0.00     0.029 A 
ATOM     55  N   UNL A   1      41.762  30.058  34.502  1.00  0.00    -0.354 N 
ATOM     56  N   UNL A   1      39.524  31.440  33.211  1.00  0.00    -0.248 NA
ATOM     57  C   UNL A   1      37.704  32.900  33.326  1.00  0.00     0.031 C 
ATOM     58  C   UNL A   1      42.215  30.527  36.624  1.00  0.00     0.029 A 
ATOM     59  C   UNL A   1      41.354  30.824  35.581  1.00  0.00     0.049 A 
ATOM     60  H   UNL A   1      41.329  30.051  33.618  1.00  0.00     0.167 HD
ATOM     61  C   UNL A   1      39.450  31.980  34.493  1.00  0.00     0.074 A 
ATOM     62  C   UNL A   1      38.331  32.898  34.495  1.00  0.00     0.031 C 
ATOM     63  C   UNL A   1      40.240  31.739  35.570  1.00  0.00     0.031 A 
BRANCH  50  64
ATOM     64  C   UNL A   1      44.698  27.581  34.529  1.00  0.00    -0.014 A 
ATOM     65  C   UNL A   1      46.023  27.863  34.151  1.00  0.00     0.010 A 
ATOM     66  C   UNL A   1      44.456  26.555  35.461  1.00  0.00     0.010 A 
ATOM     67  C   UNL A   1      47.080  27.105  34.666  1.00  0.00     0.020 A 
ATOM     68  C   UNL A   1      45.512  25.819  36.003  1.00  0.00     0.020 A 
ATOM     69  C   UNL A   1      46.817  26.088  35.589  1.00  0.00     0.054 A 
BRANCH  69  70
ATOM     70  S   UNL A   1      48.209  25.136  36.256  1.00  0.00     0.124 S 
ATOM     71  O   UNL A   1      48.679  26.004  37.333  1.00  0.00    -0.237 OA
ATOM     72  O   UNL A   1      47.570  23.894  36.682  1.00  0.00    -0.237 OA
ATOM     73  O   UNL A   1      49.119  25.008  35.120  1.00  0.00    -0.744 OA
ENDBRANCH  69  70
ENDBRANCH  50  64
BRANCH  51  74
ATOM     74  C   UNL A   1      36.985  32.508  30.510  1.00  0.00    -0.014 A 
ATOM     75  C   UNL A   1      37.143  33.743  29.857  1.00  0.00     0.010 A 
ATOM     76  C   UNL A   1      35.693  31.963  30.631  1.00  0.00     0.010 A 
ATOM     77  C   UNL A   1      36.032  34.424  29.348  1.00  0.00     0.020 A 
ATOM     78  C   UNL A   1      34.584  32.625  30.096  1.00  0.00     0.020 A 
ATOM     79  C   UNL A   1      34.760  33.857  29.466  1.00  0.00     0.054 A 
BRANCH  79  80
ATOM     80  S   UNL A   1      33.340  34.732  28.749  1.00  0.00     0.124 S 
ATOM     81  O   UNL A   1      32.779  33.723  27.857  1.00  0.00    -0.237 OA
ATOM     82  O   UNL A   1      32.542  35.052  29.928  1.00  0.00    -0.237 OA
ATOM     83  O   UNL A   1      33.949  35.885  28.086  1.00  0.00    -0.744 OA
ENDBRANCH  79  80
ENDBRANCH  51  74
BRANCH  63  84
ATOM     84  C   UNL A   1      39.960  32.512  36.835  1.00  0.00    -0.014 A 
ATOM     85  C   UNL A   1      38.851  32.219  37.648  1.00  0.00     0.010 A 
ATOM     86  C   UNL A   1      40.864  33.509  37.249  1.00  0.00     0.010 A 
ATOM     87  C   UNL A   1      38.633  32.930  38.833  1.00  0.00     0.020 A 
ATOM     88  C   UNL A   1      40.669  34.199  38.448  1.00  0.00     0.020 A 
ATOM     89  C   UNL A   1      39.546  33.914  39.226  1.00  0.00     0.054 A 
BRANCH  89  90
ATOM     90  S   UNL A   1      39.265  34.790  40.790  1.00  0.00     0.124 S 
ATOM     91  O   UNL A   1      40.621  34.902  41.323  1.00  0.00    -0.237 OA
ATOM     92  O   UNL A   1      38.658  36.043  40.350  1.00  0.00    -0.237 OA
ATOM     93  O   UNL A   1      38.376  33.900  41.533  1.00  0.00    -0.744 OA
ENDBRANCH  89  90
ENDBRANCH  63  84
ENDBRANCH  37  38
ENDBRANCH  30  32
ENDBRANCH  29  30
ENDBRANCH  28  29
ENDBRANCH  27  28
ENDBRANCH  26  27
ENDBRANCH  25  26
ENDBRANCH   1  25
TORSDOF 26
ENDMDL
MODEL 2
REMARK VINA RESULT:     -10.1      1.878      3.268
REMARK SMILES CC[C@H](C)[C@@H](NC(=S)Nc1ccccc1)C(=O)OCCOCCOCCOC(=O)c1ccc(-c2c3nc(c(-c4ccc(S(=O)(=O)[O-])cc4)c4ccc([nH]4)c(-c4ccc(S(=O)(=O)[O-])cc4)c4nc(c(-c5ccc(S(=O)(=O)[O-])cc5)c5ccc2[nH]5)C=C4)C=C3)cc1
REMARK SMILES IDX 22 1 21 2 20 3 19 4 18 5 16 6 17 7 5 8 3 9 4 10 2 11 1 12
REMARK SMILES IDX 6 13 7 15 8 16 9 17 10 19 11 20 15 21 12 22 14 23 13 24
REMARK SMILES IDX 23 25 24 26 25 27 26 28 27 29 28 30 29 31 30 32 31 33 89 34
REMARK SMILES IDX 32 35 88 36 33 37 34 38 35 39 82 40 36 41 87 42 81 43 83 44
REMARK SMILES IDX 37 45 86 46 80 47 79 48 38 50 68 51 49 52 67 53 50 54 53 55
REMARK SMILES IDX 66 56 84 57 51 58 52 59 65 61 85 62 54 63 39 64 40 65 48 66
REMARK SMILES IDX 41 67 47 68 42 69 43 70 44 71 45 72 46 73 69 74 70 75 78 76
REMARK SMILES IDX 71 77 77 78 72 79 73 80 74 81 75 82 76 83 55 84 56 85 64 86
REMARK SMILES IDX 57 87 63 88 58 89 59 90 60 91 61 92 62 93
REMARK H PARENT 6 14 9 18 83 49 53 60
REMARK Flexibility Score: inf
ROOT
ATOM      1  C   UNL A   1      40.098  20.185  26.133  1.00  0.00     0.188 C 
ENDROOT
BRANCH   1   2
ATOM      2  O   UNL A   1      38.992  21.868  25.982  1.00  0.00    -0.376 OA
BRANCH   2   3
ATOM      3  C   UNL A   1      37.424  22.313  25.540  1.00  0.00     0.202 C 
BRANCH   3   4
ATOM      4  C   UNL A   1      36.510  23.738  25.933  1.00  0.00     0.261 C 
BRANCH   4   5
ATOM      5  O   UNL A   1      35.198  24.082  25.261  1.00  0.00    -0.462 OA
BRANCH   5   6
ATOM      6  C   UNL A   1      33.929  23.468  25.406  1.00  0.00     0.328 C 
ATOM      7  O   UNL A   1      33.780  22.327  25.829  1.00  0.00    -0.250 OA
BRANCH   6   8
ATOM      8  C   UNL A   1      32.808  24.299  24.579  1.00  0.00     0.194 C 
BRANCH   8   9
ATOM      9  C   UNL A   1      32.225  23.905  23.170  1.00  0.00     0.019 C 
ATOM     10  C   UNL A   1      32.317  25.025  22.118  1.00  0.00     0.010 C 
BRANCH   9  11
ATOM     11  C   UNL A   1      32.902  22.585  22.604  1.00  0.00     0.002 C 
ATOM     12  C   UNL A   1      32.059  21.316  22.428  1.00  0.00     0.004 C 
ENDBRANCH   9  11
ENDBRANCH   8   9
BRANCH   8  13
ATOM     13  N   UNL A   1      31.817  24.740  25.533  1.00  0.00    -0.349 N 
ATOM     14  H   UNL A   1      31.518  24.099  26.218  1.00  0.00     0.163 HD
BRANCH  13  15
ATOM     15  C   UNL A   1      31.282  25.966  25.544  1.00  0.00     0.171 C 
ATOM     16  S   UNL A   1      31.931  27.113  26.572  1.00  0.00    -0.041 S 
BRANCH  15  17
ATOM     17  N   UNL A   1      30.258  26.313  24.749  1.00  0.00    -0.333 N 
ATOM     18  H   UNL A   1      29.559  25.620  24.735  1.00  0.00     0.169 HD
BRANCH  17  19
ATOM     19  C   UNL A   1      29.917  27.419  23.923  1.00  0.00     0.040 A 
ATOM     20  C   UNL A   1      30.628  29.140  23.855  1.00  0.00     0.026 A 
ATOM     21  C   UNL A   1      28.200  27.204  23.502  1.00  0.00     0.026 A 
ATOM     22  C   UNL A   1      29.487  30.557  23.570  1.00  0.00     0.002 A 
ATOM     23  C   UNL A   1      27.173  28.574  23.131  1.00  0.00     0.002 A 
ATOM     24  C   UNL A   1      27.794  30.227  23.156  1.00  0.00     0.000 A 
ENDBRANCH  17  19
ENDBRANCH  15  17
ENDBRANCH  13  15
ENDBRANCH   8  13
ENDBRANCH   6   8
ENDBRANCH   5   6
ENDBRANCH   4   5
ENDBRANCH   3   4
ENDBRANCH   2   3
ENDBRANCH   1   2
BRANCH   1  25
ATOM     25  C   UNL A   1      41.574  19.956  26.982  1.00  0.00     0.188 C 
BRANCH  25  26
ATOM     26  O   UNL A   1      42.641  20.910  27.131  1.00  0.00    -0.376 OA
BRANCH  26  27
ATOM     27  C   UNL A   1      43.390  21.260  25.956  1.00  0.00     0.202 C 
BRANCH  27  28
ATOM     28  C   UNL A   1      42.994  22.486  25.098  1.00  0.00     0.261 C 
BRANCH  28  29
ATOM     29  O   UNL A   1      42.235  23.500  25.772  1.00  0.00    -0.460 OA
BRANCH  29  30
ATOM     30  C   UNL A   1      42.819  24.727  25.747  1.00  0.00     0.338 C 
ATOM     31  O   UNL A   1      43.590  25.135  24.893  1.00  0.00    -0.246 OA
BRANCH  30  32
ATOM     32  C   UNL A   1      42.191  25.620  26.757  1.00  0.00     0.060 A 
ATOM     33  C   UNL A   1      42.493  26.989  26.666  1.00  0.00     0.016 A 
ATOM     34  C   UNL A   1      41.308  25.174  27.740  1.00  0.00     0.016 A 
ATOM     35  C   UNL A   1      41.939  27.912  27.548  1.00  0.00     0.010 A 
ATOM     36  C   UNL A   1      40.804  26.092  28.675  1.00  0.00     0.010 A 
ATOM     37  C   UNL A   1      41.147  27.458  28.603  1.00  0.00    -0.014 A 
BRANCH  37  38
ATOM     38  C   UNL A   1      40.931  28.360  29.764  1.00  0.00     0.031 A 
ATOM     39  C   UNL A   1      41.838  28.189  30.955  1.00  0.00     0.074 A 
ATOM     40  C   UNL A   1      40.022  29.352  29.751  1.00  0.00     0.049 A 
ATOM     41  N   UNL A   1      41.806  28.783  32.118  1.00  0.00    -0.248 NA
ATOM     42  C   UNL A   1      42.934  27.215  30.806  1.00  0.00     0.031 C 
ATOM     43  C   UNL A   1      39.159  29.704  28.625  1.00  0.00     0.029 A 
ATOM     44  N   UNL A   1      39.679  30.251  30.732  1.00  0.00    -0.354 N 
ATOM     45  C   UNL A   1      42.854  28.233  32.850  1.00  0.00     0.074 A 
ATOM     46  C   UNL A   1      43.491  27.247  32.006  1.00  0.00     0.031 C 
ATOM     47  C   UNL A   1      38.372  30.734  28.985  1.00  0.00     0.029 A 
ATOM     48  C   UNL A   1      38.641  31.082  30.382  1.00  0.00     0.049 A 
ATOM     49  H   UNL A   1      40.133  30.297  31.604  1.00  0.00     0.167 HD
ATOM     50  C   UNL A   1      43.251  28.521  34.111  1.00  0.00     0.031 A 
ATOM     51  C   UNL A   1      37.962  31.992  31.113  1.00  0.00     0.031 A 
ATOM     52  C   UNL A   1      42.614  29.501  34.949  1.00  0.00     0.049 A 
ATOM     53  C   UNL A   1      38.351  32.221  32.553  1.00  0.00     0.074 A 
ATOM     54  C   UNL A   1      42.936  29.861  36.246  1.00  0.00     0.029 A 
ATOM     55  N   UNL A   1      41.527  30.277  34.577  1.00  0.00    -0.354 N 
ATOM     56  N   UNL A   1      39.326  31.677  33.245  1.00  0.00    -0.248 NA
ATOM     57  C   UNL A   1      37.548  33.191  33.313  1.00  0.00     0.031 C 
ATOM     58  C   UNL A   1      42.001  30.804  36.681  1.00  0.00     0.029 A 
ATOM     59  C   UNL A   1      41.145  31.090  35.630  1.00  0.00     0.049 A 
ATOM     60  H   UNL A   1      41.091  30.252  33.695  1.00  0.00     0.167 HD
ATOM     61  C   UNL A   1      39.271  32.262  34.507  1.00  0.00     0.074 A 
ATOM     62  C   UNL A   1      38.178  33.211  34.480  1.00  0.00     0.031 C 
ATOM     63  C   UNL A   1      40.057  32.035  35.590  1.00  0.00     0.031 A 
BRANCH  50  64
ATOM     64  C   UNL A   1      44.392  27.720  34.682  1.00  0.00    -0.014 A 
ATOM     65  C   UNL A   1      44.281  26.335  34.907  1.00  0.00     0.010 A 
ATOM     66  C   UNL A   1      45.609  28.364  34.972  1.00  0.00     0.010 A 
ATOM     67  C   UNL A   1      45.354  25.620  35.450  1.00  0.00     0.020 A 
ATOM     68  C   UNL A   1      46.693  27.647  35.483  1.00  0.00     0.020 A 
ATOM     69  C   UNL A   1      46.552  26.282  35.734  1.00  0.00     0.054 A 
BRANCH  69  70
ATOM     70  S   UNL A   1      47.933  25.325  36.418  1.00  0.00     0.124 S 
ATOM     71  O   UNL A   1      47.729  24.017  35.799  1.00  0.00    -0.237 OA
ATOM     72  O   UNL A   1      49.099  26.068  35.946  1.00  0.00    -0.237 OA
ATOM     73  O   UNL A   1      47.709  25.372  37.861  1.00  0.00    -0.744 OA
ENDBRANCH  69  70
ENDBRANCH  50  64
BRANCH  51  74
ATOM     74  C   UNL A   1      36.810  32.723  30.514  1.00  0.00    -0.014 A 
ATOM     75  C   UNL A   1      37.013  33.829  29.670  1.00  0.00     0.010 A 
ATOM     76  C   UNL A   1      35.491  32.324  30.805  1.00  0.00     0.010 A 
ATOM     77  C   UNL A   1      35.923  34.529  29.140  1.00  0.00     0.020 A 
ATOM     78  C   UNL A   1      34.399  33.000  30.252  1.00  0.00     0.020 A 
ATOM     79  C   UNL A   1      34.623  34.105  29.430  1.00  0.00     0.054 A 
BRANCH  79  80
ATOM     80  S   UNL A   1      33.225  34.993  28.687  1.00  0.00     0.124 S 
ATOM     81  O   UNL A   1      32.646  33.974  27.817  1.00  0.00    -0.237 OA
ATOM     82  O   UNL A   1      32.429  35.358  29.855  1.00  0.00    -0.237 OA
ATOM     83  O   UNL A   1      33.861  36.115  27.999  1.00  0.00    -0.744 OA
ENDBRANCH  79  80
ENDBRANCH  51  74
BRANCH  63  84
ATOM     84  C   UNL A   1      39.802  32.859  36.829  1.00  0.00    -0.014 A 
ATOM     85  C   UNL A   1      39.016  32.373  37.888  1.00  0.00     0.010 A 
ATOM     86  C   UNL A   1      40.418  34.118  36.959  1.00  0.00     0.010 A 
ATOM     87  C   UNL A   1      38.823  33.145  39.039  1.00  0.00     0.020 A 
ATOM     88  C   UNL A   1      40.257  34.878  38.120  1.00  0.00     0.020 A 
ATOM     89  C   UNL A   1      39.448  34.392  39.148  1.00  0.00     0.054 A 
BRANCH  89  90
ATOM     90  S   UNL A   1      39.219  35.352  40.670  1.00  0.00     0.124 S 
ATOM     91  O   UNL A   1      40.491  35.141  41.356  1.00  0.00    -0.237 OA
ATOM     92  O   UNL A   1      38.995  36.704  40.164  1.00  0.00    -0.237 OA
ATOM     93  O   UNL A   1      38.059  34.729  41.304  1.00  0.00    -0.744 OA
ENDBRANCH  89  90
ENDBRANCH  63  84
ENDBRANCH  37  38
ENDBRANCH  30  32
ENDBRANCH  29  30
ENDBRANCH  28  29
ENDBRANCH  27  28
ENDBRANCH  26  27
ENDBRANCH  25  26
ENDBRANCH   1  25
TORSDOF 26
ENDMDL
MODEL 3
REMARK VINA RESULT:     -10.0      1.829      8.557
REMARK SMILES CC[C@H](C)[C@@H](NC(=S)Nc1ccccc1)C(=O)OCCOCCOCCOC(=O)c1ccc(-c2c3nc(c(-c4ccc(S(=O)(=O)[O-])cc4)c4ccc([nH]4)c(-c4ccc(S(=O)(=O)[O-])cc4)c4nc(c(-c5ccc(S(=O)(=O)[O-])cc5)c5ccc2[nH]5)C=C4)C=C3)cc1
REMARK SMILES IDX 22 1 21 2 20 3 19 4 18 5 16 6 17 7 5 8 3 9 4 10 2 11 1 12
REMARK SMILES IDX 6 13 7 15 8 16 9 17 10 19 11 20 15 21 12 22 14 23 13 24
REMARK SMILES IDX 23 25 24 26 25 27 26 28 27 29 28 30 29 31 30 32 31 33 89 34
REMARK SMILES IDX 32 35 88 36 33 37 34 38 35 39 82 40 36 41 87 42 81 43 83 44
REMARK SMILES IDX 37 45 86 46 80 47 79 48 38 50 68 51 49 52 67 53 50 54 53 55
REMARK SMILES IDX 66 56 84 57 51 58 52 59 65 61 85 62 54 63 39 64 40 65 48 66
REMARK SMILES IDX 41 67 47 68 42 69 43 70 44 71 45 72 46 73 69 74 70 75 78 76
REMARK SMILES IDX 71 77 77 78 72 79 73 80 74 81 75 82 76 83 55 84 56 85 64 86
REMARK SMILES IDX 57 87 63 88 58 89 59 90 60 91 61 92 62 93
REMARK H PARENT 6 14 9 18 83 49 53 60
REMARK Flexibility Score: inf
ROOT
ATOM      1  C   UNL A   1      41.865  21.728  27.751  1.00  0.00     0.188 C 
ENDROOT
BRANCH   1   2
ATOM      2  O   UNL A   1      40.244  22.279  26.681  1.00  0.00    -0.376 OA
BRANCH   2   3
ATOM      3  C   UNL A   1      39.094  23.517  26.677  1.00  0.00     0.202 C 
BRANCH   3   4
ATOM      4  C   UNL A   1      37.613  23.669  25.780  1.00  0.00     0.261 C 
BRANCH   4   5
ATOM      5  O   UNL A   1      36.258  23.779  26.447  1.00  0.00    -0.462 OA
BRANCH   5   6
ATOM      6  C   UNL A   1      35.132  22.927  26.334  1.00  0.00     0.328 C 
ATOM      7  O   UNL A   1      35.218  21.706  26.269  1.00  0.00    -0.250 OA
BRANCH   6   8
ATOM      8  C   UNL A   1      33.823  23.784  25.905  1.00  0.00     0.194 C 
BRANCH   8   9
ATOM      9  C   UNL A   1      33.407  24.151  24.431  1.00  0.00     0.019 C 
ATOM     10  C   UNL A   1      34.015  25.468  23.919  1.00  0.00     0.010 C 
BRANCH   9  11
ATOM     11  C   UNL A   1      33.745  22.977  23.417  1.00  0.00     0.002 C 
ATOM     12  C   UNL A   1      33.301  23.088  21.953  1.00  0.00     0.004 C 
ENDBRANCH   9  11
ENDBRANCH   8   9
BRANCH   8  13
ATOM     13  N   UNL A   1      32.732  23.338  26.741  1.00  0.00    -0.349 N 
ATOM     14  H   UNL A   1      32.871  22.535  27.293  1.00  0.00     0.163 HD
BRANCH  13  15
ATOM     15  C   UNL A   1      31.544  23.950  26.809  1.00  0.00     0.171 C 
ATOM     16  S   UNL A   1      30.160  23.031  26.633  1.00  0.00    -0.041 S 
BRANCH  15  17
ATOM     17  N   UNL A   1      31.424  25.268  27.030  1.00  0.00    -0.333 N 
ATOM     18  H   UNL A   1      31.473  25.481  27.990  1.00  0.00     0.169 HD
BRANCH  17  19
ATOM     19  C   UNL A   1      31.246  26.438  26.241  1.00  0.00     0.040 A 
ATOM     20  C   UNL A   1      30.444  26.660  24.574  1.00  0.00     0.026 A 
ATOM     21  C   UNL A   1      32.578  27.533  26.683  1.00  0.00     0.026 A 
ATOM     22  C   UNL A   1      31.196  27.844  23.382  1.00  0.00     0.002 A 
ATOM     23  C   UNL A   1      33.195  28.722  25.554  1.00  0.00     0.002 A 
ATOM     24  C   UNL A   1      32.521  28.890  23.930  1.00  0.00     0.000 A 
ENDBRANCH  17  19
ENDBRANCH  15  17
ENDBRANCH  13  15
ENDBRANCH   8  13
ENDBRANCH   6   8
ENDBRANCH   5   6
ENDBRANCH   4   5
ENDBRANCH   3   4
ENDBRANCH   2   3
ENDBRANCH   1   2
BRANCH   1  25
ATOM     25  C   UNL A   1      42.883  22.714  28.722  1.00  0.00     0.188 C 
BRANCH  25  26
ATOM     26  O   UNL A   1      44.306  22.579  28.893  1.00  0.00    -0.376 OA
BRANCH  26  27
ATOM     27  C   UNL A   1      45.099  23.776  28.834  1.00  0.00     0.202 C 
BRANCH  27  28
ATOM     28  C   UNL A   1      44.674  24.967  27.942  1.00  0.00     0.261 C 
BRANCH  28  29
ATOM     29  O   UNL A   1      43.917  24.629  26.771  1.00  0.00    -0.460 OA
BRANCH  29  30
ATOM     30  C   UNL A   1      43.229  25.677  26.244  1.00  0.00     0.338 C 
ATOM     31  O   UNL A   1      42.966  25.839  25.063  1.00  0.00    -0.246 OA
BRANCH  30  32
ATOM     32  C   UNL A   1      42.598  26.478  27.327  1.00  0.00     0.060 A 
ATOM     33  C   UNL A   1      43.095  27.778  27.523  1.00  0.00     0.016 A 
ATOM     34  C   UNL A   1      41.539  26.021  28.109  1.00  0.00     0.016 A 
ATOM     35  C   UNL A   1      42.558  28.618  28.494  1.00  0.00     0.010 A 
ATOM     36  C   UNL A   1      41.043  26.839  29.137  1.00  0.00     0.010 A 
ATOM     37  C   UNL A   1      41.576  28.126  29.355  1.00  0.00    -0.014 A 
BRANCH  37  38
ATOM     38  C   UNL A   1      41.331  28.845  30.632  1.00  0.00     0.031 A 
ATOM     39  C   UNL A   1      40.165  29.799  30.681  1.00  0.00     0.074 A 
ATOM     40  C   UNL A   1      42.054  28.615  31.744  1.00  0.00     0.049 A 
ATOM     41  N   UNL A   1      39.789  30.607  31.636  1.00  0.00    -0.248 NA
ATOM     42  C   UNL A   1      39.306  29.840  29.484  1.00  0.00     0.031 C 
ATOM     43  C   UNL A   1      43.134  27.638  31.871  1.00  0.00     0.029 A 
ATOM     44  N   UNL A   1      41.981  29.199  32.985  1.00  0.00    -0.354 N 
ATOM     45  C   UNL A   1      38.671  31.274  31.146  1.00  0.00     0.074 A 
ATOM     46  C   UNL A   1      38.440  30.789  29.803  1.00  0.00     0.031 C 
ATOM     47  C   UNL A   1      43.634  27.703  33.119  1.00  0.00     0.029 A 
ATOM     48  C   UNL A   1      42.943  28.759  33.862  1.00  0.00     0.049 A 
ATOM     49  H   UNL A   1      41.302  29.871  33.225  1.00  0.00     0.167 HD
ATOM     50  C   UNL A   1      37.904  32.208  31.755  1.00  0.00     0.031 A 
ATOM     51  C   UNL A   1      43.255  29.182  35.105  1.00  0.00     0.031 A 
ATOM     52  C   UNL A   1      38.137  32.690  33.091  1.00  0.00     0.049 A 
ATOM     53  C   UNL A   1      42.455  30.301  35.728  1.00  0.00     0.074 A 
ATOM     54  C   UNL A   1      37.421  33.642  33.796  1.00  0.00     0.029 A 
ATOM     55  N   UNL A   1      39.161  32.261  33.921  1.00  0.00    -0.354 N 
ATOM     56  N   UNL A   1      41.417  30.944  35.245  1.00  0.00    -0.248 NA
ATOM     57  C   UNL A   1      42.869  30.750  37.065  1.00  0.00     0.031 C 
ATOM     58  C   UNL A   1      38.055  33.837  35.027  1.00  0.00     0.029 A 
ATOM     59  C   UNL A   1      39.116  32.952  35.120  1.00  0.00     0.049 A 
ATOM     60  H   UNL A   1      39.822  31.569  33.692  1.00  0.00     0.167 HD
ATOM     61  C   UNL A   1      41.037  31.850  36.233  1.00  0.00     0.074 A 
ATOM     62  C   UNL A   1      41.946  31.661  37.344  1.00  0.00     0.031 C 
ATOM     63  C   UNL A   1      40.025  32.753  36.222  1.00  0.00     0.031 A 
BRANCH  50  64
ATOM     64  C   UNL A   1      36.779  32.814  30.958  1.00  0.00    -0.014 A 
ATOM     65  C   UNL A   1      35.441  32.428  31.160  1.00  0.00     0.010 A 
ATOM     66  C   UNL A   1      37.067  33.810  30.007  1.00  0.00     0.010 A 
ATOM     67  C   UNL A   1      34.418  32.999  30.395  1.00  0.00     0.020 A 
ATOM     68  C   UNL A   1      36.045  34.406  29.265  1.00  0.00     0.020 A 
ATOM     69  C   UNL A   1      34.728  33.985  29.453  1.00  0.00     0.054 A 
BRANCH  69  70
ATOM     70  S   UNL A   1      33.379  34.723  28.491  1.00  0.00     0.124 S 
ATOM     71  O   UNL A   1      32.609  35.406  29.527  1.00  0.00    -0.237 OA
ATOM     72  O   UNL A   1      34.093  35.594  27.561  1.00  0.00    -0.237 OA
ATOM     73  O   UNL A   1      32.717  33.573  27.880  1.00  0.00    -0.744 OA
ENDBRANCH  69  70
ENDBRANCH  50  64
BRANCH  51  74
ATOM     74  C   UNL A   1      44.410  28.581  35.832  1.00  0.00    -0.014 A 
ATOM     75  C   UNL A   1      44.229  27.498  36.710  1.00  0.00     0.010 A 
ATOM     76  C   UNL A   1      45.704  29.110  35.663  1.00  0.00     0.010 A 
ATOM     77  C   UNL A   1      45.315  26.964  37.412  1.00  0.00     0.020 A 
ATOM     78  C   UNL A   1      46.797  28.559  36.337  1.00  0.00     0.020 A 
ATOM     79  C   UNL A   1      46.593  27.494  37.216  1.00  0.00     0.054 A 
BRANCH  79  80
ATOM     80  S   UNL A   1      47.996  26.749  38.095  1.00  0.00     0.124 S 
ATOM     81  O   UNL A   1      48.831  26.282  36.993  1.00  0.00    -0.237 OA
ATOM     82  O   UNL A   1      48.523  27.877  38.857  1.00  0.00    -0.237 OA
ATOM     83  O   UNL A   1      47.375  25.698  38.899  1.00  0.00    -0.744 OA
ENDBRANCH  79  80
ENDBRANCH  51  74
BRANCH  63  84
ATOM     84  C   UNL A   1      39.806  33.581  37.465  1.00  0.00    -0.014 A 
ATOM     85  C   UNL A   1      40.494  34.788  37.676  1.00  0.00     0.010 A 
ATOM     86  C   UNL A   1      38.844  33.169  38.407  1.00  0.00     0.010 A 
ATOM     87  C   UNL A   1      40.247  35.552  38.822  1.00  0.00     0.020 A 
ATOM     88  C   UNL A   1      38.570  33.946  39.536  1.00  0.00     0.020 A 
ATOM     89  C   UNL A   1      39.285  35.127  39.743  1.00  0.00     0.054 A 
BRANCH  89  90
ATOM     90  S   UNL A   1      38.952  36.158  41.197  1.00  0.00     0.124 S 
ATOM     91  O   UNL A   1      40.185  36.008  41.965  1.00  0.00    -0.237 OA
ATOM     92  O   UNL A   1      38.734  37.477  40.610  1.00  0.00    -0.237 OA
ATOM     93  O   UNL A   1      37.768  35.545  41.796  1.00  0.00    -0.744 OA
ENDBRANCH  89  90
ENDBRANCH  63  84
ENDBRANCH  37  38
ENDBRANCH  30  32
ENDBRANCH  29  30
ENDBRANCH  28  29
ENDBRANCH  27  28
ENDBRANCH  26  27
ENDBRANCH  25  26
ENDBRANCH   1  25
TORSDOF 26
ENDMDL
