MODEL 1
REMARK VINA RESULT:      -9.5      0.000      0.000
REMARK SMILES C[C@@H]([NH2+][C@H]1CCOC2(CCOCC2)C1)C(=O)OCCOCCOCCOC(=O)c1ccc(-c2c3nc(c(-c4ccc(S(=O)(=O)[O-])cc4)c4ccc([nH]4)c(-c4ccc(S(=O)(=O)[O-])cc4)c4nc(c(-c5ccc(S(=O)(=O)[O-])cc5)c5ccc2[nH]5)C=C4)C=C3)cc1
REMARK SMILES IDX 22 1 21 2 20 3 19 4 18 5 17 6 15 7 16 8 2 9 1 10 3 11 4 14
REMARK SMILES IDX 5 15 14 16 6 17 8 18 7 19 9 20 13 21 10 22 12 23 11 24 23 25
REMARK SMILES IDX 24 26 25 27 26 28 27 29 28 30 29 31 30 32 88 33 31 34 87 35
REMARK SMILES IDX 32 36 33 37 34 38 81 39 35 40 86 41 80 42 82 43 36 44 85 45
REMARK SMILES IDX 79 46 78 47 37 49 67 50 48 51 66 52 49 53 52 54 65 55 83 56
REMARK SMILES IDX 50 57 51 58 64 60 84 61 53 62 38 63 39 64 47 65 40 66 46 67
REMARK SMILES IDX 41 68 42 69 43 70 44 71 45 72 68 73 69 74 77 75 70 76 76 77
REMARK SMILES IDX 71 78 72 79 73 80 74 81 75 82 54 83 55 84 63 85 56 86 62 87
REMARK SMILES IDX 57 88 58 89 59 90 60 91 61 92
REMARK H PARENT 3 12 3 13 82 48 52 59
REMARK Flexibility Score: inf
ROOT
ATOM      1  C   UNL A   1      35.694  22.241  25.992  1.00  0.00     0.188 C 
ENDROOT
BRANCH   1   2
ATOM      2  C   UNL A   1      34.482  21.422  26.450  1.00  0.00     0.188 C 
BRANCH   2   3
ATOM      3  O   UNL A   1      33.298  21.716  25.754  1.00  0.00    -0.376 OA
BRANCH   3   4
ATOM      4  C   UNL A   1      32.794  20.794  24.802  1.00  0.00     0.202 C 
BRANCH   4   5
ATOM      5  C   UNL A   1      32.552  21.069  23.298  1.00  0.00     0.261 C 
BRANCH   5   6
ATOM      6  O   UNL A   1      31.835  22.251  22.908  1.00  0.00    -0.459 OA
BRANCH   6   7
ATOM      7  C   UNL A   1      32.610  23.362  22.782  1.00  0.00     0.364 C 
ATOM      8  O   UNL A   1      33.630  23.343  22.094  1.00  0.00    -0.245 OA
BRANCH   7   9
ATOM      9  C   UNL A   1      31.982  24.673  23.379  1.00  0.00     0.290 C 
ATOM     10  C   UNL A   1      30.451  24.728  23.426  1.00  0.00     0.088 C 
BRANCH   9  11
ATOM     11  N   UNL A   1      32.492  25.030  24.738  1.00  0.00    -0.332 N 
ATOM     12  H   UNL A   1      33.246  24.388  24.979  1.00  0.00     0.347 HD
ATOM     13  H   UNL A   1      31.702  24.960  25.380  1.00  0.00     0.347 HD
BRANCH  11  14
ATOM     14  C   UNL A   1      33.001  26.401  24.835  1.00  0.00     0.188 C 
ATOM     15  C   UNL A   1      33.312  27.076  23.492  1.00  0.00     0.093 C 
ATOM     16  C   UNL A   1      32.069  27.304  25.636  1.00  0.00     0.100 C 
ATOM     17  C   UNL A   1      33.928  28.444  23.742  1.00  0.00     0.167 C 
ATOM     18  C   UNL A   1      32.776  28.658  25.866  1.00  0.00     0.078 C 
ATOM     19  O   UNL A   1      33.101  29.239  24.590  1.00  0.00    -0.374 OA
ATOM     20  C   UNL A   1      34.029  28.528  26.769  1.00  0.00     0.064 C 
ATOM     21  C   UNL A   1      31.798  29.628  26.543  1.00  0.00     0.064 C 
ATOM     22  C   UNL A   1      34.600  29.895  27.116  1.00  0.00     0.163 C 
ATOM     23  C   UNL A   1      32.498  30.935  26.895  1.00  0.00     0.163 C 
ATOM     24  O   UNL A   1      33.607  30.690  27.761  1.00  0.00    -0.381 OA
ENDBRANCH  11  14
ENDBRANCH   9  11
ENDBRANCH   7   9
ENDBRANCH   6   7
ENDBRANCH   5   6
ENDBRANCH   4   5
ENDBRANCH   3   4
ENDBRANCH   2   3
ENDBRANCH   1   2
BRANCH   1  25
ATOM     25  O   UNL A   1      36.955  21.648  25.750  1.00  0.00    -0.376 OA
BRANCH  25  26
ATOM     26  C   UNL A   1      38.131  22.438  25.854  1.00  0.00     0.202 C 
BRANCH  26  27
ATOM     27  C   UNL A   1      38.127  23.979  25.770  1.00  0.00     0.261 C 
BRANCH  27  28
ATOM     28  O   UNL A   1      38.354  24.708  26.980  1.00  0.00    -0.460 OA
BRANCH  28  29
ATOM     29  C   UNL A   1      39.639  25.098  27.192  1.00  0.00     0.338 C 
ATOM     30  O   UNL A   1      40.627  24.759  26.560  1.00  0.00    -0.246 OA
BRANCH  29  31
ATOM     31  C   UNL A   1      39.618  26.214  28.162  1.00  0.00     0.060 A 
ATOM     32  C   UNL A   1      40.282  27.414  27.845  1.00  0.00     0.016 A 
ATOM     33  C   UNL A   1      38.923  26.084  29.360  1.00  0.00     0.016 A 
ATOM     34  C   UNL A   1      40.245  28.493  28.725  1.00  0.00     0.010 A 
ATOM     35  C   UNL A   1      38.927  27.147  30.261  1.00  0.00     0.010 A 
ATOM     36  C   UNL A   1      39.604  28.344  29.957  1.00  0.00    -0.014 A 
BRANCH  36  37
ATOM     37  C   UNL A   1      39.818  29.325  31.044  1.00  0.00     0.031 A 
ATOM     38  C   UNL A   1      40.963  29.080  31.983  1.00  0.00     0.074 A 
ATOM     39  C   UNL A   1      38.978  30.352  31.245  1.00  0.00     0.049 A 
ATOM     40  N   UNL A   1      41.230  29.640  33.131  1.00  0.00    -0.248 NA
ATOM     41  C   UNL A   1      41.924  28.041  31.574  1.00  0.00     0.031 C 
ATOM     42  C   UNL A   1      37.868  30.726  30.370  1.00  0.00     0.029 A 
ATOM     43  N   UNL A   1      38.909  31.244  32.286  1.00  0.00    -0.354 N 
ATOM     44  C   UNL A   1      42.363  28.993  33.605  1.00  0.00     0.074 A 
ATOM     45  C   UNL A   1      42.726  27.994  32.625  1.00  0.00     0.031 C 
ATOM     46  C   UNL A   1      37.198  31.746  30.936  1.00  0.00     0.029 A 
ATOM     47  C   UNL A   1      37.801  32.055  32.234  1.00  0.00     0.049 A 
ATOM     48  H   UNL A   1      39.585  31.297  32.999  1.00  0.00     0.167 HD
ATOM     49  C   UNL A   1      43.032  29.202  34.764  1.00  0.00     0.031 A 
ATOM     50  C   UNL A   1      37.298  32.905  33.152  1.00  0.00     0.031 A 
ATOM     51  C   UNL A   1      42.639  30.177  35.745  1.00  0.00     0.049 A 
ATOM     52  C   UNL A   1      38.011  33.081  34.469  1.00  0.00     0.074 A 
ATOM     53  C   UNL A   1      43.257  30.488  36.942  1.00  0.00     0.029 A 
ATOM     54  N   UNL A   1      41.516  30.986  35.650  1.00  0.00    -0.354 N 
ATOM     55  N   UNL A   1      39.093  32.480  34.906  1.00  0.00    -0.248 NA
ATOM     56  C   UNL A   1      37.440  34.051  35.412  1.00  0.00     0.031 C 
ATOM     57  C   UNL A   1      42.468  31.433  37.605  1.00  0.00     0.029 A 
ATOM     58  C   UNL A   1      41.404  31.774  36.783  1.00  0.00     0.049 A 
ATOM     59  H   UNL A   1      40.890  30.999  34.889  1.00  0.00     0.167 HD
ATOM     60  C   UNL A   1      39.350  33.024  36.161  1.00  0.00     0.074 A 
ATOM     61  C   UNL A   1      38.311  34.001  36.412  1.00  0.00     0.031 C 
ATOM     62  C   UNL A   1      40.364  32.746  37.020  1.00  0.00     0.031 A 
BRANCH  49  63
ATOM     63  C   UNL A   1      44.202  28.299  35.054  1.00  0.00    -0.014 A 
ATOM     64  C   UNL A   1      44.038  27.058  35.697  1.00  0.00     0.010 A 
ATOM     65  C   UNL A   1      45.496  28.715  34.692  1.00  0.00     0.010 A 
ATOM     66  C   UNL A   1      45.153  26.286  36.035  1.00  0.00     0.020 A 
ATOM     67  C   UNL A   1      46.610  27.928  34.994  1.00  0.00     0.020 A 
ATOM     68  C   UNL A   1      46.432  26.730  35.689  1.00  0.00     0.054 A 
BRANCH  68  69
ATOM     69  S   UNL A   1      47.861  25.723  36.164  1.00  0.00     0.124 S 
ATOM     70  O   UNL A   1      48.962  26.672  36.016  1.00  0.00    -0.237 OA
ATOM     71  O   UNL A   1      47.542  25.341  37.537  1.00  0.00    -0.237 OA
ATOM     72  O   UNL A   1      47.851  24.626  35.197  1.00  0.00    -0.744 OA
ENDBRANCH  68  69
ENDBRANCH  49  63
BRANCH  50  73
ATOM     73  C   UNL A   1      36.030  33.625  32.857  1.00  0.00    -0.014 A 
ATOM     74  C   UNL A   1      34.787  33.045  33.161  1.00  0.00     0.010 A 
ATOM     75  C   UNL A   1      36.064  34.930  32.328  1.00  0.00     0.010 A 
ATOM     76  C   UNL A   1      33.603  33.760  32.957  1.00  0.00     0.020 A 
ATOM     77  C   UNL A   1      34.885  35.658  32.147  1.00  0.00     0.020 A 
ATOM     78  C   UNL A   1      33.662  35.068  32.465  1.00  0.00     0.054 A 
BRANCH  78  79
ATOM     79  S   UNL A   1      32.119  36.014  32.317  1.00  0.00     0.124 S 
ATOM     80  O   UNL A   1      31.114  35.014  32.661  1.00  0.00    -0.237 OA
ATOM     81  O   UNL A   1      32.313  37.080  33.295  1.00  0.00    -0.237 OA
ATOM     82  O   UNL A   1      32.118  36.450  30.922  1.00  0.00    -0.744 OA
ENDBRANCH  78  79
ENDBRANCH  50  73
BRANCH  62  83
ATOM     83  C   UNL A   1      40.449  33.543  38.298  1.00  0.00    -0.014 A 
ATOM     84  C   UNL A   1      41.021  34.826  38.334  1.00  0.00     0.010 A 
ATOM     85  C   UNL A   1      39.846  33.031  39.463  1.00  0.00     0.010 A 
ATOM     86  C   UNL A   1      40.998  35.577  39.515  1.00  0.00     0.020 A 
ATOM     87  C   UNL A   1      39.795  33.788  40.635  1.00  0.00     0.020 A 
ATOM     88  C   UNL A   1      40.378  35.055  40.656  1.00  0.00     0.054 A 
BRANCH  88  89
ATOM     89  S   UNL A   1      40.294  36.080  42.151  1.00  0.00     0.124 S 
ATOM     90  O   UNL A   1      41.705  36.315  42.441  1.00  0.00    -0.237 OA
ATOM     91  O   UNL A   1      39.543  37.248  41.696  1.00  0.00    -0.237 OA
ATOM     92  O   UNL A   1      39.594  35.232  43.114  1.00  0.00    -0.744 OA
ENDBRANCH  88  89
ENDBRANCH  62  83
ENDBRANCH  36  37
ENDBRANCH  29  31
ENDBRANCH  28  29
ENDBRANCH  27  28
ENDBRANCH  26  27
ENDBRANCH  25  26
ENDBRANCH   1  25
TORSDOF 22
ENDMDL
MODEL 2
REMARK VINA RESULT:      -9.2      2.039      9.480
REMARK SMILES C[C@@H]([NH2+][C@H]1CCOC2(CCOCC2)C1)C(=O)OCCOCCOCCOC(=O)c1ccc(-c2c3nc(c(-c4ccc(S(=O)(=O)[O-])cc4)c4ccc([nH]4)c(-c4ccc(S(=O)(=O)[O-])cc4)c4nc(c(-c5ccc(S(=O)(=O)[O-])cc5)c5ccc2[nH]5)C=C4)C=C3)cc1
REMARK SMILES IDX 22 1 21 2 20 3 19 4 18 5 17 6 15 7 16 8 2 9 1 10 3 11 4 14
REMARK SMILES IDX 5 15 14 16 6 17 8 18 7 19 9 20 13 21 10 22 12 23 11 24 23 25
REMARK SMILES IDX 24 26 25 27 26 28 27 29 28 30 29 31 30 32 88 33 31 34 87 35
REMARK SMILES IDX 32 36 33 37 34 38 81 39 35 40 86 41 80 42 82 43 36 44 85 45
REMARK SMILES IDX 79 46 78 47 37 49 67 50 48 51 66 52 49 53 52 54 65 55 83 56
REMARK SMILES IDX 50 57 51 58 64 60 84 61 53 62 38 63 39 64 47 65 40 66 46 67
REMARK SMILES IDX 41 68 42 69 43 70 44 71 45 72 68 73 69 74 77 75 70 76 76 77
REMARK SMILES IDX 71 78 72 79 73 80 74 81 75 82 54 83 55 84 63 85 56 86 62 87
REMARK SMILES IDX 57 88 58 89 59 90 60 91 61 92
REMARK H PARENT 3 12 3 13 82 48 52 59
REMARK Flexibility Score: inf
ROOT
ATOM      1  C   UNL A   1      35.308  34.170  28.438  1.00  0.00     0.188 C 
ENDROOT
BRANCH   1   2
ATOM      2  C   UNL A   1      35.021  32.710  28.803  1.00  0.00     0.188 C 
BRANCH   2   3
ATOM      3  O   UNL A   1      34.771  31.883  27.696  1.00  0.00    -0.376 OA
BRANCH   3   4
ATOM      4  C   UNL A   1      33.559  31.149  27.626  1.00  0.00     0.202 C 
BRANCH   4   5
ATOM      5  C   UNL A   1      33.328  29.835  26.840  1.00  0.00     0.261 C 
BRANCH   5   6
ATOM      6  O   UNL A   1      32.995  29.901  25.445  1.00  0.00    -0.459 OA
BRANCH   6   7
ATOM      7  C   UNL A   1      31.917  29.152  25.089  1.00  0.00     0.364 C 
ATOM      8  O   UNL A   1      30.935  29.673  24.563  1.00  0.00    -0.245 OA
BRANCH   7   9
ATOM      9  C   UNL A   1      32.132  27.598  25.194  1.00  0.00     0.290 C 
ATOM     10  C   UNL A   1      30.917  26.724  24.865  1.00  0.00     0.088 C 
BRANCH   9  11
ATOM     11  N   UNL A   1      33.289  27.087  24.399  1.00  0.00    -0.332 N 
ATOM     12  H   UNL A   1      34.141  27.227  24.941  1.00  0.00     0.347 HD
ATOM     13  H   UNL A   1      33.299  27.606  23.521  1.00  0.00     0.347 HD
BRANCH  11  14
ATOM     14  C   UNL A   1      33.187  25.666  24.055  1.00  0.00     0.188 C 
ATOM     15  C   UNL A   1      33.376  25.341  22.567  1.00  0.00     0.093 C 
ATOM     16  C   UNL A   1      34.145  24.808  24.874  1.00  0.00     0.100 C 
ATOM     17  C   UNL A   1      33.141  23.856  22.339  1.00  0.00     0.167 C 
ATOM     18  C   UNL A   1      33.825  23.321  24.604  1.00  0.00     0.078 C 
ATOM     19  O   UNL A   1      33.960  23.062  23.194  1.00  0.00    -0.374 OA
ATOM     20  C   UNL A   1      32.426  22.910  25.128  1.00  0.00     0.064 C 
ATOM     21  C   UNL A   1      34.873  22.445  25.305  1.00  0.00     0.064 C 
ATOM     22  C   UNL A   1      32.211  21.410  25.002  1.00  0.00     0.163 C 
ATOM     23  C   UNL A   1      34.520  20.970  25.161  1.00  0.00     0.163 C 
ATOM     24  O   UNL A   1      33.229  20.709  25.714  1.00  0.00    -0.381 OA
ENDBRANCH  11  14
ENDBRANCH   9  11
ENDBRANCH   7   9
ENDBRANCH   6   7
ENDBRANCH   5   6
ENDBRANCH   4   5
ENDBRANCH   3   4
ENDBRANCH   2   3
ENDBRANCH   1   2
BRANCH   1  25
ATOM     25  O   UNL A   1      34.274  35.091  28.149  1.00  0.00    -0.376 OA
BRANCH  25  26
ATOM     26  C   UNL A   1      33.103  35.104  28.952  1.00  0.00     0.202 C 
BRANCH  26  27
ATOM     27  C   UNL A   1      32.619  36.348  29.725  1.00  0.00     0.261 C 
BRANCH  27  28
ATOM     28  O   UNL A   1      33.193  36.594  31.012  1.00  0.00    -0.460 OA
BRANCH  28  29
ATOM     29  C   UNL A   1      32.885  35.681  31.970  1.00  0.00     0.338 C 
ATOM     30  O   UNL A   1      31.786  35.457  32.451  1.00  0.00    -0.246 OA
BRANCH  29  31
ATOM     31  C   UNL A   1      34.065  34.808  32.158  1.00  0.00     0.060 A 
ATOM     32  C   UNL A   1      33.873  33.445  32.451  1.00  0.00     0.016 A 
ATOM     33  C   UNL A   1      35.347  35.329  32.013  1.00  0.00     0.016 A 
ATOM     34  C   UNL A   1      34.966  32.595  32.595  1.00  0.00     0.010 A 
ATOM     35  C   UNL A   1      36.442  34.487  32.204  1.00  0.00     0.010 A 
ATOM     36  C   UNL A   1      36.256  33.126  32.516  1.00  0.00    -0.014 A 
BRANCH  36  37
ATOM     37  C   UNL A   1      37.424  32.347  32.983  1.00  0.00     0.031 A 
ATOM     38  C   UNL A   1      37.924  32.613  34.373  1.00  0.00     0.074 A 
ATOM     39  C   UNL A   1      38.074  31.495  32.175  1.00  0.00     0.049 A 
ATOM     40  N   UNL A   1      39.043  32.249  34.937  1.00  0.00    -0.248 NA
ATOM     41  C   UNL A   1      37.043  33.423  35.232  1.00  0.00     0.031 C 
ATOM     42  C   UNL A   1      37.654  31.112  30.829  1.00  0.00     0.029 A 
ATOM     43  N   UNL A   1      39.261  30.832  32.365  1.00  0.00    -0.354 N 
ATOM     44  C   UNL A   1      39.023  32.820  36.203  1.00  0.00     0.074 A 
ATOM     45  C   UNL A   1      37.787  33.561  36.318  1.00  0.00     0.031 C 
ATOM     46  C   UNL A   1      38.594  30.313  30.295  1.00  0.00     0.029 A 
ATOM     47  C   UNL A   1      39.703  30.177  31.241  1.00  0.00     0.049 A 
ATOM     48  H   UNL A   1      39.747  30.826  33.221  1.00  0.00     0.167 HD
ATOM     49  C   UNL A   1      39.962  32.747  37.176  1.00  0.00     0.031 A 
ATOM     50  C   UNL A   1      40.888  29.587  30.984  1.00  0.00     0.031 A 
ATOM     51  C   UNL A   1      41.202  32.033  37.035  1.00  0.00     0.049 A 
ATOM     52  C   UNL A   1      41.954  29.570  32.050  1.00  0.00     0.074 A 
ATOM     53  C   UNL A   1      42.213  31.875  37.964  1.00  0.00     0.029 A 
ATOM     54  N   UNL A   1      41.608  31.374  35.883  1.00  0.00    -0.354 N 
ATOM     55  N   UNL A   1      41.925  30.096  33.252  1.00  0.00    -0.248 NA
ATOM     56  C   UNL A   1      43.209  28.878  31.727  1.00  0.00     0.031 C 
ATOM     57  C   UNL A   1      43.261  31.182  37.352  1.00  0.00     0.029 A 
ATOM     58  C   UNL A   1      42.869  30.834  36.067  1.00  0.00     0.049 A 
ATOM     59  H   UNL A   1      41.078  31.300  35.056  1.00  0.00     0.167 HD
ATOM     60  C   UNL A   1      43.144  29.769  33.841  1.00  0.00     0.074 A 
ATOM     61  C   UNL A   1      43.885  29.001  32.863  1.00  0.00     0.031 C 
ATOM     62  C   UNL A   1      43.598  30.068  35.085  1.00  0.00     0.031 A 
BRANCH  49  63
ATOM     63  C   UNL A   1      39.704  33.528  38.438  1.00  0.00    -0.014 A 
ATOM     64  C   UNL A   1      40.153  34.852  38.594  1.00  0.00     0.010 A 
ATOM     65  C   UNL A   1      39.014  32.911  39.498  1.00  0.00     0.010 A 
ATOM     66  C   UNL A   1      39.980  35.518  39.811  1.00  0.00     0.020 A 
ATOM     67  C   UNL A   1      38.805  33.586  40.703  1.00  0.00     0.020 A 
ATOM     68  C   UNL A   1      39.314  34.877  40.860  1.00  0.00     0.054 A 
BRANCH  68  69
ATOM     69  S   UNL A   1      39.128  35.752  42.436  1.00  0.00     0.124 S 
ATOM     70  O   UNL A   1      37.782  35.356  42.843  1.00  0.00    -0.237 OA
ATOM     71  O   UNL A   1      40.215  35.200  43.240  1.00  0.00    -0.237 OA
ATOM     72  O   UNL A   1      39.280  37.160  42.072  1.00  0.00    -0.744 OA
ENDBRANCH  68  69
ENDBRANCH  49  63
BRANCH  50  73
ATOM     73  C   UNL A   1      41.129  28.996  29.639  1.00  0.00    -0.014 A 
ATOM     74  C   UNL A   1      41.710  29.760  28.613  1.00  0.00     0.010 A 
ATOM     75  C   UNL A   1      40.837  27.640  29.401  1.00  0.00     0.010 A 
ATOM     76  C   UNL A   1      42.009  29.175  27.378  1.00  0.00     0.020 A 
ATOM     77  C   UNL A   1      41.157  27.045  28.178  1.00  0.00     0.020 A 
ATOM     78  C   UNL A   1      41.743  27.817  27.175  1.00  0.00     0.054 A 
BRANCH  78  79
ATOM     79  S   UNL A   1      42.244  27.057  25.604  1.00  0.00     0.124 S 
ATOM     80  O   UNL A   1      41.168  26.100  25.372  1.00  0.00    -0.237 OA
ATOM     81  O   UNL A   1      42.278  28.203  24.700  1.00  0.00    -0.237 OA
ATOM     82  O   UNL A   1      43.549  26.472  25.908  1.00  0.00    -0.744 OA
ENDBRANCH  78  79
ENDBRANCH  50  73
BRANCH  62  83
ATOM     83  C   UNL A   1      44.940  29.522  35.500  1.00  0.00    -0.014 A 
ATOM     84  C   UNL A   1      45.075  28.249  36.081  1.00  0.00     0.010 A 
ATOM     85  C   UNL A   1      46.101  30.263  35.202  1.00  0.00     0.010 A 
ATOM     86  C   UNL A   1      46.344  27.734  36.366  1.00  0.00     0.020 A 
ATOM     87  C   UNL A   1      47.370  29.740  35.457  1.00  0.00     0.020 A 
ATOM     88  C   UNL A   1      47.484  28.480  36.045  1.00  0.00     0.054 A 
BRANCH  88  89
ATOM     89  S   UNL A   1      49.119  27.756  36.354  1.00  0.00     0.124 S 
ATOM     90  O   UNL A   1      49.014  26.466  35.677  1.00  0.00    -0.237 OA
ATOM     91  O   UNL A   1      50.019  28.722  35.728  1.00  0.00    -0.237 OA
ATOM     92  O   UNL A   1      49.200  27.689  37.811  1.00  0.00    -0.744 OA
ENDBRANCH  88  89
ENDBRANCH  62  83
ENDBRANCH  36  37
ENDBRANCH  29  31
ENDBRANCH  28  29
ENDBRANCH  27  28
ENDBRANCH  26  27
ENDBRANCH  25  26
ENDBRANCH   1  25
TORSDOF 22
ENDMDL
MODEL 3
REMARK VINA RESULT:      -8.7      2.031      3.017
REMARK SMILES C[C@@H]([NH2+][C@H]1CCOC2(CCOCC2)C1)C(=O)OCCOCCOCCOC(=O)c1ccc(-c2c3nc(c(-c4ccc(S(=O)(=O)[O-])cc4)c4ccc([nH]4)c(-c4ccc(S(=O)(=O)[O-])cc4)c4nc(c(-c5ccc(S(=O)(=O)[O-])cc5)c5ccc2[nH]5)C=C4)C=C3)cc1
REMARK SMILES IDX 22 1 21 2 20 3 19 4 18 5 17 6 15 7 16 8 2 9 1 10 3 11 4 14
REMARK SMILES IDX 5 15 14 16 6 17 8 18 7 19 9 20 13 21 10 22 12 23 11 24 23 25
REMARK SMILES IDX 24 26 25 27 26 28 27 29 28 30 29 31 30 32 88 33 31 34 87 35
REMARK SMILES IDX 32 36 33 37 34 38 81 39 35 40 86 41 80 42 82 43 36 44 85 45
REMARK SMILES IDX 79 46 78 47 37 49 67 50 48 51 66 52 49 53 52 54 65 55 83 56
REMARK SMILES IDX 50 57 51 58 64 60 84 61 53 62 38 63 39 64 47 65 40 66 46 67
REMARK SMILES IDX 41 68 42 69 43 70 44 71 45 72 68 73 69 74 77 75 70 76 76 77
REMARK SMILES IDX 71 78 72 79 73 80 74 81 75 82 54 83 55 84 63 85 56 86 62 87
REMARK SMILES IDX 57 88 58 89 59 90 60 91 61 92
REMARK H PARENT 3 12 3 13 82 48 52 59
REMARK Flexibility Score: inf
ROOT
ATOM      1  C   UNL A   1      39.628  20.682  26.070  1.00  0.00     0.188 C 
ENDROOT
BRANCH   1   2
ATOM      2  C   UNL A   1      38.848  19.737  25.150  1.00  0.00     0.188 C 
BRANCH   2   3
ATOM      3  O   UNL A   1      37.564  20.196  24.815  1.00  0.00    -0.376 OA
BRANCH   3   4
ATOM      4  C   UNL A   1      37.060  21.378  25.416  1.00  0.00     0.202 C 
BRANCH   4   5
ATOM      5  C   UNL A   1      35.705  21.527  26.150  1.00  0.00     0.261 C 
BRANCH   5   6
ATOM      6  O   UNL A   1      34.590  22.103  25.453  1.00  0.00    -0.459 OA
BRANCH   6   7
ATOM      7  C   UNL A   1      33.727  22.794  26.247  1.00  0.00     0.364 C 
ATOM      8  O   UNL A   1      34.134  23.404  27.235  1.00  0.00    -0.245 OA
BRANCH   7   9
ATOM      9  C   UNL A   1      32.269  22.925  25.676  1.00  0.00     0.290 C 
ATOM     10  C   UNL A   1      31.293  23.769  26.503  1.00  0.00     0.088 C 
BRANCH   9  11
ATOM     11  N   UNL A   1      32.208  23.412  24.264  1.00  0.00    -0.332 N 
ATOM     12  H   UNL A   1      31.299  23.160  23.875  1.00  0.00     0.347 HD
ATOM     13  H   UNL A   1      32.979  22.971  23.764  1.00  0.00     0.347 HD
BRANCH  11  14
ATOM     14  C   UNL A   1      32.383  24.860  24.133  1.00  0.00     0.188 C 
ATOM     15  C   UNL A   1      33.757  25.304  23.612  1.00  0.00     0.093 C 
ATOM     16  C   UNL A   1      31.300  25.493  23.266  1.00  0.00     0.100 C 
ATOM     17  C   UNL A   1      33.838  26.823  23.625  1.00  0.00     0.167 C 
ATOM     18  C   UNL A   1      31.436  27.029  23.352  1.00  0.00     0.078 C 
ATOM     19  O   UNL A   1      32.753  27.407  22.909  1.00  0.00    -0.374 OA
ATOM     20  C   UNL A   1      31.135  27.573  24.772  1.00  0.00     0.064 C 
ATOM     21  C   UNL A   1      30.449  27.678  22.372  1.00  0.00     0.064 C 
ATOM     22  C   UNL A   1      31.110  29.094  24.783  1.00  0.00     0.163 C 
ATOM     23  C   UNL A   1      30.470  29.195  22.518  1.00  0.00     0.163 C 
ATOM     24  O   UNL A   1      30.138  29.573  23.855  1.00  0.00    -0.381 OA
ENDBRANCH  11  14
ENDBRANCH   9  11
ENDBRANCH   7   9
ENDBRANCH   6   7
ENDBRANCH   5   6
ENDBRANCH   4   5
ENDBRANCH   3   4
ENDBRANCH   2   3
ENDBRANCH   1   2
BRANCH   1  25
ATOM     25  O   UNL A   1      40.613  20.215  26.969  1.00  0.00    -0.376 OA
BRANCH  25  26
ATOM     26  C   UNL A   1      41.986  20.329  26.624  1.00  0.00     0.202 C 
BRANCH  26  27
ATOM     27  C   UNL A   1      42.667  21.673  26.288  1.00  0.00     0.261 C 
BRANCH  27  28
ATOM     28  O   UNL A   1      42.084  22.864  26.824  1.00  0.00    -0.460 OA
BRANCH  28  29
ATOM     29  C   UNL A   1      42.401  24.012  26.170  1.00  0.00     0.338 C 
ATOM     30  O   UNL A   1      42.708  24.132  24.995  1.00  0.00    -0.246 OA
BRANCH  29  31
ATOM     31  C   UNL A   1      42.061  25.146  27.057  1.00  0.00     0.060 A 
ATOM     32  C   UNL A   1      42.691  26.388  26.859  1.00  0.00     0.016 A 
ATOM     33  C   UNL A   1      41.104  24.987  28.055  1.00  0.00     0.016 A 
ATOM     34  C   UNL A   1      42.360  27.481  27.656  1.00  0.00     0.010 A 
ATOM     35  C   UNL A   1      40.808  26.069  28.883  1.00  0.00     0.010 A 
ATOM     36  C   UNL A   1      41.449  27.310  28.701  1.00  0.00    -0.014 A 
BRANCH  36  37
ATOM     37  C   UNL A   1      41.316  28.331  29.764  1.00  0.00     0.031 A 
ATOM     38  C   UNL A   1      42.179  28.179  30.982  1.00  0.00     0.074 A 
ATOM     39  C   UNL A   1      40.403  29.312  29.691  1.00  0.00     0.049 A 
ATOM     40  N   UNL A   1      42.101  28.784  32.136  1.00  0.00    -0.248 NA
ATOM     41  C   UNL A   1      43.264  27.187  30.886  1.00  0.00     0.031 C 
ATOM     42  C   UNL A   1      39.550  29.596  28.539  1.00  0.00     0.029 A 
ATOM     43  N   UNL A   1      40.014  30.226  30.639  1.00  0.00    -0.354 N 
ATOM     44  C   UNL A   1      43.097  28.218  32.920  1.00  0.00     0.074 A 
ATOM     45  C   UNL A   1      43.757  27.216  32.113  1.00  0.00     0.031 C 
ATOM     46  C   UNL A   1      38.704  30.589  28.864  1.00  0.00     0.029 A 
ATOM     47  C   UNL A   1      38.922  30.968  30.261  1.00  0.00     0.049 A 
ATOM     48  H   UNL A   1      40.472  30.338  31.503  1.00  0.00     0.167 HD
ATOM     49  C   UNL A   1      43.420  28.497  34.205  1.00  0.00     0.031 A 
ATOM     50  C   UNL A   1      38.151  31.813  30.976  1.00  0.00     0.031 A 
ATOM     51  C   UNL A   1      42.733  29.474  35.005  1.00  0.00     0.049 A 
ATOM     52  C   UNL A   1      38.476  32.066  32.426  1.00  0.00     0.074 A 
ATOM     53  C   UNL A   1      42.992  29.853  36.309  1.00  0.00     0.029 A 
ATOM     54  N   UNL A   1      41.637  30.213  34.582  1.00  0.00    -0.354 N 
ATOM     55  N   UNL A   1      39.431  31.541  33.160  1.00  0.00    -0.248 NA
ATOM     56  C   UNL A   1      37.626  33.026  33.143  1.00  0.00     0.031 C 
ATOM     57  C   UNL A   1      42.009  30.767  36.699  1.00  0.00     0.029 A 
ATOM     58  C   UNL A   1      41.188  31.023  35.610  1.00  0.00     0.049 A 
ATOM     59  H   UNL A   1      41.238  30.169  33.682  1.00  0.00     0.167 HD
ATOM     60  C   UNL A   1      39.316  32.133  34.415  1.00  0.00     0.074 A 
ATOM     61  C   UNL A   1      38.200  33.054  34.340  1.00  0.00     0.031 C 
ATOM     62  C   UNL A   1      40.076  31.939  35.523  1.00  0.00     0.031 A 
BRANCH  49  63
ATOM     63  C   UNL A   1      44.514  27.673  34.832  1.00  0.00    -0.014 A 
ATOM     64  C   UNL A   1      44.240  26.464  35.498  1.00  0.00     0.010 A 
ATOM     65  C   UNL A   1      45.842  28.132  34.770  1.00  0.00     0.010 A 
ATOM     66  C   UNL A   1      45.263  25.769  36.150  1.00  0.00     0.020 A 
ATOM     67  C   UNL A   1      46.873  27.421  35.387  1.00  0.00     0.020 A 
ATOM     68  C   UNL A   1      46.571  26.258  36.097  1.00  0.00     0.054 A 
BRANCH  68  69
ATOM     69  S   UNL A   1      47.874  25.352  36.974  1.00  0.00     0.124 S 
ATOM     70  O   UNL A   1      47.280  25.177  38.298  1.00  0.00    -0.237 OA
ATOM     71  O   UNL A   1      48.007  24.133  36.181  1.00  0.00    -0.237 OA
ATOM     72  O   UNL A   1      49.022  26.255  36.921  1.00  0.00    -0.744 OA
ENDBRANCH  68  69
ENDBRANCH  49  63
BRANCH  50  73
ATOM     73  C   UNL A   1      36.973  32.449  30.325  1.00  0.00    -0.014 A 
ATOM     74  C   UNL A   1      35.668  32.032  30.637  1.00  0.00     0.010 A 
ATOM     75  C   UNL A   1      37.153  33.525  29.436  1.00  0.00     0.010 A 
ATOM     76  C   UNL A   1      34.565  32.689  30.084  1.00  0.00     0.020 A 
ATOM     77  C   UNL A   1      36.053  34.201  28.901  1.00  0.00     0.020 A 
ATOM     78  C   UNL A   1      34.765  33.779  29.231  1.00  0.00     0.054 A 
BRANCH  78  79
ATOM     79  S   UNL A   1      33.316  34.684  28.618  1.00  0.00     0.124 S 
ATOM     80  O   UNL A   1      33.927  35.863  28.012  1.00  0.00    -0.237 OA
ATOM     81  O   UNL A   1      32.724  33.729  27.685  1.00  0.00    -0.237 OA
ATOM     82  O   UNL A   1      32.532  34.934  29.825  1.00  0.00    -0.744 OA
ENDBRANCH  78  79
ENDBRANCH  50  73
BRANCH  62  83
ATOM     83  C   UNL A   1      39.777  32.773  36.742  1.00  0.00    -0.014 A 
ATOM     84  C   UNL A   1      38.741  32.441  37.632  1.00  0.00     0.010 A 
ATOM     85  C   UNL A   1      40.626  33.854  37.055  1.00  0.00     0.010 A 
ATOM     86  C   UNL A   1      38.552  33.182  38.805  1.00  0.00     0.020 A 
ATOM     87  C   UNL A   1      40.459  34.576  38.238  1.00  0.00     0.020 A 
ATOM     88  C   UNL A   1      39.418  34.240  39.103  1.00  0.00     0.054 A 
BRANCH  88  89
ATOM     89  S   UNL A   1      39.199  35.134  40.668  1.00  0.00     0.124 S 
ATOM     90  O   UNL A   1      40.548  35.104  41.226  1.00  0.00    -0.237 OA
ATOM     91  O   UNL A   1      38.732  36.445  40.223  1.00  0.00    -0.237 OA
ATOM     92  O   UNL A   1      38.209  34.336  41.388  1.00  0.00    -0.744 OA
ENDBRANCH  88  89
ENDBRANCH  62  83
ENDBRANCH  36  37
ENDBRANCH  29  31
ENDBRANCH  28  29
ENDBRANCH  27  28
ENDBRANCH  26  27
ENDBRANCH  25  26
ENDBRANCH   1  25
TORSDOF 22
ENDMDL
