MODEL 1
REMARK VINA RESULT:      -8.9      0.000      0.000
REMARK SMILES O=C(OCCOCCOCCOC(=O)c1cc(Cl)c2c(c1)[C@H]1C=CC[C@H]1[C@H](c1ccc(S(=O)(=O)N3CCOCC3)cc1)N2)c1ccc(-c2c3nc(c(-c4ccc(S(=O)(=O)[O-])cc4)c4ccc([nH]4)c(-c4ccc(S(=O)(=O)[O-])cc4)c4nc(c(-c5ccc(S(=O)(=O)[O-])cc5)c5ccc2[nH]5)C=C4)C=C3)cc1
REMARK SMILES IDX 7 1 6 2 5 3 4 4 3 5 2 6 1 7 44 8 45 9 103 10 46 11 102 12
REMARK SMILES IDX 47 13 48 14 49 15 96 16 50 17 101 18 95 19 97 20 51 21
REMARK SMILES IDX 100 22 94 23 93 24 52 26 82 27 63 28 81 29 64 30 67 31 80 32
REMARK SMILES IDX 98 33 65 34 66 35 79 37 99 38 68 39 53 40 54 41 62 42 55 43
REMARK SMILES IDX 61 44 56 45 57 46 58 47 59 48 60 49 83 50 84 51 92 52 85 53
REMARK SMILES IDX 91 54 86 55 87 56 88 57 89 58 90 59 69 60 70 61 78 62 71 63
REMARK SMILES IDX 77 64 72 65 73 66 74 67 75 68 76 69 8 70 9 71 10 72 11 73
REMARK SMILES IDX 12 74 13 75 14 76 15 77 16 78 21 79 17 80 20 81 18 82 19 83
REMARK SMILES IDX 22 84 43 85 23 86 26 87 27 88 24 90 25 91 28 92 29 93 42 94
REMARK SMILES IDX 30 95 41 96 31 97 32 98 33 99 34 100 35 101 36 102 40 103
REMARK SMILES IDX 37 104 39 105 38 106
REMARK H PARENT 97 25 67 36 43 89
REMARK Flexibility Score: inf
ROOT
ATOM      1  C   UNL A   1      33.001  36.331  31.460  1.00  0.00     0.188 C 
ENDROOT
BRANCH   1   2
ATOM      2  O   UNL A   1      33.303  36.424  30.073  1.00  0.00    -0.376 OA
BRANCH   2   3
ATOM      3  C   UNL A   1      33.274  35.211  29.335  1.00  0.00     0.202 C 
BRANCH   3   4
ATOM      4  C   UNL A   1      34.262  34.180  29.880  1.00  0.00     0.261 C 
BRANCH   4   5
ATOM      5  O   UNL A   1      33.866  32.851  29.492  1.00  0.00    -0.460 OA
BRANCH   5   6
ATOM      6  C   UNL A   1      34.455  31.975  28.650  1.00  0.00     0.338 C 
ATOM      7  O   UNL A   1      33.828  31.660  27.636  1.00  0.00    -0.246 OA
BRANCH   6   8
ATOM      8  C   UNL A   1      35.767  31.280  28.895  1.00  0.00     0.060 A 
ATOM      9  C   UNL A   1      36.164  30.626  30.063  1.00  0.00     0.016 A 
ATOM     10  C   UNL A   1      36.668  31.259  27.810  1.00  0.00     0.016 A 
ATOM     11  C   UNL A   1      37.408  29.999  30.168  1.00  0.00     0.010 A 
ATOM     12  C   UNL A   1      37.926  30.658  27.911  1.00  0.00     0.010 A 
ATOM     13  C   UNL A   1      38.309  30.056  29.109  1.00  0.00    -0.014 A 
BRANCH  13  14
ATOM     14  C   UNL A   1      39.716  29.700  29.357  1.00  0.00     0.031 A 
ATOM     15  C   UNL A   1      40.575  30.714  30.050  1.00  0.00     0.074 A 
ATOM     16  C   UNL A   1      40.191  28.482  29.055  1.00  0.00     0.049 A 
ATOM     17  N   UNL A   1      41.834  30.637  30.383  1.00  0.00    -0.248 NA
ATOM     18  C   UNL A   1      39.917  31.972  30.446  1.00  0.00     0.031 C 
ATOM     19  C   UNL A   1      39.404  27.387  28.497  1.00  0.00     0.029 A 
ATOM     20  N   UNL A   1      41.451  27.959  29.198  1.00  0.00    -0.354 N 
ATOM     21  C   UNL A   1      42.111  31.819  31.053  1.00  0.00     0.074 A 
ATOM     22  C   UNL A   1      40.899  32.607  31.065  1.00  0.00     0.031 C 
ATOM     23  C   UNL A   1      40.203  26.318  28.349  1.00  0.00     0.029 A 
ATOM     24  C   UNL A   1      41.556  26.661  28.765  1.00  0.00     0.049 A 
ATOM     25  H   UNL A   1      42.205  28.465  29.576  1.00  0.00     0.167 HD
ATOM     26  C   UNL A   1      43.279  32.218  31.601  1.00  0.00     0.031 A 
ATOM     27  C   UNL A   1      42.625  25.845  28.697  1.00  0.00     0.031 A 
ATOM     28  C   UNL A   1      44.497  31.467  31.499  1.00  0.00     0.049 A 
ATOM     29  C   UNL A   1      43.953  26.365  29.165  1.00  0.00     0.074 A 
ATOM     30  C   UNL A   1      45.770  31.830  31.895  1.00  0.00     0.029 A 
ATOM     31  N   UNL A   1      44.589  30.198  30.946  1.00  0.00    -0.354 N 
ATOM     32  N   UNL A   1      44.231  27.532  29.696  1.00  0.00    -0.248 NA
ATOM     33  C   UNL A   1      45.109  25.472  29.022  1.00  0.00     0.031 C 
ATOM     34  C   UNL A   1      46.642  30.793  31.545  1.00  0.00     0.029 A 
ATOM     35  C   UNL A   1      45.901  29.762  30.985  1.00  0.00     0.049 A 
ATOM     36  H   UNL A   1      43.834  29.684  30.581  1.00  0.00     0.167 HD
ATOM     37  C   UNL A   1      45.592  27.510  29.970  1.00  0.00     0.074 A 
ATOM     38  C   UNL A   1      46.081  26.212  29.543  1.00  0.00     0.031 C 
ATOM     39  C   UNL A   1      46.362  28.472  30.535  1.00  0.00     0.031 A 
BRANCH  26  40
ATOM     40  C   UNL A   1      43.282  33.550  32.289  1.00  0.00    -0.014 A 
ATOM     41  C   UNL A   1      43.606  34.723  31.582  1.00  0.00     0.010 A 
ATOM     42  C   UNL A   1      42.992  33.629  33.662  1.00  0.00     0.010 A 
ATOM     43  C   UNL A   1      43.666  35.951  32.245  1.00  0.00     0.020 A 
ATOM     44  C   UNL A   1      43.033  34.859  34.324  1.00  0.00     0.020 A 
ATOM     45  C   UNL A   1      43.379  36.010  33.613  1.00  0.00     0.054 A 
BRANCH  45  46
ATOM     46  S   UNL A   1      43.480  37.617  34.447  1.00  0.00     0.124 S 
ATOM     47  O   UNL A   1      42.639  38.455  33.596  1.00  0.00    -0.237 OA
ATOM     48  O   UNL A   1      42.938  37.318  35.769  1.00  0.00    -0.237 OA
ATOM     49  O   UNL A   1      44.905  37.937  34.414  1.00  0.00    -0.744 OA
ENDBRANCH  45  46
ENDBRANCH  26  40
BRANCH  27  50
ATOM     50  C   UNL A   1      42.462  24.470  28.154  1.00  0.00    -0.014 A 
ATOM     51  C   UNL A   1      42.346  23.369  29.020  1.00  0.00     0.010 A 
ATOM     52  C   UNL A   1      42.326  24.268  26.767  1.00  0.00     0.010 A 
ATOM     53  C   UNL A   1      42.070  22.095  28.511  1.00  0.00     0.020 A 
ATOM     54  C   UNL A   1      42.040  22.998  26.257  1.00  0.00     0.020 A 
ATOM     55  C   UNL A   1      41.904  21.920  27.133  1.00  0.00     0.054 A 
BRANCH  55  56
ATOM     56  S   UNL A   1      41.429  20.283  26.508  1.00  0.00     0.124 S 
ATOM     57  O   UNL A   1      42.426  20.052  25.468  1.00  0.00    -0.237 OA
ATOM     58  O   UNL A   1      41.551  19.441  27.696  1.00  0.00    -0.237 OA
ATOM     59  O   UNL A   1      40.060  20.484  26.036  1.00  0.00    -0.744 OA
ENDBRANCH  55  56
ENDBRANCH  27  50
BRANCH  39  60
ATOM     60  C   UNL A   1      47.812  28.158  30.755  1.00  0.00    -0.014 A 
ATOM     61  C   UNL A   1      48.276  27.691  31.995  1.00  0.00     0.010 A 
ATOM     62  C   UNL A   1      48.701  28.240  29.667  1.00  0.00     0.010 A 
ATOM     63  C   UNL A   1      49.614  27.322  32.147  1.00  0.00     0.020 A 
ATOM     64  C   UNL A   1      50.033  27.853  29.810  1.00  0.00     0.020 A 
ATOM     65  C   UNL A   1      50.482  27.399  31.052  1.00  0.00     0.054 A 
BRANCH  65  66
ATOM     66  S   UNL A   1      52.201  26.868  31.271  1.00  0.00     0.124 S 
ATOM     67  O   UNL A   1      52.706  27.849  32.228  1.00  0.00    -0.237 OA
ATOM     68  O   UNL A   1      52.048  25.510  31.784  1.00  0.00    -0.237 OA
ATOM     69  O   UNL A   1      52.769  26.963  29.928  1.00  0.00    -0.744 OA
ENDBRANCH  65  66
ENDBRANCH  39  60
ENDBRANCH  13  14
ENDBRANCH   6   8
ENDBRANCH   5   6
ENDBRANCH   4   5
ENDBRANCH   3   4
ENDBRANCH   2   3
ENDBRANCH   1   2
BRANCH   1  70
ATOM     70  C   UNL A   1      34.033  36.934  32.419  1.00  0.00     0.188 C 
BRANCH  70  71
ATOM     71  O   UNL A   1      34.358  36.227  33.610  1.00  0.00    -0.376 OA
BRANCH  71  72
ATOM     72  C   UNL A   1      34.609  34.828  33.545  1.00  0.00     0.202 C 
BRANCH  72  73
ATOM     73  C   UNL A   1      35.614  34.250  34.539  1.00  0.00     0.261 C 
BRANCH  73  74
ATOM     74  O   UNL A   1      36.967  34.644  34.269  1.00  0.00    -0.460 OA
BRANCH  74  75
ATOM     75  C   UNL A   1      37.555  33.990  33.244  1.00  0.00     0.338 C 
ATOM     76  O   UNL A   1      37.653  34.351  32.083  1.00  0.00    -0.246 OA
BRANCH  75  77
ATOM     77  C   UNL A   1      38.138  32.736  33.726  1.00  0.00     0.062 A 
ATOM     78  C   UNL A   1      37.544  31.531  33.373  1.00  0.00     0.038 A 
ATOM     79  C   UNL A   1      39.382  32.766  34.357  1.00  0.00     0.022 A 
ATOM     80  C   UNL A   1      38.235  30.348  33.622  1.00  0.00     0.065 A 
ATOM     81  C   UNL A   1      40.068  31.570  34.620  1.00  0.00    -0.015 A 
ATOM     82  Cl  UNL A   1      37.513  28.873  33.081  1.00  0.00    -0.082 Cl
ATOM     83  C   UNL A   1      39.501  30.345  34.250  1.00  0.00     0.057 A 
ATOM     84  C   UNL A   1      41.445  31.635  35.209  1.00  0.00     0.049 C 
ATOM     85  N   UNL A   1      40.209  29.170  34.412  1.00  0.00    -0.376 N 
ATOM     86  C   UNL A   1      41.497  31.860  36.695  1.00  0.00    -0.023 C 
ATOM     87  C   UNL A   1      42.300  30.363  35.037  1.00  0.00     0.031 C 
ATOM     88  C   UNL A   1      41.441  29.073  35.172  1.00  0.00     0.114 C 
ATOM     89  H   UNL A   1      39.858  28.354  33.988  1.00  0.00     0.161 HD
ATOM     90  C   UNL A   1      42.570  31.260  37.226  1.00  0.00    -0.030 C 
ATOM     91  C   UNL A   1      43.346  30.546  36.164  1.00  0.00     0.034 C 
BRANCH  88  92
ATOM     92  C   UNL A   1      42.206  27.829  34.718  1.00  0.00    -0.025 A 
ATOM     93  C   UNL A   1      43.193  27.832  33.710  1.00  0.00     0.007 A 
ATOM     94  C   UNL A   1      41.916  26.612  35.332  1.00  0.00     0.007 A 
ATOM     95  C   UNL A   1      43.860  26.654  33.333  1.00  0.00     0.022 A 
ATOM     96  C   UNL A   1      42.630  25.466  35.012  1.00  0.00     0.022 A 
ATOM     97  C   UNL A   1      43.585  25.467  34.007  1.00  0.00     0.082 A 
BRANCH  97  98
ATOM     98  S   UNL A   1      44.449  23.973  33.573  1.00  0.00     0.243 S 
ATOM     99  O   UNL A   1      43.528  22.869  33.774  1.00  0.00    -0.207 OA
ATOM    100  O   UNL A   1      45.094  24.212  32.305  1.00  0.00    -0.207 OA
BRANCH  98 101
ATOM    101  N   UNL A   1      45.664  23.810  34.729  1.00  0.00    -0.193 NA
ATOM    102  C   UNL A   1      47.010  24.392  34.546  1.00  0.00     0.131 C 
ATOM    103  C   UNL A   1      45.482  22.999  35.943  1.00  0.00     0.131 C 
ATOM    104  C   UNL A   1      48.117  23.364  34.837  1.00  0.00     0.177 C 
ATOM    105  C   UNL A   1      46.629  21.999  36.099  1.00  0.00     0.177 C 
ATOM    106  O   UNL A   1      47.908  22.647  36.065  1.00  0.00    -0.379 OA
ENDBRANCH  98 101
ENDBRANCH  97  98
ENDBRANCH  88  92
ENDBRANCH  75  77
ENDBRANCH  74  75
ENDBRANCH  73  74
ENDBRANCH  72  73
ENDBRANCH  71  72
ENDBRANCH  70  71
ENDBRANCH   1  70
TORSDOF 23
ENDMDL
MODEL 2
REMARK VINA RESULT:      -7.3      3.679     10.815
REMARK SMILES O=C(OCCOCCOCCOC(=O)c1cc(Cl)c2c(c1)[C@H]1C=CC[C@H]1[C@H](c1ccc(S(=O)(=O)N3CCOCC3)cc1)N2)c1ccc(-c2c3nc(c(-c4ccc(S(=O)(=O)[O-])cc4)c4ccc([nH]4)c(-c4ccc(S(=O)(=O)[O-])cc4)c4nc(c(-c5ccc(S(=O)(=O)[O-])cc5)c5ccc2[nH]5)C=C4)C=C3)cc1
REMARK SMILES IDX 7 1 6 2 5 3 4 4 3 5 2 6 1 7 44 8 45 9 103 10 46 11 102 12
REMARK SMILES IDX 47 13 48 14 49 15 96 16 50 17 101 18 95 19 97 20 51 21
REMARK SMILES IDX 100 22 94 23 93 24 52 26 82 27 63 28 81 29 64 30 67 31 80 32
REMARK SMILES IDX 98 33 65 34 66 35 79 37 99 38 68 39 53 40 54 41 62 42 55 43
REMARK SMILES IDX 61 44 56 45 57 46 58 47 59 48 60 49 83 50 84 51 92 52 85 53
REMARK SMILES IDX 91 54 86 55 87 56 88 57 89 58 90 59 69 60 70 61 78 62 71 63
REMARK SMILES IDX 77 64 72 65 73 66 74 67 75 68 76 69 8 70 9 71 10 72 11 73
REMARK SMILES IDX 12 74 13 75 14 76 15 77 16 78 21 79 17 80 20 81 18 82 19 83
REMARK SMILES IDX 22 84 43 85 23 86 26 87 27 88 24 90 25 91 28 92 29 93 42 94
REMARK SMILES IDX 30 95 41 96 31 97 32 98 33 99 34 100 35 101 36 102 40 103
REMARK SMILES IDX 37 104 39 105 38 106
REMARK H PARENT 97 25 67 36 43 89
REMARK Flexibility Score: inf
ROOT
ATOM      1  C   UNL A   1      42.925  22.282  25.691  1.00  0.00     0.188 C 
ENDROOT
BRANCH   1   2
ATOM      2  O   UNL A   1      41.619  21.814  25.376  1.00  0.00    -0.376 OA
BRANCH   2   3
ATOM      3  C   UNL A   1      40.733  21.621  26.470  1.00  0.00     0.202 C 
BRANCH   3   4
ATOM      4  C   UNL A   1      40.329  22.941  27.126  1.00  0.00     0.261 C 
BRANCH   4   5
ATOM      5  O   UNL A   1      40.388  24.015  26.170  1.00  0.00    -0.460 OA
BRANCH   5   6
ATOM      6  C   UNL A   1      40.597  25.337  26.353  1.00  0.00     0.338 C 
ATOM      7  O   UNL A   1      40.863  26.008  25.355  1.00  0.00    -0.246 OA
BRANCH   6   8
ATOM      8  C   UNL A   1      40.625  26.038  27.685  1.00  0.00     0.060 A 
ATOM      9  C   UNL A   1      39.615  26.047  28.649  1.00  0.00     0.016 A 
ATOM     10  C   UNL A   1      41.818  26.722  27.998  1.00  0.00     0.016 A 
ATOM     11  C   UNL A   1      39.763  26.724  29.862  1.00  0.00     0.010 A 
ATOM     12  C   UNL A   1      41.969  27.424  29.198  1.00  0.00     0.010 A 
ATOM     13  C   UNL A   1      40.921  27.452  30.117  1.00  0.00    -0.014 A 
BRANCH  13  14
ATOM     14  C   UNL A   1      40.917  28.423  31.225  1.00  0.00     0.031 A 
ATOM     15  C   UNL A   1      39.945  29.561  31.144  1.00  0.00     0.074 A 
ATOM     16  C   UNL A   1      41.690  28.250  32.307  1.00  0.00     0.049 A 
ATOM     17  N   UNL A   1      39.747  30.536  31.989  1.00  0.00    -0.248 NA
ATOM     18  C   UNL A   1      39.058  29.587  29.967  1.00  0.00     0.031 C 
ATOM     19  C   UNL A   1      42.572  27.109  32.536  1.00  0.00     0.029 A 
ATOM     20  N   UNL A   1      41.837  29.025  33.428  1.00  0.00    -0.354 N 
ATOM     21  C   UNL A   1      38.696  31.272  31.462  1.00  0.00     0.074 A 
ATOM     22  C   UNL A   1      38.308  30.647  30.217  1.00  0.00     0.031 C 
ATOM     23  C   UNL A   1      43.167  27.262  33.730  1.00  0.00     0.029 A 
ATOM     24  C   UNL A   1      42.738  28.518  34.330  1.00  0.00     0.049 A 
ATOM     25  H   UNL A   1      41.343  29.865  33.572  1.00  0.00     0.167 HD
ATOM     26  C   UNL A   1      38.111  32.379  31.968  1.00  0.00     0.031 A 
ATOM     27  C   UNL A   1      43.180  29.016  35.501  1.00  0.00     0.031 A 
ATOM     28  C   UNL A   1      38.570  33.042  33.155  1.00  0.00     0.049 A 
ATOM     29  C   UNL A   1      42.634  30.333  35.970  1.00  0.00     0.074 A 
ATOM     30  C   UNL A   1      38.146  34.244  33.690  1.00  0.00     0.029 A 
ATOM     31  N   UNL A   1      39.569  32.556  33.986  1.00  0.00    -0.354 N 
ATOM     32  N   UNL A   1      41.717  31.084  35.406  1.00  0.00    -0.248 NA
ATOM     33  C   UNL A   1      43.179  30.876  37.219  1.00  0.00     0.031 C 
ATOM     34  C   UNL A   1      38.920  34.505  34.827  1.00  0.00     0.029 A 
ATOM     35  C   UNL A   1      39.782  33.437  35.030  1.00  0.00     0.049 A 
ATOM     36  H   UNL A   1      40.054  31.711  33.852  1.00  0.00     0.167 HD
ATOM     37  C   UNL A   1      41.558  32.181  36.241  1.00  0.00     0.074 A 
ATOM     38  C   UNL A   1      42.478  31.997  37.348  1.00  0.00     0.031 C 
ATOM     39  C   UNL A   1      40.718  33.237  36.108  1.00  0.00     0.031 A 
BRANCH  26  40
ATOM     40  C   UNL A   1      36.969  32.957  31.187  1.00  0.00    -0.014 A 
ATOM     41  C   UNL A   1      35.638  32.674  31.545  1.00  0.00     0.010 A 
ATOM     42  C   UNL A   1      37.226  33.763  30.066  1.00  0.00     0.010 A 
ATOM     43  C   UNL A   1      34.582  33.166  30.775  1.00  0.00     0.020 A 
ATOM     44  C   UNL A   1      36.172  34.273  29.303  1.00  0.00     0.020 A 
ATOM     45  C   UNL A   1      34.857  33.963  29.658  1.00  0.00     0.054 A 
BRANCH  45  46
ATOM     46  S   UNL A   1      33.464  34.575  28.671  1.00  0.00     0.124 S 
ATOM     47  O   UNL A   1      32.528  35.013  29.703  1.00  0.00    -0.237 OA
ATOM     48  O   UNL A   1      34.081  35.640  27.887  1.00  0.00    -0.237 OA
ATOM     49  O   UNL A   1      33.038  33.404  27.907  1.00  0.00    -0.744 OA
ENDBRANCH  45  46
ENDBRANCH  26  40
BRANCH  27  50
ATOM     50  C   UNL A   1      44.195  28.259  36.281  1.00  0.00    -0.014 A 
ATOM     51  C   UNL A   1      45.564  28.408  36.006  1.00  0.00     0.010 A 
ATOM     52  C   UNL A   1      43.798  27.457  37.368  1.00  0.00     0.010 A 
ATOM     53  C   UNL A   1      46.521  27.790  36.820  1.00  0.00     0.020 A 
ATOM     54  C   UNL A   1      44.751  26.847  38.189  1.00  0.00     0.020 A 
ATOM     55  C   UNL A   1      46.108  27.026  37.915  1.00  0.00     0.054 A 
BRANCH  55  56
ATOM     56  S   UNL A   1      47.368  26.333  39.025  1.00  0.00     0.124 S 
ATOM     57  O   UNL A   1      48.461  27.288  38.879  1.00  0.00    -0.237 OA
ATOM     58  O   UNL A   1      46.691  26.344  40.320  1.00  0.00    -0.237 OA
ATOM     59  O   UNL A   1      47.614  25.002  38.472  1.00  0.00    -0.744 OA
ENDBRANCH  55  56
ENDBRANCH  27  50
BRANCH  39  60
ATOM     60  C   UNL A   1      40.727  34.270  37.197  1.00  0.00    -0.014 A 
ATOM     61  C   UNL A   1      41.661  35.319  37.195  1.00  0.00     0.010 A 
ATOM     62  C   UNL A   1      39.720  34.237  38.178  1.00  0.00     0.010 A 
ATOM     63  C   UNL A   1      41.592  36.316  38.171  1.00  0.00     0.020 A 
ATOM     64  C   UNL A   1      39.637  35.243  39.141  1.00  0.00     0.020 A 
ATOM     65  C   UNL A   1      40.576  36.275  39.132  1.00  0.00     0.054 A 
BRANCH  65  66
ATOM     66  S   UNL A   1      40.488  37.610  40.355  1.00  0.00     0.124 S 
ATOM     67  O   UNL A   1      39.403  38.435  39.831  1.00  0.00    -0.237 OA
ATOM     68  O   UNL A   1      40.190  36.887  41.588  1.00  0.00    -0.237 OA
ATOM     69  O   UNL A   1      41.815  38.221  40.300  1.00  0.00    -0.744 OA
ENDBRANCH  65  66
ENDBRANCH  39  60
ENDBRANCH  13  14
ENDBRANCH   6   8
ENDBRANCH   5   6
ENDBRANCH   4   5
ENDBRANCH   3   4
ENDBRANCH   2   3
ENDBRANCH   1   2
BRANCH   1  70
ATOM     70  C   UNL A   1      43.577  23.212  24.662  1.00  0.00     0.188 C 
BRANCH  70  71
ATOM     71  O   UNL A   1      44.006  24.502  25.077  1.00  0.00    -0.376 OA
BRANCH  71  72
ATOM     72  C   UNL A   1      44.983  24.616  26.107  1.00  0.00     0.202 C 
BRANCH  72  73
ATOM     73  C   UNL A   1      46.299  25.301  25.750  1.00  0.00     0.261 C 
BRANCH  73  74
ATOM     74  O   UNL A   1      46.602  26.421  26.595  1.00  0.00    -0.460 OA
BRANCH  74  75
ATOM     75  C   UNL A   1      45.754  27.466  26.476  1.00  0.00     0.338 C 
ATOM     76  O   UNL A   1      45.301  27.948  25.452  1.00  0.00    -0.246 OA
BRANCH  75  77
ATOM     77  C   UNL A   1      45.383  27.958  27.804  1.00  0.00     0.062 A 
ATOM     78  C   UNL A   1      45.798  27.255  28.929  1.00  0.00     0.038 A 
ATOM     79  C   UNL A   1      44.795  29.218  27.921  1.00  0.00     0.022 A 
ATOM     80  C   UNL A   1      45.657  27.853  30.178  1.00  0.00     0.065 A 
ATOM     81  C   UNL A   1      44.641  29.809  29.185  1.00  0.00    -0.015 A 
ATOM     82  Cl  UNL A   1      46.275  26.994  31.546  1.00  0.00    -0.082 Cl
ATOM     83  C   UNL A   1      45.076  29.131  30.330  1.00  0.00     0.057 A 
ATOM     84  C   UNL A   1      44.098  31.204  29.275  1.00  0.00     0.049 C 
ATOM     85  N   UNL A   1      45.022  29.744  31.566  1.00  0.00    -0.376 N 
ATOM     86  C   UNL A   1      42.602  31.317  29.164  1.00  0.00    -0.023 C 
ATOM     87  C   UNL A   1      44.389  31.944  30.595  1.00  0.00     0.031 C 
ATOM     88  C   UNL A   1      44.315  30.985  31.818  1.00  0.00     0.114 C 
ATOM     89  H   UNL A   1      45.490  29.314  32.318  1.00  0.00     0.161 HD
ATOM     90  C   UNL A   1      42.153  32.351  29.885  1.00  0.00    -0.030 C 
ATOM     91  C   UNL A   1      43.290  33.034  30.580  1.00  0.00     0.034 C 
BRANCH  88  92
ATOM     92  C   UNL A   1      44.882  31.630  33.083  1.00  0.00    -0.025 A 
ATOM     93  C   UNL A   1      44.281  32.717  33.754  1.00  0.00     0.007 A 
ATOM     94  C   UNL A   1      46.066  31.121  33.614  1.00  0.00     0.007 A 
ATOM     95  C   UNL A   1      44.852  33.270  34.913  1.00  0.00     0.022 A 
ATOM     96  C   UNL A   1      46.584  31.618  34.801  1.00  0.00     0.022 A 
ATOM     97  C   UNL A   1      46.004  32.699  35.447  1.00  0.00     0.082 A 
BRANCH  97  98
ATOM     98  S   UNL A   1      46.720  33.358  36.936  1.00  0.00     0.243 S 
ATOM     99  O   UNL A   1      45.734  33.209  37.991  1.00  0.00    -0.207 OA
ATOM    100  O   UNL A   1      48.049  32.806  37.045  1.00  0.00    -0.207 OA
BRANCH  98 101
ATOM    101  N   UNL A   1      46.887  35.011  36.656  1.00  0.00    -0.193 NA
ATOM    102  C   UNL A   1      46.015  36.013  37.305  1.00  0.00     0.131 C 
ATOM    103  C   UNL A   1      47.848  35.543  35.678  1.00  0.00     0.131 C 
ATOM    104  C   UNL A   1      45.447  37.016  36.285  1.00  0.00     0.177 C 
ATOM    105  C   UNL A   1      47.154  36.500  34.706  1.00  0.00     0.177 C 
ATOM    106  O   UNL A   1      46.448  37.540  35.397  1.00  0.00    -0.379 OA
ENDBRANCH  98 101
ENDBRANCH  97  98
ENDBRANCH  88  92
ENDBRANCH  75  77
ENDBRANCH  74  75
ENDBRANCH  73  74
ENDBRANCH  72  73
ENDBRANCH  71  72
ENDBRANCH  70  71
ENDBRANCH   1  70
TORSDOF 23
ENDMDL
MODEL 3
REMARK VINA RESULT:      -6.7      4.736      8.642
REMARK SMILES O=C(OCCOCCOCCOC(=O)c1cc(Cl)c2c(c1)[C@H]1C=CC[C@H]1[C@H](c1ccc(S(=O)(=O)N3CCOCC3)cc1)N2)c1ccc(-c2c3nc(c(-c4ccc(S(=O)(=O)[O-])cc4)c4ccc([nH]4)c(-c4ccc(S(=O)(=O)[O-])cc4)c4nc(c(-c5ccc(S(=O)(=O)[O-])cc5)c5ccc2[nH]5)C=C4)C=C3)cc1
REMARK SMILES IDX 7 1 6 2 5 3 4 4 3 5 2 6 1 7 44 8 45 9 103 10 46 11 102 12
REMARK SMILES IDX 47 13 48 14 49 15 96 16 50 17 101 18 95 19 97 20 51 21
REMARK SMILES IDX 100 22 94 23 93 24 52 26 82 27 63 28 81 29 64 30 67 31 80 32
REMARK SMILES IDX 98 33 65 34 66 35 79 37 99 38 68 39 53 40 54 41 62 42 55 43
REMARK SMILES IDX 61 44 56 45 57 46 58 47 59 48 60 49 83 50 84 51 92 52 85 53
REMARK SMILES IDX 91 54 86 55 87 56 88 57 89 58 90 59 69 60 70 61 78 62 71 63
REMARK SMILES IDX 77 64 72 65 73 66 74 67 75 68 76 69 8 70 9 71 10 72 11 73
REMARK SMILES IDX 12 74 13 75 14 76 15 77 16 78 21 79 17 80 20 81 18 82 19 83
REMARK SMILES IDX 22 84 43 85 23 86 26 87 27 88 24 90 25 91 28 92 29 93 42 94
REMARK SMILES IDX 30 95 41 96 31 97 32 98 33 99 34 100 35 101 36 102 40 103
REMARK SMILES IDX 37 104 39 105 38 106
REMARK H PARENT 97 25 67 36 43 89
REMARK Flexibility Score: inf
ROOT
ATOM      1  C   UNL A   1      33.461  30.334  27.258  1.00  0.00     0.188 C 
ENDROOT
BRANCH   1   2
ATOM      2  O   UNL A   1      33.983  31.636  27.491  1.00  0.00    -0.376 OA
BRANCH   2   3
ATOM      3  C   UNL A   1      34.477  31.896  28.798  1.00  0.00     0.202 C 
BRANCH   3   4
ATOM      4  C   UNL A   1      34.306  33.362  29.198  1.00  0.00     0.261 C 
BRANCH   4   5
ATOM      5  O   UNL A   1      34.185  33.480  30.627  1.00  0.00    -0.460 OA
BRANCH   5   6
ATOM      6  C   UNL A   1      34.825  32.820  31.617  1.00  0.00     0.338 C 
ATOM      7  O   UNL A   1      34.159  32.498  32.602  1.00  0.00    -0.246 OA
BRANCH   6   8
ATOM      8  C   UNL A   1      36.302  32.531  31.656  1.00  0.00     0.060 A 
ATOM      9  C   UNL A   1      37.264  33.188  32.427  1.00  0.00     0.016 A 
ATOM     10  C   UNL A   1      36.743  31.457  30.856  1.00  0.00     0.016 A 
ATOM     11  C   UNL A   1      38.610  32.818  32.392  1.00  0.00     0.010 A 
ATOM     12  C   UNL A   1      38.092  31.094  30.793  1.00  0.00     0.010 A 
ATOM     13  C   UNL A   1      39.033  31.803  31.539  1.00  0.00    -0.014 A 
BRANCH  13  14
ATOM     14  C   UNL A   1      40.473  31.664  31.263  1.00  0.00     0.031 A 
ATOM     15  C   UNL A   1      41.145  32.777  30.516  1.00  0.00     0.074 A 
ATOM     16  C   UNL A   1      41.178  30.625  31.735  1.00  0.00     0.049 A 
ATOM     17  N   UNL A   1      42.394  32.891  30.158  1.00  0.00    -0.248 NA
ATOM     18  C   UNL A   1      40.298  33.928  30.150  1.00  0.00     0.031 C 
ATOM     19  C   UNL A   1      40.642  29.560  32.578  1.00  0.00     0.029 A 
ATOM     20  N   UNL A   1      42.504  30.311  31.590  1.00  0.00    -0.354 N 
ATOM     21  C   UNL A   1      42.491  34.136  29.553  1.00  0.00     0.074 A 
ATOM     22  C   UNL A   1      41.175  34.734  29.573  1.00  0.00     0.031 C 
ATOM     23  C   UNL A   1      41.637  28.710  32.877  1.00  0.00     0.029 A 
ATOM     24  C   UNL A   1      42.863  29.148  32.223  1.00  0.00     0.049 A 
ATOM     25  H   UNL A   1      43.137  30.867  31.081  1.00  0.00     0.167 HD
ATOM     26  C   UNL A   1      43.582  34.725  29.018  1.00  0.00     0.031 A 
ATOM     27  C   UNL A   1      44.043  28.499  32.260  1.00  0.00     0.031 A 
ATOM     28  C   UNL A   1      44.860  34.080  28.920  1.00  0.00     0.049 A 
ATOM     29  C   UNL A   1      45.208  29.091  31.521  1.00  0.00     0.074 A 
ATOM     30  C   UNL A   1      46.002  34.521  28.279  1.00  0.00     0.029 A 
ATOM     31  N   UNL A   1      45.157  32.844  29.475  1.00  0.00    -0.354 N 
ATOM     32  N   UNL A   1      45.262  30.218  30.852  1.00  0.00    -0.248 NA
ATOM     33  C   UNL A   1      46.463  28.330  31.532  1.00  0.00     0.031 C 
ATOM     34  C   UNL A   1      46.981  33.530  28.414  1.00  0.00     0.029 A 
ATOM     35  C   UNL A   1      46.465  32.500  29.189  1.00  0.00     0.049 A 
ATOM     36  H   UNL A   1      44.529  32.293  29.997  1.00  0.00     0.167 HD
ATOM     37  C   UNL A   1      46.563  30.315  30.377  1.00  0.00     0.074 A 
ATOM     38  C   UNL A   1      47.262  29.128  30.833  1.00  0.00     0.031 C 
ATOM     39  C   UNL A   1      47.129  31.303  29.640  1.00  0.00     0.031 A 
BRANCH  26  40
ATOM     40  C   UNL A   1      43.396  36.098  28.446  1.00  0.00    -0.014 A 
ATOM     41  C   UNL A   1      42.859  36.272  27.157  1.00  0.00     0.010 A 
ATOM     42  C   UNL A   1      43.793  37.224  29.187  1.00  0.00     0.010 A 
ATOM     43  C   UNL A   1      42.747  37.552  26.608  1.00  0.00     0.020 A 
ATOM     44  C   UNL A   1      43.665  38.507  28.648  1.00  0.00     0.020 A 
ATOM     45  C   UNL A   1      43.151  38.661  27.359  1.00  0.00     0.054 A 
BRANCH  45  46
ATOM     46  S   UNL A   1      43.006  40.308  26.612  1.00  0.00     0.124 S 
ATOM     47  O   UNL A   1      41.643  40.285  26.086  1.00  0.00    -0.237 OA
ATOM     48  O   UNL A   1      43.225  41.190  27.755  1.00  0.00    -0.237 OA
ATOM     49  O   UNL A   1      44.059  40.325  25.600  1.00  0.00    -0.744 OA
ENDBRANCH  45  46
ENDBRANCH  26  40
BRANCH  27  50
ATOM     50  C   UNL A   1      44.152  27.222  33.014  1.00  0.00    -0.014 A 
ATOM     51  C   UNL A   1      44.066  25.989  32.347  1.00  0.00     0.010 A 
ATOM     52  C   UNL A   1      44.438  27.237  34.393  1.00  0.00     0.010 A 
ATOM     53  C   UNL A   1      44.291  24.793  33.039  1.00  0.00     0.020 A 
ATOM     54  C   UNL A   1      44.674  26.045  35.084  1.00  0.00     0.020 A 
ATOM     55  C   UNL A   1      44.608  24.830  34.400  1.00  0.00     0.054 A 
BRANCH  55  56
ATOM     56  S   UNL A   1      45.013  23.276  35.248  1.00  0.00     0.124 S 
ATOM     57  O   UNL A   1      46.429  23.117  34.934  1.00  0.00    -0.237 OA
ATOM     58  O   UNL A   1      44.708  23.586  36.643  1.00  0.00    -0.237 OA
ATOM     59  O   UNL A   1      44.115  22.304  34.625  1.00  0.00    -0.744 OA
ENDBRANCH  55  56
ENDBRANCH  27  50
BRANCH  39  60
ATOM     60  C   UNL A   1      48.583  31.166  29.299  1.00  0.00    -0.014 A 
ATOM     61  C   UNL A   1      49.578  31.320  30.277  1.00  0.00     0.010 A 
ATOM     62  C   UNL A   1      48.945  30.778  27.995  1.00  0.00     0.010 A 
ATOM     63  C   UNL A   1      50.918  31.100  29.953  1.00  0.00     0.020 A 
ATOM     64  C   UNL A   1      50.280  30.538  27.673  1.00  0.00     0.020 A 
ATOM     65  C   UNL A   1      51.260  30.704  28.654  1.00  0.00     0.054 A 
BRANCH  65  66
ATOM     66  S   UNL A   1      53.003  30.382  28.279  1.00  0.00     0.124 S 
ATOM     67  O   UNL A   1      53.321  29.296  29.202  1.00  0.00    -0.237 OA
ATOM     68  O   UNL A   1      52.957  30.013  26.866  1.00  0.00    -0.237 OA
ATOM     69  O   UNL A   1      53.662  31.654  28.566  1.00  0.00    -0.744 OA
ENDBRANCH  65  66
ENDBRANCH  39  60
ENDBRANCH  13  14
ENDBRANCH   6   8
ENDBRANCH   5   6
ENDBRANCH   4   5
ENDBRANCH   3   4
ENDBRANCH   2   3
ENDBRANCH   1   2
BRANCH   1  70
ATOM     70  C   UNL A   1      32.899  30.072  25.856  1.00  0.00     0.188 C 
BRANCH  70  71
ATOM     71  O   UNL A   1      31.567  30.474  25.564  1.00  0.00    -0.376 OA
BRANCH  71  72
ATOM     72  C   UNL A   1      30.853  29.822  24.520  1.00  0.00     0.202 C 
BRANCH  72  73
ATOM     73  C   UNL A   1      30.479  28.358  24.735  1.00  0.00     0.261 C 
BRANCH  73  74
ATOM     74  O   UNL A   1      29.650  27.827  23.691  1.00  0.00    -0.460 OA
BRANCH  74  75
ATOM     75  C   UNL A   1      29.454  26.491  23.747  1.00  0.00     0.338 C 
ATOM     76  O   UNL A   1      28.393  25.893  23.798  1.00  0.00    -0.246 OA
BRANCH  75  77
ATOM     77  C   UNL A   1      30.742  25.797  23.690  1.00  0.00     0.062 A 
ATOM     78  C   UNL A   1      31.806  26.395  23.025  1.00  0.00     0.038 A 
ATOM     79  C   UNL A   1      30.932  24.655  24.468  1.00  0.00     0.022 A 
ATOM     80  C   UNL A   1      33.080  25.855  23.184  1.00  0.00     0.065 A 
ATOM     81  C   UNL A   1      32.216  24.106  24.613  1.00  0.00    -0.015 A 
ATOM     82  Cl  UNL A   1      34.395  26.681  22.425  1.00  0.00    -0.082 Cl
ATOM     83  C   UNL A   1      33.307  24.706  23.973  1.00  0.00     0.057 A 
ATOM     84  C   UNL A   1      32.409  22.938  25.533  1.00  0.00     0.049 C 
ATOM     85  N   UNL A   1      34.587  24.236  24.189  1.00  0.00    -0.376 N 
ATOM     86  C   UNL A   1      32.024  21.601  24.960  1.00  0.00    -0.023 C 
ATOM     87  C   UNL A   1      33.858  22.694  25.999  1.00  0.00     0.031 C 
ATOM     88  C   UNL A   1      34.881  22.986  24.864  1.00  0.00     0.114 C 
ATOM     89  H   UNL A   1      35.342  24.779  23.866  1.00  0.00     0.161 HD
ATOM     90  C   UNL A   1      32.793  20.631  25.471  1.00  0.00    -0.030 C 
ATOM     91  C   UNL A   1      33.793  21.207  26.424  1.00  0.00     0.034 C 
BRANCH  88  92
ATOM     92  C   UNL A   1      36.317  23.033  25.390  1.00  0.00    -0.025 A 
ATOM     93  C   UNL A   1      36.859  24.117  26.112  1.00  0.00     0.007 A 
ATOM     94  C   UNL A   1      37.149  21.942  25.144  1.00  0.00     0.007 A 
ATOM     95  C   UNL A   1      38.188  24.103  26.567  1.00  0.00     0.022 A 
ATOM     96  C   UNL A   1      38.436  21.899  25.660  1.00  0.00     0.022 A 
ATOM     97  C   UNL A   1      38.974  22.974  26.352  1.00  0.00     0.082 A 
BRANCH  97  98
ATOM     98  S   UNL A   1      40.646  22.920  26.956  1.00  0.00     0.243 S 
ATOM     99  O   UNL A   1      41.260  24.197  26.641  1.00  0.00    -0.207 OA
ATOM    100  O   UNL A   1      40.591  22.408  28.304  1.00  0.00    -0.207 OA
BRANCH  98 101
ATOM    101  N   UNL A   1      41.423  21.760  26.013  1.00  0.00    -0.193 NA
ATOM    102  C   UNL A   1      40.997  20.345  25.994  1.00  0.00     0.131 C 
ATOM    103  C   UNL A   1      42.627  22.072  25.228  1.00  0.00     0.131 C 
ATOM    104  C   UNL A   1      42.189  19.391  26.187  1.00  0.00     0.177 C 
ATOM    105  C   UNL A   1      43.744  21.073  25.535  1.00  0.00     0.177 C 
ATOM    106  O   UNL A   1      43.311  19.718  25.351  1.00  0.00    -0.379 OA
ENDBRANCH  98 101
ENDBRANCH  97  98
ENDBRANCH  88  92
ENDBRANCH  75  77
ENDBRANCH  74  75
ENDBRANCH  73  74
ENDBRANCH  72  73
ENDBRANCH  71  72
ENDBRANCH  70  71
ENDBRANCH   1  70
TORSDOF 23
ENDMDL
