MODEL 1
REMARK VINA RESULT:     -12.0      0.000      0.000
REMARK SMILES O=C(OCCOCCOCCOC(=O)c1ccc(-c2c3nc(c(-c4ccc(S(=O)(=O)[O-])cc4)c4ccc([nH]4)c(-c4ccc(S(=O)(=O)[O-])cc4)c4nc(c(-c5ccc(S(=O)(=O)[O-])cc5)c5ccc2[nH]5)C=C4)C=C3)cc1)C1=Cc2cc(C(F)(F)F)ccc2O[C@@H]1C(F)(F)F
REMARK SMILES IDX 8 1 7 2 6 3 5 4 4 5 3 6 2 7 1 8 75 9 76 10 88 11 77 12 87 13
REMARK SMILES IDX 78 14 86 15 79 16 85 17 84 18 89 19 90 20 91 21 92 22 80 23
REMARK SMILES IDX 81 24 82 25 83 26 9 27 10 28 11 29 12 30 13 31 14 32 15 33
REMARK SMILES IDX 16 34 74 35 17 36 73 37 18 38 19 39 20 40 67 41 21 42 72 43
REMARK SMILES IDX 66 44 68 45 22 46 71 47 65 48 64 49 23 51 53 52 34 53 52 54
REMARK SMILES IDX 35 55 38 56 51 57 69 58 36 59 37 60 50 62 70 63 39 64 24 65
REMARK SMILES IDX 25 66 33 67 26 68 32 69 27 70 28 71 29 72 30 73 31 74 54 75
REMARK SMILES IDX 55 76 63 77 56 78 62 79 57 80 58 81 59 82 60 83 61 84 40 85
REMARK SMILES IDX 41 86 49 87 42 88 48 89 43 90 44 91 45 92 46 93 47 94
REMARK H PARENT 68 50 38 61
REMARK Flexibility Score: inf
ROOT
ATOM      1  C   UNL A   1      32.645  28.584  23.428  1.00  0.00     0.188 C 
ENDROOT
BRANCH   1   2
ATOM      2  C   UNL A   1      31.139  28.686  23.140  1.00  0.00     0.188 C 
BRANCH   2   3
ATOM      3  O   UNL A   1      30.127  27.944  23.958  1.00  0.00    -0.376 OA
BRANCH   3   4
ATOM      4  C   UNL A   1      30.262  26.339  24.615  1.00  0.00     0.202 C 
BRANCH   4   5
ATOM      5  C   UNL A   1      31.731  25.780  26.122  1.00  0.00     0.261 C 
BRANCH   5   6
ATOM      6  O   UNL A   1      32.079  24.369  26.557  1.00  0.00    -0.460 OA
BRANCH   6   7
ATOM      7  C   UNL A   1      31.573  23.451  25.719  1.00  0.00     0.338 C 
ATOM      8  O   UNL A   1      30.434  23.056  25.669  1.00  0.00    -0.246 OA
BRANCH   7   9
ATOM      9  C   UNL A   1      32.830  22.787  25.404  1.00  0.00     0.087 C 
ATOM     10  C   UNL A   1      32.990  21.425  25.886  1.00  0.00     0.027 C 
ATOM     11  C   UNL A   1      32.725  23.286  23.558  1.00  0.00     0.316 C 
ATOM     12  C   UNL A   1      32.810  19.969  24.864  1.00  0.00     0.018 A 
ATOM     13  O   UNL A   1      32.325  21.728  22.442  1.00  0.00    -0.475 OA
ATOM     14  C   UNL A   1      32.984  18.742  25.433  1.00  0.00     0.025 A 
ATOM     15  C   UNL A   1      32.418  20.054  23.184  1.00  0.00     0.128 A 
ATOM     16  C   UNL A   1      32.886  17.639  24.553  1.00  0.00     0.056 A 
ATOM     17  C   UNL A   1      32.339  18.954  22.380  1.00  0.00     0.048 A 
ATOM     18  C   UNL A   1      32.589  17.753  23.108  1.00  0.00     0.017 A 
BRANCH  11  19
ATOM     19  C   UNL A   1      34.111  24.260  23.670  1.00  0.00     0.430 C 
ATOM     20  F   UNL A   1      34.509  24.764  24.844  1.00  0.00    -0.167 F 
ATOM     21  F   UNL A   1      35.168  23.602  23.138  1.00  0.00    -0.167 F 
ATOM     22  F   UNL A   1      33.972  25.387  22.901  1.00  0.00    -0.167 F 
ENDBRANCH  11  19
BRANCH  16  23
ATOM     23  C   UNL A   1      33.162  16.282  25.193  1.00  0.00     0.416 C 
ATOM     24  F   UNL A   1      34.497  16.032  25.307  1.00  0.00    -0.166 F 
ATOM     25  F   UNL A   1      32.665  16.200  26.460  1.00  0.00    -0.166 F 
ATOM     26  F   UNL A   1      32.637  15.229  24.515  1.00  0.00    -0.166 F 
ENDBRANCH  16  23
ENDBRANCH   7   9
ENDBRANCH   6   7
ENDBRANCH   5   6
ENDBRANCH   4   5
ENDBRANCH   3   4
ENDBRANCH   2   3
ENDBRANCH   1   2
BRANCH   1  27
ATOM     27  O   UNL A   1      33.085  28.742  24.755  1.00  0.00    -0.376 OA
BRANCH  27  28
ATOM     28  C   UNL A   1      32.581  29.898  25.413  1.00  0.00     0.202 C 
BRANCH  28  29
ATOM     29  C   UNL A   1      32.354  29.816  26.936  1.00  0.00     0.261 C 
BRANCH  29  30
ATOM     30  O   UNL A   1      33.540  29.522  27.714  1.00  0.00    -0.460 OA
BRANCH  30  31
ATOM     31  C   UNL A   1      34.348  30.558  28.063  1.00  0.00     0.338 C 
ATOM     32  O   UNL A   1      34.018  31.717  28.241  1.00  0.00    -0.246 OA
BRANCH  31  33
ATOM     33  C   UNL A   1      35.715  30.053  28.336  1.00  0.00     0.060 A 
ATOM     34  C   UNL A   1      36.089  29.675  29.636  1.00  0.00     0.016 A 
ATOM     35  C   UNL A   1      36.641  29.986  27.297  1.00  0.00     0.016 A 
ATOM     36  C   UNL A   1      37.368  29.150  29.878  1.00  0.00     0.010 A 
ATOM     37  C   UNL A   1      37.934  29.517  27.554  1.00  0.00     0.010 A 
ATOM     38  C   UNL A   1      38.306  29.087  28.840  1.00  0.00    -0.014 A 
BRANCH  38  39
ATOM     39  C   UNL A   1      39.729  28.742  29.103  1.00  0.00     0.031 A 
ATOM     40  C   UNL A   1      40.638  29.834  29.592  1.00  0.00     0.074 A 
ATOM     41  C   UNL A   1      40.226  27.519  28.836  1.00  0.00     0.049 A 
ATOM     42  N   UNL A   1      41.937  29.826  29.736  1.00  0.00    -0.248 NA
ATOM     43  C   UNL A   1      39.998  31.111  29.952  1.00  0.00     0.031 C 
ATOM     44  C   UNL A   1      39.442  26.369  28.391  1.00  0.00     0.029 A 
ATOM     45  N   UNL A   1      41.517  27.043  28.878  1.00  0.00    -0.354 N 
ATOM     46  C   UNL A   1      42.273  31.102  30.168  1.00  0.00     0.074 A 
ATOM     47  C   UNL A   1      41.045  31.858  30.271  1.00  0.00     0.031 C 
ATOM     48  C   UNL A   1      40.268  25.328  28.182  1.00  0.00     0.029 A 
ATOM     49  C   UNL A   1      41.647  25.748  28.422  1.00  0.00     0.049 A 
ATOM     50  H   UNL A   1      42.277  27.577  29.204  1.00  0.00     0.167 HD
ATOM     51  C   UNL A   1      43.501  31.605  30.431  1.00  0.00     0.031 A 
ATOM     52  C   UNL A   1      42.752  25.007  28.181  1.00  0.00     0.031 A 
ATOM     53  C   UNL A   1      44.722  30.854  30.307  1.00  0.00     0.049 A 
ATOM     54  C   UNL A   1      44.113  25.619  28.426  1.00  0.00     0.074 A 
ATOM     55  C   UNL A   1      46.011  31.268  30.593  1.00  0.00     0.029 A 
ATOM     56  N   UNL A   1      44.812  29.553  29.839  1.00  0.00    -0.354 N 
ATOM     57  N   UNL A   1      44.412  26.805  28.900  1.00  0.00    -0.248 NA
ATOM     58  C   UNL A   1      45.288  24.797  28.095  1.00  0.00     0.031 C 
ATOM     59  C   UNL A   1      46.888  30.250  30.213  1.00  0.00     0.029 A 
ATOM     60  C   UNL A   1      46.140  29.169  29.776  1.00  0.00     0.049 A 
ATOM     61  H   UNL A   1      44.046  28.988  29.587  1.00  0.00     0.167 HD
ATOM     62  C   UNL A   1      45.803  26.861  28.942  1.00  0.00     0.074 A 
ATOM     63  C   UNL A   1      46.288  25.580  28.476  1.00  0.00     0.031 C 
ATOM     64  C   UNL A   1      46.608  27.885  29.319  1.00  0.00     0.031 A 
BRANCH  51  65
ATOM     65  C   UNL A   1      43.607  33.054  30.822  1.00  0.00    -0.014 A 
ATOM     66  C   UNL A   1      43.739  33.447  32.165  1.00  0.00     0.010 A 
ATOM     67  C   UNL A   1      43.677  34.030  29.811  1.00  0.00     0.010 A 
ATOM     68  C   UNL A   1      43.937  34.792  32.488  1.00  0.00     0.020 A 
ATOM     69  C   UNL A   1      43.906  35.370  30.127  1.00  0.00     0.020 A 
ATOM     70  C   UNL A   1      44.033  35.743  31.465  1.00  0.00     0.054 A 
BRANCH  70  71
ATOM     71  S   UNL A   1      44.383  37.465  31.912  1.00  0.00     0.124 S 
ATOM     72  O   UNL A   1      43.424  37.700  32.988  1.00  0.00    -0.237 OA
ATOM     73  O   UNL A   1      45.784  37.405  32.321  1.00  0.00    -0.237 OA
ATOM     74  O   UNL A   1      44.127  38.205  30.679  1.00  0.00    -0.744 OA
ENDBRANCH  70  71
ENDBRANCH  51  65
BRANCH  52  75
ATOM     75  C   UNL A   1      42.643  23.633  27.600  1.00  0.00    -0.014 A 
ATOM     76  C   UNL A   1      42.190  22.547  28.371  1.00  0.00     0.010 A 
ATOM     77  C   UNL A   1      43.061  23.390  26.277  1.00  0.00     0.010 A 
ATOM     78  C   UNL A   1      42.195  21.247  27.849  1.00  0.00     0.020 A 
ATOM     79  C   UNL A   1      43.029  22.101  25.737  1.00  0.00     0.020 A 
ATOM     80  C   UNL A   1      42.614  21.033  26.534  1.00  0.00     0.054 A 
BRANCH  80  81
ATOM     81  S   UNL A   1      42.599  19.344  25.868  1.00  0.00     0.124 S 
ATOM     82  O   UNL A   1      43.404  19.485  24.659  1.00  0.00    -0.237 OA
ATOM     83  O   UNL A   1      43.207  18.574  26.949  1.00  0.00    -0.237 OA
ATOM     84  O   UNL A   1      41.178  19.076  25.646  1.00  0.00    -0.744 OA
ENDBRANCH  80  81
ENDBRANCH  52  75
BRANCH  64  85
ATOM     85  C   UNL A   1      48.099  27.663  29.279  1.00  0.00    -0.014 A 
ATOM     86  C   UNL A   1      48.783  27.099  30.369  1.00  0.00     0.010 A 
ATOM     87  C   UNL A   1      48.809  27.942  28.095  1.00  0.00     0.010 A 
ATOM     88  C   UNL A   1      50.153  26.834  30.283  1.00  0.00     0.020 A 
ATOM     89  C   UNL A   1      50.170  27.645  27.992  1.00  0.00     0.020 A 
ATOM     90  C   UNL A   1      50.836  27.099  29.091  1.00  0.00     0.054 A 
BRANCH  90  91
ATOM     91  S   UNL A   1      52.596  26.676  28.984  1.00  0.00     0.124 S 
ATOM     92  O   UNL A   1      52.632  25.812  27.808  1.00  0.00    -0.237 OA
ATOM     93  O   UNL A   1      53.227  27.984  28.821  1.00  0.00    -0.237 OA
ATOM     94  O   UNL A   1      52.873  26.010  30.254  1.00  0.00    -0.744 OA
ENDBRANCH  90  91
ENDBRANCH  64  85
ENDBRANCH  38  39
ENDBRANCH  31  33
ENDBRANCH  30  31
ENDBRANCH  29  30
ENDBRANCH  28  29
ENDBRANCH  27  28
ENDBRANCH   1  27
TORSDOF 22
ENDMDL
MODEL 2
REMARK VINA RESULT:     -11.4      4.599      8.813
REMARK SMILES O=C(OCCOCCOCCOC(=O)c1ccc(-c2c3nc(c(-c4ccc(S(=O)(=O)[O-])cc4)c4ccc([nH]4)c(-c4ccc(S(=O)(=O)[O-])cc4)c4nc(c(-c5ccc(S(=O)(=O)[O-])cc5)c5ccc2[nH]5)C=C4)C=C3)cc1)C1=Cc2cc(C(F)(F)F)ccc2O[C@@H]1C(F)(F)F
REMARK SMILES IDX 8 1 7 2 6 3 5 4 4 5 3 6 2 7 1 8 75 9 76 10 88 11 77 12 87 13
REMARK SMILES IDX 78 14 86 15 79 16 85 17 84 18 89 19 90 20 91 21 92 22 80 23
REMARK SMILES IDX 81 24 82 25 83 26 9 27 10 28 11 29 12 30 13 31 14 32 15 33
REMARK SMILES IDX 16 34 74 35 17 36 73 37 18 38 19 39 20 40 67 41 21 42 72 43
REMARK SMILES IDX 66 44 68 45 22 46 71 47 65 48 64 49 23 51 53 52 34 53 52 54
REMARK SMILES IDX 35 55 38 56 51 57 69 58 36 59 37 60 50 62 70 63 39 64 24 65
REMARK SMILES IDX 25 66 33 67 26 68 32 69 27 70 28 71 29 72 30 73 31 74 54 75
REMARK SMILES IDX 55 76 63 77 56 78 62 79 57 80 58 81 59 82 60 83 61 84 40 85
REMARK SMILES IDX 41 86 49 87 42 88 48 89 43 90 44 91 45 92 46 93 47 94
REMARK H PARENT 68 50 38 61
REMARK Flexibility Score: inf
ROOT
ATOM      1  C   UNL A   1      31.637  28.687  23.046  1.00  0.00     0.188 C 
ENDROOT
BRANCH   1   2
ATOM      2  C   UNL A   1      30.101  28.644  23.084  1.00  0.00     0.188 C 
BRANCH   2   3
ATOM      3  O   UNL A   1      29.352  27.361  23.278  1.00  0.00    -0.376 OA
BRANCH   3   4
ATOM      4  C   UNL A   1      29.552  26.197  24.556  1.00  0.00     0.202 C 
BRANCH   4   5
ATOM      5  C   UNL A   1      31.453  25.249  25.028  1.00  0.00     0.261 C 
BRANCH   5   6
ATOM      6  O   UNL A   1      31.820  24.572  26.336  1.00  0.00    -0.460 OA
BRANCH   6   7
ATOM      7  C   UNL A   1      32.219  23.305  26.145  1.00  0.00     0.338 C 
ATOM      8  O   UNL A   1      32.122  22.384  26.918  1.00  0.00    -0.246 OA
BRANCH   7   9
ATOM      9  C   UNL A   1      33.204  23.584  25.109  1.00  0.00     0.087 C 
ATOM     10  C   UNL A   1      34.485  24.111  25.548  1.00  0.00     0.027 C 
ATOM     11  C   UNL A   1      32.951  21.870  24.294  1.00  0.00     0.316 C 
ATOM     12  C   UNL A   1      35.981  23.140  25.681  1.00  0.00     0.018 A 
ATOM     13  O   UNL A   1      34.503  20.720  24.606  1.00  0.00    -0.475 OA
ATOM     14  C   UNL A   1      37.123  23.749  26.108  1.00  0.00     0.025 A 
ATOM     15  C   UNL A   1      36.033  21.457  25.297  1.00  0.00     0.128 A 
ATOM     16  C   UNL A   1      38.279  22.935  26.131  1.00  0.00     0.056 A 
ATOM     17  C   UNL A   1      37.181  20.718  25.336  1.00  0.00     0.048 A 
ATOM     18  C   UNL A   1      38.295  21.504  25.755  1.00  0.00     0.017 A 
BRANCH  11  19
ATOM     19  C   UNL A   1      32.334  22.560  22.869  1.00  0.00     0.430 C 
ATOM     20  F   UNL A   1      32.957  23.581  22.271  1.00  0.00    -0.167 F 
ATOM     21  F   UNL A   1      32.163  21.593  21.938  1.00  0.00    -0.167 F 
ATOM     22  F   UNL A   1      31.080  23.070  23.085  1.00  0.00    -0.167 F 
ENDBRANCH  11  19
BRANCH  16  23
ATOM     23  C   UNL A   1      39.563  23.655  26.533  1.00  0.00     0.416 C 
ATOM     24  F   UNL A   1      39.620  24.919  26.028  1.00  0.00    -0.166 F 
ATOM     25  F   UNL A   1      39.670  23.796  27.886  1.00  0.00    -0.166 F 
ATOM     26  F   UNL A   1      40.700  23.033  26.129  1.00  0.00    -0.166 F 
ENDBRANCH  16  23
ENDBRANCH   7   9
ENDBRANCH   6   7
ENDBRANCH   5   6
ENDBRANCH   4   5
ENDBRANCH   3   4
ENDBRANCH   2   3
ENDBRANCH   1   2
BRANCH   1  27
ATOM     27  O   UNL A   1      32.318  29.262  24.135  1.00  0.00    -0.376 OA
BRANCH  27  28
ATOM     28  C   UNL A   1      31.702  29.050  25.399  1.00  0.00     0.202 C 
BRANCH  28  29
ATOM     29  C   UNL A   1      32.236  29.852  26.603  1.00  0.00     0.261 C 
BRANCH  29  30
ATOM     30  O   UNL A   1      33.597  30.327  26.463  1.00  0.00    -0.460 OA
BRANCH  30  31
ATOM     31  C   UNL A   1      34.000  31.353  27.258  1.00  0.00     0.338 C 
ATOM     32  O   UNL A   1      33.406  32.396  27.466  1.00  0.00    -0.246 OA
BRANCH  31  33
ATOM     33  C   UNL A   1      35.244  30.973  27.969  1.00  0.00     0.060 A 
ATOM     34  C   UNL A   1      35.363  29.709  28.571  1.00  0.00     0.016 A 
ATOM     35  C   UNL A   1      36.287  31.891  28.067  1.00  0.00     0.016 A 
ATOM     36  C   UNL A   1      36.561  29.336  29.199  1.00  0.00     0.010 A 
ATOM     37  C   UNL A   1      37.458  31.538  28.745  1.00  0.00     0.010 A 
ATOM     38  C   UNL A   1      37.610  30.257  29.307  1.00  0.00    -0.014 A 
BRANCH  38  39
ATOM     39  C   UNL A   1      38.804  29.975  30.148  1.00  0.00     0.031 A 
ATOM     40  C   UNL A   1      39.838  29.028  29.608  1.00  0.00     0.074 A 
ATOM     41  C   UNL A   1      38.933  30.477  31.392  1.00  0.00     0.049 A 
ATOM     42  N   UNL A   1      40.872  28.503  30.208  1.00  0.00    -0.248 NA
ATOM     43  C   UNL A   1      39.672  28.604  28.207  1.00  0.00     0.031 C 
ATOM     44  C   UNL A   1      38.018  31.431  32.014  1.00  0.00     0.029 A 
ATOM     45  N   UNL A   1      39.874  30.236  32.367  1.00  0.00    -0.354 N 
ATOM     46  C   UNL A   1      41.460  27.660  29.274  1.00  0.00     0.074 A 
ATOM     47  C   UNL A   1      40.675  27.749  28.063  1.00  0.00     0.031 C 
ATOM     48  C   UNL A   1      38.431  31.680  33.271  1.00  0.00     0.029 A 
ATOM     49  C   UNL A   1      39.606  30.861  33.566  1.00  0.00     0.049 A 
ATOM     50  H   UNL A   1      40.667  29.670  32.221  1.00  0.00     0.167 HD
ATOM     51  C   UNL A   1      42.545  26.866  29.421  1.00  0.00     0.031 A 
ATOM     52  C   UNL A   1      40.208  30.748  34.771  1.00  0.00     0.031 A 
ATOM     53  C   UNL A   1      43.310  26.767  30.635  1.00  0.00     0.049 A 
ATOM     54  C   UNL A   1      41.379  29.805  34.920  1.00  0.00     0.074 A 
ATOM     55  C   UNL A   1      44.452  26.019  30.865  1.00  0.00     0.029 A 
ATOM     56  N   UNL A   1      43.004  27.409  31.825  1.00  0.00    -0.354 N 
ATOM     57  N   UNL A   1      41.966  29.066  34.008  1.00  0.00    -0.248 NA
ATOM     58  C   UNL A   1      41.967  29.669  36.263  1.00  0.00     0.031 C 
ATOM     59  C   UNL A   1      44.783  26.138  32.217  1.00  0.00     0.029 A 
ATOM     60  C   UNL A   1      43.903  27.030  32.806  1.00  0.00     0.049 A 
ATOM     61  H   UNL A   1      42.258  28.038  31.951  1.00  0.00     0.167 HD
ATOM     62  C   UNL A   1      42.998  28.398  34.662  1.00  0.00     0.074 A 
ATOM     63  C   UNL A   1      42.979  28.842  36.039  1.00  0.00     0.031 C 
ATOM     64  C   UNL A   1      43.876  27.489  34.172  1.00  0.00     0.031 A 
BRANCH  51  65
ATOM     65  C   UNL A   1      42.944  25.987  28.268  1.00  0.00    -0.014 A 
ATOM     66  C   UNL A   1      43.562  26.513  27.120  1.00  0.00     0.010 A 
ATOM     67  C   UNL A   1      42.787  24.593  28.386  1.00  0.00     0.010 A 
ATOM     68  C   UNL A   1      44.013  25.659  26.110  1.00  0.00     0.020 A 
ATOM     69  C   UNL A   1      43.264  23.735  27.394  1.00  0.00     0.020 A 
ATOM     70  C   UNL A   1      43.873  24.274  26.260  1.00  0.00     0.054 A 
BRANCH  70  71
ATOM     71  S   UNL A   1      44.552  23.189  24.976  1.00  0.00     0.124 S 
ATOM     72  O   UNL A   1      45.178  22.135  25.770  1.00  0.00    -0.237 OA
ATOM     73  O   UNL A   1      43.357  22.792  24.236  1.00  0.00    -0.237 OA
ATOM     74  O   UNL A   1      45.478  24.050  24.245  1.00  0.00    -0.744 OA
ENDBRANCH  70  71
ENDBRANCH  51  65
BRANCH  52  75
ATOM     75  C   UNL A   1      39.676  31.476  35.966  1.00  0.00    -0.014 A 
ATOM     76  C   UNL A   1      40.363  32.574  36.518  1.00  0.00     0.010 A 
ATOM     77  C   UNL A   1      38.505  31.026  36.604  1.00  0.00     0.010 A 
ATOM     78  C   UNL A   1      39.913  33.178  37.699  1.00  0.00     0.020 A 
ATOM     79  C   UNL A   1      38.028  31.653  37.759  1.00  0.00     0.020 A 
ATOM     80  C   UNL A   1      38.747  32.713  38.312  1.00  0.00     0.054 A 
BRANCH  80  81
ATOM     81  S   UNL A   1      38.171  33.519  39.833  1.00  0.00     0.124 S 
ATOM     82  O   UNL A   1      38.715  34.866  39.690  1.00  0.00    -0.237 OA
ATOM     83  O   UNL A   1      36.720  33.406  39.720  1.00  0.00    -0.237 OA
ATOM     84  O   UNL A   1      38.770  32.713  40.896  1.00  0.00    -0.744 OA
ENDBRANCH  80  81
ENDBRANCH  52  75
BRANCH  64  85
ATOM     85  C   UNL A   1      44.915  26.930  35.112  1.00  0.00    -0.014 A 
ATOM     86  C   UNL A   1      44.691  25.738  35.822  1.00  0.00     0.010 A 
ATOM     87  C   UNL A   1      46.169  27.562  35.215  1.00  0.00     0.010 A 
ATOM     88  C   UNL A   1      45.694  25.198  36.631  1.00  0.00     0.020 A 
ATOM     89  C   UNL A   1      47.186  27.007  35.994  1.00  0.00     0.020 A 
ATOM     90  C   UNL A   1      46.939  25.831  36.704  1.00  0.00     0.054 A 
BRANCH  90  91
ATOM     91  S   UNL A   1      48.246  25.067  37.703  1.00  0.00     0.124 S 
ATOM     92  O   UNL A   1      49.241  24.719  36.693  1.00  0.00    -0.237 OA
ATOM     93  O   UNL A   1      48.625  26.149  38.610  1.00  0.00    -0.237 OA
ATOM     94  O   UNL A   1      47.582  23.932  38.338  1.00  0.00    -0.744 OA
ENDBRANCH  90  91
ENDBRANCH  64  85
ENDBRANCH  38  39
ENDBRANCH  31  33
ENDBRANCH  30  31
ENDBRANCH  29  30
ENDBRANCH  28  29
ENDBRANCH  27  28
ENDBRANCH   1  27
TORSDOF 22
ENDMDL
MODEL 3
REMARK VINA RESULT:     -11.3      3.158      8.887
REMARK SMILES O=C(OCCOCCOCCOC(=O)c1ccc(-c2c3nc(c(-c4ccc(S(=O)(=O)[O-])cc4)c4ccc([nH]4)c(-c4ccc(S(=O)(=O)[O-])cc4)c4nc(c(-c5ccc(S(=O)(=O)[O-])cc5)c5ccc2[nH]5)C=C4)C=C3)cc1)C1=Cc2cc(C(F)(F)F)ccc2O[C@@H]1C(F)(F)F
REMARK SMILES IDX 8 1 7 2 6 3 5 4 4 5 3 6 2 7 1 8 75 9 76 10 88 11 77 12 87 13
REMARK SMILES IDX 78 14 86 15 79 16 85 17 84 18 89 19 90 20 91 21 92 22 80 23
REMARK SMILES IDX 81 24 82 25 83 26 9 27 10 28 11 29 12 30 13 31 14 32 15 33
REMARK SMILES IDX 16 34 74 35 17 36 73 37 18 38 19 39 20 40 67 41 21 42 72 43
REMARK SMILES IDX 66 44 68 45 22 46 71 47 65 48 64 49 23 51 53 52 34 53 52 54
REMARK SMILES IDX 35 55 38 56 51 57 69 58 36 59 37 60 50 62 70 63 39 64 24 65
REMARK SMILES IDX 25 66 33 67 26 68 32 69 27 70 28 71 29 72 30 73 31 74 54 75
REMARK SMILES IDX 55 76 63 77 56 78 62 79 57 80 58 81 59 82 60 83 61 84 40 85
REMARK SMILES IDX 41 86 49 87 42 88 48 89 43 90 44 91 45 92 46 93 47 94
REMARK H PARENT 68 50 38 61
REMARK Flexibility Score: inf
ROOT
ATOM      1  C   UNL A   1      35.074  32.838  29.094  1.00  0.00     0.188 C 
ENDROOT
BRANCH   1   2
ATOM      2  C   UNL A   1      34.048  32.405  28.034  1.00  0.00     0.188 C 
BRANCH   2   3
ATOM      3  O   UNL A   1      33.858  30.967  27.661  1.00  0.00    -0.376 OA
BRANCH   3   4
ATOM      4  C   UNL A   1      32.469  30.240  26.906  1.00  0.00     0.202 C 
BRANCH   4   5
ATOM      5  C   UNL A   1      31.381  28.560  27.762  1.00  0.00     0.261 C 
BRANCH   5   6
ATOM      6  O   UNL A   1      31.579  27.094  27.421  1.00  0.00    -0.460 OA
BRANCH   6   7
ATOM      7  C   UNL A   1      31.146  26.809  26.184  1.00  0.00     0.338 C 
ATOM      8  O   UNL A   1      30.218  26.100  25.879  1.00  0.00    -0.246 OA
BRANCH   7   9
ATOM      9  C   UNL A   1      32.390  27.106  25.487  1.00  0.00     0.087 C 
ATOM     10  C   UNL A   1      33.558  26.335  25.877  1.00  0.00     0.027 C 
ATOM     11  C   UNL A   1      31.545  27.016  23.771  1.00  0.00     0.316 C 
ATOM     12  C   UNL A   1      34.217  24.962  24.939  1.00  0.00     0.018 A 
ATOM     13  O   UNL A   1      32.103  25.405  22.810  1.00  0.00    -0.475 OA
ATOM     14  C   UNL A   1      35.321  24.315  25.409  1.00  0.00     0.025 A 
ATOM     15  C   UNL A   1      33.504  24.419  23.462  1.00  0.00     0.128 A 
ATOM     16  C   UNL A   1      35.821  23.279  24.586  1.00  0.00     0.056 A 
ATOM     17  C   UNL A   1      34.033  23.413  22.706  1.00  0.00     0.048 A 
ATOM     18  C   UNL A   1      35.207  22.867  23.304  1.00  0.00     0.017 A 
BRANCH  11  19
ATOM     19  C   UNL A   1      31.833  28.662  23.465  1.00  0.00     0.430 C 
ATOM     20  F   UNL A   1      33.002  29.229  23.782  1.00  0.00    -0.167 F 
ATOM     21  F   UNL A   1      31.603  28.923  22.156  1.00  0.00    -0.167 F 
ATOM     22  F   UNL A   1      30.936  29.443  24.145  1.00  0.00    -0.167 F 
ENDBRANCH  11  19
BRANCH  16  23
ATOM     23  C   UNL A   1      37.101  22.622  25.090  1.00  0.00     0.416 C 
ATOM     24  F   UNL A   1      36.887  21.876  26.210  1.00  0.00    -0.166 F 
ATOM     25  F   UNL A   1      37.633  21.762  24.174  1.00  0.00    -0.166 F 
ATOM     26  F   UNL A   1      38.092  23.497  25.402  1.00  0.00    -0.166 F 
ENDBRANCH  16  23
ENDBRANCH   7   9
ENDBRANCH   6   7
ENDBRANCH   5   6
ENDBRANCH   4   5
ENDBRANCH   3   4
ENDBRANCH   2   3
ENDBRANCH   1   2
BRANCH   1  27
ATOM     27  O   UNL A   1      35.281  32.001  30.205  1.00  0.00    -0.376 OA
BRANCH  27  28
ATOM     28  C   UNL A   1      35.101  32.632  31.467  1.00  0.00     0.202 C 
BRANCH  28  29
ATOM     29  C   UNL A   1      35.849  32.043  32.679  1.00  0.00     0.261 C 
BRANCH  29  30
ATOM     30  O   UNL A   1      37.212  31.631  32.413  1.00  0.00    -0.460 OA
BRANCH  30  31
ATOM     31  C   UNL A   1      37.447  30.312  32.181  1.00  0.00     0.338 C 
ATOM     32  O   UNL A   1      36.727  29.376  32.480  1.00  0.00    -0.246 OA
BRANCH  31  33
ATOM     33  C   UNL A   1      38.680  30.161  31.372  1.00  0.00     0.060 A 
ATOM     34  C   UNL A   1      38.650  30.363  29.982  1.00  0.00     0.016 A 
ATOM     35  C   UNL A   1      39.867  29.784  31.995  1.00  0.00     0.016 A 
ATOM     36  C   UNL A   1      39.830  30.267  29.229  1.00  0.00     0.010 A 
ATOM     37  C   UNL A   1      41.030  29.633  31.233  1.00  0.00     0.010 A 
ATOM     38  C   UNL A   1      41.025  29.882  29.848  1.00  0.00    -0.014 A 
BRANCH  38  39
ATOM     39  C   UNL A   1      42.241  29.562  29.053  1.00  0.00     0.031 A 
ATOM     40  C   UNL A   1      42.378  28.169  28.508  1.00  0.00     0.074 A 
ATOM     41  C   UNL A   1      43.238  30.453  28.888  1.00  0.00     0.049 A 
ATOM     42  N   UNL A   1      43.404  27.604  27.930  1.00  0.00    -0.248 NA
ATOM     43  C   UNL A   1      41.203  27.290  28.647  1.00  0.00     0.031 C 
ATOM     44  C   UNL A   1      43.210  31.842  29.338  1.00  0.00     0.029 A 
ATOM     45  N   UNL A   1      44.482  30.315  28.314  1.00  0.00    -0.354 N 
ATOM     46  C   UNL A   1      43.015  26.297  27.669  1.00  0.00     0.074 A 
ATOM     47  C   UNL A   1      41.657  26.151  28.143  1.00  0.00     0.031 C 
ATOM     48  C   UNL A   1      44.387  32.424  29.043  1.00  0.00     0.029 A 
ATOM     49  C   UNL A   1      45.276  31.435  28.433  1.00  0.00     0.049 A 
ATOM     50  H   UNL A   1      44.777  29.493  27.860  1.00  0.00     0.167 HD
ATOM     51  C   UNL A   1      43.736  25.300  27.107  1.00  0.00     0.031 A 
ATOM     52  C   UNL A   1      46.580  31.626  28.131  1.00  0.00     0.031 A 
ATOM     53  C   UNL A   1      45.095  25.446  26.656  1.00  0.00     0.049 A 
ATOM     54  C   UNL A   1      47.376  30.475  27.561  1.00  0.00     0.074 A 
ATOM     55  C   UNL A   1      45.892  24.502  26.034  1.00  0.00     0.029 A 
ATOM     56  N   UNL A   1      45.863  26.590  26.799  1.00  0.00    -0.354 N 
ATOM     57  N   UNL A   1      46.974  29.263  27.257  1.00  0.00    -0.248 NA
ATOM     58  C   UNL A   1      48.806  30.709  27.302  1.00  0.00     0.031 C 
ATOM     59  C   UNL A   1      47.170  25.045  25.883  1.00  0.00     0.029 A 
ATOM     60  C   UNL A   1      47.143  26.357  26.327  1.00  0.00     0.049 A 
ATOM     61  H   UNL A   1      45.545  27.440  27.181  1.00  0.00     0.167 HD
ATOM     62  C   UNL A   1      48.093  28.604  26.755  1.00  0.00     0.074 A 
ATOM     63  C   UNL A   1      49.181  29.557  26.764  1.00  0.00     0.031 C 
ATOM     64  C   UNL A   1      48.214  27.320  26.334  1.00  0.00     0.031 A 
BRANCH  51  65
ATOM     65  C   UNL A   1      43.104  23.940  26.996  1.00  0.00    -0.014 A 
ATOM     66  C   UNL A   1      42.634  23.443  25.768  1.00  0.00     0.010 A 
ATOM     67  C   UNL A   1      43.075  23.107  28.130  1.00  0.00     0.010 A 
ATOM     68  C   UNL A   1      42.145  22.137  25.679  1.00  0.00     0.020 A 
ATOM     69  C   UNL A   1      42.616  21.792  28.039  1.00  0.00     0.020 A 
ATOM     70  C   UNL A   1      42.151  21.316  26.813  1.00  0.00     0.054 A 
BRANCH  70  71
ATOM     71  S   UNL A   1      41.597  19.598  26.643  1.00  0.00     0.124 S 
ATOM     72  O   UNL A   1      40.155  19.724  26.841  1.00  0.00    -0.237 OA
ATOM     73  O   UNL A   1      42.017  19.264  25.284  1.00  0.00    -0.237 OA
ATOM     74  O   UNL A   1      42.311  18.894  27.704  1.00  0.00    -0.744 OA
ENDBRANCH  70  71
ENDBRANCH  51  65
BRANCH  52  75
ATOM     75  C   UNL A   1      47.256  32.927  28.432  1.00  0.00    -0.014 A 
ATOM     76  C   UNL A   1      47.818  33.183  29.697  1.00  0.00     0.010 A 
ATOM     77  C   UNL A   1      47.280  33.951  27.466  1.00  0.00     0.010 A 
ATOM     78  C   UNL A   1      48.351  34.442  30.001  1.00  0.00     0.020 A 
ATOM     79  C   UNL A   1      47.849  35.196  27.751  1.00  0.00     0.020 A 
ATOM     80  C   UNL A   1      48.364  35.440  29.024  1.00  0.00     0.054 A 
BRANCH  80  81
ATOM     81  S   UNL A   1      49.074  37.061  29.431  1.00  0.00     0.124 S 
ATOM     82  O   UNL A   1      49.846  37.366  28.230  1.00  0.00    -0.237 OA
ATOM     83  O   UNL A   1      47.886  37.881  29.647  1.00  0.00    -0.237 OA
ATOM     84  O   UNL A   1      49.866  36.796  30.632  1.00  0.00    -0.744 OA
ENDBRANCH  80  81
ENDBRANCH  52  75
BRANCH  64  85
ATOM     85  C   UNL A   1      49.558  26.868  25.818  1.00  0.00    -0.014 A 
ATOM     86  C   UNL A   1      50.132  27.447  24.674  1.00  0.00     0.010 A 
ATOM     87  C   UNL A   1      50.294  25.913  26.545  1.00  0.00     0.010 A 
ATOM     88  C   UNL A   1      51.410  27.066  24.255  1.00  0.00     0.020 A 
ATOM     89  C   UNL A   1      51.586  25.557  26.152  1.00  0.00     0.020 A 
ATOM     90  C   UNL A   1      52.133  26.131  25.002  1.00  0.00     0.054 A 
BRANCH  90  91
ATOM     91  S   UNL A   1      53.817  25.711  24.477  1.00  0.00     0.124 S 
ATOM     92  O   UNL A   1      53.972  24.356  24.997  1.00  0.00    -0.237 OA
ATOM     93  O   UNL A   1      53.732  25.820  23.023  1.00  0.00    -0.237 OA
ATOM     94  O   UNL A   1      54.647  26.724  25.126  1.00  0.00    -0.744 OA
ENDBRANCH  90  91
ENDBRANCH  64  85
ENDBRANCH  38  39
ENDBRANCH  31  33
ENDBRANCH  30  31
ENDBRANCH  29  30
ENDBRANCH  28  29
ENDBRANCH  27  28
ENDBRANCH   1  27
TORSDOF 22
ENDMDL
