MODEL 1
REMARK VINA RESULT:      -9.7      0.000      0.000
REMARK SMILES CS(=O)(=O)[C@@H]1CCC[C@@H](Sc2ccc(C(=O)OCCOCCOCCOC(=O)c3ccc(-c4c5nc(c(-c6ccc(S(=O)(=O)[O-])cc6)c6ccc([nH]6)c(-c6ccc(S(=O)(=O)[O-])cc6)c6nc(c(-c7ccc(S(=O)(=O)[O-])cc7)c7ccc4[nH]7)C=C6)C=C5)cc3)cn2)C1
REMARK SMILES IDX 21 1 20 2 19 3 18 4 17 5 15 6 16 7 14 8 11 9 12 10 90 11
REMARK SMILES IDX 13 12 89 13 10 14 9 15 5 16 6 17 91 18 7 19 8 20 2 21 1 22
REMARK SMILES IDX 3 23 4 24 22 25 23 26 24 27 25 28 26 29 27 30 28 31 29 32
REMARK SMILES IDX 30 33 88 34 31 35 87 36 32 37 33 38 34 39 81 40 35 41 86 42
REMARK SMILES IDX 80 43 82 44 36 45 85 46 79 47 78 48 37 50 67 51 48 52 66 53
REMARK SMILES IDX 49 54 52 55 65 56 83 57 50 58 51 59 64 61 84 62 53 63 38 64
REMARK SMILES IDX 39 65 47 66 40 67 46 68 41 69 42 70 43 71 44 72 45 73 68 74
REMARK SMILES IDX 69 75 77 76 70 77 76 78 71 79 72 80 73 81 74 82 75 83 54 84
REMARK SMILES IDX 55 85 63 86 56 87 62 88 57 89 58 90 59 91 60 92 61 93
REMARK H PARENT 82 49 52 60
REMARK Flexibility Score: inf
ROOT
ATOM      1  C   UNL A   1      33.201  35.920  30.778  1.00  0.00     0.188 C 
ENDROOT
BRANCH   1   2
ATOM      2  O   UNL A   1      32.784  34.953  29.824  1.00  0.00    -0.376 OA
BRANCH   2   3
ATOM      3  C   UNL A   1      33.743  34.600  28.837  1.00  0.00     0.202 C 
BRANCH   3   4
ATOM      4  C   UNL A   1      33.186  33.582  27.847  1.00  0.00     0.261 C 
BRANCH   4   5
ATOM      5  O   UNL A   1      33.368  32.220  28.259  1.00  0.00    -0.460 OA
BRANCH   5   6
ATOM      6  C   UNL A   1      34.337  31.475  27.675  1.00  0.00     0.339 C 
ATOM      7  O   UNL A   1      35.528  31.713  27.653  1.00  0.00    -0.246 OA
BRANCH   6   8
ATOM      8  C   UNL A   1      33.683  30.247  27.175  1.00  0.00     0.078 A 
ATOM      9  C   UNL A   1      32.438  27.837  26.538  1.00  0.00     0.096 A 
ATOM     10  C   UNL A   1      31.696  28.966  26.791  1.00  0.00     0.036 A 
ATOM     11  N   UNL A   1      33.793  27.901  26.586  1.00  0.00    -0.249 NA
ATOM     12  C   UNL A   1      32.302  30.180  27.078  1.00  0.00     0.020 A 
ATOM     13  C   UNL A   1      34.390  29.089  26.904  1.00  0.00     0.128 A 
BRANCH   9  14
ATOM     14  S   UNL A   1      31.754  26.214  26.296  1.00  0.00    -0.103 SA
BRANCH  14  15
ATOM     15  C   UNL A   1      32.359  25.426  24.713  1.00  0.00     0.054 C 
ATOM     16  C   UNL A   1      32.865  22.984  25.186  1.00  0.00     0.109 C 
ATOM     17  C   UNL A   1      31.913  22.551  24.058  1.00  0.00     0.020 C 
ATOM     18  C   UNL A   1      33.449  24.358  24.903  1.00  0.00     0.034 C 
ATOM     19  C   UNL A   1      30.890  23.592  23.587  1.00  0.00     0.002 C 
ATOM     20  C   UNL A   1      31.340  25.050  23.636  1.00  0.00     0.015 C 
BRANCH  16  21
ATOM     21  S   UNL A   1      34.120  21.725  25.511  1.00  0.00     0.150 S 
ATOM     22  C   UNL A   1      33.891  21.404  27.250  1.00  0.00     0.158 C 
ATOM     23  O   UNL A   1      35.433  22.317  25.352  1.00  0.00    -0.229 OA
ATOM     24  O   UNL A   1      33.772  20.512  24.795  1.00  0.00    -0.229 OA
ENDBRANCH  16  21
ENDBRANCH  14  15
ENDBRANCH   9  14
ENDBRANCH   6   8
ENDBRANCH   5   6
ENDBRANCH   4   5
ENDBRANCH   3   4
ENDBRANCH   2   3
ENDBRANCH   1   2
BRANCH   1  25
ATOM     25  C   UNL A   1      33.264  35.367  32.215  1.00  0.00     0.188 C 
BRANCH  25  26
ATOM     26  O   UNL A   1      33.784  34.069  32.488  1.00  0.00    -0.376 OA
BRANCH  26  27
ATOM     27  C   UNL A   1      35.103  33.742  32.074  1.00  0.00     0.202 C 
BRANCH  27  28
ATOM     28  C   UNL A   1      35.330  32.391  31.387  1.00  0.00     0.261 C 
BRANCH  28  29
ATOM     29  O   UNL A   1      36.688  32.141  30.999  1.00  0.00    -0.460 OA
BRANCH  29  30
ATOM     30  C   UNL A   1      37.374  31.296  31.810  1.00  0.00     0.338 C 
ATOM     31  O   UNL A   1      37.053  30.930  32.928  1.00  0.00    -0.246 OA
BRANCH  30  32
ATOM     32  C   UNL A   1      38.516  30.718  31.071  1.00  0.00     0.060 A 
ATOM     33  C   UNL A   1      39.583  30.190  31.812  1.00  0.00     0.016 A 
ATOM     34  C   UNL A   1      38.565  30.735  29.676  1.00  0.00     0.016 A 
ATOM     35  C   UNL A   1      40.714  29.697  31.161  1.00  0.00     0.010 A 
ATOM     36  C   UNL A   1      39.711  30.266  29.026  1.00  0.00     0.010 A 
ATOM     37  C   UNL A   1      40.801  29.772  29.766  1.00  0.00    -0.014 A 
BRANCH  37  38
ATOM     38  C   UNL A   1      42.093  29.520  29.085  1.00  0.00     0.031 A 
ATOM     39  C   UNL A   1      42.360  28.142  28.550  1.00  0.00     0.074 A 
ATOM     40  C   UNL A   1      43.023  30.483  28.967  1.00  0.00     0.049 A 
ATOM     41  N   UNL A   1      43.452  27.653  28.024  1.00  0.00    -0.248 NA
ATOM     42  C   UNL A   1      41.242  27.186  28.625  1.00  0.00     0.031 C 
ATOM     43  C   UNL A   1      42.867  31.869  29.401  1.00  0.00     0.029 A 
ATOM     44  N   UNL A   1      44.300  30.426  28.464  1.00  0.00    -0.354 N 
ATOM     45  C   UNL A   1      43.160  26.329  27.718  1.00  0.00     0.074 A 
ATOM     46  C   UNL A   1      41.796  26.087  28.134  1.00  0.00     0.031 C 
ATOM     47  C   UNL A   1      44.019  32.526  29.175  1.00  0.00     0.029 A 
ATOM     48  C   UNL A   1      45.002  31.596  28.617  1.00  0.00     0.049 A 
ATOM     49  H   UNL A   1      44.675  29.624  28.035  1.00  0.00     0.167 HD
ATOM     50  C   UNL A   1      43.957  25.395  27.147  1.00  0.00     0.031 A 
ATOM     51  C   UNL A   1      46.298  31.877  28.372  1.00  0.00     0.031 A 
ATOM     52  C   UNL A   1      45.323  25.628  26.766  1.00  0.00     0.049 A 
ATOM     53  C   UNL A   1      47.196  30.806  27.807  1.00  0.00     0.074 A 
ATOM     54  C   UNL A   1      46.216  24.746  26.183  1.00  0.00     0.029 A 
ATOM     55  N   UNL A   1      45.998  26.825  26.945  1.00  0.00    -0.354 N 
ATOM     56  N   UNL A   1      46.904  29.563  27.507  1.00  0.00    -0.248 NA
ATOM     57  C   UNL A   1      48.595  31.174  27.547  1.00  0.00     0.031 C 
ATOM     58  C   UNL A   1      47.449  25.397  26.057  1.00  0.00     0.029 A 
ATOM     59  C   UNL A   1      47.305  26.701  26.507  1.00  0.00     0.049 A 
ATOM     60  H   UNL A   1      45.606  27.644  27.327  1.00  0.00     0.167 HD
ATOM     61  C   UNL A   1      48.075  29.009  26.998  1.00  0.00     0.074 A 
ATOM     62  C   UNL A   1      49.079  30.052  27.029  1.00  0.00     0.031 C 
ATOM     63  C   UNL A   1      48.293  27.751  26.538  1.00  0.00     0.031 A 
BRANCH  50  64
ATOM     64  C   UNL A   1      43.371  24.021  26.959  1.00  0.00    -0.014 A 
ATOM     65  C   UNL A   1      42.998  23.556  25.684  1.00  0.00     0.010 A 
ATOM     66  C   UNL A   1      43.171  23.193  28.077  1.00  0.00     0.010 A 
ATOM     67  C   UNL A   1      42.376  22.314  25.541  1.00  0.00     0.020 A 
ATOM     68  C   UNL A   1      42.574  21.938  27.934  1.00  0.00     0.020 A 
ATOM     69  C   UNL A   1      42.156  21.518  26.670  1.00  0.00     0.054 A 
BRANCH  69  70
ATOM     70  S   UNL A   1      41.319  19.922  26.466  1.00  0.00     0.124 S 
ATOM     71  O   UNL A   1      42.048  19.345  25.339  1.00  0.00    -0.237 OA
ATOM     72  O   UNL A   1      41.542  19.273  27.755  1.00  0.00    -0.237 OA
ATOM     73  O   UNL A   1      39.933  20.290  26.189  1.00  0.00    -0.744 OA
ENDBRANCH  69  70
ENDBRANCH  50  64
BRANCH  51  74
ATOM     74  C   UNL A   1      46.827  33.229  28.699  1.00  0.00    -0.014 A 
ATOM     75  C   UNL A   1      47.393  33.499  29.956  1.00  0.00     0.010 A 
ATOM     76  C   UNL A   1      46.802  34.247  27.727  1.00  0.00     0.010 A 
ATOM     77  C   UNL A   1      47.930  34.760  30.234  1.00  0.00     0.020 A 
ATOM     78  C   UNL A   1      47.359  35.501  27.993  1.00  0.00     0.020 A 
ATOM     79  C   UNL A   1      47.917  35.751  29.247  1.00  0.00     0.054 A 
BRANCH  79  80
ATOM     80  S   UNL A   1      48.700  37.350  29.599  1.00  0.00     0.124 S 
ATOM     81  O   UNL A   1      49.998  36.944  30.125  1.00  0.00    -0.237 OA
ATOM     82  O   UNL A   1      48.719  37.989  28.285  1.00  0.00    -0.237 OA
ATOM     83  O   UNL A   1      47.795  37.967  30.568  1.00  0.00    -0.744 OA
ENDBRANCH  79  80
ENDBRANCH  51  74
BRANCH  63  84
ATOM     84  C   UNL A   1      49.658  27.425  25.993  1.00  0.00    -0.014 A 
ATOM     85  C   UNL A   1      50.650  26.848  26.803  1.00  0.00     0.010 A 
ATOM     86  C   UNL A   1      49.908  27.595  24.617  1.00  0.00     0.010 A 
ATOM     87  C   UNL A   1      51.870  26.447  26.248  1.00  0.00     0.020 A 
ATOM     88  C   UNL A   1      51.117  27.176  24.056  1.00  0.00     0.020 A 
ATOM     89  C   UNL A   1      52.093  26.609  24.876  1.00  0.00     0.054 A 
BRANCH  89  90
ATOM     90  S   UNL A   1      53.646  25.998  24.164  1.00  0.00     0.124 S 
ATOM     91  O   UNL A   1      54.574  27.080  24.485  1.00  0.00    -0.237 OA
ATOM     92  O   UNL A   1      53.863  24.748  24.887  1.00  0.00    -0.237 OA
ATOM     93  O   UNL A   1      53.339  25.842  22.744  1.00  0.00    -0.744 OA
ENDBRANCH  89  90
ENDBRANCH  63  84
ENDBRANCH  37  38
ENDBRANCH  30  32
ENDBRANCH  29  30
ENDBRANCH  28  29
ENDBRANCH  27  28
ENDBRANCH  26  27
ENDBRANCH  25  26
ENDBRANCH   1  25
TORSDOF 23
ENDMDL
MODEL 2
REMARK VINA RESULT:      -9.3      5.288      8.051
REMARK SMILES CS(=O)(=O)[C@@H]1CCC[C@@H](Sc2ccc(C(=O)OCCOCCOCCOC(=O)c3ccc(-c4c5nc(c(-c6ccc(S(=O)(=O)[O-])cc6)c6ccc([nH]6)c(-c6ccc(S(=O)(=O)[O-])cc6)c6nc(c(-c7ccc(S(=O)(=O)[O-])cc7)c7ccc4[nH]7)C=C6)C=C5)cc3)cn2)C1
REMARK SMILES IDX 21 1 20 2 19 3 18 4 17 5 15 6 16 7 14 8 11 9 12 10 90 11
REMARK SMILES IDX 13 12 89 13 10 14 9 15 5 16 6 17 91 18 7 19 8 20 2 21 1 22
REMARK SMILES IDX 3 23 4 24 22 25 23 26 24 27 25 28 26 29 27 30 28 31 29 32
REMARK SMILES IDX 30 33 88 34 31 35 87 36 32 37 33 38 34 39 81 40 35 41 86 42
REMARK SMILES IDX 80 43 82 44 36 45 85 46 79 47 78 48 37 50 67 51 48 52 66 53
REMARK SMILES IDX 49 54 52 55 65 56 83 57 50 58 51 59 64 61 84 62 53 63 38 64
REMARK SMILES IDX 39 65 47 66 40 67 46 68 41 69 42 70 43 71 44 72 45 73 68 74
REMARK SMILES IDX 69 75 77 76 70 77 76 78 71 79 72 80 73 81 74 82 75 83 54 84
REMARK SMILES IDX 55 85 63 86 56 87 62 88 57 89 58 90 59 91 60 92 61 93
REMARK H PARENT 82 49 52 60
REMARK Flexibility Score: inf
ROOT
ATOM      1  C   UNL A   1      34.554  24.564  25.671  1.00  0.00     0.188 C 
ENDROOT
BRANCH   1   2
ATOM      2  O   UNL A   1      34.756  23.556  24.692  1.00  0.00    -0.376 OA
BRANCH   2   3
ATOM      3  C   UNL A   1      35.577  22.465  25.084  1.00  0.00     0.202 C 
BRANCH   3   4
ATOM      4  C   UNL A   1      34.843  21.133  24.967  1.00  0.00     0.261 C 
BRANCH   4   5
ATOM      5  O   UNL A   1      33.692  21.034  25.817  1.00  0.00    -0.460 OA
BRANCH   5   6
ATOM      6  C   UNL A   1      32.496  20.697  25.276  1.00  0.00     0.339 C 
ATOM      7  O   UNL A   1      32.088  19.575  25.050  1.00  0.00    -0.246 OA
BRANCH   6   8
ATOM      8  C   UNL A   1      31.728  21.951  25.131  1.00  0.00     0.078 A 
ATOM      9  C   UNL A   1      30.558  24.468  24.882  1.00  0.00     0.096 A 
ATOM     10  C   UNL A   1      30.960  23.766  23.770  1.00  0.00     0.036 A 
ATOM     11  N   UNL A   1      30.721  23.922  26.114  1.00  0.00    -0.249 NA
ATOM     12  C   UNL A   1      31.514  22.499  23.876  1.00  0.00     0.020 A 
ATOM     13  C   UNL A   1      31.300  22.688  26.221  1.00  0.00     0.128 A 
BRANCH   9  14
ATOM     14  S   UNL A   1      29.965  26.143  24.857  1.00  0.00    -0.103 SA
BRANCH  14  15
ATOM     15  C   UNL A   1      30.072  26.900  23.152  1.00  0.00     0.054 C 
ATOM     16  C   UNL A   1      29.504  29.367  23.342  1.00  0.00     0.109 C 
ATOM     17  C   UNL A   1      30.842  29.743  22.683  1.00  0.00     0.020 C 
ATOM     18  C   UNL A   1      29.034  28.000  22.871  1.00  0.00     0.034 C 
ATOM     19  C   UNL A   1      31.931  28.663  22.679  1.00  0.00     0.002 C 
ATOM     20  C   UNL A   1      31.449  27.219  22.567  1.00  0.00     0.015 C 
BRANCH  16  21
ATOM     21  S   UNL A   1      28.269  30.666  23.116  1.00  0.00     0.150 S 
ATOM     22  C   UNL A   1      28.081  30.704  21.343  1.00  0.00     0.158 C 
ATOM     23  O   UNL A   1      28.842  31.937  23.515  1.00  0.00    -0.229 OA
ATOM     24  O   UNL A   1      27.007  30.223  23.678  1.00  0.00    -0.229 OA
ENDBRANCH  16  21
ENDBRANCH  14  15
ENDBRANCH   9  14
ENDBRANCH   6   8
ENDBRANCH   5   6
ENDBRANCH   4   5
ENDBRANCH   3   4
ENDBRANCH   2   3
ENDBRANCH   1   2
BRANCH   1  25
ATOM     25  C   UNL A   1      33.804  25.797  25.128  1.00  0.00     0.188 C 
BRANCH  25  26
ATOM     26  O   UNL A   1      34.050  27.102  25.645  1.00  0.00    -0.376 OA
BRANCH  26  27
ATOM     27  C   UNL A   1      32.968  27.869  26.154  1.00  0.00     0.202 C 
BRANCH  27  28
ATOM     28  C   UNL A   1      33.282  28.977  27.165  1.00  0.00     0.261 C 
BRANCH  28  29
ATOM     29  O   UNL A   1      34.606  29.518  27.065  1.00  0.00    -0.460 OA
BRANCH  29  30
ATOM     30  C   UNL A   1      34.799  30.695  27.711  1.00  0.00     0.338 C 
ATOM     31  O   UNL A   1      34.056  31.662  27.713  1.00  0.00    -0.246 OA
BRANCH  30  32
ATOM     32  C   UNL A   1      35.985  30.591  28.586  1.00  0.00     0.060 A 
ATOM     33  C   UNL A   1      37.044  31.485  28.373  1.00  0.00     0.016 A 
ATOM     34  C   UNL A   1      36.082  29.604  29.569  1.00  0.00     0.016 A 
ATOM     35  C   UNL A   1      38.214  31.382  29.126  1.00  0.00     0.010 A 
ATOM     36  C   UNL A   1      37.265  29.484  30.304  1.00  0.00     0.010 A 
ATOM     37  C   UNL A   1      38.346  30.353  30.066  1.00  0.00    -0.014 A 
BRANCH  37  38
ATOM     38  C   UNL A   1      39.669  30.056  30.666  1.00  0.00     0.031 A 
ATOM     39  C   UNL A   1      40.471  28.921  30.096  1.00  0.00     0.074 A 
ATOM     40  C   UNL A   1      40.139  30.759  31.710  1.00  0.00     0.049 A 
ATOM     41  N   UNL A   1      41.593  28.402  30.522  1.00  0.00    -0.248 NA
ATOM     42  C   UNL A   1      39.929  28.282  28.885  1.00  0.00     0.031 C 
ATOM     43  C   UNL A   1      39.480  31.911  32.321  1.00  0.00     0.029 A 
ATOM     44  N   UNL A   1      41.278  30.583  32.457  1.00  0.00    -0.354 N 
ATOM     45  C   UNL A   1      41.884  27.367  29.642  1.00  0.00     0.074 A 
ATOM     46  C   UNL A   1      40.813  27.320  28.671  1.00  0.00     0.031 C 
ATOM     47  C   UNL A   1      40.211  32.320  33.374  1.00  0.00     0.029 A 
ATOM     48  C   UNL A   1      41.367  31.436  33.530  1.00  0.00     0.049 A 
ATOM     49  H   UNL A   1      41.965  29.912  32.243  1.00  0.00     0.167 HD
ATOM     50  C   UNL A   1      42.946  26.526  29.643  1.00  0.00     0.031 A 
ATOM     51  C   UNL A   1      42.255  31.475  34.544  1.00  0.00     0.031 A 
ATOM     52  C   UNL A   1      43.991  26.552  30.629  1.00  0.00     0.049 A 
ATOM     53  C   UNL A   1      43.389  30.485  34.577  1.00  0.00     0.074 A 
ATOM     54  C   UNL A   1      45.108  25.741  30.722  1.00  0.00     0.029 A 
ATOM     55  N   UNL A   1      44.039  27.426  31.704  1.00  0.00    -0.354 N 
ATOM     56  N   UNL A   1      43.664  29.521  33.729  1.00  0.00    -0.248 NA
ATOM     57  C   UNL A   1      44.335  30.586  35.698  1.00  0.00     0.031 C 
ATOM     58  C   UNL A   1      45.805  26.092  31.883  1.00  0.00     0.029 A 
ATOM     59  C   UNL A   1      45.154  27.161  32.480  1.00  0.00     0.049 A 
ATOM     60  H   UNL A   1      43.378  28.133  31.888  1.00  0.00     0.167 HD
ATOM     61  C   UNL A   1      44.827  28.919  34.201  1.00  0.00     0.074 A 
ATOM     62  C   UNL A   1      45.205  29.627  35.406  1.00  0.00     0.031 C 
ATOM     63  C   UNL A   1      45.522  27.879  33.676  1.00  0.00     0.031 A 
BRANCH  50  64
ATOM     64  C   UNL A   1      42.984  25.474  28.568  1.00  0.00    -0.014 A 
ATOM     65  C   UNL A   1      42.399  24.209  28.764  1.00  0.00     0.010 A 
ATOM     66  C   UNL A   1      43.634  25.747  27.352  1.00  0.00     0.010 A 
ATOM     67  C   UNL A   1      42.521  23.216  27.789  1.00  0.00     0.020 A 
ATOM     68  C   UNL A   1      43.733  24.766  26.362  1.00  0.00     0.020 A 
ATOM     69  C   UNL A   1      43.199  23.498  26.599  1.00  0.00     0.054 A 
BRANCH  69  70
ATOM     70  S   UNL A   1      43.371  22.186  25.359  1.00  0.00     0.124 S 
ATOM     71  O   UNL A   1      42.075  21.517  25.449  1.00  0.00    -0.237 OA
ATOM     72  O   UNL A   1      43.606  22.934  24.127  1.00  0.00    -0.237 OA
ATOM     73  O   UNL A   1      44.509  21.404  25.836  1.00  0.00    -0.744 OA
ENDBRANCH  69  70
ENDBRANCH  50  64
BRANCH  51  74
ATOM     74  C   UNL A   1      42.076  32.474  35.633  1.00  0.00    -0.014 A 
ATOM     75  C   UNL A   1      42.645  33.755  35.538  1.00  0.00     0.010 A 
ATOM     76  C   UNL A   1      41.290  32.156  36.757  1.00  0.00     0.010 A 
ATOM     77  C   UNL A   1      42.430  34.701  36.546  1.00  0.00     0.020 A 
ATOM     78  C   UNL A   1      41.053  33.106  37.754  1.00  0.00     0.020 A 
ATOM     79  C   UNL A   1      41.628  34.373  37.644  1.00  0.00     0.054 A 
BRANCH  79  80
ATOM     80  S   UNL A   1      41.288  35.645  38.893  1.00  0.00     0.124 S 
ATOM     81  O   UNL A   1      42.362  36.603  38.653  1.00  0.00    -0.237 OA
ATOM     82  O   UNL A   1      39.945  36.094  38.531  1.00  0.00    -0.237 OA
ATOM     83  O   UNL A   1      41.371  34.913  40.156  1.00  0.00    -0.744 OA
ENDBRANCH  79  80
ENDBRANCH  51  74
BRANCH  63  84
ATOM     84  C   UNL A   1      46.788  27.452  34.369  1.00  0.00    -0.014 A 
ATOM     85  C   UNL A   1      46.783  26.436  35.339  1.00  0.00     0.010 A 
ATOM     86  C   UNL A   1      48.017  28.001  33.956  1.00  0.00     0.010 A 
ATOM     87  C   UNL A   1      47.985  25.976  35.887  1.00  0.00     0.020 A 
ATOM     88  C   UNL A   1      49.222  27.529  34.485  1.00  0.00     0.020 A 
ATOM     89  C   UNL A   1      49.197  26.522  35.451  1.00  0.00     0.054 A 
BRANCH  89  90
ATOM     90  S   UNL A   1      50.748  25.846  36.109  1.00  0.00     0.124 S 
ATOM     91  O   UNL A   1      51.064  24.806  35.133  1.00  0.00    -0.237 OA
ATOM     92  O   UNL A   1      51.635  27.006  36.100  1.00  0.00    -0.237 OA
ATOM     93  O   UNL A   1      50.380  25.362  37.438  1.00  0.00    -0.744 OA
ENDBRANCH  89  90
ENDBRANCH  63  84
ENDBRANCH  37  38
ENDBRANCH  30  32
ENDBRANCH  29  30
ENDBRANCH  28  29
ENDBRANCH  27  28
ENDBRANCH  26  27
ENDBRANCH  25  26
ENDBRANCH   1  25
TORSDOF 23
ENDMDL
MODEL 3
REMARK VINA RESULT:      -9.2      1.549      8.196
REMARK SMILES CS(=O)(=O)[C@@H]1CCC[C@@H](Sc2ccc(C(=O)OCCOCCOCCOC(=O)c3ccc(-c4c5nc(c(-c6ccc(S(=O)(=O)[O-])cc6)c6ccc([nH]6)c(-c6ccc(S(=O)(=O)[O-])cc6)c6nc(c(-c7ccc(S(=O)(=O)[O-])cc7)c7ccc4[nH]7)C=C6)C=C5)cc3)cn2)C1
REMARK SMILES IDX 21 1 20 2 19 3 18 4 17 5 15 6 16 7 14 8 11 9 12 10 90 11
REMARK SMILES IDX 13 12 89 13 10 14 9 15 5 16 6 17 91 18 7 19 8 20 2 21 1 22
REMARK SMILES IDX 3 23 4 24 22 25 23 26 24 27 25 28 26 29 27 30 28 31 29 32
REMARK SMILES IDX 30 33 88 34 31 35 87 36 32 37 33 38 34 39 81 40 35 41 86 42
REMARK SMILES IDX 80 43 82 44 36 45 85 46 79 47 78 48 37 50 67 51 48 52 66 53
REMARK SMILES IDX 49 54 52 55 65 56 83 57 50 58 51 59 64 61 84 62 53 63 38 64
REMARK SMILES IDX 39 65 47 66 40 67 46 68 41 69 42 70 43 71 44 72 45 73 68 74
REMARK SMILES IDX 69 75 77 76 70 77 76 78 71 79 72 80 73 81 74 82 75 83 54 84
REMARK SMILES IDX 55 85 63 86 56 87 62 88 57 89 58 90 59 91 60 92 61 93
REMARK H PARENT 82 49 52 60
REMARK Flexibility Score: inf
ROOT
ATOM      1  C   UNL A   1      34.694  34.793  29.197  1.00  0.00     0.188 C 
ENDROOT
BRANCH   1   2
ATOM      2  O   UNL A   1      34.279  34.162  27.994  1.00  0.00    -0.376 OA
BRANCH   2   3
ATOM      3  C   UNL A   1      34.810  32.865  27.757  1.00  0.00     0.202 C 
BRANCH   3   4
ATOM      4  C   UNL A   1      33.799  31.772  28.085  1.00  0.00     0.261 C 
BRANCH   4   5
ATOM      5  O   UNL A   1      33.479  30.930  26.969  1.00  0.00    -0.460 OA
BRANCH   5   6
ATOM      6  C   UNL A   1      34.020  29.690  26.897  1.00  0.00     0.339 C 
ATOM      7  O   UNL A   1      34.934  29.254  27.567  1.00  0.00    -0.246 OA
BRANCH   6   8
ATOM      8  C   UNL A   1      33.200  28.925  25.935  1.00  0.00     0.078 A 
ATOM      9  C   UNL A   1      31.762  27.219  24.266  1.00  0.00     0.096 A 
ATOM     10  C   UNL A   1      31.199  27.713  25.420  1.00  0.00     0.036 A 
ATOM     11  N   UNL A   1      33.026  27.578  23.930  1.00  0.00    -0.249 NA
ATOM     12  C   UNL A   1      31.891  28.588  26.244  1.00  0.00     0.020 A 
ATOM     13  C   UNL A   1      33.721  28.413  24.760  1.00  0.00     0.128 A 
BRANCH   9  14
ATOM     14  S   UNL A   1      31.008  25.994  23.222  1.00  0.00    -0.103 SA
BRANCH  14  15
ATOM     15  C   UNL A   1      31.120  24.279  23.958  1.00  0.00     0.054 C 
ATOM     16  C   UNL A   1      33.542  23.839  24.577  1.00  0.00     0.109 C 
ATOM     17  C   UNL A   1      33.133  23.530  26.027  1.00  0.00     0.020 C 
ATOM     18  C   UNL A   1      32.410  23.516  23.615  1.00  0.00     0.034 C 
ATOM     19  C   UNL A   1      31.755  24.036  26.473  1.00  0.00     0.002 C 
ATOM     20  C   UNL A   1      30.667  24.062  25.403  1.00  0.00     0.015 C 
BRANCH  16  21
ATOM     21  S   UNL A   1      35.100  23.033  24.144  1.00  0.00     0.150 S 
ATOM     22  C   UNL A   1      36.284  23.961  25.103  1.00  0.00     0.158 C 
ATOM     23  O   UNL A   1      35.389  23.284  22.746  1.00  0.00    -0.229 OA
ATOM     24  O   UNL A   1      35.092  21.677  24.658  1.00  0.00    -0.229 OA
ENDBRANCH  16  21
ENDBRANCH  14  15
ENDBRANCH   9  14
ENDBRANCH   6   8
ENDBRANCH   5   6
ENDBRANCH   4   5
ENDBRANCH   3   4
ENDBRANCH   2   3
ENDBRANCH   1   2
BRANCH   1  25
ATOM     25  C   UNL A   1      33.516  35.234  30.089  1.00  0.00     0.188 C 
BRANCH  25  26
ATOM     26  O   UNL A   1      33.526  35.009  31.495  1.00  0.00    -0.376 OA
BRANCH  26  27
ATOM     27  C   UNL A   1      34.751  35.098  32.210  1.00  0.00     0.202 C 
BRANCH  27  28
ATOM     28  C   UNL A   1      35.132  33.939  33.138  1.00  0.00     0.261 C 
BRANCH  28  29
ATOM     29  O   UNL A   1      36.142  33.065  32.615  1.00  0.00    -0.460 OA
BRANCH  29  30
ATOM     30  C   UNL A   1      35.696  32.121  31.749  1.00  0.00     0.338 C 
ATOM     31  O   UNL A   1      34.551  31.963  31.360  1.00  0.00    -0.246 OA
BRANCH  30  32
ATOM     32  C   UNL A   1      36.847  31.390  31.178  1.00  0.00     0.060 A 
ATOM     33  C   UNL A   1      37.671  30.669  32.052  1.00  0.00     0.016 A 
ATOM     34  C   UNL A   1      37.144  31.449  29.814  1.00  0.00     0.016 A 
ATOM     35  C   UNL A   1      38.809  30.021  31.572  1.00  0.00     0.010 A 
ATOM     36  C   UNL A   1      38.300  30.822  29.339  1.00  0.00     0.010 A 
ATOM     37  C   UNL A   1      39.152  30.130  30.220  1.00  0.00    -0.014 A 
BRANCH  37  38
ATOM     38  C   UNL A   1      40.489  29.694  29.752  1.00  0.00     0.031 A 
ATOM     39  C   UNL A   1      41.578  30.723  29.645  1.00  0.00     0.074 A 
ATOM     40  C   UNL A   1      40.727  28.418  29.402  1.00  0.00     0.049 A 
ATOM     41  N   UNL A   1      42.785  30.607  29.156  1.00  0.00    -0.248 NA
ATOM     42  C   UNL A   1      41.258  32.067  30.155  1.00  0.00     0.031 C 
ATOM     43  C   UNL A   1      39.771  27.318  29.506  1.00  0.00     0.029 A 
ATOM     44  N   UNL A   1      41.852  27.842  28.863  1.00  0.00    -0.354 N 
ATOM     45  C   UNL A   1      43.364  31.863  29.284  1.00  0.00     0.074 A 
ATOM     46  C   UNL A   1      42.370  32.730  29.880  1.00  0.00     0.031 C 
ATOM     47  C   UNL A   1      40.339  26.203  29.012  1.00  0.00     0.029 A 
ATOM     48  C   UNL A   1      41.682  26.521  28.526  1.00  0.00     0.049 A 
ATOM     49  H   UNL A   1      42.697  28.328  28.731  1.00  0.00     0.167 HD
ATOM     50  C   UNL A   1      44.609  32.263  28.934  1.00  0.00     0.031 A 
ATOM     51  C   UNL A   1      42.499  25.675  27.866  1.00  0.00     0.031 A 
ATOM     52  C   UNL A   1      45.583  31.409  28.311  1.00  0.00     0.049 A 
ATOM     53  C   UNL A   1      43.854  26.154  27.413  1.00  0.00     0.074 A 
ATOM     54  C   UNL A   1      46.871  31.719  27.913  1.00  0.00     0.029 A 
ATOM     55  N   UNL A   1      45.368  30.080  27.980  1.00  0.00    -0.354 N 
ATOM     56  N   UNL A   1      44.397  27.340  27.556  1.00  0.00    -0.248 NA
ATOM     57  C   UNL A   1      44.708  25.183  26.713  1.00  0.00     0.031 C 
ATOM     58  C   UNL A   1      47.418  30.589  27.295  1.00  0.00     0.029 A 
ATOM     59  C   UNL A   1      46.492  29.560  27.361  1.00  0.00     0.049 A 
ATOM     60  H   UNL A   1      44.539  29.579  28.159  1.00  0.00     0.167 HD
ATOM     61  C   UNL A   1      45.664  27.250  26.987  1.00  0.00     0.074 A 
ATOM     62  C   UNL A   1      45.808  25.894  26.500  1.00  0.00     0.031 C 
ATOM     63  C   UNL A   1      46.623  28.204  26.886  1.00  0.00     0.031 A 
BRANCH  50  64
ATOM     64  C   UNL A   1      44.954  33.709  29.172  1.00  0.00    -0.014 A 
ATOM     65  C   UNL A   1      44.699  34.690  28.196  1.00  0.00     0.010 A 
ATOM     66  C   UNL A   1      45.562  34.087  30.382  1.00  0.00     0.010 A 
ATOM     67  C   UNL A   1      45.105  36.010  28.400  1.00  0.00     0.020 A 
ATOM     68  C   UNL A   1      45.944  35.413  30.602  1.00  0.00     0.020 A 
ATOM     69  C   UNL A   1      45.737  36.360  29.597  1.00  0.00     0.054 A 
BRANCH  69  70
ATOM     70  S   UNL A   1      46.283  38.074  29.829  1.00  0.00     0.124 S 
ATOM     71  O   UNL A   1      45.386  38.798  28.931  1.00  0.00    -0.237 OA
ATOM     72  O   UNL A   1      46.057  38.296  31.255  1.00  0.00    -0.237 OA
ATOM     73  O   UNL A   1      47.686  38.050  29.421  1.00  0.00    -0.744 OA
ENDBRANCH  69  70
ENDBRANCH  50  64
BRANCH  51  74
ATOM     74  C   UNL A   1      42.033  24.294  27.567  1.00  0.00    -0.014 A 
ATOM     75  C   UNL A   1      41.238  24.029  26.439  1.00  0.00     0.010 A 
ATOM     76  C   UNL A   1      42.423  23.225  28.396  1.00  0.00     0.010 A 
ATOM     77  C   UNL A   1      40.847  22.719  26.142  1.00  0.00     0.020 A 
ATOM     78  C   UNL A   1      42.053  21.913  28.088  1.00  0.00     0.020 A 
ATOM     79  C   UNL A   1      41.264  21.668  26.964  1.00  0.00     0.054 A 
BRANCH  79  80
ATOM     80  S   UNL A   1      40.819  19.968  26.509  1.00  0.00     0.124 S 
ATOM     81  O   UNL A   1      41.894  19.608  25.592  1.00  0.00    -0.237 OA
ATOM     82  O   UNL A   1      40.830  19.282  27.799  1.00  0.00    -0.237 OA
ATOM     83  O   UNL A   1      39.498  20.112  25.902  1.00  0.00    -0.744 OA
ENDBRANCH  79  80
ENDBRANCH  51  74
BRANCH  63  84
ATOM     84  C   UNL A   1      47.937  27.822  26.259  1.00  0.00    -0.014 A 
ATOM     85  C   UNL A   1      48.106  27.812  24.864  1.00  0.00     0.010 A 
ATOM     86  C   UNL A   1      49.052  27.583  27.086  1.00  0.00     0.010 A 
ATOM     87  C   UNL A   1      49.365  27.567  24.306  1.00  0.00     0.020 A 
ATOM     88  C   UNL A   1      50.315  27.359  26.533  1.00  0.00     0.020 A 
ATOM     89  C   UNL A   1      50.462  27.348  25.145  1.00  0.00     0.054 A 
BRANCH  89  90
ATOM     90  S   UNL A   1      52.102  27.123  24.400  1.00  0.00     0.124 S 
ATOM     91  O   UNL A   1      52.365  25.711  24.663  1.00  0.00    -0.237 OA
ATOM     92  O   UNL A   1      51.870  27.470  23.000  1.00  0.00    -0.237 OA
ATOM     93  O   UNL A   1      52.949  28.061  25.135  1.00  0.00    -0.744 OA
ENDBRANCH  89  90
ENDBRANCH  63  84
ENDBRANCH  37  38
ENDBRANCH  30  32
ENDBRANCH  29  30
ENDBRANCH  28  29
ENDBRANCH  27  28
ENDBRANCH  26  27
ENDBRANCH  25  26
ENDBRANCH   1  25
TORSDOF 23
ENDMDL
