MODEL 1
REMARK VINA RESULT:      -9.9      0.000      0.000
REMARK SMILES C[C@H](NC(=O)N1CC[C@@H](C(=O)OCCOCCOCCOC(=O)c2ccc(-c3c4nc(c(-c5ccc(S(=O)(=O)[O-])cc5)c5ccc([nH]5)c(-c5ccc(S(=O)(=O)[O-])cc5)c5nc(c(-c6ccc(S(=O)(=O)[O-])cc6)c6ccc3[nH]6)C=C5)C=C4)cc2)[C@H]1C)c1ccc(Cl)cc1
REMARK SMILES IDX 16 1 15 2 14 3 13 4 12 5 10 6 11 7 9 8 6 9 7 10 84 11 8 12
REMARK SMILES IDX 85 13 4 14 3 15 5 17 2 18 1 19 86 20 87 21 92 22 88 23 91 24
REMARK SMILES IDX 89 25 90 26 17 27 18 28 19 29 20 30 21 31 22 32 23 33 24 34
REMARK SMILES IDX 25 35 83 36 26 37 82 38 27 39 28 40 29 41 76 42 30 43 81 44
REMARK SMILES IDX 75 45 77 46 31 47 80 48 74 49 73 50 32 52 62 53 43 54 61 55
REMARK SMILES IDX 44 56 47 57 60 58 78 59 45 60 46 61 59 63 79 64 48 65 33 66
REMARK SMILES IDX 34 67 42 68 35 69 41 70 36 71 37 72 38 73 39 74 40 75 63 76
REMARK SMILES IDX 64 77 72 78 65 79 71 80 66 81 67 82 68 83 69 84 70 85 49 86
REMARK SMILES IDX 50 87 58 88 51 89 57 90 52 91 53 92 54 93 55 94 56 95
REMARK H PARENT 3 16 77 51 47 62
REMARK Flexibility Score: inf
ROOT
ATOM      1  C   UNL A   1      33.555  33.057  27.722  1.00  0.00     0.188 C 
ENDROOT
BRANCH   1   2
ATOM      2  O   UNL A   1      33.187  31.745  27.318  1.00  0.00    -0.376 OA
BRANCH   2   3
ATOM      3  C   UNL A   1      31.953  31.619  26.616  1.00  0.00     0.202 C 
BRANCH   3   4
ATOM      4  C   UNL A   1      31.716  30.247  25.983  1.00  0.00     0.261 C 
BRANCH   4   5
ATOM      5  O   UNL A   1      32.319  29.251  26.826  1.00  0.00    -0.463 OA
BRANCH   5   6
ATOM      6  C   UNL A   1      31.759  28.023  26.878  1.00  0.00     0.311 C 
ATOM      7  O   UNL A   1      31.368  27.491  27.910  1.00  0.00    -0.252 OA
BRANCH   6   8
ATOM      8  C   UNL A   1      31.573  27.408  25.496  1.00  0.00     0.123 C 
ATOM      9  N   UNL A   1      31.999  25.714  23.859  1.00  0.00    -0.321 N 
ATOM     10  C   UNL A   1      30.589  25.671  24.224  1.00  0.00     0.122 C 
ATOM     11  C   UNL A   1      32.735  26.652  24.779  1.00  0.00     0.098 C 
ATOM     12  C   UNL A   1      30.498  26.325  25.581  1.00  0.00     0.039 C 
ATOM     13  C   UNL A   1      33.651  25.983  25.820  1.00  0.00     0.032 C 
BRANCH   9  14
ATOM     14  C   UNL A   1      32.289  25.282  22.575  1.00  0.00     0.318 C 
ATOM     15  N   UNL A   1      32.899  24.088  22.349  1.00  0.00    -0.331 N 
ATOM     16  H   UNL A   1      33.331  23.959  21.474  1.00  0.00     0.165 HD
ATOM     17  O   UNL A   1      31.908  25.900  21.577  1.00  0.00    -0.249 OA
BRANCH  15  18
ATOM     18  C   UNL A   1      32.962  23.002  23.281  1.00  0.00     0.111 C 
ATOM     19  C   UNL A   1      32.196  21.780  22.737  1.00  0.00     0.036 C 
BRANCH  18  20
ATOM     20  C   UNL A   1      34.300  22.503  23.789  1.00  0.00    -0.026 A 
ATOM     21  C   UNL A   1      34.481  21.517  24.759  1.00  0.00     0.007 A 
ATOM     22  C   UNL A   1      35.429  23.227  23.337  1.00  0.00     0.007 A 
ATOM     23  C   UNL A   1      35.761  21.287  25.284  1.00  0.00     0.021 A 
ATOM     24  C   UNL A   1      36.694  23.011  23.869  1.00  0.00     0.021 A 
ATOM     25  C   UNL A   1      36.853  22.044  24.851  1.00  0.00     0.041 A 
ATOM     26  Cl  UNL A   1      38.406  21.811  25.556  1.00  0.00    -0.084 Cl
ENDBRANCH  18  20
ENDBRANCH  15  18
ENDBRANCH   9  14
ENDBRANCH   6   8
ENDBRANCH   5   6
ENDBRANCH   4   5
ENDBRANCH   3   4
ENDBRANCH   2   3
ENDBRANCH   1   2
BRANCH   1  27
ATOM     27  C   UNL A   1      35.025  33.243  28.078  1.00  0.00     0.188 C 
BRANCH  27  28
ATOM     28  O   UNL A   1      35.413  33.895  29.277  1.00  0.00    -0.376 OA
BRANCH  28  29
ATOM     29  C   UNL A   1      36.260  33.163  30.172  1.00  0.00     0.202 C 
BRANCH  29  30
ATOM     30  C   UNL A   1      36.031  31.672  30.560  1.00  0.00     0.261 C 
BRANCH  30  31
ATOM     31  O   UNL A   1      36.688  30.668  29.778  1.00  0.00    -0.460 OA
BRANCH  31  32
ATOM     32  C   UNL A   1      37.221  29.641  30.489  1.00  0.00     0.338 C 
ATOM     33  O   UNL A   1      36.642  28.978  31.335  1.00  0.00    -0.246 OA
BRANCH  32  34
ATOM     34  C   UNL A   1      38.531  29.263  29.889  1.00  0.00     0.060 A 
ATOM     35  C   UNL A   1      39.421  28.527  30.686  1.00  0.00     0.016 A 
ATOM     36  C   UNL A   1      38.859  29.540  28.558  1.00  0.00     0.016 A 
ATOM     37  C   UNL A   1      40.644  28.092  30.170  1.00  0.00     0.010 A 
ATOM     38  C   UNL A   1      40.098  29.127  28.049  1.00  0.00     0.010 A 
ATOM     39  C   UNL A   1      41.011  28.429  28.862  1.00  0.00    -0.014 A 
BRANCH  39  40
ATOM     40  C   UNL A   1      42.424  28.273  28.429  1.00  0.00     0.031 A 
ATOM     41  C   UNL A   1      43.352  29.442  28.640  1.00  0.00     0.074 A 
ATOM     42  C   UNL A   1      42.896  27.138  27.881  1.00  0.00     0.049 A 
ATOM     43  N   UNL A   1      44.606  29.583  28.297  1.00  0.00    -0.248 NA
ATOM     44  C   UNL A   1      42.781  30.611  29.332  1.00  0.00     0.031 C 
ATOM     45  C   UNL A   1      42.130  25.911  27.671  1.00  0.00     0.029 A 
ATOM     46  N   UNL A   1      44.147  26.839  27.394  1.00  0.00    -0.354 N 
ATOM     47  C   UNL A   1      44.969  30.857  28.719  1.00  0.00     0.074 A 
ATOM     48  C   UNL A   1      43.798  31.459  29.318  1.00  0.00     0.031 C 
ATOM     49  C   UNL A   1      42.925  24.995  27.086  1.00  0.00     0.029 A 
ATOM     50  C   UNL A   1      44.245  25.581  26.848  1.00  0.00     0.049 A 
ATOM     51  H   UNL A   1      44.902  27.469  27.433  1.00  0.00     0.167 HD
ATOM     52  C   UNL A   1      46.169  31.475  28.624  1.00  0.00     0.031 A 
ATOM     53  C   UNL A   1      45.271  24.980  26.209  1.00  0.00     0.031 A 
ATOM     54  C   UNL A   1      47.334  30.889  28.017  1.00  0.00     0.049 A 
ATOM     55  C   UNL A   1      46.577  25.722  26.034  1.00  0.00     0.074 A 
ATOM     56  C   UNL A   1      48.596  31.437  27.878  1.00  0.00     0.029 A 
ATOM     57  N   UNL A   1      47.378  29.630  27.441  1.00  0.00    -0.354 N 
ATOM     58  N   UNL A   1      46.910  26.921  26.452  1.00  0.00    -0.248 NA
ATOM     59  C   UNL A   1      47.646  25.025  25.302  1.00  0.00     0.031 C 
ATOM     60  C   UNL A   1      49.388  30.532  27.165  1.00  0.00     0.029 A 
ATOM     61  C   UNL A   1      48.638  29.394  26.920  1.00  0.00     0.049 A 
ATOM     62  H   UNL A   1      46.624  28.997  27.408  1.00  0.00     0.167 HD
ATOM     63  C   UNL A   1      48.235  27.105  26.063  1.00  0.00     0.074 A 
ATOM     64  C   UNL A   1      48.645  25.893  25.387  1.00  0.00     0.031 C 
ATOM     65  C   UNL A   1      49.039  28.180  26.253  1.00  0.00     0.031 A 
BRANCH  52  66
ATOM     66  C   UNL A   1      46.268  32.880  29.156  1.00  0.00    -0.014 A 
ATOM     67  C   UNL A   1      45.794  33.976  28.414  1.00  0.00     0.010 A 
ATOM     68  C   UNL A   1      46.822  33.102  30.430  1.00  0.00     0.010 A 
ATOM     69  C   UNL A   1      45.904  35.273  28.922  1.00  0.00     0.020 A 
ATOM     70  C   UNL A   1      46.907  34.394  30.954  1.00  0.00     0.020 A 
ATOM     71  C   UNL A   1      46.462  35.473  30.188  1.00  0.00     0.054 A 
BRANCH  71  72
ATOM     72  S   UNL A   1      46.572  37.165  30.832  1.00  0.00     0.124 S 
ATOM     73  O   UNL A   1      45.407  37.797  30.217  1.00  0.00    -0.237 OA
ATOM     74  O   UNL A   1      46.487  36.964  32.276  1.00  0.00    -0.237 OA
ATOM     75  O   UNL A   1      47.865  37.638  30.347  1.00  0.00    -0.744 OA
ENDBRANCH  71  72
ENDBRANCH  52  66
BRANCH  53  76
ATOM     76  C   UNL A   1      45.111  23.606  25.654  1.00  0.00    -0.014 A 
ATOM     77  C   UNL A   1      45.434  22.474  26.425  1.00  0.00     0.010 A 
ATOM     78  C   UNL A   1      44.658  23.421  24.334  1.00  0.00     0.010 A 
ATOM     79  C   UNL A   1      45.326  21.189  25.882  1.00  0.00     0.020 A 
ATOM     80  C   UNL A   1      44.519  22.138  23.798  1.00  0.00     0.020 A 
ATOM     81  C   UNL A   1      44.866  21.029  24.571  1.00  0.00     0.054 A 
BRANCH  81  82
ATOM     82  S   UNL A   1      44.690  19.351  23.903  1.00  0.00     0.124 S 
ATOM     83  O   UNL A   1      44.508  19.609  22.478  1.00  0.00    -0.237 OA
ATOM     84  O   UNL A   1      45.958  18.728  24.276  1.00  0.00    -0.237 OA
ATOM     85  O   UNL A   1      43.518  18.827  24.599  1.00  0.00    -0.744 OA
ENDBRANCH  81  82
ENDBRANCH  53  76
BRANCH  65  86
ATOM     86  C   UNL A   1      50.464  28.091  25.766  1.00  0.00    -0.014 A 
ATOM     87  C   UNL A   1      50.768  28.006  24.396  1.00  0.00     0.010 A 
ATOM     88  C   UNL A   1      51.519  28.170  26.696  1.00  0.00     0.010 A 
ATOM     89  C   UNL A   1      52.100  27.971  23.968  1.00  0.00     0.020 A 
ATOM     90  C   UNL A   1      52.849  28.165  26.270  1.00  0.00     0.020 A 
ATOM     91  C   UNL A   1      53.132  28.053  24.908  1.00  0.00     0.054 A 
BRANCH  91  92
ATOM     92  S   UNL A   1      54.849  28.056  24.322  1.00  0.00     0.124 S 
ATOM     93  O   UNL A   1      55.083  29.475  24.070  1.00  0.00    -0.237 OA
ATOM     94  O   UNL A   1      55.575  27.491  25.458  1.00  0.00    -0.237 OA
ATOM     95  O   UNL A   1      54.813  27.210  23.132  1.00  0.00    -0.744 OA
ENDBRANCH  91  92
ENDBRANCH  65  86
ENDBRANCH  39  40
ENDBRANCH  32  34
ENDBRANCH  31  32
ENDBRANCH  30  31
ENDBRANCH  29  30
ENDBRANCH  28  29
ENDBRANCH  27  28
ENDBRANCH   1  27
TORSDOF 23
ENDMDL
MODEL 2
REMARK VINA RESULT:      -9.6      6.637      8.751
REMARK SMILES C[C@H](NC(=O)N1CC[C@@H](C(=O)OCCOCCOCCOC(=O)c2ccc(-c3c4nc(c(-c5ccc(S(=O)(=O)[O-])cc5)c5ccc([nH]5)c(-c5ccc(S(=O)(=O)[O-])cc5)c5nc(c(-c6ccc(S(=O)(=O)[O-])cc6)c6ccc3[nH]6)C=C5)C=C4)cc2)[C@H]1C)c1ccc(Cl)cc1
REMARK SMILES IDX 16 1 15 2 14 3 13 4 12 5 10 6 11 7 9 8 6 9 7 10 84 11 8 12
REMARK SMILES IDX 85 13 4 14 3 15 5 17 2 18 1 19 86 20 87 21 92 22 88 23 91 24
REMARK SMILES IDX 89 25 90 26 17 27 18 28 19 29 20 30 21 31 22 32 23 33 24 34
REMARK SMILES IDX 25 35 83 36 26 37 82 38 27 39 28 40 29 41 76 42 30 43 81 44
REMARK SMILES IDX 75 45 77 46 31 47 80 48 74 49 73 50 32 52 62 53 43 54 61 55
REMARK SMILES IDX 44 56 47 57 60 58 78 59 45 60 46 61 59 63 79 64 48 65 33 66
REMARK SMILES IDX 34 67 42 68 35 69 41 70 36 71 37 72 38 73 39 74 40 75 63 76
REMARK SMILES IDX 64 77 72 78 65 79 71 80 66 81 67 82 68 83 69 84 70 85 49 86
REMARK SMILES IDX 50 87 58 88 51 89 57 90 52 91 53 92 54 93 55 94 56 95
REMARK H PARENT 3 16 77 51 47 62
REMARK Flexibility Score: inf
ROOT
ATOM      1  C   UNL A   1      35.877  32.313  28.008  1.00  0.00     0.188 C 
ENDROOT
BRANCH   1   2
ATOM      2  O   UNL A   1      34.900  31.293  27.849  1.00  0.00    -0.376 OA
BRANCH   2   3
ATOM      3  C   UNL A   1      35.329  29.958  28.108  1.00  0.00     0.202 C 
BRANCH   3   4
ATOM      4  C   UNL A   1      34.884  28.931  27.065  1.00  0.00     0.261 C 
BRANCH   4   5
ATOM      5  O   UNL A   1      33.718  29.443  26.397  1.00  0.00    -0.463 OA
BRANCH   5   6
ATOM      6  C   UNL A   1      32.617  28.664  26.327  1.00  0.00     0.311 C 
ATOM      7  O   UNL A   1      31.805  28.542  27.235  1.00  0.00    -0.252 OA
BRANCH   6   8
ATOM      8  C   UNL A   1      32.439  28.028  24.953  1.00  0.00     0.123 C 
ATOM      9  N   UNL A   1      32.408  26.139  23.484  1.00  0.00    -0.321 N 
ATOM     10  C   UNL A   1      31.065  26.701  23.554  1.00  0.00     0.122 C 
ATOM     11  C   UNL A   1      33.292  26.799  24.509  1.00  0.00     0.098 C 
ATOM     12  C   UNL A   1      31.017  27.481  24.846  1.00  0.00     0.039 C 
ATOM     13  C   UNL A   1      33.652  25.937  25.733  1.00  0.00     0.032 C 
BRANCH   9  14
ATOM     14  C   UNL A   1      32.713  25.490  22.299  1.00  0.00     0.318 C 
ATOM     15  N   UNL A   1      33.254  24.242  22.291  1.00  0.00    -0.331 N 
ATOM     16  H   UNL A   1      33.707  23.950  21.467  1.00  0.00     0.165 HD
ATOM     17  O   UNL A   1      32.407  25.961  21.200  1.00  0.00    -0.249 OA
BRANCH  15  18
ATOM     18  C   UNL A   1      33.216  23.319  23.384  1.00  0.00     0.111 C 
ATOM     19  C   UNL A   1      32.202  22.192  23.104  1.00  0.00     0.036 C 
BRANCH  18  20
ATOM     20  C   UNL A   1      34.489  22.663  23.881  1.00  0.00    -0.026 A 
ATOM     21  C   UNL A   1      35.785  23.027  23.513  1.00  0.00     0.007 A 
ATOM     22  C   UNL A   1      34.306  21.491  24.654  1.00  0.00     0.007 A 
ATOM     23  C   UNL A   1      36.866  22.215  23.886  1.00  0.00     0.021 A 
ATOM     24  C   UNL A   1      35.376  20.678  25.009  1.00  0.00     0.021 A 
ATOM     25  C   UNL A   1      36.655  21.041  24.614  1.00  0.00     0.041 A 
ATOM     26  Cl  UNL A   1      37.977  20.009  25.001  1.00  0.00    -0.084 Cl
ENDBRANCH  18  20
ENDBRANCH  15  18
ENDBRANCH   9  14
ENDBRANCH   6   8
ENDBRANCH   5   6
ENDBRANCH   4   5
ENDBRANCH   3   4
ENDBRANCH   2   3
ENDBRANCH   1   2
BRANCH   1  27
ATOM     27  C   UNL A   1      35.399  33.728  27.701  1.00  0.00     0.188 C 
BRANCH  27  28
ATOM     28  O   UNL A   1      34.914  34.577  28.729  1.00  0.00    -0.376 OA
BRANCH  28  29
ATOM     29  C   UNL A   1      33.537  34.965  28.657  1.00  0.00     0.202 C 
BRANCH  29  30
ATOM     30  C   UNL A   1      32.903  36.086  29.534  1.00  0.00     0.261 C 
BRANCH  30  31
ATOM     31  O   UNL A   1      33.474  36.331  30.824  1.00  0.00    -0.460 OA
BRANCH  31  32
ATOM     32  C   UNL A   1      33.021  35.525  31.818  1.00  0.00     0.338 C 
ATOM     33  O   UNL A   1      31.853  35.252  32.045  1.00  0.00    -0.246 OA
BRANCH  32  34
ATOM     34  C   UNL A   1      34.176  34.802  32.422  1.00  0.00     0.060 A 
ATOM     35  C   UNL A   1      35.458  35.330  32.202  1.00  0.00     0.016 A 
ATOM     36  C   UNL A   1      34.018  33.689  33.253  1.00  0.00     0.016 A 
ATOM     37  C   UNL A   1      36.580  34.736  32.784  1.00  0.00     0.010 A 
ATOM     38  C   UNL A   1      35.147  33.078  33.815  1.00  0.00     0.010 A 
ATOM     39  C   UNL A   1      36.437  33.578  33.557  1.00  0.00    -0.014 A 
BRANCH  39  40
ATOM     40  C   UNL A   1      37.632  32.757  33.885  1.00  0.00     0.031 A 
ATOM     41  C   UNL A   1      38.390  33.099  35.142  1.00  0.00     0.074 A 
ATOM     42  C   UNL A   1      38.039  31.728  33.118  1.00  0.00     0.049 A 
ATOM     43  N   UNL A   1      39.493  32.580  35.616  1.00  0.00    -0.248 NA
ATOM     44  C   UNL A   1      37.824  34.175  35.973  1.00  0.00     0.031 C 
ATOM     45  C   UNL A   1      37.371  31.249  31.910  1.00  0.00     0.029 A 
ATOM     46  N   UNL A   1      39.130  30.900  33.249  1.00  0.00    -0.354 N 
ATOM     47  C   UNL A   1      39.759  33.274  36.791  1.00  0.00     0.074 A 
ATOM     48  C   UNL A   1      38.719  34.268  36.944  1.00  0.00     0.031 C 
ATOM     49  C   UNL A   1      38.074  30.219  31.403  1.00  0.00     0.029 A 
ATOM     50  C   UNL A   1      39.259  29.987  32.229  1.00  0.00     0.049 A 
ATOM     51  H   UNL A   1      39.759  30.957  34.004  1.00  0.00     0.167 HD
ATOM     52  C   UNL A   1      40.772  33.101  37.671  1.00  0.00     0.031 A 
ATOM     53  C   UNL A   1      40.232  29.085  31.978  1.00  0.00     0.031 A 
ATOM     54  C   UNL A   1      41.817  32.125  37.518  1.00  0.00     0.049 A 
ATOM     55  C   UNL A   1      41.403  28.969  32.927  1.00  0.00     0.074 A 
ATOM     56  C   UNL A   1      42.885  31.872  38.361  1.00  0.00     0.029 A 
ATOM     57  N   UNL A   1      41.932  31.249  36.451  1.00  0.00    -0.354 N 
ATOM     58  N   UNL A   1      41.633  29.622  34.042  1.00  0.00    -0.248 NA
ATOM     59  C   UNL A   1      42.446  27.991  32.582  1.00  0.00     0.031 C 
ATOM     60  C   UNL A   1      43.679  30.883  37.772  1.00  0.00     0.029 A 
ATOM     61  C   UNL A   1      43.068  30.473  36.599  1.00  0.00     0.049 A 
ATOM     62  H   UNL A   1      41.298  31.187  35.699  1.00  0.00     0.167 HD
ATOM     63  C   UNL A   1      42.825  29.108  34.546  1.00  0.00     0.074 A 
ATOM     64  C   UNL A   1      43.264  28.085  33.621  1.00  0.00     0.031 C 
ATOM     65  C   UNL A   1      43.495  29.451  35.675  1.00  0.00     0.031 A 
BRANCH  52  66
ATOM     66  C   UNL A   1      40.820  34.021  38.861  1.00  0.00    -0.014 A 
ATOM     67  C   UNL A   1      40.227  33.663  40.085  1.00  0.00     0.010 A 
ATOM     68  C   UNL A   1      41.492  35.252  38.759  1.00  0.00     0.010 A 
ATOM     69  C   UNL A   1      40.274  34.537  41.175  1.00  0.00     0.020 A 
ATOM     70  C   UNL A   1      41.568  36.115  39.855  1.00  0.00     0.020 A 
ATOM     71  C   UNL A   1      40.943  35.758  41.051  1.00  0.00     0.054 A 
BRANCH  71  72
ATOM     72  S   UNL A   1      41.009  36.862  42.488  1.00  0.00     0.124 S 
ATOM     73  O   UNL A   1      40.622  38.143  41.901  1.00  0.00    -0.237 OA
ATOM     74  O   UNL A   1      40.031  36.267  43.395  1.00  0.00    -0.237 OA
ATOM     75  O   UNL A   1      42.398  36.776  42.930  1.00  0.00    -0.744 OA
ENDBRANCH  71  72
ENDBRANCH  52  66
BRANCH  53  76
ATOM     76  C   UNL A   1      40.169  28.229  30.759  1.00  0.00    -0.014 A 
ATOM     77  C   UNL A   1      39.261  27.157  30.676  1.00  0.00     0.010 A 
ATOM     78  C   UNL A   1      41.040  28.466  29.679  1.00  0.00     0.010 A 
ATOM     79  C   UNL A   1      39.240  26.329  29.549  1.00  0.00     0.020 A 
ATOM     80  C   UNL A   1      41.001  27.660  28.538  1.00  0.00     0.020 A 
ATOM     81  C   UNL A   1      40.109  26.588  28.485  1.00  0.00     0.054 A 
BRANCH  81  82
ATOM     82  S   UNL A   1      40.032  25.529  27.013  1.00  0.00     0.124 S 
ATOM     83  O   UNL A   1      40.913  24.427  27.384  1.00  0.00    -0.237 OA
ATOM     84  O   UNL A   1      38.609  25.203  26.934  1.00  0.00    -0.237 OA
ATOM     85  O   UNL A   1      40.525  26.393  25.944  1.00  0.00    -0.744 OA
ENDBRANCH  81  82
ENDBRANCH  53  76
BRANCH  65  86
ATOM     86  C   UNL A   1      44.753  28.689  36.010  1.00  0.00    -0.014 A 
ATOM     87  C   UNL A   1      46.018  29.148  35.605  1.00  0.00     0.010 A 
ATOM     88  C   UNL A   1      44.668  27.532  36.808  1.00  0.00     0.010 A 
ATOM     89  C   UNL A   1      47.174  28.447  35.968  1.00  0.00     0.020 A 
ATOM     90  C   UNL A   1      45.821  26.846  37.197  1.00  0.00     0.020 A 
ATOM     91  C   UNL A   1      47.068  27.302  36.763  1.00  0.00     0.054 A 
BRANCH  91  92
ATOM     92  S   UNL A   1      48.584  26.440  37.261  1.00  0.00     0.124 S 
ATOM     93  O   UNL A   1      49.576  27.021  36.360  1.00  0.00    -0.237 OA
ATOM     94  O   UNL A   1      48.718  26.814  38.668  1.00  0.00    -0.237 OA
ATOM     95  O   UNL A   1      48.278  25.031  37.025  1.00  0.00    -0.744 OA
ENDBRANCH  91  92
ENDBRANCH  65  86
ENDBRANCH  39  40
ENDBRANCH  32  34
ENDBRANCH  31  32
ENDBRANCH  30  31
ENDBRANCH  29  30
ENDBRANCH  28  29
ENDBRANCH  27  28
ENDBRANCH   1  27
TORSDOF 23
ENDMDL
MODEL 3
REMARK VINA RESULT:      -9.6      2.826      9.299
REMARK SMILES C[C@H](NC(=O)N1CC[C@@H](C(=O)OCCOCCOCCOC(=O)c2ccc(-c3c4nc(c(-c5ccc(S(=O)(=O)[O-])cc5)c5ccc([nH]5)c(-c5ccc(S(=O)(=O)[O-])cc5)c5nc(c(-c6ccc(S(=O)(=O)[O-])cc6)c6ccc3[nH]6)C=C5)C=C4)cc2)[C@H]1C)c1ccc(Cl)cc1
REMARK SMILES IDX 16 1 15 2 14 3 13 4 12 5 10 6 11 7 9 8 6 9 7 10 84 11 8 12
REMARK SMILES IDX 85 13 4 14 3 15 5 17 2 18 1 19 86 20 87 21 92 22 88 23 91 24
REMARK SMILES IDX 89 25 90 26 17 27 18 28 19 29 20 30 21 31 22 32 23 33 24 34
REMARK SMILES IDX 25 35 83 36 26 37 82 38 27 39 28 40 29 41 76 42 30 43 81 44
REMARK SMILES IDX 75 45 77 46 31 47 80 48 74 49 73 50 32 52 62 53 43 54 61 55
REMARK SMILES IDX 44 56 47 57 60 58 78 59 45 60 46 61 59 63 79 64 48 65 33 66
REMARK SMILES IDX 34 67 42 68 35 69 41 70 36 71 37 72 38 73 39 74 40 75 63 76
REMARK SMILES IDX 64 77 72 78 65 79 71 80 66 81 67 82 68 83 69 84 70 85 49 86
REMARK SMILES IDX 50 87 58 88 51 89 57 90 52 91 53 92 54 93 55 94 56 95
REMARK H PARENT 3 16 77 51 47 62
REMARK Flexibility Score: inf
ROOT
ATOM      1  C   UNL A   1      35.348  20.328  25.009  1.00  0.00     0.188 C 
ENDROOT
BRANCH   1   2
ATOM      2  O   UNL A   1      34.096  19.682  24.826  1.00  0.00    -0.376 OA
BRANCH   2   3
ATOM      3  C   UNL A   1      33.041  20.080  25.699  1.00  0.00     0.202 C 
BRANCH   3   4
ATOM      4  C   UNL A   1      32.085  21.119  25.112  1.00  0.00     0.261 C 
BRANCH   4   5
ATOM      5  O   UNL A   1      32.274  22.357  25.818  1.00  0.00    -0.463 OA
BRANCH   5   6
ATOM      6  C   UNL A   1      32.832  23.397  25.162  1.00  0.00     0.311 C 
ATOM      7  O   UNL A   1      33.905  23.341  24.576  1.00  0.00    -0.252 OA
BRANCH   6   8
ATOM      8  C   UNL A   1      31.930  24.626  25.145  1.00  0.00     0.123 C 
ATOM      9  N   UNL A   1      29.930  25.773  24.503  1.00  0.00    -0.321 N 
ATOM     10  C   UNL A   1      29.943  25.628  25.953  1.00  0.00     0.122 C 
ATOM     11  C   UNL A   1      31.057  24.976  23.900  1.00  0.00     0.098 C 
ATOM     12  C   UNL A   1      30.874  24.475  26.239  1.00  0.00     0.039 C 
ATOM     13  C   UNL A   1      30.643  23.687  23.166  1.00  0.00     0.032 C 
BRANCH   9  14
ATOM     14  C   UNL A   1      29.235  26.873  24.027  1.00  0.00     0.318 C 
ATOM     15  N   UNL A   1      29.841  28.081  23.867  1.00  0.00    -0.331 N 
ATOM     16  H   UNL A   1      29.260  28.874  23.806  1.00  0.00     0.165 HD
ATOM     17  O   UNL A   1      28.074  26.785  23.620  1.00  0.00    -0.249 OA
BRANCH  15  18
ATOM     18  C   UNL A   1      31.254  28.291  23.779  1.00  0.00     0.111 C 
ATOM     19  C   UNL A   1      31.589  29.214  22.590  1.00  0.00     0.036 C 
BRANCH  18  20
ATOM     20  C   UNL A   1      32.031  28.803  24.976  1.00  0.00    -0.026 A 
ATOM     21  C   UNL A   1      31.734  29.957  25.701  1.00  0.00     0.007 A 
ATOM     22  C   UNL A   1      33.238  28.116  25.255  1.00  0.00     0.007 A 
ATOM     23  C   UNL A   1      32.644  30.427  26.660  1.00  0.00     0.021 A 
ATOM     24  C   UNL A   1      34.146  28.592  26.192  1.00  0.00     0.021 A 
ATOM     25  C   UNL A   1      33.848  29.755  26.887  1.00  0.00     0.041 A 
ATOM     26  Cl  UNL A   1      34.994  30.380  28.008  1.00  0.00    -0.084 Cl
ENDBRANCH  18  20
ENDBRANCH  15  18
ENDBRANCH   9  14
ENDBRANCH   6   8
ENDBRANCH   5   6
ENDBRANCH   4   5
ENDBRANCH   3   4
ENDBRANCH   2   3
ENDBRANCH   1   2
BRANCH   1  27
ATOM     27  C   UNL A   1      36.574  19.438  24.841  1.00  0.00     0.188 C 
BRANCH  27  28
ATOM     28  O   UNL A   1      37.858  19.994  24.608  1.00  0.00    -0.376 OA
BRANCH  28  29
ATOM     29  C   UNL A   1      38.179  21.206  25.301  1.00  0.00     0.202 C 
BRANCH  29  30
ATOM     30  C   UNL A   1      39.474  21.408  26.143  1.00  0.00     0.261 C 
BRANCH  30  31
ATOM     31  O   UNL A   1      40.184  20.241  26.571  1.00  0.00    -0.460 OA
BRANCH  31  32
ATOM     32  C   UNL A   1      41.458  20.140  26.113  1.00  0.00     0.338 C 
ATOM     33  O   UNL A   1      41.889  19.267  25.378  1.00  0.00    -0.246 OA
BRANCH  32  34
ATOM     34  C   UNL A   1      42.185  21.405  26.418  1.00  0.00     0.060 A 
ATOM     35  C   UNL A   1      42.580  21.622  27.747  1.00  0.00     0.016 A 
ATOM     36  C   UNL A   1      42.552  22.321  25.427  1.00  0.00     0.016 A 
ATOM     37  C   UNL A   1      43.313  22.759  28.094  1.00  0.00     0.010 A 
ATOM     38  C   UNL A   1      43.264  23.476  25.780  1.00  0.00     0.010 A 
ATOM     39  C   UNL A   1      43.620  23.717  27.121  1.00  0.00    -0.014 A 
BRANCH  39  40
ATOM     40  C   UNL A   1      44.085  25.067  27.535  1.00  0.00     0.031 A 
ATOM     41  C   UNL A   1      45.540  25.399  27.326  1.00  0.00     0.074 A 
ATOM     42  C   UNL A   1      43.259  25.990  28.063  1.00  0.00     0.049 A 
ATOM     43  N   UNL A   1      46.205  26.476  27.656  1.00  0.00    -0.248 NA
ATOM     44  C   UNL A   1      46.354  24.370  26.655  1.00  0.00     0.031 C 
ATOM     45  C   UNL A   1      41.821  25.829  28.268  1.00  0.00     0.029 A 
ATOM     46  N   UNL A   1      43.524  27.255  28.532  1.00  0.00    -0.354 N 
ATOM     47  C   UNL A   1      47.513  26.249  27.245  1.00  0.00     0.074 A 
ATOM     48  C   UNL A   1      47.556  24.924  26.667  1.00  0.00     0.031 C 
ATOM     49  C   UNL A   1      41.333  26.949  28.833  1.00  0.00     0.029 A 
ATOM     50  C   UNL A   1      42.428  27.893  29.061  1.00  0.00     0.049 A 
ATOM     51  H   UNL A   1      44.418  27.666  28.491  1.00  0.00     0.167 HD
ATOM     52  C   UNL A   1      48.587  27.069  27.332  1.00  0.00     0.031 A 
ATOM     53  C   UNL A   1      42.323  29.088  29.681  1.00  0.00     0.031 A 
ATOM     54  C   UNL A   1      48.555  28.381  27.919  1.00  0.00     0.049 A 
ATOM     55  C   UNL A   1      43.553  29.950  29.849  1.00  0.00     0.074 A 
ATOM     56  C   UNL A   1      49.592  29.288  28.049  1.00  0.00     0.029 A 
ATOM     57  N   UNL A   1      47.434  28.972  28.479  1.00  0.00    -0.354 N 
ATOM     58  N   UNL A   1      44.781  29.730  29.441  1.00  0.00    -0.248 NA
ATOM     59  C   UNL A   1      43.380  31.227  30.559  1.00  0.00     0.031 C 
ATOM     60  C   UNL A   1      49.111  30.403  28.742  1.00  0.00     0.029 A 
ATOM     61  C   UNL A   1      47.759  30.219  28.982  1.00  0.00     0.049 A 
ATOM     62  H   UNL A   1      46.538  28.563  28.514  1.00  0.00     0.167 HD
ATOM     63  C   UNL A   1      45.515  30.852  29.816  1.00  0.00     0.074 A 
ATOM     64  C   UNL A   1      44.593  31.754  30.473  1.00  0.00     0.031 C 
ATOM     65  C   UNL A   1      46.833  31.114  29.630  1.00  0.00     0.031 A 
BRANCH  52  66
ATOM     66  C   UNL A   1      49.901  26.546  26.816  1.00  0.00    -0.014 A 
ATOM     67  C   UNL A   1      50.278  26.719  25.473  1.00  0.00     0.010 A 
ATOM     68  C   UNL A   1      50.782  25.895  27.698  1.00  0.00     0.010 A 
ATOM     69  C   UNL A   1      51.497  26.217  25.012  1.00  0.00     0.020 A 
ATOM     70  C   UNL A   1      52.016  25.419  27.248  1.00  0.00     0.020 A 
ATOM     71  C   UNL A   1      52.358  25.568  25.903  1.00  0.00     0.054 A 
BRANCH  71  72
ATOM     72  S   UNL A   1      53.945  24.947  25.283  1.00  0.00     0.124 S 
ATOM     73  O   UNL A   1      54.260  25.918  24.238  1.00  0.00    -0.237 OA
ATOM     74  O   UNL A   1      54.796  25.004  26.469  1.00  0.00    -0.237 OA
ATOM     75  O   UNL A   1      53.631  23.602  24.809  1.00  0.00    -0.744 OA
ENDBRANCH  71  72
ENDBRANCH  52  66
BRANCH  53  76
ATOM     76  C   UNL A   1      41.010  29.543  30.221  1.00  0.00    -0.014 A 
ATOM     77  C   UNL A   1      40.616  29.215  31.532  1.00  0.00     0.010 A 
ATOM     78  C   UNL A   1      40.131  30.290  29.414  1.00  0.00     0.010 A 
ATOM     79  C   UNL A   1      39.363  29.606  32.016  1.00  0.00     0.020 A 
ATOM     80  C   UNL A   1      38.890  30.708  29.905  1.00  0.00     0.020 A 
ATOM     81  C   UNL A   1      38.508  30.353  31.199  1.00  0.00     0.054 A 
BRANCH  81  82
ATOM     82  S   UNL A   1      36.907  30.888  31.864  1.00  0.00     0.124 S 
ATOM     83  O   UNL A   1      36.076  29.709  31.643  1.00  0.00    -0.237 OA
ATOM     84  O   UNL A   1      37.228  31.184  33.259  1.00  0.00    -0.237 OA
ATOM     85  O   UNL A   1      36.570  32.053  31.049  1.00  0.00    -0.744 OA
ENDBRANCH  81  82
ENDBRANCH  53  76
BRANCH  65  86
ATOM     86  C   UNL A   1      47.362  32.446  30.099  1.00  0.00    -0.014 A 
ATOM     87  C   UNL A   1      47.961  32.595  31.362  1.00  0.00     0.010 A 
ATOM     88  C   UNL A   1      47.325  33.551  29.225  1.00  0.00     0.010 A 
ATOM     89  C   UNL A   1      48.485  33.831  31.755  1.00  0.00     0.020 A 
ATOM     90  C   UNL A   1      47.874  34.778  29.603  1.00  0.00     0.020 A 
ATOM     91  C   UNL A   1      48.440  34.915  30.871  1.00  0.00     0.054 A 
BRANCH  91  92
ATOM     92  S   UNL A   1      49.172  36.493  31.386  1.00  0.00     0.124 S 
ATOM     93  O   UNL A   1      49.518  36.228  32.780  1.00  0.00    -0.237 OA
ATOM     94  O   UNL A   1      50.305  36.634  30.472  1.00  0.00    -0.237 OA
ATOM     95  O   UNL A   1      48.095  37.459  31.184  1.00  0.00    -0.744 OA
ENDBRANCH  91  92
ENDBRANCH  65  86
ENDBRANCH  39  40
ENDBRANCH  32  34
ENDBRANCH  31  32
ENDBRANCH  30  31
ENDBRANCH  29  30
ENDBRANCH  28  29
ENDBRANCH  27  28
ENDBRANCH   1  27
TORSDOF 23
ENDMDL
