MODEL 1
REMARK VINA RESULT:     -10.4      0.000      0.000
REMARK SMILES O=C(Nc1ccc(O)cc1C(=O)OCCOCCOCCOC(=O)c1ccc(-c2c3nc(c(-c4ccc(S(=O)(=O)[O-])cc4)c4ccc([nH]4)c(-c4ccc(S(=O)(=O)[O-])cc4)c4nc(c(-c5ccc(S(=O)(=O)[O-])cc5)c5ccc2[nH]5)C=C4)C=C3)cc1)c1ccc(Br)nc1
REMARK SMILES IDX 18 1 17 2 16 3 15 4 14 5 13 6 11 7 12 8 10 9 4 10 5 11 6 12
REMARK SMILES IDX 9 13 7 14 3 15 1 16 2 17 85 19 86 20 91 21 87 22 90 23 88 24
REMARK SMILES IDX 89 25 8 26 19 28 20 29 21 30 22 31 23 32 24 33 25 34 26 35
REMARK SMILES IDX 84 36 27 37 83 38 28 39 29 40 30 41 77 42 31 43 82 44 76 45
REMARK SMILES IDX 78 46 32 47 81 48 75 49 74 50 33 52 63 53 44 54 62 55 45 56
REMARK SMILES IDX 48 57 61 58 79 59 46 60 47 61 60 63 80 64 49 65 34 66 35 67
REMARK SMILES IDX 43 68 36 69 42 70 37 71 38 72 39 73 40 74 41 75 64 76 65 77
REMARK SMILES IDX 73 78 66 79 72 80 67 81 68 82 69 83 70 84 71 85 50 86 51 87
REMARK SMILES IDX 59 88 52 89 58 90 53 91 54 92 55 93 56 94 57 95
REMARK H PARENT 3 18 8 27 78 51 48 62
REMARK Flexibility Score: inf
ROOT
ATOM      1  C   UNL A   1      37.321  22.645  24.868  1.00  0.00     0.188 C 
ENDROOT
BRANCH   1   2
ATOM      2  C   UNL A   1      35.858  23.034  25.147  1.00  0.00     0.188 C 
BRANCH   2   3
ATOM      3  O   UNL A   1      35.297  22.710  26.415  1.00  0.00    -0.376 OA
BRANCH   3   4
ATOM      4  C   UNL A   1      34.499  21.535  26.538  1.00  0.00     0.202 C 
BRANCH   4   5
ATOM      5  C   UNL A   1      34.279  20.677  25.288  1.00  0.00     0.261 C 
BRANCH   5   6
ATOM      6  O   UNL A   1      32.888  20.603  24.919  1.00  0.00    -0.460 OA
BRANCH   6   7
ATOM      7  C   UNL A   1      32.479  21.550  24.042  1.00  0.00     0.340 C 
ATOM      8  O   UNL A   1      32.523  21.469  22.824  1.00  0.00    -0.246 OA
BRANCH   7   9
ATOM      9  C   UNL A   1      31.817  22.678  24.740  1.00  0.00     0.087 A 
ATOM     10  C   UNL A   1      31.907  24.033  24.361  1.00  0.00     0.056 A 
ATOM     11  C   UNL A   1      31.082  24.950  25.032  1.00  0.00     0.031 A 
ATOM     12  C   UNL A   1      30.343  24.581  26.160  1.00  0.00     0.048 A 
ATOM     13  C   UNL A   1      31.070  22.309  25.873  1.00  0.00     0.064 A 
ATOM     14  C   UNL A   1      30.380  23.269  26.596  1.00  0.00     0.116 A 
BRANCH  10  15
ATOM     15  N   UNL A   1      32.801  24.440  23.341  1.00  0.00    -0.321 N 
ATOM     16  O   UNL A   1      33.815  25.803  21.842  1.00  0.00    -0.269 OA
ATOM     17  C   UNL A   1      33.196  25.687  22.897  1.00  0.00     0.257 C 
ATOM     18  H   UNL A   1      33.218  23.693  22.855  1.00  0.00     0.170 HD
BRANCH  17  19
ATOM     19  C   UNL A   1      32.934  26.910  23.676  1.00  0.00     0.058 A 
ATOM     20  C   UNL A   1      31.856  27.730  23.343  1.00  0.00     0.018 A 
ATOM     21  C   UNL A   1      33.737  27.282  24.746  1.00  0.00     0.126 A 
ATOM     22  C   UNL A   1      31.573  28.839  24.141  1.00  0.00     0.037 A 
ATOM     23  N   UNL A   1      33.472  28.345  25.546  1.00  0.00    -0.249 NA
ATOM     24  C   UNL A   1      32.393  29.095  25.233  1.00  0.00     0.106 A 
ATOM     25  Br  UNL A   1      31.971  30.551  26.371  1.00  0.00    -0.029 Br
ENDBRANCH  17  19
ENDBRANCH  10  15
BRANCH  14  26
ATOM     26  O   UNL A   1      29.738  22.875  27.728  1.00  0.00    -0.508 OA
ATOM     27  H   UNL A   1      30.109  23.066  28.567  1.00  0.00     0.293 HD
ENDBRANCH  14  26
ENDBRANCH   7   9
ENDBRANCH   6   7
ENDBRANCH   5   6
ENDBRANCH   4   5
ENDBRANCH   3   4
ENDBRANCH   2   3
ENDBRANCH   1   2
BRANCH   1  28
ATOM     28  O   UNL A   1      38.023  22.068  25.941  1.00  0.00    -0.376 OA
BRANCH  28  29
ATOM     29  C   UNL A   1      39.397  22.347  26.150  1.00  0.00     0.202 C 
BRANCH  29  30
ATOM     30  C   UNL A   1      39.974  23.541  26.938  1.00  0.00     0.261 C 
BRANCH  30  31
ATOM     31  O   UNL A   1      39.367  24.822  26.777  1.00  0.00    -0.460 OA
BRANCH  31  32
ATOM     32  C   UNL A   1      40.207  25.863  26.571  1.00  0.00     0.338 C 
ATOM     33  O   UNL A   1      40.850  26.101  25.565  1.00  0.00    -0.246 OA
BRANCH  32  34
ATOM     34  C   UNL A   1      40.069  26.778  27.721  1.00  0.00     0.060 A 
ATOM     35  C   UNL A   1      40.701  28.026  27.669  1.00  0.00     0.016 A 
ATOM     36  C   UNL A   1      39.319  26.404  28.840  1.00  0.00     0.016 A 
ATOM     37  C   UNL A   1      40.605  28.898  28.753  1.00  0.00     0.010 A 
ATOM     38  C   UNL A   1      39.243  27.271  29.933  1.00  0.00     0.010 A 
ATOM     39  C   UNL A   1      39.907  28.510  29.905  1.00  0.00    -0.014 A 
BRANCH  39  40
ATOM     40  C   UNL A   1      40.006  29.322  31.140  1.00  0.00     0.031 A 
ATOM     41  C   UNL A   1      41.142  29.049  32.088  1.00  0.00     0.074 A 
ATOM     42  C   UNL A   1      39.108  30.284  31.417  1.00  0.00     0.049 A 
ATOM     43  N   UNL A   1      41.415  29.609  33.238  1.00  0.00    -0.248 NA
ATOM     44  C   UNL A   1      42.099  28.003  31.685  1.00  0.00     0.031 C 
ATOM     45  C   UNL A   1      37.987  30.669  30.561  1.00  0.00     0.029 A 
ATOM     46  N   UNL A   1      39.000  31.109  32.507  1.00  0.00    -0.354 N 
ATOM     47  C   UNL A   1      42.566  28.982  33.698  1.00  0.00     0.074 A 
ATOM     48  C   UNL A   1      42.932  27.986  32.716  1.00  0.00     0.031 C 
ATOM     49  C   UNL A   1      37.296  31.654  31.166  1.00  0.00     0.029 A 
ATOM     50  C   UNL A   1      37.910  31.945  32.461  1.00  0.00     0.049 A 
ATOM     51  H   UNL A   1      39.642  31.103  33.254  1.00  0.00     0.167 HD
ATOM     52  C   UNL A   1      43.258  29.214  34.838  1.00  0.00     0.031 A 
ATOM     53  C   UNL A   1      37.451  32.830  33.368  1.00  0.00     0.031 A 
ATOM     54  C   UNL A   1      42.887  30.192  35.824  1.00  0.00     0.049 A 
ATOM     55  C   UNL A   1      38.196  33.015  34.666  1.00  0.00     0.074 A 
ATOM     56  C   UNL A   1      43.540  30.518  36.999  1.00  0.00     0.029 A 
ATOM     57  N   UNL A   1      41.756  30.991  35.757  1.00  0.00    -0.354 N 
ATOM     58  N   UNL A   1      39.308  32.445  35.067  1.00  0.00    -0.248 NA
ATOM     59  C   UNL A   1      37.627  33.968  35.630  1.00  0.00     0.031 C 
ATOM     60  C   UNL A   1      42.775  31.479  37.670  1.00  0.00     0.029 A 
ATOM     61  C   UNL A   1      41.675  31.790  36.885  1.00  0.00     0.049 A 
ATOM     62  H   UNL A   1      41.107  30.991  35.017  1.00  0.00     0.167 HD
ATOM     63  C   UNL A   1      39.586  32.993  36.316  1.00  0.00     0.074 A 
ATOM     64  C   UNL A   1      38.532  33.945  36.599  1.00  0.00     0.031 C 
ATOM     65  C   UNL A   1      40.623  32.737  37.150  1.00  0.00     0.031 A 
BRANCH  52  66
ATOM     66  C   UNL A   1      44.471  28.364  35.097  1.00  0.00    -0.014 A 
ATOM     67  C   UNL A   1      44.364  27.126  35.756  1.00  0.00     0.010 A 
ATOM     68  C   UNL A   1      45.729  28.794  34.642  1.00  0.00     0.010 A 
ATOM     69  C   UNL A   1      45.502  26.348  35.984  1.00  0.00     0.020 A 
ATOM     70  C   UNL A   1      46.866  28.008  34.847  1.00  0.00     0.020 A 
ATOM     71  C   UNL A   1      46.747  26.796  35.532  1.00  0.00     0.054 A 
BRANCH  71  72
ATOM     72  S   UNL A   1      48.204  25.755  35.817  1.00  0.00     0.124 S 
ATOM     73  O   UNL A   1      47.598  24.503  36.260  1.00  0.00    -0.237 OA
ATOM     74  O   UNL A   1      48.835  25.716  34.499  1.00  0.00    -0.237 OA
ATOM     75  O   UNL A   1      48.953  26.480  36.841  1.00  0.00    -0.744 OA
ENDBRANCH  71  72
ENDBRANCH  52  66
BRANCH  53  76
ATOM     76  C   UNL A   1      36.207  33.603  33.100  1.00  0.00    -0.014 A 
ATOM     77  C   UNL A   1      34.945  33.013  33.281  1.00  0.00     0.010 A 
ATOM     78  C   UNL A   1      36.281  34.930  32.637  1.00  0.00     0.010 A 
ATOM     79  C   UNL A   1      33.780  33.725  32.980  1.00  0.00     0.020 A 
ATOM     80  C   UNL A   1      35.119  35.653  32.359  1.00  0.00     0.020 A 
ATOM     81  C   UNL A   1      33.874  35.041  32.518  1.00  0.00     0.054 A 
BRANCH  81  82
ATOM     82  S   UNL A   1      32.350  35.959  32.162  1.00  0.00     0.124 S 
ATOM     83  O   UNL A   1      32.452  36.167  30.721  1.00  0.00    -0.237 OA
ATOM     84  O   UNL A   1      31.310  35.027  32.595  1.00  0.00    -0.237 OA
ATOM     85  O   UNL A   1      32.477  37.162  32.981  1.00  0.00    -0.744 OA
ENDBRANCH  81  82
ENDBRANCH  53  76
BRANCH  65  86
ATOM     86  C   UNL A   1      40.698  33.522  38.432  1.00  0.00    -0.014 A 
ATOM     87  C   UNL A   1      40.081  33.061  39.609  1.00  0.00     0.010 A 
ATOM     88  C   UNL A   1      41.452  34.709  38.473  1.00  0.00     0.010 A 
ATOM     89  C   UNL A   1      40.194  33.789  40.797  1.00  0.00     0.020 A 
ATOM     90  C   UNL A   1      41.588  35.426  39.664  1.00  0.00     0.020 A 
ATOM     91  C   UNL A   1      40.946  34.968  40.816  1.00  0.00     0.054 A 
BRANCH  91  92
ATOM     92  S   UNL A   1      41.120  35.871  42.381  1.00  0.00     0.124 S 
ATOM     93  O   UNL A   1      41.820  37.081  41.958  1.00  0.00    -0.237 OA
ATOM     94  O   UNL A   1      39.733  36.062  42.799  1.00  0.00    -0.237 OA
ATOM     95  O   UNL A   1      41.896  34.962  43.221  1.00  0.00    -0.744 OA
ENDBRANCH  91  92
ENDBRANCH  65  86
ENDBRANCH  39  40
ENDBRANCH  32  34
ENDBRANCH  31  32
ENDBRANCH  30  31
ENDBRANCH  29  30
ENDBRANCH  28  29
ENDBRANCH   1  28
TORSDOF 23
ENDMDL
MODEL 2
REMARK VINA RESULT:     -10.2      1.240      2.180
REMARK SMILES O=C(Nc1ccc(O)cc1C(=O)OCCOCCOCCOC(=O)c1ccc(-c2c3nc(c(-c4ccc(S(=O)(=O)[O-])cc4)c4ccc([nH]4)c(-c4ccc(S(=O)(=O)[O-])cc4)c4nc(c(-c5ccc(S(=O)(=O)[O-])cc5)c5ccc2[nH]5)C=C4)C=C3)cc1)c1ccc(Br)nc1
REMARK SMILES IDX 18 1 17 2 16 3 15 4 14 5 13 6 11 7 12 8 10 9 4 10 5 11 6 12
REMARK SMILES IDX 9 13 7 14 3 15 1 16 2 17 85 19 86 20 91 21 87 22 90 23 88 24
REMARK SMILES IDX 89 25 8 26 19 28 20 29 21 30 22 31 23 32 24 33 25 34 26 35
REMARK SMILES IDX 84 36 27 37 83 38 28 39 29 40 30 41 77 42 31 43 82 44 76 45
REMARK SMILES IDX 78 46 32 47 81 48 75 49 74 50 33 52 63 53 44 54 62 55 45 56
REMARK SMILES IDX 48 57 61 58 79 59 46 60 47 61 60 63 80 64 49 65 34 66 35 67
REMARK SMILES IDX 43 68 36 69 42 70 37 71 38 72 39 73 40 74 41 75 64 76 65 77
REMARK SMILES IDX 73 78 66 79 72 80 67 81 68 82 69 83 70 84 71 85 50 86 51 87
REMARK SMILES IDX 59 88 52 89 58 90 53 91 54 92 55 93 56 94 57 95
REMARK H PARENT 3 18 8 27 78 51 48 62
REMARK Flexibility Score: inf
ROOT
ATOM      1  C   UNL A   1      35.821  23.278  25.947  1.00  0.00     0.188 C 
ENDROOT
BRANCH   1   2
ATOM      2  C   UNL A   1      34.600  22.970  26.832  1.00  0.00     0.188 C 
BRANCH   2   3
ATOM      3  O   UNL A   1      34.376  21.624  27.239  1.00  0.00    -0.376 OA
BRANCH   3   4
ATOM      4  C   UNL A   1      33.666  20.747  26.367  1.00  0.00     0.202 C 
BRANCH   4   5
ATOM      5  C   UNL A   1      33.339  21.242  24.954  1.00  0.00     0.261 C 
BRANCH   5   6
ATOM      6  O   UNL A   1      31.921  21.378  24.742  1.00  0.00    -0.460 OA
BRANCH   6   7
ATOM      7  C   UNL A   1      31.442  22.638  24.877  1.00  0.00     0.340 C 
ATOM      8  O   UNL A   1      30.591  23.003  25.674  1.00  0.00    -0.246 OA
BRANCH   7   9
ATOM      9  C   UNL A   1      32.189  23.590  24.021  1.00  0.00     0.087 A 
ATOM     10  C   UNL A   1      32.634  24.867  24.423  1.00  0.00     0.056 A 
ATOM     11  C   UNL A   1      33.473  25.568  23.541  1.00  0.00     0.031 A 
ATOM     12  C   UNL A   1      33.705  25.118  22.239  1.00  0.00     0.048 A 
ATOM     13  C   UNL A   1      32.427  23.139  22.711  1.00  0.00     0.064 A 
ATOM     14  C   UNL A   1      33.142  23.926  21.821  1.00  0.00     0.116 A 
BRANCH  10  15
ATOM     15  N   UNL A   1      32.242  25.409  25.671  1.00  0.00    -0.321 N 
ATOM     16  O   UNL A   1      31.544  26.950  27.179  1.00  0.00    -0.269 OA
ATOM     17  C   UNL A   1      31.579  26.572  26.009  1.00  0.00     0.257 C 
ATOM     18  H   UNL A   1      32.490  24.852  26.444  1.00  0.00     0.170 HD
BRANCH  17  19
ATOM     19  C   UNL A   1      30.860  27.379  25.008  1.00  0.00     0.058 A 
ATOM     20  C   UNL A   1      29.833  26.804  24.258  1.00  0.00     0.018 A 
ATOM     21  C   UNL A   1      31.173  28.712  24.778  1.00  0.00     0.126 A 
ATOM     22  C   UNL A   1      29.107  27.603  23.374  1.00  0.00     0.037 A 
ATOM     23  N   UNL A   1      30.472  29.511  23.938  1.00  0.00    -0.249 NA
ATOM     24  C   UNL A   1      29.450  28.944  23.261  1.00  0.00     0.106 A 
ATOM     25  Br  UNL A   1      28.419  30.057  22.124  1.00  0.00    -0.029 Br
ENDBRANCH  17  19
ENDBRANCH  10  15
BRANCH  14  26
ATOM     26  O   UNL A   1      33.278  23.481  20.544  1.00  0.00    -0.508 OA
ATOM     27  H   UNL A   1      32.580  23.007  20.136  1.00  0.00     0.293 HD
ENDBRANCH  14  26
ENDBRANCH   7   9
ENDBRANCH   6   7
ENDBRANCH   5   6
ENDBRANCH   4   5
ENDBRANCH   3   4
ENDBRANCH   2   3
ENDBRANCH   1   2
BRANCH   1  28
ATOM     28  O   UNL A   1      36.871  22.344  25.995  1.00  0.00    -0.376 OA
BRANCH  28  29
ATOM     29  C   UNL A   1      38.213  22.741  25.770  1.00  0.00     0.202 C 
BRANCH  29  30
ATOM     30  C   UNL A   1      39.078  23.602  26.712  1.00  0.00     0.261 C 
BRANCH  30  31
ATOM     31  O   UNL A   1      39.074  25.017  26.537  1.00  0.00    -0.460 OA
BRANCH  31  32
ATOM     32  C   UNL A   1      40.261  25.646  26.704  1.00  0.00     0.338 C 
ATOM     33  O   UNL A   1      41.238  25.577  25.981  1.00  0.00    -0.246 OA
BRANCH  32  34
ATOM     34  C   UNL A   1      40.109  26.592  27.827  1.00  0.00     0.060 A 
ATOM     35  C   UNL A   1      40.749  27.835  27.753  1.00  0.00     0.016 A 
ATOM     36  C   UNL A   1      39.338  26.252  28.943  1.00  0.00     0.016 A 
ATOM     37  C   UNL A   1      40.639  28.735  28.813  1.00  0.00     0.010 A 
ATOM     38  C   UNL A   1      39.247  27.147  30.011  1.00  0.00     0.010 A 
ATOM     39  C   UNL A   1      39.919  28.381  29.962  1.00  0.00    -0.014 A 
BRANCH  39  40
ATOM     40  C   UNL A   1      40.001  29.225  31.177  1.00  0.00     0.031 A 
ATOM     41  C   UNL A   1      41.123  28.975  32.149  1.00  0.00     0.074 A 
ATOM     42  C   UNL A   1      39.101  30.195  31.416  1.00  0.00     0.049 A 
ATOM     43  N   UNL A   1      41.380  29.564  33.287  1.00  0.00    -0.248 NA
ATOM     44  C   UNL A   1      42.083  27.918  31.787  1.00  0.00     0.031 C 
ATOM     45  C   UNL A   1      37.993  30.559  30.534  1.00  0.00     0.029 A 
ATOM     46  N   UNL A   1      38.978  31.048  32.483  1.00  0.00    -0.354 N 
ATOM     47  C   UNL A   1      42.522  28.947  33.781  1.00  0.00     0.074 A 
ATOM     48  C   UNL A   1      42.901  27.926  32.830  1.00  0.00     0.031 C 
ATOM     49  C   UNL A   1      37.295  31.560  31.103  1.00  0.00     0.029 A 
ATOM     50  C   UNL A   1      37.890  31.884  32.399  1.00  0.00     0.049 A 
ATOM     51  H   UNL A   1      39.609  31.061  33.238  1.00  0.00     0.167 HD
ATOM     52  C   UNL A   1      43.198  29.209  34.924  1.00  0.00     0.031 A 
ATOM     53  C   UNL A   1      37.419  32.792  33.276  1.00  0.00     0.031 A 
ATOM     54  C   UNL A   1      42.814  30.212  35.879  1.00  0.00     0.049 A 
ATOM     55  C   UNL A   1      38.146  33.011  34.579  1.00  0.00     0.074 A 
ATOM     56  C   UNL A   1      43.450  30.568  37.055  1.00  0.00     0.029 A 
ATOM     57  N   UNL A   1      41.686  31.011  35.775  1.00  0.00    -0.354 N 
ATOM     58  N   UNL A   1      39.251  32.449  35.012  1.00  0.00    -0.248 NA
ATOM     59  C   UNL A   1      37.564  33.989  35.510  1.00  0.00     0.031 C 
ATOM     60  C   UNL A   1      42.678  31.547  37.689  1.00  0.00     0.029 A 
ATOM     61  C   UNL A   1      41.590  31.838  36.880  1.00  0.00     0.049 A 
ATOM     62  H   UNL A   1      41.048  30.993  35.026  1.00  0.00     0.167 HD
ATOM     63  C   UNL A   1      39.511  33.030  36.249  1.00  0.00     0.074 A 
ATOM     64  C   UNL A   1      38.455  33.990  36.493  1.00  0.00     0.031 C 
ATOM     65  C   UNL A   1      40.536  32.793  37.106  1.00  0.00     0.031 A 
BRANCH  52  66
ATOM     66  C   UNL A   1      44.405  28.364  35.223  1.00  0.00    -0.014 A 
ATOM     67  C   UNL A   1      44.292  27.165  35.950  1.00  0.00     0.010 A 
ATOM     68  C   UNL A   1      45.665  28.757  34.738  1.00  0.00     0.010 A 
ATOM     69  C   UNL A   1      45.426  26.391  36.214  1.00  0.00     0.020 A 
ATOM     70  C   UNL A   1      46.797  27.975  34.980  1.00  0.00     0.020 A 
ATOM     71  C   UNL A   1      46.671  26.803  35.730  1.00  0.00     0.054 A 
BRANCH  71  72
ATOM     72  S   UNL A   1      48.122  25.767  36.065  1.00  0.00     0.124 S 
ATOM     73  O   UNL A   1      48.772  26.500  37.148  1.00  0.00    -0.237 OA
ATOM     74  O   UNL A   1      47.525  24.488  36.441  1.00  0.00    -0.237 OA
ATOM     75  O   UNL A   1      48.845  25.764  34.795  1.00  0.00    -0.744 OA
ENDBRANCH  71  72
ENDBRANCH  52  66
BRANCH  53  76
ATOM     76  C   UNL A   1      36.181  33.560  32.969  1.00  0.00    -0.014 A 
ATOM     77  C   UNL A   1      36.242  34.939  32.705  1.00  0.00     0.010 A 
ATOM     78  C   UNL A   1      34.929  32.918  32.965  1.00  0.00     0.010 A 
ATOM     79  C   UNL A   1      35.073  35.668  32.467  1.00  0.00     0.020 A 
ATOM     80  C   UNL A   1      33.760  33.638  32.703  1.00  0.00     0.020 A 
ATOM     81  C   UNL A   1      33.837  35.012  32.471  1.00  0.00     0.054 A 
BRANCH  81  82
ATOM     82  S   UNL A   1      32.334  35.969  32.130  1.00  0.00     0.124 S 
ATOM     83  O   UNL A   1      31.293  35.096  32.663  1.00  0.00    -0.237 OA
ATOM     84  O   UNL A   1      32.568  37.204  32.877  1.00  0.00    -0.237 OA
ATOM     85  O   UNL A   1      32.347  36.118  30.677  1.00  0.00    -0.744 OA
ENDBRANCH  81  82
ENDBRANCH  53  76
BRANCH  65  86
ATOM     86  C   UNL A   1      40.593  33.611  38.368  1.00  0.00    -0.014 A 
ATOM     87  C   UNL A   1      41.256  34.850  38.407  1.00  0.00     0.010 A 
ATOM     88  C   UNL A   1      39.917  33.159  39.516  1.00  0.00     0.010 A 
ATOM     89  C   UNL A   1      41.265  35.609  39.580  1.00  0.00     0.020 A 
ATOM     90  C   UNL A   1      39.903  33.926  40.683  1.00  0.00     0.020 A 
ATOM     91  C   UNL A   1      40.589  35.141  40.712  1.00  0.00     0.054 A 
BRANCH  91  92
ATOM     92  S   UNL A   1      40.573  36.166  42.210  1.00  0.00     0.124 S 
ATOM     93  O   UNL A   1      40.744  35.168  43.262  1.00  0.00    -0.237 OA
ATOM     94  O   UNL A   1      41.710  37.060  42.001  1.00  0.00    -0.237 OA
ATOM     95  O   UNL A   1      39.265  36.815  42.171  1.00  0.00    -0.744 OA
ENDBRANCH  91  92
ENDBRANCH  65  86
ENDBRANCH  39  40
ENDBRANCH  32  34
ENDBRANCH  31  32
ENDBRANCH  30  31
ENDBRANCH  29  30
ENDBRANCH  28  29
ENDBRANCH   1  28
TORSDOF 23
ENDMDL
MODEL 3
REMARK VINA RESULT:     -10.1      1.689      3.026
REMARK SMILES O=C(Nc1ccc(O)cc1C(=O)OCCOCCOCCOC(=O)c1ccc(-c2c3nc(c(-c4ccc(S(=O)(=O)[O-])cc4)c4ccc([nH]4)c(-c4ccc(S(=O)(=O)[O-])cc4)c4nc(c(-c5ccc(S(=O)(=O)[O-])cc5)c5ccc2[nH]5)C=C4)C=C3)cc1)c1ccc(Br)nc1
REMARK SMILES IDX 18 1 17 2 16 3 15 4 14 5 13 6 11 7 12 8 10 9 4 10 5 11 6 12
REMARK SMILES IDX 9 13 7 14 3 15 1 16 2 17 85 19 86 20 91 21 87 22 90 23 88 24
REMARK SMILES IDX 89 25 8 26 19 28 20 29 21 30 22 31 23 32 24 33 25 34 26 35
REMARK SMILES IDX 84 36 27 37 83 38 28 39 29 40 30 41 77 42 31 43 82 44 76 45
REMARK SMILES IDX 78 46 32 47 81 48 75 49 74 50 33 52 63 53 44 54 62 55 45 56
REMARK SMILES IDX 48 57 61 58 79 59 46 60 47 61 60 63 80 64 49 65 34 66 35 67
REMARK SMILES IDX 43 68 36 69 42 70 37 71 38 72 39 73 40 74 41 75 64 76 65 77
REMARK SMILES IDX 73 78 66 79 72 80 67 81 68 82 69 83 70 84 71 85 50 86 51 87
REMARK SMILES IDX 59 88 52 89 58 90 53 91 54 92 55 93 56 94 57 95
REMARK H PARENT 3 18 8 27 78 51 48 62
REMARK Flexibility Score: inf
ROOT
ATOM      1  C   UNL A   1      38.233  22.141  25.585  1.00  0.00     0.188 C 
ENDROOT
BRANCH   1   2
ATOM      2  C   UNL A   1      36.975  21.288  25.339  1.00  0.00     0.188 C 
BRANCH   2   3
ATOM      3  O   UNL A   1      35.805  21.563  26.103  1.00  0.00    -0.376 OA
BRANCH   3   4
ATOM      4  C   UNL A   1      35.189  22.844  25.987  1.00  0.00     0.202 C 
BRANCH   4   5
ATOM      5  C   UNL A   1      34.841  23.354  24.585  1.00  0.00     0.261 C 
BRANCH   5   6
ATOM      6  O   UNL A   1      35.095  24.765  24.443  1.00  0.00    -0.460 OA
BRANCH   6   7
ATOM      7  C   UNL A   1      34.109  25.571  24.904  1.00  0.00     0.340 C 
ATOM      8  O   UNL A   1      34.105  26.162  25.973  1.00  0.00    -0.246 OA
BRANCH   7   9
ATOM      9  C   UNL A   1      33.062  25.781  23.876  1.00  0.00     0.087 A 
ATOM     10  C   UNL A   1      31.675  25.827  24.127  1.00  0.00     0.056 A 
ATOM     11  C   UNL A   1      30.837  26.201  23.065  1.00  0.00     0.031 A 
ATOM     12  C   UNL A   1      31.322  26.335  21.761  1.00  0.00     0.048 A 
ATOM     13  C   UNL A   1      33.548  25.919  22.564  1.00  0.00     0.064 A 
ATOM     14  C   UNL A   1      32.670  26.149  21.516  1.00  0.00     0.116 A 
BRANCH  10  15
ATOM     15  N   UNL A   1      31.161  25.504  25.406  1.00  0.00    -0.321 N 
ATOM     16  O   UNL A   1      30.186  24.277  27.043  1.00  0.00    -0.269 OA
ATOM     17  C   UNL A   1      30.831  24.300  25.996  1.00  0.00     0.257 C 
ATOM     18  H   UNL A   1      31.010  26.286  25.985  1.00  0.00     0.170 HD
BRANCH  17  19
ATOM     19  C   UNL A   1      31.263  23.010  25.430  1.00  0.00     0.058 A 
ATOM     20  C   UNL A   1      31.288  22.831  24.046  1.00  0.00     0.018 A 
ATOM     21  C   UNL A   1      31.650  21.949  26.237  1.00  0.00     0.126 A 
ATOM     22  C   UNL A   1      31.778  21.633  23.524  1.00  0.00     0.037 A 
ATOM     23  N   UNL A   1      32.146  20.783  25.753  1.00  0.00    -0.249 NA
ATOM     24  C   UNL A   1      32.207  20.653  24.410  1.00  0.00     0.106 A 
ATOM     25  Br  UNL A   1      32.950  19.054  23.712  1.00  0.00    -0.029 Br
ENDBRANCH  17  19
ENDBRANCH  10  15
BRANCH  14  26
ATOM     26  O   UNL A   1      33.180  26.196  20.256  1.00  0.00    -0.508 OA
ATOM     27  H   UNL A   1      33.670  25.471  19.922  1.00  0.00     0.293 HD
ENDBRANCH  14  26
ENDBRANCH   7   9
ENDBRANCH   6   7
ENDBRANCH   5   6
ENDBRANCH   4   5
ENDBRANCH   3   4
ENDBRANCH   2   3
ENDBRANCH   1   2
BRANCH   1  28
ATOM     28  O   UNL A   1      39.310  21.487  26.209  1.00  0.00    -0.376 OA
BRANCH  28  29
ATOM     29  C   UNL A   1      40.516  22.176  26.495  1.00  0.00     0.202 C 
BRANCH  29  30
ATOM     30  C   UNL A   1      40.671  23.386  27.438  1.00  0.00     0.261 C 
BRANCH  30  31
ATOM     31  O   UNL A   1      39.813  24.510  27.253  1.00  0.00    -0.460 OA
BRANCH  31  32
ATOM     32  C   UNL A   1      40.411  25.667  26.883  1.00  0.00     0.338 C 
ATOM     33  O   UNL A   1      40.874  25.939  25.791  1.00  0.00    -0.246 OA
BRANCH  32  34
ATOM     34  C   UNL A   1      40.237  26.629  27.989  1.00  0.00     0.060 A 
ATOM     35  C   UNL A   1      40.942  27.838  27.947  1.00  0.00     0.016 A 
ATOM     36  C   UNL A   1      39.384  26.338  29.057  1.00  0.00     0.016 A 
ATOM     37  C   UNL A   1      40.814  28.753  28.992  1.00  0.00     0.010 A 
ATOM     38  C   UNL A   1      39.274  27.246  30.112  1.00  0.00     0.010 A 
ATOM     39  C   UNL A   1      40.008  28.445  30.097  1.00  0.00    -0.014 A 
BRANCH  39  40
ATOM     40  C   UNL A   1      40.059  29.295  31.310  1.00  0.00     0.031 A 
ATOM     41  C   UNL A   1      41.165  29.062  32.303  1.00  0.00     0.074 A 
ATOM     42  C   UNL A   1      39.142  30.255  31.528  1.00  0.00     0.049 A 
ATOM     43  N   UNL A   1      41.395  29.660  33.443  1.00  0.00    -0.248 NA
ATOM     44  C   UNL A   1      42.145  28.015  31.962  1.00  0.00     0.031 C 
ATOM     45  C   UNL A   1      38.046  30.602  30.625  1.00  0.00     0.029 A 
ATOM     46  N   UNL A   1      38.990  31.111  32.589  1.00  0.00    -0.354 N 
ATOM     47  C   UNL A   1      42.536  29.059  33.960  1.00  0.00     0.074 A 
ATOM     48  C   UNL A   1      42.944  28.038  33.020  1.00  0.00     0.031 C 
ATOM     49  C   UNL A   1      37.326  31.597  31.178  1.00  0.00     0.029 A 
ATOM     50  C   UNL A   1      37.894  31.933  32.482  1.00  0.00     0.049 A 
ATOM     51  H   UNL A   1      39.607  31.134  33.356  1.00  0.00     0.167 HD
ATOM     52  C   UNL A   1      43.188  29.333  35.114  1.00  0.00     0.031 A 
ATOM     53  C   UNL A   1      37.396  32.839  33.347  1.00  0.00     0.031 A 
ATOM     54  C   UNL A   1      42.774  30.335  36.057  1.00  0.00     0.049 A 
ATOM     55  C   UNL A   1      38.097  33.071  34.662  1.00  0.00     0.074 A 
ATOM     56  C   UNL A   1      43.385  30.703  37.243  1.00  0.00     0.029 A 
ATOM     57  N   UNL A   1      41.639  31.120  35.929  1.00  0.00    -0.354 N 
ATOM     58  N   UNL A   1      39.201  32.525  35.117  1.00  0.00    -0.248 NA
ATOM     59  C   UNL A   1      37.487  34.047  35.578  1.00  0.00     0.031 C 
ATOM     60  C   UNL A   1      42.590  31.676  37.859  1.00  0.00     0.029 A 
ATOM     61  C   UNL A   1      41.513  31.951  37.030  1.00  0.00     0.049 A 
ATOM     62  H   UNL A   1      41.014  31.091  35.169  1.00  0.00     0.167 HD
ATOM     63  C   UNL A   1      39.432  33.114  36.356  1.00  0.00     0.074 A 
ATOM     64  C   UNL A   1      38.359  34.062  36.577  1.00  0.00     0.031 C 
ATOM     65  C   UNL A   1      40.443  32.893  37.232  1.00  0.00     0.031 A 
BRANCH  52  66
ATOM     66  C   UNL A   1      44.400  28.504  35.438  1.00  0.00    -0.014 A 
ATOM     67  C   UNL A   1      44.286  27.296  36.150  1.00  0.00     0.010 A 
ATOM     68  C   UNL A   1      45.665  28.921  34.990  1.00  0.00     0.010 A 
ATOM     69  C   UNL A   1      45.424  26.538  36.438  1.00  0.00     0.020 A 
ATOM     70  C   UNL A   1      46.802  28.154  35.256  1.00  0.00     0.020 A 
ATOM     71  C   UNL A   1      46.675  26.973  35.992  1.00  0.00     0.054 A 
BRANCH  71  72
ATOM     72  S   UNL A   1      48.133  25.957  36.357  1.00  0.00     0.124 S 
ATOM     73  O   UNL A   1      49.052  26.358  35.295  1.00  0.00    -0.237 OA
ATOM     74  O   UNL A   1      48.499  26.391  37.703  1.00  0.00    -0.237 OA
ATOM     75  O   UNL A   1      47.633  24.588  36.262  1.00  0.00    -0.744 OA
ENDBRANCH  71  72
ENDBRANCH  52  66
BRANCH  53  76
ATOM     76  C   UNL A   1      36.155  33.591  33.015  1.00  0.00    -0.014 A 
ATOM     77  C   UNL A   1      36.225  34.908  32.531  1.00  0.00     0.010 A 
ATOM     78  C   UNL A   1      34.893  32.998  33.206  1.00  0.00     0.010 A 
ATOM     79  C   UNL A   1      35.056  35.629  32.268  1.00  0.00     0.020 A 
ATOM     80  C   UNL A   1      33.723  33.707  32.920  1.00  0.00     0.020 A 
ATOM     81  C   UNL A   1      33.811  35.024  32.467  1.00  0.00     0.054 A 
BRANCH  81  82
ATOM     82  S   UNL A   1      32.306  35.966  32.092  1.00  0.00     0.124 S 
ATOM     83  O   UNL A   1      32.253  35.883  30.636  1.00  0.00    -0.237 OA
ATOM     84  O   UNL A   1      31.275  35.216  32.807  1.00  0.00    -0.237 OA
ATOM     85  O   UNL A   1      32.590  37.292  32.636  1.00  0.00    -0.744 OA
ENDBRANCH  81  82
ENDBRANCH  53  76
BRANCH  65  86
ATOM     86  C   UNL A   1      40.468  33.717  38.491  1.00  0.00    -0.014 A 
ATOM     87  C   UNL A   1      39.874  33.255  39.679  1.00  0.00     0.010 A 
ATOM     88  C   UNL A   1      41.152  34.947  38.500  1.00  0.00     0.010 A 
ATOM     89  C   UNL A   1      39.941  34.020  40.846  1.00  0.00     0.020 A 
ATOM     90  C   UNL A   1      41.242  35.703  39.671  1.00  0.00     0.020 A 
ATOM     91  C   UNL A   1      40.624  35.242  40.834  1.00  0.00     0.054 A 
BRANCH  91  92
ATOM     92  S   UNL A   1      40.740  36.197  42.373  1.00  0.00     0.124 S 
ATOM     93  O   UNL A   1      39.338  36.497  42.650  1.00  0.00    -0.237 OA
ATOM     94  O   UNL A   1      41.373  35.253  43.291  1.00  0.00    -0.237 OA
ATOM     95  O   UNL A   1      41.564  37.346  42.005  1.00  0.00    -0.744 OA
ENDBRANCH  91  92
ENDBRANCH  65  86
ENDBRANCH  39  40
ENDBRANCH  32  34
ENDBRANCH  31  32
ENDBRANCH  30  31
ENDBRANCH  29  30
ENDBRANCH  28  29
ENDBRANCH   1  28
TORSDOF 23
ENDMDL
