MODEL 1
REMARK VINA RESULT:      -9.2      0.000      0.000
REMARK SMILES O=C(OCCOCCOCCOC(=O)c1ccc(-c2c3nc(c(-c4ccc(S(=O)(=O)[O-])cc4)c4ccc([nH]4)c(-c4ccc(S(=O)(=O)[O-])cc4)c4nc(c(-c5ccc(S(=O)(=O)[O-])cc5)c5ccc2[nH]5)C=C4)C=C3)cc1)C1=C[C@H]2C(=N1)C=CC(Cl)=C2Cl
REMARK SMILES IDX 9 1 8 2 7 3 6 4 5 5 4 6 3 7 2 8 1 9 75 10 76 11 79 12 77 13
REMARK SMILES IDX 78 14 84 15 80 16 82 17 85 18 81 19 83 20 10 21 11 22 12 23
REMARK SMILES IDX 13 24 14 25 15 26 16 27 74 28 17 29 73 30 18 31 19 32 20 33
REMARK SMILES IDX 67 34 21 35 72 36 66 37 68 38 22 39 71 40 65 41 64 42 23 44
REMARK SMILES IDX 53 45 34 46 52 47 35 48 38 49 51 50 69 51 36 52 37 53 50 55
REMARK SMILES IDX 70 56 39 57 24 58 25 59 33 60 26 61 32 62 27 63 28 64 29 65
REMARK SMILES IDX 30 66 31 67 54 68 55 69 63 70 56 71 62 72 57 73 58 74 59 75
REMARK SMILES IDX 60 76 61 77 40 78 41 79 49 80 42 81 48 82 43 83 44 84 45 85
REMARK SMILES IDX 46 86 47 87
REMARK H PARENT 68 43 38 54
REMARK Flexibility Score: inf
ROOT
ATOM      1  O   UNL A   1      32.216  26.985  26.332  1.00  0.00    -0.376 OA
ENDROOT
BRANCH   1   2
ATOM      2  C   UNL A   1      31.040  27.426  25.658  1.00  0.00     0.188 C 
BRANCH   2   3
ATOM      3  C   UNL A   1      30.447  26.615  24.490  1.00  0.00     0.188 C 
BRANCH   3   4
ATOM      4  O   UNL A   1      31.445  26.128  23.613  1.00  0.00    -0.376 OA
BRANCH   4   5
ATOM      5  C   UNL A   1      31.408  24.770  23.231  1.00  0.00     0.202 C 
BRANCH   5   6
ATOM      6  C   UNL A   1      32.080  23.797  24.204  1.00  0.00     0.261 C 
BRANCH   6   7
ATOM      7  O   UNL A   1      31.314  23.399  25.356  1.00  0.00    -0.459 OA
BRANCH   7   8
ATOM      8  C   UNL A   1      31.827  22.895  26.501  1.00  0.00     0.356 C 
ATOM      9  O   UNL A   1      31.191  22.982  27.549  1.00  0.00    -0.244 OA
BRANCH   8  10
ATOM     10  C   UNL A   1      33.229  22.386  26.505  1.00  0.00     0.145 C 
ATOM     11  C   UNL A   1      34.228  23.211  26.844  1.00  0.00     0.024 C 
ATOM     12  N   UNL A   1      33.666  21.211  25.936  1.00  0.00    -0.245 NA
ATOM     13  C   UNL A   1      35.526  22.566  26.536  1.00  0.00     0.107 C 
ATOM     14  C   UNL A   1      34.953  21.336  25.854  1.00  0.00     0.054 C 
ATOM     15  C   UNL A   1      36.457  23.193  25.538  1.00  0.00     0.050 C 
ATOM     16  C   UNL A   1      35.864  20.439  25.103  1.00  0.00     0.026 C 
ATOM     17  C   UNL A   1      37.431  22.347  25.135  1.00  0.00     0.056 C 
ATOM     18  Cl  UNL A   1      35.670  24.145  24.286  1.00  0.00    -0.086 Cl
ATOM     19  C   UNL A   1      37.055  20.972  24.777  1.00  0.00     0.023 C 
ATOM     20  Cl  UNL A   1      38.839  22.353  26.174  1.00  0.00    -0.083 Cl
ENDBRANCH   8  10
ENDBRANCH   7   8
ENDBRANCH   6   7
ENDBRANCH   5   6
ENDBRANCH   4   5
ENDBRANCH   3   4
ENDBRANCH   2   3
ENDBRANCH   1   2
BRANCH   1  21
ATOM     21  C   UNL A   1      33.290  27.888  26.545  1.00  0.00     0.202 C 
BRANCH  21  22
ATOM     22  C   UNL A   1      33.033  29.184  27.335  1.00  0.00     0.261 C 
BRANCH  22  23
ATOM     23  O   UNL A   1      33.855  30.322  27.005  1.00  0.00    -0.460 OA
BRANCH  23  24
ATOM     24  C   UNL A   1      34.545  30.871  28.034  1.00  0.00     0.338 C 
ATOM     25  O   UNL A   1      34.147  31.749  28.795  1.00  0.00    -0.246 OA
BRANCH  24  26
ATOM     26  C   UNL A   1      35.850  30.196  28.232  1.00  0.00     0.060 A 
ATOM     27  C   UNL A   1      36.226  29.826  29.532  1.00  0.00     0.016 A 
ATOM     28  C   UNL A   1      36.749  30.024  27.179  1.00  0.00     0.016 A 
ATOM     29  C   UNL A   1      37.508  29.318  29.789  1.00  0.00     0.010 A 
ATOM     30  C   UNL A   1      38.039  29.530  27.442  1.00  0.00     0.010 A 
ATOM     31  C   UNL A   1      38.443  29.200  28.753  1.00  0.00    -0.014 A 
BRANCH  31  32
ATOM     32  C   UNL A   1      39.873  28.872  29.028  1.00  0.00     0.031 A 
ATOM     33  C   UNL A   1      40.823  29.970  29.426  1.00  0.00     0.074 A 
ATOM     34  C   UNL A   1      40.362  27.620  28.941  1.00  0.00     0.049 A 
ATOM     35  N   UNL A   1      42.118  29.913  29.602  1.00  0.00    -0.248 NA
ATOM     36  C   UNL A   1      40.232  31.290  29.696  1.00  0.00     0.031 C 
ATOM     37  C   UNL A   1      39.568  26.416  28.737  1.00  0.00     0.029 A 
ATOM     38  N   UNL A   1      41.659  27.156  28.996  1.00  0.00    -0.354 N 
ATOM     39  C   UNL A   1      42.498  31.176  30.032  1.00  0.00     0.074 A 
ATOM     40  C   UNL A   1      41.303  31.995  30.038  1.00  0.00     0.031 C 
ATOM     41  C   UNL A   1      40.399  25.366  28.618  1.00  0.00     0.029 A 
ATOM     42  C   UNL A   1      41.776  25.826  28.662  1.00  0.00     0.049 A 
ATOM     43  H   UNL A   1      42.426  27.719  29.249  1.00  0.00     0.167 HD
ATOM     44  C   UNL A   1      43.724  31.607  30.413  1.00  0.00     0.031 A 
ATOM     45  C   UNL A   1      42.847  25.063  28.368  1.00  0.00     0.031 A 
ATOM     46  C   UNL A   1      44.921  30.806  30.391  1.00  0.00     0.049 A 
ATOM     47  C   UNL A   1      44.222  25.627  28.548  1.00  0.00     0.074 A 
ATOM     48  C   UNL A   1      46.197  31.161  30.795  1.00  0.00     0.029 A 
ATOM     49  N   UNL A   1      45.002  29.506  29.919  1.00  0.00    -0.354 N 
ATOM     50  N   UNL A   1      44.562  26.817  28.975  1.00  0.00    -0.248 NA
ATOM     51  C   UNL A   1      45.354  24.736  28.257  1.00  0.00     0.031 C 
ATOM     52  C   UNL A   1      47.064  30.106  30.492  1.00  0.00     0.029 A 
ATOM     53  C   UNL A   1      46.317  29.066  29.966  1.00  0.00     0.049 A 
ATOM     54  H   UNL A   1      44.239  28.972  29.599  1.00  0.00     0.167 HD
ATOM     55  C   UNL A   1      45.946  26.795  29.071  1.00  0.00     0.074 A 
ATOM     56  C   UNL A   1      46.382  25.486  28.632  1.00  0.00     0.031 C 
ATOM     57  C   UNL A   1      46.768  27.772  29.522  1.00  0.00     0.031 A 
BRANCH  44  58
ATOM     58  C   UNL A   1      43.843  33.038  30.859  1.00  0.00    -0.014 A 
ATOM     59  C   UNL A   1      43.581  33.414  32.189  1.00  0.00     0.010 A 
ATOM     60  C   UNL A   1      44.272  34.013  29.941  1.00  0.00     0.010 A 
ATOM     61  C   UNL A   1      43.712  34.747  32.583  1.00  0.00     0.020 A 
ATOM     62  C   UNL A   1      44.431  35.342  30.338  1.00  0.00     0.020 A 
ATOM     63  C   UNL A   1      44.135  35.703  31.654  1.00  0.00     0.054 A 
BRANCH  63  64
ATOM     64  S   UNL A   1      44.321  37.422  32.198  1.00  0.00     0.124 S 
ATOM     65  O   UNL A   1      45.769  37.534  32.353  1.00  0.00    -0.237 OA
ATOM     66  O   UNL A   1      43.749  38.174  31.085  1.00  0.00    -0.237 OA
ATOM     67  O   UNL A   1      43.557  37.478  33.442  1.00  0.00    -0.744 OA
ENDBRANCH  63  64
ENDBRANCH  44  58
BRANCH  45  68
ATOM     68  C   UNL A   1      42.678  23.702  27.791  1.00  0.00    -0.014 A 
ATOM     69  C   UNL A   1      42.532  22.568  28.606  1.00  0.00     0.010 A 
ATOM     70  C   UNL A   1      42.724  23.539  26.392  1.00  0.00     0.010 A 
ATOM     71  C   UNL A   1      42.429  21.293  28.034  1.00  0.00     0.020 A 
ATOM     72  C   UNL A   1      42.624  22.267  25.819  1.00  0.00     0.020 A 
ATOM     73  C   UNL A   1      42.470  21.152  26.643  1.00  0.00     0.054 A 
BRANCH  73  74
ATOM     74  S   UNL A   1      42.215  19.507  25.915  1.00  0.00     0.124 S 
ATOM     75  O   UNL A   1      40.779  19.509  25.657  1.00  0.00    -0.237 OA
ATOM     76  O   UNL A   1      43.072  19.547  24.732  1.00  0.00    -0.237 OA
ATOM     77  O   UNL A   1      42.662  18.594  26.965  1.00  0.00    -0.744 OA
ENDBRANCH  73  74
ENDBRANCH  45  68
BRANCH  57  78
ATOM     78  C   UNL A   1      48.233  27.453  29.616  1.00  0.00    -0.014 A 
ATOM     79  C   UNL A   1      49.147  27.910  28.651  1.00  0.00     0.010 A 
ATOM     80  C   UNL A   1      48.709  26.724  30.722  1.00  0.00     0.010 A 
ATOM     81  C   UNL A   1      50.510  27.629  28.783  1.00  0.00     0.020 A 
ATOM     82  C   UNL A   1      50.073  26.467  30.873  1.00  0.00     0.020 A 
ATOM     83  C   UNL A   1      50.965  26.916  29.898  1.00  0.00     0.054 A 
BRANCH  83  84
ATOM     84  S   UNL A   1      52.746  26.632  30.081  1.00  0.00     0.124 S 
ATOM     85  O   UNL A   1      53.076  25.946  28.834  1.00  0.00    -0.237 OA
ATOM     86  O   UNL A   1      53.273  27.988  30.212  1.00  0.00    -0.237 OA
ATOM     87  O   UNL A   1      52.844  25.812  31.286  1.00  0.00    -0.744 OA
ENDBRANCH  83  84
ENDBRANCH  57  78
ENDBRANCH  31  32
ENDBRANCH  24  26
ENDBRANCH  23  24
ENDBRANCH  22  23
ENDBRANCH  21  22
ENDBRANCH   1  21
TORSDOF 20
ENDMDL
MODEL 2
REMARK VINA RESULT:      -9.0      4.904      9.618
REMARK SMILES O=C(OCCOCCOCCOC(=O)c1ccc(-c2c3nc(c(-c4ccc(S(=O)(=O)[O-])cc4)c4ccc([nH]4)c(-c4ccc(S(=O)(=O)[O-])cc4)c4nc(c(-c5ccc(S(=O)(=O)[O-])cc5)c5ccc2[nH]5)C=C4)C=C3)cc1)C1=C[C@H]2C(=N1)C=CC(Cl)=C2Cl
REMARK SMILES IDX 9 1 8 2 7 3 6 4 5 5 4 6 3 7 2 8 1 9 75 10 76 11 79 12 77 13
REMARK SMILES IDX 78 14 84 15 80 16 82 17 85 18 81 19 83 20 10 21 11 22 12 23
REMARK SMILES IDX 13 24 14 25 15 26 16 27 74 28 17 29 73 30 18 31 19 32 20 33
REMARK SMILES IDX 67 34 21 35 72 36 66 37 68 38 22 39 71 40 65 41 64 42 23 44
REMARK SMILES IDX 53 45 34 46 52 47 35 48 38 49 51 50 69 51 36 52 37 53 50 55
REMARK SMILES IDX 70 56 39 57 24 58 25 59 33 60 26 61 32 62 27 63 28 64 29 65
REMARK SMILES IDX 30 66 31 67 54 68 55 69 63 70 56 71 62 72 57 73 58 74 59 75
REMARK SMILES IDX 60 76 61 77 40 78 41 79 49 80 42 81 48 82 43 83 44 84 45 85
REMARK SMILES IDX 46 86 47 87
REMARK H PARENT 68 43 38 54
REMARK Flexibility Score: inf
ROOT
ATOM      1  O   UNL A   1      32.255  30.355  26.588  1.00  0.00    -0.376 OA
ENDROOT
BRANCH   1   2
ATOM      2  C   UNL A   1      31.804  29.139  27.179  1.00  0.00     0.188 C 
BRANCH   2   3
ATOM      3  C   UNL A   1      31.938  27.799  26.430  1.00  0.00     0.188 C 
BRANCH   3   4
ATOM      4  O   UNL A   1      31.417  27.863  25.116  1.00  0.00    -0.376 OA
BRANCH   4   5
ATOM      5  C   UNL A   1      30.613  26.799  24.654  1.00  0.00     0.202 C 
BRANCH   5   6
ATOM      6  C   UNL A   1      31.177  26.019  23.464  1.00  0.00     0.261 C 
BRANCH   6   7
ATOM      7  O   UNL A   1      30.881  24.612  23.411  1.00  0.00    -0.459 OA
BRANCH   7   8
ATOM      8  C   UNL A   1      31.313  23.687  24.299  1.00  0.00     0.356 C 
ATOM      9  O   UNL A   1      30.712  23.526  25.359  1.00  0.00    -0.244 OA
BRANCH   8  10
ATOM     10  C   UNL A   1      32.608  22.992  24.048  1.00  0.00     0.145 C 
ATOM     11  C   UNL A   1      32.855  21.820  24.650  1.00  0.00     0.024 C 
ATOM     12  N   UNL A   1      33.724  23.544  23.460  1.00  0.00    -0.245 NA
ATOM     13  C   UNL A   1      34.277  21.454  24.451  1.00  0.00     0.107 C 
ATOM     14  C   UNL A   1      34.695  22.741  23.762  1.00  0.00     0.054 C 
ATOM     15  C   UNL A   1      35.187  21.309  25.638  1.00  0.00     0.050 C 
ATOM     16  C   UNL A   1      36.139  23.013  23.560  1.00  0.00     0.026 C 
ATOM     17  C   UNL A   1      36.493  21.286  25.289  1.00  0.00     0.056 C 
ATOM     18  Cl  UNL A   1      34.757  22.298  27.027  1.00  0.00    -0.086 Cl
ATOM     19  C   UNL A   1      36.973  22.284  24.322  1.00  0.00     0.023 C 
ATOM     20  Cl  UNL A   1      37.081  19.690  24.877  1.00  0.00    -0.083 Cl
ENDBRANCH   8  10
ENDBRANCH   7   8
ENDBRANCH   6   7
ENDBRANCH   5   6
ENDBRANCH   4   5
ENDBRANCH   3   4
ENDBRANCH   2   3
ENDBRANCH   1   2
BRANCH   1  21
ATOM     21  C   UNL A   1      31.380  31.469  26.507  1.00  0.00     0.202 C 
BRANCH  21  22
ATOM     22  C   UNL A   1      31.908  32.865  26.885  1.00  0.00     0.261 C 
BRANCH  22  23
ATOM     23  O   UNL A   1      33.161  32.917  27.597  1.00  0.00    -0.460 OA
BRANCH  23  24
ATOM     24  C   UNL A   1      33.337  33.989  28.407  1.00  0.00     0.338 C 
ATOM     25  O   UNL A   1      32.599  34.967  28.494  1.00  0.00    -0.246 OA
BRANCH  24  26
ATOM     26  C   UNL A   1      34.501  33.804  29.305  1.00  0.00     0.060 A 
ATOM     27  C   UNL A   1      35.780  34.119  28.823  1.00  0.00     0.016 A 
ATOM     28  C   UNL A   1      34.364  33.225  30.567  1.00  0.00     0.016 A 
ATOM     29  C   UNL A   1      36.923  33.826  29.581  1.00  0.00     0.010 A 
ATOM     30  C   UNL A   1      35.511  32.918  31.319  1.00  0.00     0.010 A 
ATOM     31  C   UNL A   1      36.804  33.187  30.822  1.00  0.00    -0.014 A 
BRANCH  31  32
ATOM     32  C   UNL A   1      38.001  32.668  31.549  1.00  0.00     0.031 A 
ATOM     33  C   UNL A   1      38.711  31.446  31.031  1.00  0.00     0.074 A 
ATOM     34  C   UNL A   1      38.487  33.253  32.661  1.00  0.00     0.049 A 
ATOM     35  N   UNL A   1      39.697  30.778  31.573  1.00  0.00    -0.248 NA
ATOM     36  C   UNL A   1      38.281  30.936  29.720  1.00  0.00     0.031 C 
ATOM     37  C   UNL A   1      38.040  34.528  33.208  1.00  0.00     0.029 A 
ATOM     38  N   UNL A   1      39.460  32.836  33.544  1.00  0.00    -0.354 N 
ATOM     39  C   UNL A   1      40.029  29.786  30.661  1.00  0.00     0.074 A 
ATOM     40  C   UNL A   1      39.102  29.907  29.554  1.00  0.00     0.031 C 
ATOM     41  C   UNL A   1      38.689  34.752  34.363  1.00  0.00     0.029 A 
ATOM     42  C   UNL A   1      39.535  33.614  34.676  1.00  0.00     0.049 A 
ATOM     43  H   UNL A   1      40.043  32.060  33.381  1.00  0.00     0.167 HD
ATOM     44  C   UNL A   1      41.030  28.876  30.726  1.00  0.00     0.031 A 
ATOM     45  C   UNL A   1      40.160  33.426  35.856  1.00  0.00     0.031 A 
ATOM     46  C   UNL A   1      41.942  28.736  31.831  1.00  0.00     0.049 A 
ATOM     47  C   UNL A   1      41.086  32.262  36.020  1.00  0.00     0.074 A 
ATOM     48  C   UNL A   1      43.008  27.860  31.957  1.00  0.00     0.029 A 
ATOM     49  N   UNL A   1      41.888  29.465  33.008  1.00  0.00    -0.354 N 
ATOM     50  N   UNL A   1      41.402  31.346  35.140  1.00  0.00    -0.248 NA
ATOM     51  C   UNL A   1      41.775  32.131  37.311  1.00  0.00     0.031 C 
ATOM     52  C   UNL A   1      43.545  28.002  33.240  1.00  0.00     0.029 A 
ATOM     53  C   UNL A   1      42.862  29.017  33.888  1.00  0.00     0.049 A 
ATOM     54  H   UNL A   1      41.253  30.195  33.192  1.00  0.00     0.167 HD
ATOM     55  C   UNL A   1      42.381  30.571  35.746  1.00  0.00     0.074 A 
ATOM     56  C   UNL A   1      42.584  31.107  37.075  1.00  0.00     0.031 C 
ATOM     57  C   UNL A   1      43.069  29.531  35.218  1.00  0.00     0.031 A 
BRANCH  44  58
ATOM     58  C   UNL A   1      41.171  27.925  29.571  1.00  0.00    -0.014 A 
ATOM     59  C   UNL A   1      42.180  28.092  28.605  1.00  0.00     0.010 A 
ATOM     60  C   UNL A   1      40.310  26.817  29.480  1.00  0.00     0.010 A 
ATOM     61  C   UNL A   1      42.301  27.186  27.549  1.00  0.00     0.020 A 
ATOM     62  C   UNL A   1      40.445  25.894  28.441  1.00  0.00     0.020 A 
ATOM     63  C   UNL A   1      41.432  26.094  27.473  1.00  0.00     0.054 A 
BRANCH  63  64
ATOM     64  S   UNL A   1      41.626  24.920  26.105  1.00  0.00     0.124 S 
ATOM     65  O   UNL A   1      40.557  23.962  26.377  1.00  0.00    -0.237 OA
ATOM     66  O   UNL A   1      41.428  25.763  24.930  1.00  0.00    -0.237 OA
ATOM     67  O   UNL A   1      42.981  24.404  26.279  1.00  0.00    -0.744 OA
ENDBRANCH  63  64
ENDBRANCH  44  58
BRANCH  45  68
ATOM     68  C   UNL A   1      39.876  34.312  37.018  1.00  0.00    -0.014 A 
ATOM     69  C   UNL A   1      40.532  35.542  37.186  1.00  0.00     0.010 A 
ATOM     70  C   UNL A   1      38.969  33.879  38.005  1.00  0.00     0.010 A 
ATOM     71  C   UNL A   1      40.283  36.328  38.318  1.00  0.00     0.020 A 
ATOM     72  C   UNL A   1      38.721  34.661  39.138  1.00  0.00     0.020 A 
ATOM     73  C   UNL A   1      39.375  35.885  39.284  1.00  0.00     0.054 A 
BRANCH  73  74
ATOM     74  S   UNL A   1      38.975  36.972  40.684  1.00  0.00     0.124 S 
ATOM     75  O   UNL A   1      38.159  36.100  41.522  1.00  0.00    -0.237 OA
ATOM     76  O   UNL A   1      40.295  37.306  41.215  1.00  0.00    -0.237 OA
ATOM     77  O   UNL A   1      38.265  38.087  40.061  1.00  0.00    -0.744 OA
ENDBRANCH  73  74
ENDBRANCH  45  68
BRANCH  57  78
ATOM     78  C   UNL A   1      44.154  28.922  36.060  1.00  0.00    -0.014 A 
ATOM     79  C   UNL A   1      45.451  29.462  36.090  1.00  0.00     0.010 A 
ATOM     80  C   UNL A   1      43.852  27.815  36.876  1.00  0.00     0.010 A 
ATOM     81  C   UNL A   1      46.432  28.896  36.909  1.00  0.00     0.020 A 
ATOM     82  C   UNL A   1      44.820  27.266  37.719  1.00  0.00     0.020 A 
ATOM     83  C   UNL A   1      46.107  27.806  37.724  1.00  0.00     0.054 A 
BRANCH  83  84
ATOM     84  S   UNL A   1      47.378  27.141  38.832  1.00  0.00     0.124 S 
ATOM     85  O   UNL A   1      47.454  25.745  38.407  1.00  0.00    -0.237 OA
ATOM     86  O   UNL A   1      48.543  27.961  38.511  1.00  0.00    -0.237 OA
ATOM     87  O   UNL A   1      46.822  27.355  40.167  1.00  0.00    -0.744 OA
ENDBRANCH  83  84
ENDBRANCH  57  78
ENDBRANCH  31  32
ENDBRANCH  24  26
ENDBRANCH  23  24
ENDBRANCH  22  23
ENDBRANCH  21  22
ENDBRANCH   1  21
TORSDOF 20
ENDMDL
MODEL 3
REMARK VINA RESULT:      -8.9      5.128     10.533
REMARK SMILES O=C(OCCOCCOCCOC(=O)c1ccc(-c2c3nc(c(-c4ccc(S(=O)(=O)[O-])cc4)c4ccc([nH]4)c(-c4ccc(S(=O)(=O)[O-])cc4)c4nc(c(-c5ccc(S(=O)(=O)[O-])cc5)c5ccc2[nH]5)C=C4)C=C3)cc1)C1=C[C@H]2C(=N1)C=CC(Cl)=C2Cl
REMARK SMILES IDX 9 1 8 2 7 3 6 4 5 5 4 6 3 7 2 8 1 9 75 10 76 11 79 12 77 13
REMARK SMILES IDX 78 14 84 15 80 16 82 17 85 18 81 19 83 20 10 21 11 22 12 23
REMARK SMILES IDX 13 24 14 25 15 26 16 27 74 28 17 29 73 30 18 31 19 32 20 33
REMARK SMILES IDX 67 34 21 35 72 36 66 37 68 38 22 39 71 40 65 41 64 42 23 44
REMARK SMILES IDX 53 45 34 46 52 47 35 48 38 49 51 50 69 51 36 52 37 53 50 55
REMARK SMILES IDX 70 56 39 57 24 58 25 59 33 60 26 61 32 62 27 63 28 64 29 65
REMARK SMILES IDX 30 66 31 67 54 68 55 69 63 70 56 71 62 72 57 73 58 74 59 75
REMARK SMILES IDX 60 76 61 77 40 78 41 79 49 80 42 81 48 82 43 83 44 84 45 85
REMARK SMILES IDX 46 86 47 87
REMARK H PARENT 68 43 38 54
REMARK Flexibility Score: inf
ROOT
ATOM      1  O   UNL A   1      39.333  21.885  26.760  1.00  0.00    -0.376 OA
ENDROOT
BRANCH   1   2
ATOM      2  C   UNL A   1      38.278  21.951  25.804  1.00  0.00     0.188 C 
BRANCH   2   3
ATOM      3  C   UNL A   1      37.576  23.287  25.493  1.00  0.00     0.188 C 
BRANCH   3   4
ATOM      4  O   UNL A   1      36.262  23.102  25.002  1.00  0.00    -0.376 OA
BRANCH   4   5
ATOM      5  C   UNL A   1      36.044  23.168  23.609  1.00  0.00     0.202 C 
BRANCH   5   6
ATOM      6  C   UNL A   1      34.598  22.940  23.160  1.00  0.00     0.261 C 
BRANCH   6   7
ATOM      7  O   UNL A   1      33.564  23.462  24.015  1.00  0.00    -0.459 OA
BRANCH   7   8
ATOM      8  C   UNL A   1      32.881  22.752  24.941  1.00  0.00     0.356 C 
ATOM      9  O   UNL A   1      32.612  23.259  26.028  1.00  0.00    -0.244 OA
BRANCH   8  10
ATOM     10  C   UNL A   1      32.609  21.307  24.691  1.00  0.00     0.145 C 
ATOM     11  C   UNL A   1      32.981  20.399  25.602  1.00  0.00     0.024 C 
ATOM     12  N   UNL A   1      32.243  20.749  23.487  1.00  0.00    -0.245 NA
ATOM     13  C   UNL A   1      32.836  19.039  25.030  1.00  0.00     0.107 C 
ATOM     14  C   UNL A   1      32.460  19.479  23.626  1.00  0.00     0.054 C 
ATOM     15  C   UNL A   1      34.043  18.158  24.875  1.00  0.00     0.050 C 
ATOM     16  C   UNL A   1      32.443  18.472  22.537  1.00  0.00     0.026 C 
ATOM     17  C   UNL A   1      33.812  17.100  24.067  1.00  0.00     0.056 C 
ATOM     18  Cl  UNL A   1      35.561  19.015  24.640  1.00  0.00    -0.086 Cl
ATOM     19  C   UNL A   1      33.111  17.335  22.796  1.00  0.00     0.023 C 
ATOM     20  Cl  UNL A   1      33.138  15.716  24.900  1.00  0.00    -0.083 Cl
ENDBRANCH   8  10
ENDBRANCH   7   8
ENDBRANCH   6   7
ENDBRANCH   5   6
ENDBRANCH   4   5
ENDBRANCH   3   4
ENDBRANCH   2   3
ENDBRANCH   1   2
BRANCH   1  21
ATOM     21  C   UNL A   1      40.583  21.317  26.397  1.00  0.00     0.202 C 
BRANCH  21  22
ATOM     22  C   UNL A   1      41.822  22.226  26.316  1.00  0.00     0.261 C 
BRANCH  22  23
ATOM     23  O   UNL A   1      41.586  23.648  26.270  1.00  0.00    -0.460 OA
BRANCH  23  24
ATOM     24  C   UNL A   1      42.628  24.433  26.637  1.00  0.00     0.338 C 
ATOM     25  O   UNL A   1      43.790  24.329  26.254  1.00  0.00    -0.246 OA
BRANCH  24  26
ATOM     26  C   UNL A   1      42.185  25.555  27.498  1.00  0.00     0.060 A 
ATOM     27  C   UNL A   1      42.927  26.745  27.489  1.00  0.00     0.016 A 
ATOM     28  C   UNL A   1      41.121  25.414  28.390  1.00  0.00     0.016 A 
ATOM     29  C   UNL A   1      42.634  27.778  28.391  1.00  0.00     0.010 A 
ATOM     30  C   UNL A   1      40.839  26.444  29.303  1.00  0.00     0.010 A 
ATOM     31  C   UNL A   1      41.611  27.625  29.334  1.00  0.00    -0.014 A 
BRANCH  31  32
ATOM     32  C   UNL A   1      41.418  28.608  30.441  1.00  0.00     0.031 A 
ATOM     33  C   UNL A   1      42.175  28.431  31.731  1.00  0.00     0.074 A 
ATOM     34  C   UNL A   1      40.591  29.666  30.339  1.00  0.00     0.049 A 
ATOM     35  N   UNL A   1      42.068  29.109  32.845  1.00  0.00    -0.248 NA
ATOM     36  C   UNL A   1      43.207  27.384  31.754  1.00  0.00     0.031 C 
ATOM     37  C   UNL A   1      39.912  30.092  29.122  1.00  0.00     0.029 A 
ATOM     38  N   UNL A   1      40.166  30.570  31.289  1.00  0.00    -0.354 N 
ATOM     39  C   UNL A   1      43.037  28.594  33.695  1.00  0.00     0.074 A 
ATOM     40  C   UNL A   1      43.685  27.510  32.985  1.00  0.00     0.031 C 
ATOM     41  C   UNL A   1      39.108  31.128  29.417  1.00  0.00     0.029 A 
ATOM     42  C   UNL A   1      39.156  31.392  30.844  1.00  0.00     0.049 A 
ATOM     43  H   UNL A   1      40.546  30.623  32.195  1.00  0.00     0.167 HD
ATOM     44  C   UNL A   1      43.374  29.004  34.941  1.00  0.00     0.031 A 
ATOM     45  C   UNL A   1      38.321  32.225  31.497  1.00  0.00     0.031 A 
ATOM     46  C   UNL A   1      42.721  30.066  35.662  1.00  0.00     0.049 A 
ATOM     47  C   UNL A   1      38.538  32.490  32.953  1.00  0.00     0.074 A 
ATOM     48  C   UNL A   1      43.028  30.565  36.917  1.00  0.00     0.029 A 
ATOM     49  N   UNL A   1      41.620  30.776  35.212  1.00  0.00    -0.354 N 
ATOM     50  N   UNL A   1      39.471  32.009  33.736  1.00  0.00    -0.248 NA
ATOM     51  C   UNL A   1      37.626  33.441  33.604  1.00  0.00     0.031 C 
ATOM     52  C   UNL A   1      42.063  31.518  37.260  1.00  0.00     0.029 A 
ATOM     53  C   UNL A   1      41.198  31.665  36.190  1.00  0.00     0.049 A 
ATOM     54  H   UNL A   1      41.199  30.667  34.329  1.00  0.00     0.167 HD
ATOM     55  C   UNL A   1      39.302  32.653  34.954  1.00  0.00     0.074 A 
ATOM     56  C   UNL A   1      38.163  33.535  34.813  1.00  0.00     0.031 C 
ATOM     57  C   UNL A   1      40.059  32.540  36.070  1.00  0.00     0.031 A 
BRANCH  44  58
ATOM     58  C   UNL A   1      44.490  28.268  35.629  1.00  0.00    -0.014 A 
ATOM     59  C   UNL A   1      45.829  28.674  35.489  1.00  0.00     0.010 A 
ATOM     60  C   UNL A   1      44.185  27.183  36.470  1.00  0.00     0.010 A 
ATOM     61  C   UNL A   1      46.848  27.985  36.149  1.00  0.00     0.020 A 
ATOM     62  C   UNL A   1      45.198  26.508  37.154  1.00  0.00     0.020 A 
ATOM     63  C   UNL A   1      46.526  26.904  36.977  1.00  0.00     0.054 A 
BRANCH  63  64
ATOM     64  S   UNL A   1      47.865  26.041  37.842  1.00  0.00     0.124 S 
ATOM     65  O   UNL A   1      48.079  24.880  36.981  1.00  0.00    -0.237 OA
ATOM     66  O   UNL A   1      48.938  27.031  37.838  1.00  0.00    -0.237 OA
ATOM     67  O   UNL A   1      47.297  25.745  39.155  1.00  0.00    -0.744 OA
ENDBRANCH  63  64
ENDBRANCH  44  58
BRANCH  45  68
ATOM     68  C   UNL A   1      37.142  32.817  30.806  1.00  0.00    -0.014 A 
ATOM     69  C   UNL A   1      37.276  33.877  29.896  1.00  0.00     0.010 A 
ATOM     70  C   UNL A   1      35.854  32.340  31.119  1.00  0.00     0.010 A 
ATOM     71  C   UNL A   1      36.142  34.448  29.304  1.00  0.00     0.020 A 
ATOM     72  C   UNL A   1      34.720  32.911  30.532  1.00  0.00     0.020 A 
ATOM     73  C   UNL A   1      34.872  33.958  29.622  1.00  0.00     0.054 A 
BRANCH  73  74
ATOM     74  S   UNL A   1      33.424  34.630  28.755  1.00  0.00     0.124 S 
ATOM     75  O   UNL A   1      33.061  33.529  27.869  1.00  0.00    -0.237 OA
ATOM     76  O   UNL A   1      32.492  34.895  29.850  1.00  0.00    -0.237 OA
ATOM     77  O   UNL A   1      33.944  35.824  28.090  1.00  0.00    -0.744 OA
ENDBRANCH  73  74
ENDBRANCH  45  68
BRANCH  57  78
ATOM     78  C   UNL A   1      39.716  33.431  37.231  1.00  0.00    -0.014 A 
ATOM     79  C   UNL A   1      38.704  33.089  38.144  1.00  0.00     0.010 A 
ATOM     80  C   UNL A   1      40.458  34.609  37.436  1.00  0.00     0.010 A 
ATOM     81  C   UNL A   1      38.430  33.920  39.235  1.00  0.00     0.020 A 
ATOM     82  C   UNL A   1      40.209  35.425  38.542  1.00  0.00     0.020 A 
ATOM     83  C   UNL A   1      39.190  35.078  39.430  1.00  0.00     0.054 A 
BRANCH  83  84
ATOM     84  S   UNL A   1      38.863  36.095  40.895  1.00  0.00     0.124 S 
ATOM     85  O   UNL A   1      37.752  35.383  41.520  1.00  0.00    -0.237 OA
ATOM     86  O   UNL A   1      40.133  36.037  41.614  1.00  0.00    -0.237 OA
ATOM     87  O   UNL A   1      38.528  37.405  40.340  1.00  0.00    -0.744 OA
ENDBRANCH  83  84
ENDBRANCH  57  78
ENDBRANCH  31  32
ENDBRANCH  24  26
ENDBRANCH  23  24
ENDBRANCH  22  23
ENDBRANCH  21  22
ENDBRANCH   1  21
TORSDOF 20
ENDMDL
