MODEL 1
REMARK VINA RESULT:      -9.0      0.000      0.000
REMARK SMILES CC[C@@]1(C(=O)OCCOCCOCCOC(=O)c2ccc(-c3c4nc(c(-c5ccc(S(=O)(=O)[O-])cc5)c5ccc([nH]5)c(-c5ccc(S(=O)(=O)[O-])cc5)c5nc(c(-c6ccc(S(=O)(=O)[O-])cc6)c6ccc3[nH]6)C=C5)C=C4)cc2)CCC[N@@H+](Cc2cc(OC)ccc2F)C1
REMARK SMILES IDX 10 1 9 2 8 3 7 4 6 5 4 6 5 7 3 8 78 9 92 10 79 11 81 12
REMARK SMILES IDX 80 13 2 15 1 16 82 17 83 18 84 19 90 20 85 21 89 22 91 23
REMARK SMILES IDX 88 24 86 25 87 26 11 27 12 28 13 29 14 30 15 31 16 32 17 33
REMARK SMILES IDX 18 34 19 35 77 36 20 37 76 38 21 39 22 40 23 41 70 42 24 43
REMARK SMILES IDX 75 44 69 45 71 46 25 47 74 48 68 49 67 50 26 52 56 53 37 54
REMARK SMILES IDX 55 55 38 56 41 57 54 58 72 59 39 60 40 61 53 63 73 64 42 65
REMARK SMILES IDX 27 66 28 67 36 68 29 69 35 70 30 71 31 72 32 73 33 74 34 75
REMARK SMILES IDX 57 76 58 77 66 78 59 79 65 80 60 81 61 82 62 83 63 84 64 85
REMARK SMILES IDX 43 86 44 87 52 88 45 89 51 90 46 91 47 92 48 93 49 94 50 95
REMARK H PARENT 81 14 71 51 41 62
REMARK Flexibility Score: inf
ROOT
ATOM      1  C   UNL A   1      39.552  21.762  26.141  1.00  0.00     0.188 C 
ENDROOT
BRANCH   1   2
ATOM      2  O   UNL A   1      39.522  23.031  26.754  1.00  0.00    -0.376 OA
BRANCH   2   3
ATOM      3  C   UNL A   1      38.381  23.849  26.591  1.00  0.00     0.202 C 
BRANCH   3   4
ATOM      4  C   UNL A   1      37.343  23.625  25.448  1.00  0.00     0.261 C 
BRANCH   4   5
ATOM      5  O   UNL A   1      35.981  23.449  25.877  1.00  0.00    -0.463 OA
BRANCH   5   6
ATOM      6  C   UNL A   1      34.901  23.862  25.087  1.00  0.00     0.317 C 
ATOM      7  O   UNL A   1      34.769  24.969  24.617  1.00  0.00    -0.251 OA
BRANCH   6   8
ATOM      8  C   UNL A   1      33.908  22.652  25.043  1.00  0.00     0.117 C 
ATOM      9  C   UNL A   1      32.760  22.161  24.085  1.00  0.00     0.030 C 
ATOM     10  C   UNL A   1      33.004  23.137  26.241  1.00  0.00     0.281 C 
ATOM     11  C   UNL A   1      31.655  23.107  23.692  1.00  0.00     0.063 C 
ATOM     12  N   UNL A   1      32.194  24.281  25.719  1.00  0.00    -0.330 N 
ATOM     13  C   UNL A   1      31.093  23.877  24.871  1.00  0.00     0.262 C 
ATOM     14  H   UNL A   1      32.887  24.717  25.112  1.00  0.00     0.348 HD
BRANCH   8  15
ATOM     15  C   UNL A   1      34.898  21.473  24.688  1.00  0.00     0.021 C 
ATOM     16  C   UNL A   1      34.746  19.983  24.889  1.00  0.00     0.005 C 
ENDBRANCH   8  15
BRANCH  12  17
ATOM     17  C   UNL A   1      31.950  25.448  26.558  1.00  0.00     0.302 C 
BRANCH  17  18
ATOM     18  C   UNL A   1      32.008  26.770  25.854  1.00  0.00     0.046 A 
ATOM     19  C   UNL A   1      32.299  26.872  24.485  1.00  0.00     0.059 A 
ATOM     20  C   UNL A   1      31.759  27.941  26.571  1.00  0.00     0.132 A 
ATOM     21  C   UNL A   1      32.285  28.120  23.858  1.00  0.00     0.119 A 
ATOM     22  C   UNL A   1      31.625  29.162  25.933  1.00  0.00     0.043 A 
ATOM     23  F   UNL A   1      31.661  27.903  27.906  1.00  0.00    -0.206 F 
ATOM     24  C   UNL A   1      31.869  29.250  24.567  1.00  0.00     0.049 A 
BRANCH  21  25
ATOM     25  O   UNL A   1      32.695  28.141  22.551  1.00  0.00    -0.497 OA
ATOM     26  C   UNL A   1      34.042  28.575  22.364  1.00  0.00     0.278 C 
ENDBRANCH  21  25
ENDBRANCH  17  18
ENDBRANCH  12  17
ENDBRANCH   6   8
ENDBRANCH   5   6
ENDBRANCH   4   5
ENDBRANCH   3   4
ENDBRANCH   2   3
ENDBRANCH   1   2
BRANCH   1  27
ATOM     27  C   UNL A   1      40.732  20.932  26.669  1.00  0.00     0.188 C 
BRANCH  27  28
ATOM     28  O   UNL A   1      41.051  19.663  26.102  1.00  0.00    -0.376 OA
BRANCH  28  29
ATOM     29  C   UNL A   1      42.157  18.948  26.623  1.00  0.00     0.202 C 
BRANCH  29  30
ATOM     30  C   UNL A   1      43.322  18.654  25.668  1.00  0.00     0.261 C 
BRANCH  30  31
ATOM     31  O   UNL A   1      43.556  19.633  24.639  1.00  0.00    -0.460 OA
BRANCH  31  32
ATOM     32  C   UNL A   1      44.855  19.978  24.430  1.00  0.00     0.338 C 
ATOM     33  O   UNL A   1      45.686  19.347  23.810  1.00  0.00    -0.246 OA
BRANCH  32  34
ATOM     34  C   UNL A   1      45.075  21.365  24.927  1.00  0.00     0.060 A 
ATOM     35  C   UNL A   1      44.902  22.437  24.037  1.00  0.00     0.016 A 
ATOM     36  C   UNL A   1      45.440  21.615  26.251  1.00  0.00     0.016 A 
ATOM     37  C   UNL A   1      45.078  23.756  24.472  1.00  0.00     0.010 A 
ATOM     38  C   UNL A   1      45.653  22.935  26.673  1.00  0.00     0.010 A 
ATOM     39  C   UNL A   1      45.482  24.014  25.788  1.00  0.00    -0.014 A 
BRANCH  39  40
ATOM     40  C   UNL A   1      45.842  25.391  26.217  1.00  0.00     0.031 A 
ATOM     41  C   UNL A   1      44.753  26.315  26.692  1.00  0.00     0.074 A 
ATOM     42  C   UNL A   1      47.113  25.831  26.165  1.00  0.00     0.049 A 
ATOM     43  N   UNL A   1      44.824  27.581  27.014  1.00  0.00    -0.248 NA
ATOM     44  C   UNL A   1      43.408  25.732  26.817  1.00  0.00     0.031 C 
ATOM     45  C   UNL A   1      48.268  25.028  25.773  1.00  0.00     0.029 A 
ATOM     46  N   UNL A   1      47.642  27.072  26.431  1.00  0.00    -0.354 N 
ATOM     47  C   UNL A   1      43.532  27.953  27.366  1.00  0.00     0.074 A 
ATOM     48  C   UNL A   1      42.697  26.781  27.205  1.00  0.00     0.031 C 
ATOM     49  C   UNL A   1      49.370  25.798  25.816  1.00  0.00     0.029 A 
ATOM     50  C   UNL A   1      48.992  27.161  26.184  1.00  0.00     0.049 A 
ATOM     51  H   UNL A   1      47.104  27.825  26.767  1.00  0.00     0.167 HD
ATOM     52  C   UNL A   1      43.080  29.163  27.777  1.00  0.00     0.031 A 
ATOM     53  C   UNL A   1      49.822  28.226  26.210  1.00  0.00     0.031 A 
ATOM     54  C   UNL A   1      43.903  30.337  27.904  1.00  0.00     0.049 A 
ATOM     55  C   UNL A   1      49.274  29.586  26.568  1.00  0.00     0.074 A 
ATOM     56  C   UNL A   1      43.533  31.603  28.322  1.00  0.00     0.029 A 
ATOM     57  N   UNL A   1      45.254  30.399  27.596  1.00  0.00    -0.354 N 
ATOM     58  N   UNL A   1      48.055  29.918  26.926  1.00  0.00    -0.248 NA
ATOM     59  C   UNL A   1      50.212  30.719  26.517  1.00  0.00     0.031 C 
ATOM     60  C   UNL A   1      44.642  32.447  28.196  1.00  0.00     0.029 A 
ATOM     61  C   UNL A   1      45.722  31.690  27.772  1.00  0.00     0.049 A 
ATOM     62  H   UNL A   1      45.800  29.635  27.296  1.00  0.00     0.167 HD
ATOM     63  C   UNL A   1      48.087  31.290  27.161  1.00  0.00     0.074 A 
ATOM     64  C   UNL A   1      49.450  31.722  26.928  1.00  0.00     0.031 C 
ATOM     65  C   UNL A   1      47.077  32.118  27.531  1.00  0.00     0.031 A 
BRANCH  52  66
ATOM     66  C   UNL A   1      41.607  29.292  28.070  1.00  0.00    -0.014 A 
ATOM     67  C   UNL A   1      40.651  29.280  27.039  1.00  0.00     0.010 A 
ATOM     68  C   UNL A   1      41.172  29.381  29.406  1.00  0.00     0.010 A 
ATOM     69  C   UNL A   1      39.289  29.394  27.336  1.00  0.00     0.020 A 
ATOM     70  C   UNL A   1      39.810  29.463  29.709  1.00  0.00     0.020 A 
ATOM     71  C   UNL A   1      38.878  29.485  28.669  1.00  0.00     0.054 A 
BRANCH  71  72
ATOM     72  S   UNL A   1      37.104  29.608  29.024  1.00  0.00     0.124 S 
ATOM     73  O   UNL A   1      36.524  28.824  27.938  1.00  0.00    -0.237 OA
ATOM     74  O   UNL A   1      37.003  29.011  30.354  1.00  0.00    -0.237 OA
ATOM     75  O   UNL A   1      36.836  31.044  28.967  1.00  0.00    -0.744 OA
ENDBRANCH  71  72
ENDBRANCH  52  66
BRANCH  53  76
ATOM     76  C   UNL A   1      51.257  28.068  25.836  1.00  0.00    -0.014 A 
ATOM     77  C   UNL A   1      51.654  28.070  24.487  1.00  0.00     0.010 A 
ATOM     78  C   UNL A   1      52.237  27.894  26.833  1.00  0.00     0.010 A 
ATOM     79  C   UNL A   1      52.998  27.886  24.143  1.00  0.00     0.020 A 
ATOM     80  C   UNL A   1      53.584  27.744  26.494  1.00  0.00     0.020 A 
ATOM     81  C   UNL A   1      53.956  27.731  25.149  1.00  0.00     0.054 A 
BRANCH  81  82
ATOM     82  S   UNL A   1      55.699  27.548  24.679  1.00  0.00     0.124 S 
ATOM     83  O   UNL A   1      55.841  26.098  24.596  1.00  0.00    -0.237 OA
ATOM     84  O   UNL A   1      55.757  28.264  23.407  1.00  0.00    -0.237 OA
ATOM     85  O   UNL A   1      56.418  28.187  25.779  1.00  0.00    -0.744 OA
ENDBRANCH  81  82
ENDBRANCH  53  76
BRANCH  65  86
ATOM     86  C   UNL A   1      47.402  33.579  27.726  1.00  0.00    -0.014 A 
ATOM     87  C   UNL A   1      48.102  34.025  28.861  1.00  0.00     0.010 A 
ATOM     88  C   UNL A   1      47.058  34.510  26.728  1.00  0.00     0.010 A 
ATOM     89  C   UNL A   1      48.430  35.377  29.006  1.00  0.00     0.020 A 
ATOM     90  C   UNL A   1      47.412  35.856  26.853  1.00  0.00     0.020 A 
ATOM     91  C   UNL A   1      48.086  36.284  27.999  1.00  0.00     0.054 A 
BRANCH  91  92
ATOM     92  S   UNL A   1      48.572  38.022  28.188  1.00  0.00     0.124 S 
ATOM     93  O   UNL A   1      48.516  38.505  26.810  1.00  0.00    -0.237 OA
ATOM     94  O   UNL A   1      47.542  38.546  29.080  1.00  0.00    -0.237 OA
ATOM     95  O   UNL A   1      49.912  37.949  28.767  1.00  0.00    -0.744 OA
ENDBRANCH  91  92
ENDBRANCH  65  86
ENDBRANCH  39  40
ENDBRANCH  32  34
ENDBRANCH  31  32
ENDBRANCH  30  31
ENDBRANCH  29  30
ENDBRANCH  28  29
ENDBRANCH  27  28
ENDBRANCH   1  27
TORSDOF 24
ENDMDL
MODEL 2
REMARK VINA RESULT:      -8.6      6.485     11.218
REMARK SMILES CC[C@@]1(C(=O)OCCOCCOCCOC(=O)c2ccc(-c3c4nc(c(-c5ccc(S(=O)(=O)[O-])cc5)c5ccc([nH]5)c(-c5ccc(S(=O)(=O)[O-])cc5)c5nc(c(-c6ccc(S(=O)(=O)[O-])cc6)c6ccc3[nH]6)C=C5)C=C4)cc2)CCC[N@@H+](Cc2cc(OC)ccc2F)C1
REMARK SMILES IDX 10 1 9 2 8 3 7 4 6 5 4 6 5 7 3 8 78 9 92 10 79 11 81 12
REMARK SMILES IDX 80 13 2 15 1 16 82 17 83 18 84 19 90 20 85 21 89 22 91 23
REMARK SMILES IDX 88 24 86 25 87 26 11 27 12 28 13 29 14 30 15 31 16 32 17 33
REMARK SMILES IDX 18 34 19 35 77 36 20 37 76 38 21 39 22 40 23 41 70 42 24 43
REMARK SMILES IDX 75 44 69 45 71 46 25 47 74 48 68 49 67 50 26 52 56 53 37 54
REMARK SMILES IDX 55 55 38 56 41 57 54 58 72 59 39 60 40 61 53 63 73 64 42 65
REMARK SMILES IDX 27 66 28 67 36 68 29 69 35 70 30 71 31 72 32 73 33 74 34 75
REMARK SMILES IDX 57 76 58 77 66 78 59 79 65 80 60 81 61 82 62 83 63 84 64 85
REMARK SMILES IDX 43 86 44 87 52 88 45 89 51 90 46 91 47 92 48 93 49 94 50 95
REMARK H PARENT 81 14 71 51 41 62
REMARK Flexibility Score: inf
ROOT
ATOM      1  C   UNL A   1      38.265  21.603  25.255  1.00  0.00     0.188 C 
ENDROOT
BRANCH   1   2
ATOM      2  O   UNL A   1      37.483  22.400  26.116  1.00  0.00    -0.376 OA
BRANCH   2   3
ATOM      3  C   UNL A   1      36.878  23.574  25.610  1.00  0.00     0.202 C 
BRANCH   3   4
ATOM      4  C   UNL A   1      35.720  24.309  26.351  1.00  0.00     0.261 C 
BRANCH   4   5
ATOM      5  O   UNL A   1      34.699  24.863  25.504  1.00  0.00    -0.463 OA
BRANCH   5   6
ATOM      6  C   UNL A   1      33.342  24.802  25.849  1.00  0.00     0.317 C 
ATOM      7  O   UNL A   1      32.830  23.914  26.493  1.00  0.00    -0.251 OA
BRANCH   6   8
ATOM      8  C   UNL A   1      32.662  26.031  25.156  1.00  0.00     0.117 C 
ATOM      9  C   UNL A   1      31.216  26.652  25.114  1.00  0.00     0.030 C 
ATOM     10  C   UNL A   1      32.691  25.434  23.697  1.00  0.00     0.281 C 
ATOM     11  C   UNL A   1      30.036  25.781  24.771  1.00  0.00     0.063 C 
ATOM     12  N   UNL A   1      31.635  24.374  23.657  1.00  0.00    -0.330 N 
ATOM     13  C   UNL A   1      30.289  24.895  23.567  1.00  0.00     0.262 C 
ATOM     14  H   UNL A   1      31.741  23.994  24.597  1.00  0.00     0.348 HD
BRANCH   8  15
ATOM     15  C   UNL A   1      33.299  27.220  25.979  1.00  0.00     0.021 C 
ATOM     16  C   UNL A   1      32.710  28.057  27.092  1.00  0.00     0.005 C 
ENDBRANCH   8  15
BRANCH  12  17
ATOM     17  C   UNL A   1      31.879  23.125  22.945  1.00  0.00     0.302 C 
BRANCH  17  18
ATOM     18  C   UNL A   1      32.696  22.111  23.686  1.00  0.00     0.046 A 
ATOM     19  C   UNL A   1      32.104  21.094  24.451  1.00  0.00     0.059 A 
ATOM     20  C   UNL A   1      34.088  22.165  23.613  1.00  0.00     0.132 A 
ATOM     21  C   UNL A   1      32.904  20.135  25.078  1.00  0.00     0.119 A 
ATOM     22  C   UNL A   1      34.877  21.152  24.130  1.00  0.00     0.043 A 
ATOM     23  F   UNL A   1      34.691  23.220  23.051  1.00  0.00    -0.206 F 
ATOM     24  C   UNL A   1      34.282  20.120  24.848  1.00  0.00     0.049 A 
BRANCH  21  25
ATOM     25  O   UNL A   1      32.252  19.252  25.898  1.00  0.00    -0.497 OA
ATOM     26  C   UNL A   1      32.627  17.888  25.712  1.00  0.00     0.278 C 
ENDBRANCH  21  25
ENDBRANCH  17  18
ENDBRANCH  12  17
ENDBRANCH   6   8
ENDBRANCH   5   6
ENDBRANCH   4   5
ENDBRANCH   3   4
ENDBRANCH   2   3
ENDBRANCH   1   2
BRANCH   1  27
ATOM     27  C   UNL A   1      39.517  21.088  25.980  1.00  0.00     0.188 C 
BRANCH  27  28
ATOM     28  O   UNL A   1      40.237  21.922  26.885  1.00  0.00    -0.376 OA
BRANCH  28  29
ATOM     29  C   UNL A   1      41.116  22.897  26.353  1.00  0.00     0.202 C 
BRANCH  29  30
ATOM     30  C   UNL A   1      42.542  22.949  26.921  1.00  0.00     0.261 C 
BRANCH  30  31
ATOM     31  O   UNL A   1      43.334  24.085  26.531  1.00  0.00    -0.460 OA
BRANCH  31  32
ATOM     32  C   UNL A   1      42.640  25.191  26.147  1.00  0.00     0.338 C 
ATOM     33  O   UNL A   1      42.080  25.367  25.085  1.00  0.00    -0.246 OA
BRANCH  32  34
ATOM     34  C   UNL A   1      42.508  26.110  27.312  1.00  0.00     0.060 A 
ATOM     35  C   UNL A   1      41.483  25.878  28.243  1.00  0.00     0.016 A 
ATOM     36  C   UNL A   1      43.380  27.185  27.495  1.00  0.00     0.016 A 
ATOM     37  C   UNL A   1      41.339  26.706  29.362  1.00  0.00     0.010 A 
ATOM     38  C   UNL A   1      43.209  28.036  28.596  1.00  0.00     0.010 A 
ATOM     39  C   UNL A   1      42.185  27.809  29.533  1.00  0.00    -0.014 A 
BRANCH  39  40
ATOM     40  C   UNL A   1      41.938  28.796  30.617  1.00  0.00     0.031 A 
ATOM     41  C   UNL A   1      42.806  28.763  31.845  1.00  0.00     0.074 A 
ATOM     42  C   UNL A   1      40.942  29.697  30.529  1.00  0.00     0.049 A 
ATOM     43  N   UNL A   1      42.704  29.457  32.950  1.00  0.00    -0.248 NA
ATOM     44  C   UNL A   1      43.935  27.819  31.825  1.00  0.00     0.031 C 
ATOM     45  C   UNL A   1      40.060  29.871  29.378  1.00  0.00     0.029 A 
ATOM     46  N   UNL A   1      40.496  30.629  31.437  1.00  0.00    -0.354 N 
ATOM     47  C   UNL A   1      43.745  29.026  33.763  1.00  0.00     0.074 A 
ATOM     48  C   UNL A   1      44.457  28.001  33.029  1.00  0.00     0.031 C 
ATOM     49  C   UNL A   1      39.173  30.844  29.650  1.00  0.00     0.029 A 
ATOM     50  C   UNL A   1      39.387  31.325  31.014  1.00  0.00     0.049 A 
ATOM     51  H   UNL A   1      40.930  30.783  32.306  1.00  0.00     0.167 HD
ATOM     52  C   UNL A   1      44.073  29.439  35.011  1.00  0.00     0.031 A 
ATOM     53  C   UNL A   1      38.608  32.215  31.664  1.00  0.00     0.031 A 
ATOM     54  C   UNL A   1      43.345  30.433  35.755  1.00  0.00     0.049 A 
ATOM     55  C   UNL A   1      38.931  32.581  33.092  1.00  0.00     0.074 A 
ATOM     56  C   UNL A   1      43.610  30.921  37.023  1.00  0.00     0.029 A 
ATOM     57  N   UNL A   1      42.199  31.076  35.313  1.00  0.00    -0.354 N 
ATOM     58  N   UNL A   1      39.935  32.186  33.840  1.00  0.00    -0.248 NA
ATOM     59  C   UNL A   1      38.008  33.506  33.769  1.00  0.00     0.031 C 
ATOM     60  C   UNL A   1      42.583  31.804  37.376  1.00  0.00     0.029 A 
ATOM     61  C   UNL A   1      41.720  31.924  36.298  1.00  0.00     0.049 A 
ATOM     62  H   UNL A   1      41.787  30.950  34.427  1.00  0.00     0.167 HD
ATOM     63  C   UNL A   1      39.775  32.830  35.064  1.00  0.00     0.074 A 
ATOM     64  C   UNL A   1      38.592  33.657  34.950  1.00  0.00     0.031 C 
ATOM     65  C   UNL A   1      40.537  32.739  36.183  1.00  0.00     0.031 A 
BRANCH  52  66
ATOM     66  C   UNL A   1      45.250  28.773  35.677  1.00  0.00    -0.014 A 
ATOM     67  C   UNL A   1      46.549  29.299  35.565  1.00  0.00     0.010 A 
ATOM     68  C   UNL A   1      45.042  27.626  36.467  1.00  0.00     0.010 A 
ATOM     69  C   UNL A   1      47.625  28.668  36.198  1.00  0.00     0.020 A 
ATOM     70  C   UNL A   1      46.109  27.011  37.126  1.00  0.00     0.020 A 
ATOM     71  C   UNL A   1      47.398  27.528  36.975  1.00  0.00     0.054 A 
BRANCH  71  72
ATOM     72  S   UNL A   1      48.809  26.745  37.802  1.00  0.00     0.124 S 
ATOM     73  O   UNL A   1      49.891  26.998  36.856  1.00  0.00    -0.237 OA
ATOM     74  O   UNL A   1      48.888  27.482  39.061  1.00  0.00    -0.237 OA
ATOM     75  O   UNL A   1      48.406  25.346  37.928  1.00  0.00    -0.744 OA
ENDBRANCH  71  72
ENDBRANCH  52  66
BRANCH  53  76
ATOM     76  C   UNL A   1      37.406  32.791  30.993  1.00  0.00    -0.014 A 
ATOM     77  C   UNL A   1      37.528  33.872  30.102  1.00  0.00     0.010 A 
ATOM     78  C   UNL A   1      36.125  32.271  31.261  1.00  0.00     0.010 A 
ATOM     79  C   UNL A   1      36.393  34.429  29.503  1.00  0.00     0.020 A 
ATOM     80  C   UNL A   1      34.992  32.804  30.639  1.00  0.00     0.020 A 
ATOM     81  C   UNL A   1      35.132  33.887  29.771  1.00  0.00     0.054 A 
BRANCH  81  82
ATOM     82  S   UNL A   1      33.681  34.593  28.942  1.00  0.00     0.124 S 
ATOM     83  O   UNL A   1      32.769  34.815  30.060  1.00  0.00    -0.237 OA
ATOM     84  O   UNL A   1      34.228  35.798  28.324  1.00  0.00    -0.237 OA
ATOM     85  O   UNL A   1      33.280  33.548  28.004  1.00  0.00    -0.744 OA
ENDBRANCH  81  82
ENDBRANCH  53  76
BRANCH  65  86
ATOM     86  C   UNL A   1      40.131  33.567  37.378  1.00  0.00    -0.014 A 
ATOM     87  C   UNL A   1      40.588  34.888  37.540  1.00  0.00     0.010 A 
ATOM     88  C   UNL A   1      39.228  33.038  38.320  1.00  0.00     0.010 A 
ATOM     89  C   UNL A   1      40.169  35.653  38.633  1.00  0.00     0.020 A 
ATOM     90  C   UNL A   1      38.782  33.811  39.396  1.00  0.00     0.020 A 
ATOM     91  C   UNL A   1      39.266  35.112  39.552  1.00  0.00     0.054 A 
BRANCH  91  92
ATOM     92  S   UNL A   1      38.697  36.147  40.930  1.00  0.00     0.124 S 
ATOM     93  O   UNL A   1      37.582  35.365  41.458  1.00  0.00    -0.237 OA
ATOM     94  O   UNL A   1      39.879  36.216  41.786  1.00  0.00    -0.237 OA
ATOM     95  O   UNL A   1      38.325  37.407  40.289  1.00  0.00    -0.744 OA
ENDBRANCH  91  92
ENDBRANCH  65  86
ENDBRANCH  39  40
ENDBRANCH  32  34
ENDBRANCH  31  32
ENDBRANCH  30  31
ENDBRANCH  29  30
ENDBRANCH  28  29
ENDBRANCH  27  28
ENDBRANCH   1  27
TORSDOF 24
ENDMDL
MODEL 3
REMARK VINA RESULT:      -8.2      5.629     16.248
REMARK SMILES CC[C@@]1(C(=O)OCCOCCOCCOC(=O)c2ccc(-c3c4nc(c(-c5ccc(S(=O)(=O)[O-])cc5)c5ccc([nH]5)c(-c5ccc(S(=O)(=O)[O-])cc5)c5nc(c(-c6ccc(S(=O)(=O)[O-])cc6)c6ccc3[nH]6)C=C5)C=C4)cc2)CCC[N@@H+](Cc2cc(OC)ccc2F)C1
REMARK SMILES IDX 10 1 9 2 8 3 7 4 6 5 4 6 5 7 3 8 78 9 92 10 79 11 81 12
REMARK SMILES IDX 80 13 2 15 1 16 82 17 83 18 84 19 90 20 85 21 89 22 91 23
REMARK SMILES IDX 88 24 86 25 87 26 11 27 12 28 13 29 14 30 15 31 16 32 17 33
REMARK SMILES IDX 18 34 19 35 77 36 20 37 76 38 21 39 22 40 23 41 70 42 24 43
REMARK SMILES IDX 75 44 69 45 71 46 25 47 74 48 68 49 67 50 26 52 56 53 37 54
REMARK SMILES IDX 55 55 38 56 41 57 54 58 72 59 39 60 40 61 53 63 73 64 42 65
REMARK SMILES IDX 27 66 28 67 36 68 29 69 35 70 30 71 31 72 32 73 33 74 34 75
REMARK SMILES IDX 57 76 58 77 66 78 59 79 65 80 60 81 61 82 62 83 63 84 64 85
REMARK SMILES IDX 43 86 44 87 52 88 45 89 51 90 46 91 47 92 48 93 49 94 50 95
REMARK H PARENT 81 14 71 51 41 62
REMARK Flexibility Score: inf
ROOT
ATOM      1  C   UNL A   1      42.481  38.910  27.668  1.00  0.00     0.188 C 
ENDROOT
BRANCH   1   2
ATOM      2  O   UNL A   1      42.110  40.269  27.719  1.00  0.00    -0.376 OA
BRANCH   2   3
ATOM      3  C   UNL A   1      41.977  40.993  26.511  1.00  0.00     0.202 C 
BRANCH   3   4
ATOM      4  C   UNL A   1      43.078  40.995  25.407  1.00  0.00     0.261 C 
BRANCH   4   5
ATOM      5  O   UNL A   1      44.005  42.093  25.462  1.00  0.00    -0.463 OA
BRANCH   5   6
ATOM      6  C   UNL A   1      45.278  42.013  24.883  1.00  0.00     0.317 C 
ATOM      7  O   UNL A   1      45.755  41.013  24.394  1.00  0.00    -0.251 OA
BRANCH   6   8
ATOM      8  C   UNL A   1      45.943  43.413  25.100  1.00  0.00     0.117 C 
ATOM      9  C   UNL A   1      45.452  44.908  25.141  1.00  0.00     0.030 C 
ATOM     10  C   UNL A   1      46.684  43.461  23.708  1.00  0.00     0.281 C 
ATOM     11  C   UNL A   1      44.621  45.456  24.010  1.00  0.00     0.063 C 
ATOM     12  N   UNL A   1      45.628  43.724  22.681  1.00  0.00    -0.330 N 
ATOM     13  C   UNL A   1      45.177  45.098  22.645  1.00  0.00     0.262 C 
ATOM     14  H   UNL A   1      44.865  43.175  23.077  1.00  0.00     0.348 HD
BRANCH   8  15
ATOM     15  C   UNL A   1      46.288  43.339  26.640  1.00  0.00     0.021 C 
ATOM     16  C   UNL A   1      46.980  44.345  27.531  1.00  0.00     0.005 C 
ENDBRANCH   8  15
BRANCH  12  17
ATOM     17  C   UNL A   1      45.673  43.040  21.394  1.00  0.00     0.302 C 
BRANCH  17  18
ATOM     18  C   UNL A   1      44.509  43.301  20.485  1.00  0.00     0.046 A 
ATOM     19  C   UNL A   1      44.661  43.942  19.247  1.00  0.00     0.059 A 
ATOM     20  C   UNL A   1      43.233  42.889  20.870  1.00  0.00     0.132 A 
ATOM     21  C   UNL A   1      43.558  44.112  18.407  1.00  0.00     0.119 A 
ATOM     22  C   UNL A   1      42.162  42.945  19.995  1.00  0.00     0.043 A 
ATOM     23  F   UNL A   1      43.018  42.443  22.115  1.00  0.00    -0.206 F 
ATOM     24  C   UNL A   1      42.329  43.540  18.749  1.00  0.00     0.049 A 
BRANCH  21  25
ATOM     25  O   UNL A   1      43.773  44.851  17.274  1.00  0.00    -0.497 OA
ATOM     26  C   UNL A   1      44.872  45.756  17.362  1.00  0.00     0.278 C 
ENDBRANCH  21  25
ENDBRANCH  17  18
ENDBRANCH  12  17
ENDBRANCH   6   8
ENDBRANCH   5   6
ENDBRANCH   4   5
ENDBRANCH   3   4
ENDBRANCH   2   3
ENDBRANCH   1   2
BRANCH   1  27
ATOM     27  C   UNL A   1      43.481  38.579  28.787  1.00  0.00     0.188 C 
BRANCH  27  28
ATOM     28  O   UNL A   1      44.866  38.394  28.504  1.00  0.00    -0.376 OA
BRANCH  28  29
ATOM     29  C   UNL A   1      45.319  38.597  27.177  1.00  0.00     0.202 C 
BRANCH  29  30
ATOM     30  C   UNL A   1      46.814  38.886  26.977  1.00  0.00     0.261 C 
BRANCH  30  31
ATOM     31  O   UNL A   1      47.647  37.743  26.715  1.00  0.00    -0.460 OA
BRANCH  31  32
ATOM     32  C   UNL A   1      48.215  37.158  27.805  1.00  0.00     0.338 C 
ATOM     33  O   UNL A   1      48.807  37.716  28.705  1.00  0.00    -0.246 OA
BRANCH  32  34
ATOM     34  C   UNL A   1      47.841  35.716  27.832  1.00  0.00     0.060 A 
ATOM     35  C   UNL A   1      47.247  35.150  26.693  1.00  0.00     0.016 A 
ATOM     36  C   UNL A   1      48.074  34.924  28.957  1.00  0.00     0.016 A 
ATOM     37  C   UNL A   1      46.902  33.794  26.670  1.00  0.00     0.010 A 
ATOM     38  C   UNL A   1      47.692  33.575  28.947  1.00  0.00     0.010 A 
ATOM     39  C   UNL A   1      47.097  33.001  27.808  1.00  0.00    -0.014 A 
BRANCH  39  40
ATOM     40  C   UNL A   1      46.579  31.609  27.864  1.00  0.00     0.031 A 
ATOM     41  C   UNL A   1      47.512  30.471  27.555  1.00  0.00     0.074 A 
ATOM     42  C   UNL A   1      45.291  31.353  28.159  1.00  0.00     0.049 A 
ATOM     43  N   UNL A   1      47.251  29.193  27.443  1.00  0.00    -0.248 NA
ATOM     44  C   UNL A   1      48.925  30.821  27.340  1.00  0.00     0.031 C 
ATOM     45  C   UNL A   1      44.294  32.355  28.525  1.00  0.00     0.029 A 
ATOM     46  N   UNL A   1      44.597  30.166  28.183  1.00  0.00    -0.354 N 
ATOM     47  C   UNL A   1      48.463  28.587  27.131  1.00  0.00     0.074 A 
ATOM     48  C   UNL A   1      49.454  29.640  27.059  1.00  0.00     0.031 C 
ATOM     49  C   UNL A   1      43.113  31.744  28.730  1.00  0.00     0.029 A 
ATOM     50  C   UNL A   1      43.257  30.315  28.455  1.00  0.00     0.049 A 
ATOM     51  H   UNL A   1      45.021  29.292  28.020  1.00  0.00     0.167 HD
ATOM     52  C   UNL A   1      48.724  27.275  26.916  1.00  0.00     0.031 A 
ATOM     53  C   UNL A   1      42.253  29.413  28.445  1.00  0.00     0.031 A 
ATOM     54  C   UNL A   1      47.731  26.233  26.954  1.00  0.00     0.049 A 
ATOM     55  C   UNL A   1      42.550  27.974  28.097  1.00  0.00     0.074 A 
ATOM     56  C   UNL A   1      47.906  24.874  26.757  1.00  0.00     0.029 A 
ATOM     57  N   UNL A   1      46.378  26.431  27.183  1.00  0.00    -0.354 N 
ATOM     58  N   UNL A   1      43.705  27.410  27.832  1.00  0.00    -0.248 NA
ATOM     59  C   UNL A   1      41.405  27.052  28.038  1.00  0.00     0.031 C 
ATOM     60  C   UNL A   1      46.649  24.261  26.794  1.00  0.00     0.029 A 
ATOM     61  C   UNL A   1      45.700  25.227  27.089  1.00  0.00     0.049 A 
ATOM     62  H   UNL A   1      45.961  27.300  27.384  1.00  0.00     0.167 HD
ATOM     63  C   UNL A   1      43.427  26.066  27.596  1.00  0.00     0.074 A 
ATOM     64  C   UNL A   1      42.000  25.897  27.772  1.00  0.00     0.031 C 
ATOM     65  C   UNL A   1      44.278  25.064  27.257  1.00  0.00     0.031 A 
BRANCH  52  66
ATOM     66  C   UNL A   1      50.140  26.896  26.565  1.00  0.00    -0.014 A 
ATOM     67  C   UNL A   1      50.472  26.404  25.290  1.00  0.00     0.010 A 
ATOM     68  C   UNL A   1      51.162  27.079  27.514  1.00  0.00     0.010 A 
ATOM     69  C   UNL A   1      51.793  26.066  24.984  1.00  0.00     0.020 A 
ATOM     70  C   UNL A   1      52.489  26.772  27.203  1.00  0.00     0.020 A 
ATOM     71  C   UNL A   1      52.794  26.252  25.943  1.00  0.00     0.054 A 
BRANCH  71  72
ATOM     72  S   UNL A   1      54.503  25.826  25.510  1.00  0.00     0.124 S 
ATOM     73  O   UNL A   1      55.227  27.022  25.930  1.00  0.00    -0.237 OA
ATOM     74  O   UNL A   1      54.745  24.630  26.313  1.00  0.00    -0.237 OA
ATOM     75  O   UNL A   1      54.451  25.605  24.067  1.00  0.00    -0.744 OA
ENDBRANCH  71  72
ENDBRANCH  52  66
BRANCH  53  76
ATOM     76  C   UNL A   1      40.852  29.846  28.721  1.00  0.00    -0.014 A 
ATOM     77  C   UNL A   1      39.812  29.536  27.827  1.00  0.00     0.010 A 
ATOM     78  C   UNL A   1      40.554  30.592  29.878  1.00  0.00     0.010 A 
ATOM     79  C   UNL A   1      38.507  29.975  28.075  1.00  0.00     0.020 A 
ATOM     80  C   UNL A   1      39.246  31.004  30.146  1.00  0.00     0.020 A 
ATOM     81  C   UNL A   1      38.231  30.701  29.237  1.00  0.00     0.054 A 
BRANCH  81  82
ATOM     82  S   UNL A   1      36.522  31.215  29.565  1.00  0.00     0.124 S 
ATOM     83  O   UNL A   1      35.808  30.637  28.430  1.00  0.00    -0.237 OA
ATOM     84  O   UNL A   1      36.253  30.599  30.862  1.00  0.00    -0.237 OA
ATOM     85  O   UNL A   1      36.600  32.673  29.579  1.00  0.00    -0.744 OA
ENDBRANCH  81  82
ENDBRANCH  53  76
BRANCH  65  86
ATOM     86  C   UNL A   1      43.698  23.684  27.070  1.00  0.00    -0.014 A 
ATOM     87  C   UNL A   1      43.489  22.825  28.164  1.00  0.00     0.010 A 
ATOM     88  C   UNL A   1      43.295  23.264  25.787  1.00  0.00     0.010 A 
ATOM     89  C   UNL A   1      42.913  21.564  27.975  1.00  0.00     0.020 A 
ATOM     90  C   UNL A   1      42.689  22.018  25.600  1.00  0.00     0.020 A 
ATOM     91  C   UNL A   1      42.513  21.170  26.695  1.00  0.00     0.054 A 
BRANCH  91  92
ATOM     92  S   UNL A   1      41.718  19.552  26.489  1.00  0.00     0.124 S 
ATOM     93  O   UNL A   1      42.315  19.076  25.244  1.00  0.00    -0.237 OA
ATOM     94  O   UNL A   1      42.129  18.839  27.696  1.00  0.00    -0.237 OA
ATOM     95  O   UNL A   1      40.294  19.870  26.414  1.00  0.00    -0.744 OA
ENDBRANCH  91  92
ENDBRANCH  65  86
ENDBRANCH  39  40
ENDBRANCH  32  34
ENDBRANCH  31  32
ENDBRANCH  30  31
ENDBRANCH  29  30
ENDBRANCH  28  29
ENDBRANCH  27  28
ENDBRANCH   1  27
TORSDOF 24
ENDMDL
