MODEL 1
REMARK VINA RESULT:      -9.3      0.000      0.000
REMARK SMILES CCN(C(=O)NC[C@]1(C)CCCO1)[C@@H](C)CC(=O)OCCOCCOCCOC(=O)c1ccc(-c2c3nc(c(-c4ccc(S(=O)(=O)[O-])cc4)c4ccc([nH]4)c(-c4ccc(S(=O)(=O)[O-])cc4)c4nc(c(-c5ccc(S(=O)(=O)[O-])cc5)c5ccc2[nH]5)C=C4)C=C3)cc1
REMARK SMILES IDX 23 1 22 2 21 3 20 4 19 5 17 6 18 7 16 8 14 9 15 10 3 11 2 12
REMARK SMILES IDX 1 13 4 14 5 15 6 16 7 18 8 19 10 20 13 21 9 22 11 23 12 24
REMARK SMILES IDX 24 25 25 26 26 27 27 28 28 29 29 30 30 31 31 32 32 33 90 34
REMARK SMILES IDX 33 35 89 36 34 37 35 38 36 39 83 40 37 41 88 42 82 43 84 44
REMARK SMILES IDX 38 45 87 46 81 47 80 48 39 50 69 51 50 52 68 53 51 54 54 55
REMARK SMILES IDX 67 56 85 57 52 58 53 59 66 61 86 62 55 63 40 64 41 65 49 66
REMARK SMILES IDX 42 67 48 68 43 69 44 70 45 71 46 72 47 73 70 74 71 75 79 76
REMARK SMILES IDX 72 77 78 78 73 79 74 80 75 81 76 82 77 83 56 84 57 85 65 86
REMARK SMILES IDX 58 87 64 88 59 89 60 90 61 91 62 92 63 93
REMARK H PARENT 6 17 84 49 54 60
REMARK Flexibility Score: inf
ROOT
ATOM      1  C   UNL A   1      37.226  21.374  25.168  1.00  0.00     0.188 C 
ENDROOT
BRANCH   1   2
ATOM      2  O   UNL A   1      36.916  22.333  24.165  1.00  0.00    -0.376 OA
BRANCH   2   3
ATOM      3  C   UNL A   1      35.627  22.931  24.183  1.00  0.00     0.202 C 
BRANCH   3   4
ATOM      4  C   UNL A   1      34.722  22.671  22.973  1.00  0.00     0.261 C 
BRANCH   4   5
ATOM      5  O   UNL A   1      34.207  23.863  22.337  1.00  0.00    -0.463 OA
BRANCH   5   6
ATOM      6  C   UNL A   1      33.263  24.545  23.027  1.00  0.00     0.307 C 
ATOM      7  O   UNL A   1      32.142  24.106  23.270  1.00  0.00    -0.252 OA
BRANCH   6   8
ATOM      8  C   UNL A   1      33.679  25.903  23.560  1.00  0.00     0.147 C 
BRANCH   8   9
ATOM      9  C   UNL A   1      32.940  27.193  23.186  1.00  0.00     0.094 C 
ATOM     10  C   UNL A   1      33.930  28.243  22.646  1.00  0.00     0.032 C 
BRANCH   9  11
ATOM     11  N   UNL A   1      32.051  27.790  24.211  1.00  0.00    -0.322 N 
BRANCH  11  12
ATOM     12  C   UNL A   1      32.618  28.783  25.125  1.00  0.00     0.118 C 
ATOM     13  C   UNL A   1      32.042  28.764  26.527  1.00  0.00     0.027 C 
ENDBRANCH  11  12
BRANCH  11  14
ATOM     14  C   UNL A   1      30.718  27.518  24.052  1.00  0.00     0.317 C 
ATOM     15  O   UNL A   1      30.225  26.437  24.395  1.00  0.00    -0.249 OA
ATOM     16  N   UNL A   1      29.823  28.361  23.532  1.00  0.00    -0.335 N 
ATOM     17  H   UNL A   1      28.918  27.977  23.584  1.00  0.00     0.165 HD
BRANCH  16  18
ATOM     18  C   UNL A   1      29.781  29.674  22.912  1.00  0.00     0.152 C 
BRANCH  18  19
ATOM     19  C   UNL A   1      28.336  30.203  22.641  1.00  0.00     0.083 C 
ATOM     20  C   UNL A   1      28.038  30.612  21.192  1.00  0.00     0.039 C 
ATOM     21  O   UNL A   1      28.116  31.396  23.429  1.00  0.00    -0.373 OA
ATOM     22  C   UNL A   1      27.325  29.153  23.113  1.00  0.00     0.044 C 
ATOM     23  C   UNL A   1      28.383  32.081  21.169  1.00  0.00     0.031 C 
ATOM     24  C   UNL A   1      27.977  32.526  22.553  1.00  0.00     0.161 C 
ENDBRANCH  18  19
ENDBRANCH  16  18
ENDBRANCH  11  14
ENDBRANCH   9  11
ENDBRANCH   8   9
ENDBRANCH   6   8
ENDBRANCH   5   6
ENDBRANCH   4   5
ENDBRANCH   3   4
ENDBRANCH   2   3
ENDBRANCH   1   2
BRANCH   1  25
ATOM     25  C   UNL A   1      38.684  21.205  25.612  1.00  0.00     0.188 C 
BRANCH  25  26
ATOM     26  O   UNL A   1      39.282  22.393  26.101  1.00  0.00    -0.376 OA
BRANCH  26  27
ATOM     27  C   UNL A   1      40.527  22.196  26.761  1.00  0.00     0.202 C 
BRANCH  27  28
ATOM     28  C   UNL A   1      41.005  23.531  27.337  1.00  0.00     0.261 C 
BRANCH  28  29
ATOM     29  O   UNL A   1      40.050  24.598  27.174  1.00  0.00    -0.460 OA
BRANCH  29  30
ATOM     30  C   UNL A   1      40.539  25.791  26.758  1.00  0.00     0.338 C 
ATOM     31  O   UNL A   1      40.885  26.079  25.624  1.00  0.00    -0.246 OA
BRANCH  30  32
ATOM     32  C   UNL A   1      40.361  26.771  27.860  1.00  0.00     0.060 A 
ATOM     33  C   UNL A   1      41.001  28.018  27.778  1.00  0.00     0.016 A 
ATOM     34  C   UNL A   1      39.527  26.485  28.943  1.00  0.00     0.016 A 
ATOM     35  C   UNL A   1      40.841  28.962  28.799  1.00  0.00     0.010 A 
ATOM     36  C   UNL A   1      39.382  27.422  29.970  1.00  0.00     0.010 A 
ATOM     37  C   UNL A   1      40.066  28.651  29.924  1.00  0.00    -0.014 A 
BRANCH  37  38
ATOM     38  C   UNL A   1      40.122  29.494  31.149  1.00  0.00     0.031 A 
ATOM     39  C   UNL A   1      41.253  29.258  32.117  1.00  0.00     0.074 A 
ATOM     40  C   UNL A   1      39.200  30.436  31.418  1.00  0.00     0.049 A 
ATOM     41  N   UNL A   1      41.467  29.790  33.292  1.00  0.00    -0.248 NA
ATOM     42  C   UNL A   1      42.276  28.282  31.702  1.00  0.00     0.031 C 
ATOM     43  C   UNL A   1      38.084  30.809  30.552  1.00  0.00     0.029 A 
ATOM     44  N   UNL A   1      39.057  31.248  32.519  1.00  0.00    -0.354 N 
ATOM     45  C   UNL A   1      42.640  29.208  33.761  1.00  0.00     0.074 A 
ATOM     46  C   UNL A   1      43.073  28.259  32.759  1.00  0.00     0.031 C 
ATOM     47  C   UNL A   1      37.366  31.773  31.158  1.00  0.00     0.029 A 
ATOM     48  C   UNL A   1      37.946  32.058  32.471  1.00  0.00     0.049 A 
ATOM     49  H   UNL A   1      39.691  31.250  33.273  1.00  0.00     0.167 HD
ATOM     50  C   UNL A   1      43.305  29.445  34.917  1.00  0.00     0.031 A 
ATOM     51  C   UNL A   1      37.442  32.911  33.387  1.00  0.00     0.031 A 
ATOM     52  C   UNL A   1      42.871  30.373  35.926  1.00  0.00     0.049 A 
ATOM     53  C   UNL A   1      38.146  33.089  34.711  1.00  0.00     0.074 A 
ATOM     54  C   UNL A   1      43.480  30.681  37.130  1.00  0.00     0.029 A 
ATOM     55  N   UNL A   1      41.717  31.139  35.855  1.00  0.00    -0.354 N 
ATOM     56  N   UNL A   1      39.259  32.537  35.137  1.00  0.00    -0.248 NA
ATOM     57  C   UNL A   1      37.528  34.012  35.675  1.00  0.00     0.031 C 
ATOM     58  C   UNL A   1      42.665  31.587  37.814  1.00  0.00     0.029 A 
ATOM     59  C   UNL A   1      41.585  31.901  37.004  1.00  0.00     0.049 A 
ATOM     60  H   UNL A   1      41.086  31.142  35.099  1.00  0.00     0.167 HD
ATOM     61  C   UNL A   1      39.489  33.073  36.402  1.00  0.00     0.074 A 
ATOM     62  C   UNL A   1      38.409  33.999  36.667  1.00  0.00     0.031 C 
ATOM     63  C   UNL A   1      40.508  32.824  37.262  1.00  0.00     0.031 A 
BRANCH  50  64
ATOM     64  C   UNL A   1      44.568  28.661  35.164  1.00  0.00    -0.014 A 
ATOM     65  C   UNL A   1      45.821  29.149  34.753  1.00  0.00     0.010 A 
ATOM     66  C   UNL A   1      44.504  27.436  35.853  1.00  0.00     0.010 A 
ATOM     67  C   UNL A   1      46.983  28.412  34.996  1.00  0.00     0.020 A 
ATOM     68  C   UNL A   1      45.667  26.710  36.127  1.00  0.00     0.020 A 
ATOM     69  C   UNL A   1      46.898  27.196  35.682  1.00  0.00     0.054 A 
BRANCH  69  70
ATOM     70  S   UNL A   1      48.427  26.277  36.010  1.00  0.00     0.124 S 
ATOM     71  O   UNL A   1      48.528  26.369  37.464  1.00  0.00    -0.237 OA
ATOM     72  O   UNL A   1      48.118  24.949  35.485  1.00  0.00    -0.237 OA
ATOM     73  O   UNL A   1      49.443  27.017  35.267  1.00  0.00    -0.744 OA
ENDBRANCH  69  70
ENDBRANCH  50  64
BRANCH  51  74
ATOM     74  C   UNL A   1      36.190  33.668  33.096  1.00  0.00    -0.014 A 
ATOM     75  C   UNL A   1      34.931  33.094  33.356  1.00  0.00     0.010 A 
ATOM     76  C   UNL A   1      36.247  34.962  32.546  1.00  0.00     0.010 A 
ATOM     77  C   UNL A   1      33.757  33.795  33.063  1.00  0.00     0.020 A 
ATOM     78  C   UNL A   1      35.076  35.678  32.279  1.00  0.00     0.020 A 
ATOM     79  C   UNL A   1      33.836  35.086  32.532  1.00  0.00     0.054 A 
BRANCH  79  80
ATOM     80  S   UNL A   1      32.298  35.996  32.217  1.00  0.00     0.124 S 
ATOM     81  O   UNL A   1      31.284  35.049  32.670  1.00  0.00    -0.237 OA
ATOM     82  O   UNL A   1      32.465  37.188  33.044  1.00  0.00    -0.237 OA
ATOM     83  O   UNL A   1      32.332  36.236  30.776  1.00  0.00    -0.744 OA
ENDBRANCH  79  80
ENDBRANCH  51  74
BRANCH  63  84
ATOM     84  C   UNL A   1      40.542  33.595  38.559  1.00  0.00    -0.014 A 
ATOM     85  C   UNL A   1      41.175  34.848  38.656  1.00  0.00     0.010 A 
ATOM     86  C   UNL A   1      39.869  33.084  39.685  1.00  0.00     0.010 A 
ATOM     87  C   UNL A   1      41.161  35.556  39.862  1.00  0.00     0.020 A 
ATOM     88  C   UNL A   1      39.825  33.802  40.883  1.00  0.00     0.020 A 
ATOM     89  C   UNL A   1      40.485  35.029  40.967  1.00  0.00     0.054 A 
BRANCH  89  90
ATOM     90  S   UNL A   1      40.445  35.990  42.506  1.00  0.00     0.124 S 
ATOM     91  O   UNL A   1      39.236  36.790  42.335  1.00  0.00    -0.237 OA
ATOM     92  O   UNL A   1      40.370  34.951  43.530  1.00  0.00    -0.237 OA
ATOM     93  O   UNL A   1      41.698  36.741  42.479  1.00  0.00    -0.744 OA
ENDBRANCH  89  90
ENDBRANCH  63  84
ENDBRANCH  37  38
ENDBRANCH  30  32
ENDBRANCH  29  30
ENDBRANCH  28  29
ENDBRANCH  27  28
ENDBRANCH  26  27
ENDBRANCH  25  26
ENDBRANCH   1  25
TORSDOF 26
ENDMDL
MODEL 2
REMARK VINA RESULT:      -8.9      2.356      9.136
REMARK SMILES CCN(C(=O)NC[C@]1(C)CCCO1)[C@@H](C)CC(=O)OCCOCCOCCOC(=O)c1ccc(-c2c3nc(c(-c4ccc(S(=O)(=O)[O-])cc4)c4ccc([nH]4)c(-c4ccc(S(=O)(=O)[O-])cc4)c4nc(c(-c5ccc(S(=O)(=O)[O-])cc5)c5ccc2[nH]5)C=C4)C=C3)cc1
REMARK SMILES IDX 23 1 22 2 21 3 20 4 19 5 17 6 18 7 16 8 14 9 15 10 3 11 2 12
REMARK SMILES IDX 1 13 4 14 5 15 6 16 7 18 8 19 10 20 13 21 9 22 11 23 12 24
REMARK SMILES IDX 24 25 25 26 26 27 27 28 28 29 29 30 30 31 31 32 32 33 90 34
REMARK SMILES IDX 33 35 89 36 34 37 35 38 36 39 83 40 37 41 88 42 82 43 84 44
REMARK SMILES IDX 38 45 87 46 81 47 80 48 39 50 69 51 50 52 68 53 51 54 54 55
REMARK SMILES IDX 67 56 85 57 52 58 53 59 66 61 86 62 55 63 40 64 41 65 49 66
REMARK SMILES IDX 42 67 48 68 43 69 44 70 45 71 46 72 47 73 70 74 71 75 79 76
REMARK SMILES IDX 72 77 78 78 73 79 74 80 75 81 76 82 77 83 56 84 57 85 65 86
REMARK SMILES IDX 58 87 64 88 59 89 60 90 61 91 62 92 63 93
REMARK H PARENT 6 17 84 49 54 60
REMARK Flexibility Score: inf
ROOT
ATOM      1  C   UNL A   1      34.235  33.097  27.953  1.00  0.00     0.188 C 
ENDROOT
BRANCH   1   2
ATOM      2  O   UNL A   1      34.275  31.865  27.243  1.00  0.00    -0.376 OA
BRANCH   2   3
ATOM      3  C   UNL A   1      35.227  30.889  27.644  1.00  0.00     0.202 C 
BRANCH   3   4
ATOM      4  C   UNL A   1      34.742  29.438  27.736  1.00  0.00     0.261 C 
BRANCH   4   5
ATOM      5  O   UNL A   1      34.676  28.741  26.472  1.00  0.00    -0.463 OA
BRANCH   5   6
ATOM      6  C   UNL A   1      33.434  28.481  26.000  1.00  0.00     0.307 C 
ATOM      7  O   UNL A   1      32.486  29.255  26.104  1.00  0.00    -0.252 OA
BRANCH   6   8
ATOM      8  C   UNL A   1      33.266  27.169  25.257  1.00  0.00     0.147 C 
BRANCH   8   9
ATOM      9  C   UNL A   1      33.103  27.104  23.733  1.00  0.00     0.094 C 
ATOM     10  C   UNL A   1      33.536  28.435  23.088  1.00  0.00     0.032 C 
BRANCH   9  11
ATOM     11  N   UNL A   1      31.786  26.671  23.208  1.00  0.00    -0.322 N 
BRANCH  11  12
ATOM     12  C   UNL A   1      31.764  25.692  22.120  1.00  0.00     0.118 C 
ATOM     13  C   UNL A   1      33.074  24.965  21.887  1.00  0.00     0.027 C 
ENDBRANCH  11  12
BRANCH  11  14
ATOM     14  C   UNL A   1      30.707  27.062  23.955  1.00  0.00     0.317 C 
ATOM     15  O   UNL A   1      30.319  26.413  24.933  1.00  0.00    -0.249 OA
ATOM     16  N   UNL A   1      29.976  28.157  23.728  1.00  0.00    -0.335 N 
ATOM     17  H   UNL A   1      29.300  28.271  24.434  1.00  0.00     0.165 HD
BRANCH  16  18
ATOM     18  C   UNL A   1      29.878  29.229  22.753  1.00  0.00     0.152 C 
BRANCH  18  19
ATOM     19  C   UNL A   1      28.454  29.864  22.649  1.00  0.00     0.083 C 
ATOM     20  C   UNL A   1      28.133  30.566  21.322  1.00  0.00     0.039 C 
ATOM     21  O   UNL A   1      28.319  30.885  23.664  1.00  0.00    -0.373 OA
ATOM     22  C   UNL A   1      27.406  28.786  22.945  1.00  0.00     0.044 C 
ATOM     23  C   UNL A   1      28.552  31.993  21.575  1.00  0.00     0.031 C 
ATOM     24  C   UNL A   1      28.211  32.171  23.035  1.00  0.00     0.161 C 
ENDBRANCH  18  19
ENDBRANCH  16  18
ENDBRANCH  11  14
ENDBRANCH   9  11
ENDBRANCH   8   9
ENDBRANCH   6   8
ENDBRANCH   5   6
ENDBRANCH   4   5
ENDBRANCH   3   4
ENDBRANCH   2   3
ENDBRANCH   1   2
BRANCH   1  25
ATOM     25  C   UNL A   1      32.924  33.891  27.994  1.00  0.00     0.188 C 
BRANCH  25  26
ATOM     26  O   UNL A   1      32.719  34.610  29.198  1.00  0.00    -0.376 OA
BRANCH  26  27
ATOM     27  C   UNL A   1      33.152  35.964  29.154  1.00  0.00     0.202 C 
BRANCH  27  28
ATOM     28  C   UNL A   1      32.515  36.731  30.315  1.00  0.00     0.261 C 
BRANCH  28  29
ATOM     29  O   UNL A   1      33.208  36.550  31.566  1.00  0.00    -0.460 OA
BRANCH  29  30
ATOM     30  C   UNL A   1      32.909  35.429  32.267  1.00  0.00     0.338 C 
ATOM     31  O   UNL A   1      31.794  35.033  32.564  1.00  0.00    -0.246 OA
BRANCH  30  32
ATOM     32  C   UNL A   1      34.155  34.632  32.410  1.00  0.00     0.060 A 
ATOM     33  C   UNL A   1      34.113  33.418  33.115  1.00  0.00     0.016 A 
ATOM     34  C   UNL A   1      35.343  35.049  31.809  1.00  0.00     0.016 A 
ATOM     35  C   UNL A   1      35.270  32.643  33.255  1.00  0.00     0.010 A 
ATOM     36  C   UNL A   1      36.503  34.282  31.964  1.00  0.00     0.010 A 
ATOM     37  C   UNL A   1      36.483  33.094  32.718  1.00  0.00    -0.014 A 
BRANCH  37  38
ATOM     38  C   UNL A   1      37.773  32.462  33.105  1.00  0.00     0.031 A 
ATOM     39  C   UNL A   1      38.305  32.732  34.489  1.00  0.00     0.074 A 
ATOM     40  C   UNL A   1      38.472  31.678  32.263  1.00  0.00     0.049 A 
ATOM     41  N   UNL A   1      39.445  32.380  35.026  1.00  0.00    -0.248 NA
ATOM     42  C   UNL A   1      37.434  33.513  35.384  1.00  0.00     0.031 C 
ATOM     43  C   UNL A   1      38.056  31.289  30.918  1.00  0.00     0.029 A 
ATOM     44  N   UNL A   1      39.699  31.077  32.424  1.00  0.00    -0.354 N 
ATOM     45  C   UNL A   1      39.431  32.903  36.315  1.00  0.00     0.074 A 
ATOM     46  C   UNL A   1      38.187  33.625  36.467  1.00  0.00     0.031 C 
ATOM     47  C   UNL A   1      39.016  30.517  30.372  1.00  0.00     0.029 A 
ATOM     48  C   UNL A   1      40.131  30.392  31.312  1.00  0.00     0.049 A 
ATOM     49  H   UNL A   1      40.220  31.132  33.257  1.00  0.00     0.167 HD
ATOM     50  C   UNL A   1      40.365  32.790  37.289  1.00  0.00     0.031 A 
ATOM     51  C   UNL A   1      41.297  29.757  31.071  1.00  0.00     0.031 A 
ATOM     52  C   UNL A   1      41.612  32.090  37.139  1.00  0.00     0.049 A 
ATOM     53  C   UNL A   1      42.366  29.725  32.137  1.00  0.00     0.074 A 
ATOM     54  C   UNL A   1      42.620  31.921  38.071  1.00  0.00     0.029 A 
ATOM     55  N   UNL A   1      42.027  31.448  35.981  1.00  0.00    -0.354 N 
ATOM     56  N   UNL A   1      42.336  30.219  33.353  1.00  0.00    -0.248 NA
ATOM     57  C   UNL A   1      43.624  29.042  31.799  1.00  0.00     0.031 C 
ATOM     58  C   UNL A   1      43.671  31.229  37.461  1.00  0.00     0.029 A 
ATOM     59  C   UNL A   1      43.286  30.903  36.169  1.00  0.00     0.049 A 
ATOM     60  H   UNL A   1      41.504  31.389  35.150  1.00  0.00     0.167 HD
ATOM     61  C   UNL A   1      43.555  29.876  33.934  1.00  0.00     0.074 A 
ATOM     62  C   UNL A   1      44.294  29.124  32.941  1.00  0.00     0.031 C 
ATOM     63  C   UNL A   1      44.016  30.153  35.178  1.00  0.00     0.031 A 
BRANCH  50  64
ATOM     64  C   UNL A   1      40.080  33.466  38.605  1.00  0.00    -0.014 A 
ATOM     65  C   UNL A   1      40.612  34.734  38.902  1.00  0.00     0.010 A 
ATOM     66  C   UNL A   1      39.235  32.843  39.541  1.00  0.00     0.010 A 
ATOM     67  C   UNL A   1      40.333  35.350  40.125  1.00  0.00     0.020 A 
ATOM     68  C   UNL A   1      38.927  33.470  40.752  1.00  0.00     0.020 A 
ATOM     69  C   UNL A   1      39.491  34.714  41.042  1.00  0.00     0.054 A 
BRANCH  69  70
ATOM     70  S   UNL A   1      39.121  35.552  42.607  1.00  0.00     0.124 S 
ATOM     71  O   UNL A   1      40.027  34.877  43.533  1.00  0.00    -0.237 OA
ATOM     72  O   UNL A   1      39.452  36.944  42.308  1.00  0.00    -0.237 OA
ATOM     73  O   UNL A   1      37.701  35.284  42.819  1.00  0.00    -0.744 OA
ENDBRANCH  69  70
ENDBRANCH  50  64
BRANCH  51  74
ATOM     74  C   UNL A   1      41.533  29.099  29.753  1.00  0.00    -0.014 A 
ATOM     75  C   UNL A   1      42.168  29.798  28.709  1.00  0.00     0.010 A 
ATOM     76  C   UNL A   1      41.114  27.774  29.529  1.00  0.00     0.010 A 
ATOM     77  C   UNL A   1      42.369  29.188  27.466  1.00  0.00     0.020 A 
ATOM     78  C   UNL A   1      41.340  27.152  28.298  1.00  0.00     0.020 A 
ATOM     79  C   UNL A   1      41.960  27.866  27.270  1.00  0.00     0.054 A 
BRANCH  79  80
ATOM     80  S   UNL A   1      42.287  27.079  25.667  1.00  0.00     0.124 S 
ATOM     81  O   UNL A   1      42.324  28.227  24.766  1.00  0.00    -0.237 OA
ATOM     82  O   UNL A   1      43.567  26.417  25.900  1.00  0.00    -0.237 OA
ATOM     83  O   UNL A   1      41.150  26.180  25.490  1.00  0.00    -0.744 OA
ENDBRANCH  79  80
ENDBRANCH  51  74
BRANCH  63  84
ATOM     84  C   UNL A   1      45.367  29.605  35.570  1.00  0.00    -0.014 A 
ATOM     85  C   UNL A   1      45.498  28.376  36.242  1.00  0.00     0.010 A 
ATOM     86  C   UNL A   1      46.531  30.304  35.198  1.00  0.00     0.010 A 
ATOM     87  C   UNL A   1      46.765  27.875  36.561  1.00  0.00     0.020 A 
ATOM     88  C   UNL A   1      47.799  29.793  35.486  1.00  0.00     0.020 A 
ATOM     89  C   UNL A   1      47.907  28.586  36.180  1.00  0.00     0.054 A 
BRANCH  89  90
ATOM     90  S   UNL A   1      49.538  27.892  36.568  1.00  0.00     0.124 S 
ATOM     91  O   UNL A   1      49.562  27.966  38.026  1.00  0.00    -0.237 OA
ATOM     92  O   UNL A   1      49.453  26.545  36.009  1.00  0.00    -0.237 OA
ATOM     93  O   UNL A   1      50.468  28.787  35.883  1.00  0.00    -0.744 OA
ENDBRANCH  89  90
ENDBRANCH  63  84
ENDBRANCH  37  38
ENDBRANCH  30  32
ENDBRANCH  29  30
ENDBRANCH  28  29
ENDBRANCH  27  28
ENDBRANCH  26  27
ENDBRANCH  25  26
ENDBRANCH   1  25
TORSDOF 26
ENDMDL
MODEL 3
REMARK VINA RESULT:      -8.8      2.685      4.003
REMARK SMILES CCN(C(=O)NC[C@]1(C)CCCO1)[C@@H](C)CC(=O)OCCOCCOCCOC(=O)c1ccc(-c2c3nc(c(-c4ccc(S(=O)(=O)[O-])cc4)c4ccc([nH]4)c(-c4ccc(S(=O)(=O)[O-])cc4)c4nc(c(-c5ccc(S(=O)(=O)[O-])cc5)c5ccc2[nH]5)C=C4)C=C3)cc1
REMARK SMILES IDX 23 1 22 2 21 3 20 4 19 5 17 6 18 7 16 8 14 9 15 10 3 11 2 12
REMARK SMILES IDX 1 13 4 14 5 15 6 16 7 18 8 19 10 20 13 21 9 22 11 23 12 24
REMARK SMILES IDX 24 25 25 26 26 27 27 28 28 29 29 30 30 31 31 32 32 33 90 34
REMARK SMILES IDX 33 35 89 36 34 37 35 38 36 39 83 40 37 41 88 42 82 43 84 44
REMARK SMILES IDX 38 45 87 46 81 47 80 48 39 50 69 51 50 52 68 53 51 54 54 55
REMARK SMILES IDX 67 56 85 57 52 58 53 59 66 61 86 62 55 63 40 64 41 65 49 66
REMARK SMILES IDX 42 67 48 68 43 69 44 70 45 71 46 72 47 73 70 74 71 75 79 76
REMARK SMILES IDX 72 77 78 78 73 79 74 80 75 81 76 82 77 83 56 84 57 85 65 86
REMARK SMILES IDX 58 87 64 88 59 89 60 90 61 91 62 92 63 93
REMARK H PARENT 6 17 84 49 54 60
REMARK Flexibility Score: inf
ROOT
ATOM      1  C   UNL A   1      37.752  20.113  24.983  1.00  0.00     0.188 C 
ENDROOT
BRANCH   1   2
ATOM      2  O   UNL A   1      37.839  21.520  24.801  1.00  0.00    -0.376 OA
BRANCH   2   3
ATOM      3  C   UNL A   1      36.875  22.341  25.446  1.00  0.00     0.202 C 
BRANCH   3   4
ATOM      4  C   UNL A   1      35.684  21.634  26.104  1.00  0.00     0.261 C 
BRANCH   4   5
ATOM      5  O   UNL A   1      34.392  22.191  25.773  1.00  0.00    -0.463 OA
BRANCH   5   6
ATOM      6  C   UNL A   1      33.771  22.879  26.760  1.00  0.00     0.307 C 
ATOM      7  O   UNL A   1      33.710  22.499  27.926  1.00  0.00    -0.252 OA
BRANCH   6   8
ATOM      8  C   UNL A   1      33.181  24.220  26.366  1.00  0.00     0.147 C 
BRANCH   8   9
ATOM      9  C   UNL A   1      31.773  24.355  25.772  1.00  0.00     0.094 C 
ATOM     10  C   UNL A   1      30.898  23.155  26.184  1.00  0.00     0.032 C 
BRANCH   9  11
ATOM     11  N   UNL A   1      31.671  24.602  24.314  1.00  0.00    -0.322 N 
BRANCH  11  12
ATOM     12  C   UNL A   1      32.287  23.635  23.404  1.00  0.00     0.118 C 
ATOM     13  C   UNL A   1      33.615  24.069  22.814  1.00  0.00     0.027 C 
ENDBRANCH  11  12
BRANCH  11  14
ATOM     14  C   UNL A   1      30.804  25.599  23.954  1.00  0.00     0.317 C 
ATOM     15  O   UNL A   1      29.644  25.360  23.596  1.00  0.00    -0.249 OA
ATOM     16  N   UNL A   1      31.095  26.902  23.955  1.00  0.00    -0.335 N 
ATOM     17  H   UNL A   1      30.297  27.433  23.730  1.00  0.00     0.165 HD
BRANCH  16  18
ATOM     18  C   UNL A   1      32.234  27.773  24.188  1.00  0.00     0.152 C 
BRANCH  18  19
ATOM     19  C   UNL A   1      32.023  28.800  25.345  1.00  0.00     0.083 C 
ATOM     20  C   UNL A   1      33.302  29.383  25.961  1.00  0.00     0.039 C 
ATOM     21  O   UNL A   1      31.337  28.144  26.437  1.00  0.00    -0.373 OA
ATOM     22  C   UNL A   1      31.112  29.929  24.850  1.00  0.00     0.044 C 
ATOM     23  C   UNL A   1      33.601  28.438  27.099  1.00  0.00     0.031 C 
ATOM     24  C   UNL A   1      32.217  28.058  27.569  1.00  0.00     0.161 C 
ENDBRANCH  18  19
ENDBRANCH  16  18
ENDBRANCH  11  14
ENDBRANCH   9  11
ENDBRANCH   8   9
ENDBRANCH   6   8
ENDBRANCH   5   6
ENDBRANCH   4   5
ENDBRANCH   3   4
ENDBRANCH   2   3
ENDBRANCH   1   2
BRANCH   1  25
ATOM     25  C   UNL A   1      39.015  19.332  25.369  1.00  0.00     0.188 C 
BRANCH  25  26
ATOM     26  O   UNL A   1      39.961  20.088  26.106  1.00  0.00    -0.376 OA
BRANCH  26  27
ATOM     27  C   UNL A   1      41.241  19.480  26.216  1.00  0.00     0.202 C 
BRANCH  27  28
ATOM     28  C   UNL A   1      42.321  20.545  26.010  1.00  0.00     0.261 C 
BRANCH  28  29
ATOM     29  O   UNL A   1      41.797  21.805  25.546  1.00  0.00    -0.460 OA
BRANCH  29  30
ATOM     30  C   UNL A   1      42.704  22.778  25.284  1.00  0.00     0.338 C 
ATOM     31  O   UNL A   1      43.482  22.813  24.344  1.00  0.00    -0.246 OA
BRANCH  30  32
ATOM     32  C   UNL A   1      42.431  23.918  26.196  1.00  0.00     0.060 A 
ATOM     33  C   UNL A   1      43.024  25.163  25.931  1.00  0.00     0.016 A 
ATOM     34  C   UNL A   1      41.556  23.778  27.274  1.00  0.00     0.016 A 
ATOM     35  C   UNL A   1      42.776  26.256  26.770  1.00  0.00     0.010 A 
ATOM     36  C   UNL A   1      41.322  24.865  28.121  1.00  0.00     0.010 A 
ATOM     37  C   UNL A   1      41.958  26.100  27.897  1.00  0.00    -0.014 A 
BRANCH  37  38
ATOM     38  C   UNL A   1      41.919  27.138  28.963  1.00  0.00     0.031 A 
ATOM     39  C   UNL A   1      42.977  27.089  30.036  1.00  0.00     0.074 A 
ATOM     40  C   UNL A   1      40.974  28.095  29.003  1.00  0.00     0.049 A 
ATOM     41  N   UNL A   1      43.101  27.814  31.117  1.00  0.00    -0.248 NA
ATOM     42  C   UNL A   1      44.034  26.077  29.865  1.00  0.00     0.031 C 
ATOM     43  C   UNL A   1      39.922  28.296  28.009  1.00  0.00     0.029 A 
ATOM     44  N   UNL A   1      40.745  29.078  29.938  1.00  0.00    -0.354 N 
ATOM     45  C   UNL A   1      44.240  27.342  31.759  1.00  0.00     0.074 A 
ATOM     46  C   UNL A   1      44.752  26.246  30.966  1.00  0.00     0.031 C 
ATOM     47  C   UNL A   1      39.155  29.335  28.390  1.00  0.00     0.029 A 
ATOM     48  C   UNL A   1      39.635  29.846  29.675  1.00  0.00     0.049 A 
ATOM     49  H   UNL A   1      41.321  29.217  30.724  1.00  0.00     0.167 HD
ATOM     50  C   UNL A   1      44.817  27.782  32.903  1.00  0.00     0.031 A 
ATOM     51  C   UNL A   1      39.060  30.832  30.395  1.00  0.00     0.031 A 
ATOM     52  C   UNL A   1      44.303  28.858  33.707  1.00  0.00     0.049 A 
ATOM     53  C   UNL A   1      39.664  31.242  31.717  1.00  0.00     0.074 A 
ATOM     54  C   UNL A   1      44.821  29.374  34.882  1.00  0.00     0.029 A 
ATOM     55  N   UNL A   1      43.153  29.580  33.426  1.00  0.00    -0.354 N 
ATOM     56  N   UNL A   1      40.745  30.791  32.309  1.00  0.00    -0.248 NA
ATOM     57  C   UNL A   1      38.971  32.303  32.466  1.00  0.00     0.031 C 
ATOM     58  C   UNL A   1      43.952  30.367  35.344  1.00  0.00     0.029 A 
ATOM     59  C   UNL A   1      42.932  30.520  34.417  1.00  0.00     0.049 A 
ATOM     60  H   UNL A   1      42.579  29.444  32.638  1.00  0.00     0.167 HD
ATOM     61  C   UNL A   1      40.879  31.536  33.478  1.00  0.00     0.074 A 
ATOM     62  C   UNL A   1      39.777  32.473  33.506  1.00  0.00     0.031 C 
ATOM     63  C   UNL A   1      41.834  31.454  34.438  1.00  0.00     0.031 A 
BRANCH  50  64
ATOM     64  C   UNL A   1      46.063  27.073  33.368  1.00  0.00    -0.014 A 
ATOM     65  C   UNL A   1      47.341  27.523  32.989  1.00  0.00     0.010 A 
ATOM     66  C   UNL A   1      45.955  25.966  34.230  1.00  0.00     0.010 A 
ATOM     67  C   UNL A   1      48.486  26.858  33.436  1.00  0.00     0.020 A 
ATOM     68  C   UNL A   1      47.099  25.318  34.704  1.00  0.00     0.020 A 
ATOM     69  C   UNL A   1      48.357  25.759  34.291  1.00  0.00     0.054 A 
BRANCH  69  70
ATOM     70  S   UNL A   1      49.863  24.936  34.878  1.00  0.00     0.124 S 
ATOM     71  O   UNL A   1      50.263  25.796  35.989  1.00  0.00    -0.237 OA
ATOM     72  O   UNL A   1      49.376  23.611  35.253  1.00  0.00    -0.237 OA
ATOM     73  O   UNL A   1      50.750  24.966  33.718  1.00  0.00    -0.744 OA
ENDBRANCH  69  70
ENDBRANCH  50  64
BRANCH  51  74
ATOM     74  C   UNL A   1      37.828  31.506  29.892  1.00  0.00    -0.014 A 
ATOM     75  C   UNL A   1      37.917  32.705  29.161  1.00  0.00     0.010 A 
ATOM     76  C   UNL A   1      36.557  30.960  30.152  1.00  0.00     0.010 A 
ATOM     77  C   UNL A   1      36.760  33.349  28.708  1.00  0.00     0.020 A 
ATOM     78  C   UNL A   1      35.400  31.585  29.676  1.00  0.00     0.020 A 
ATOM     79  C   UNL A   1      35.509  32.781  28.963  1.00  0.00     0.054 A 
BRANCH  79  80
ATOM     80  S   UNL A   1      34.028  33.605  28.313  1.00  0.00     0.124 S 
ATOM     81  O   UNL A   1      33.403  34.114  29.530  1.00  0.00    -0.237 OA
ATOM     82  O   UNL A   1      34.597  34.614  27.424  1.00  0.00    -0.237 OA
ATOM     83  O   UNL A   1      33.305  32.529  27.640  1.00  0.00    -0.744 OA
ENDBRANCH  79  80
ENDBRANCH  51  74
BRANCH  63  84
ATOM     84  C   UNL A   1      41.768  32.432  35.586  1.00  0.00    -0.014 A 
ATOM     85  C   UNL A   1      41.253  32.062  36.841  1.00  0.00     0.010 A 
ATOM     86  C   UNL A   1      42.293  33.728  35.420  1.00  0.00     0.010 A 
ATOM     87  C   UNL A   1      41.237  32.980  37.897  1.00  0.00     0.020 A 
ATOM     88  C   UNL A   1      42.308  34.637  36.481  1.00  0.00     0.020 A 
ATOM     89  C   UNL A   1      41.766  34.261  37.711  1.00  0.00     0.054 A 
BRANCH  89  90
ATOM     90  S   UNL A   1      41.772  35.416  39.110  1.00  0.00     0.124 S 
ATOM     91  O   UNL A   1      40.392  35.892  39.119  1.00  0.00    -0.237 OA
ATOM     92  O   UNL A   1      42.148  34.558  40.231  1.00  0.00    -0.237 OA
ATOM     93  O   UNL A   1      42.772  36.413  38.734  1.00  0.00    -0.744 OA
ENDBRANCH  89  90
ENDBRANCH  63  84
ENDBRANCH  37  38
ENDBRANCH  30  32
ENDBRANCH  29  30
ENDBRANCH  28  29
ENDBRANCH  27  28
ENDBRANCH  26  27
ENDBRANCH  25  26
ENDBRANCH   1  25
TORSDOF 26
ENDMDL
