MODEL 1
REMARK VINA RESULT:     -10.2      0.000      0.000
REMARK SMILES O=C(OCCOCCOCCOC(=O)c1ccc(F)c(NS(=O)(=O)c2cc(Cl)sc2Cl)c1)c1ccc(-c2c3nc(c(-c4ccc(S(=O)(=O)[O-])cc4)c4ccc([nH]4)c(-c4ccc(S(=O)(=O)[O-])cc4)c4nc(c(-c5ccc(S(=O)(=O)[O-])cc5)c5ccc2[nH]5)C=C4)C=C3)cc1
REMARK SMILES IDX 7 1 6 2 5 3 4 4 3 5 2 6 1 7 33 8 34 9 92 10 35 11 91 12
REMARK SMILES IDX 36 13 37 14 38 15 85 16 39 17 90 18 84 19 86 20 40 21 89 22
REMARK SMILES IDX 83 23 82 24 41 26 71 27 52 28 70 29 53 30 56 31 69 32 87 33
REMARK SMILES IDX 54 34 55 35 68 37 88 38 57 39 42 40 43 41 51 42 44 43 50 44
REMARK SMILES IDX 45 45 46 46 47 47 48 48 49 49 72 50 73 51 81 52 74 53 80 54
REMARK SMILES IDX 75 55 76 56 77 57 78 58 79 59 58 60 59 61 67 62 60 63 66 64
REMARK SMILES IDX 61 65 62 66 63 67 64 68 65 69 8 70 9 71 10 72 11 73 12 74
REMARK SMILES IDX 13 75 14 76 15 77 16 78 32 79 17 80 20 81 18 82 19 83 21 84
REMARK SMILES IDX 22 86 23 87 24 88 25 89 26 90 30 91 27 92 29 93 31 94 28 95
REMARK H PARENT 86 25 56 36 21 85
REMARK Flexibility Score: inf
ROOT
ATOM      1  C   UNL A   1      31.863  27.831  27.220  1.00  0.00     0.188 C 
ENDROOT
BRANCH   1   2
ATOM      2  O   UNL A   1      33.190  28.350  27.067  1.00  0.00    -0.376 OA
BRANCH   2   3
ATOM      3  C   UNL A   1      33.244  29.495  26.207  1.00  0.00     0.202 C 
BRANCH   3   4
ATOM      4  C   UNL A   1      32.797  30.802  26.867  1.00  0.00     0.261 C 
BRANCH   4   5
ATOM      5  O   UNL A   1      33.574  31.104  28.030  1.00  0.00    -0.460 OA
BRANCH   5   6
ATOM      6  C   UNL A   1      34.873  31.487  28.025  1.00  0.00     0.338 C 
ATOM      7  O   UNL A   1      35.134  32.623  27.635  1.00  0.00    -0.246 OA
BRANCH   6   8
ATOM      8  C   UNL A   1      36.016  30.559  28.342  1.00  0.00     0.060 A 
ATOM      9  C   UNL A   1      36.325  30.003  29.588  1.00  0.00     0.016 A 
ATOM     10  C   UNL A   1      36.886  30.268  27.274  1.00  0.00     0.016 A 
ATOM     11  C   UNL A   1      37.503  29.282  29.796  1.00  0.00     0.010 A 
ATOM     12  C   UNL A   1      38.053  29.523  27.464  1.00  0.00     0.010 A 
ATOM     13  C   UNL A   1      38.395  29.086  28.747  1.00  0.00    -0.014 A 
BRANCH  13  14
ATOM     14  C   UNL A   1      39.783  28.683  29.047  1.00  0.00     0.031 A 
ATOM     15  C   UNL A   1      40.684  29.709  29.670  1.00  0.00     0.074 A 
ATOM     16  C   UNL A   1      40.214  27.429  28.835  1.00  0.00     0.049 A 
ATOM     17  N   UNL A   1      41.944  29.615  29.993  1.00  0.00    -0.248 NA
ATOM     18  C   UNL A   1      40.068  31.009  29.996  1.00  0.00     0.031 C 
ATOM     19  C   UNL A   1      39.387  26.324  28.362  1.00  0.00     0.029 A 
ATOM     20  N   UNL A   1      41.461  26.879  28.978  1.00  0.00    -0.354 N 
ATOM     21  C   UNL A   1      42.269  30.839  30.567  1.00  0.00     0.074 A 
ATOM     22  C   UNL A   1      41.090  31.670  30.512  1.00  0.00     0.031 C 
ATOM     23  C   UNL A   1      40.163  25.242  28.184  1.00  0.00     0.029 A 
ATOM     24  C   UNL A   1      41.540  25.587  28.520  1.00  0.00     0.049 A 
ATOM     25  H   UNL A   1      42.224  27.363  29.371  1.00  0.00     0.167 HD
ATOM     26  C   UNL A   1      43.449  31.231  31.100  1.00  0.00     0.031 A 
ATOM     27  C   UNL A   1      42.611  24.785  28.360  1.00  0.00     0.031 A 
ATOM     28  C   UNL A   1      44.625  30.410  31.101  1.00  0.00     0.049 A 
ATOM     29  C   UNL A   1      43.952  25.281  28.821  1.00  0.00     0.074 A 
ATOM     30  C   UNL A   1      45.888  30.709  31.574  1.00  0.00     0.029 A 
ATOM     31  N   UNL A   1      44.679  29.124  30.581  1.00  0.00    -0.354 N 
ATOM     32  N   UNL A   1      44.250  26.439  29.365  1.00  0.00    -0.248 NA
ATOM     33  C   UNL A   1      45.092  24.369  28.678  1.00  0.00     0.031 C 
ATOM     34  C   UNL A   1      46.719  29.618  31.295  1.00  0.00     0.029 A 
ATOM     35  C   UNL A   1      45.960  28.621  30.698  1.00  0.00     0.049 A 
ATOM     36  H   UNL A   1      43.917  28.642  30.187  1.00  0.00     0.167 HD
ATOM     37  C   UNL A   1      45.604  26.381  29.667  1.00  0.00     0.074 A 
ATOM     38  C   UNL A   1      46.069  25.076  29.233  1.00  0.00     0.031 C 
ATOM     39  C   UNL A   1      46.386  27.312  30.265  1.00  0.00     0.031 A 
BRANCH  26  40
ATOM     40  C   UNL A   1      43.503  32.630  31.648  1.00  0.00    -0.014 A 
ATOM     41  C   UNL A   1      43.835  33.721  30.823  1.00  0.00     0.010 A 
ATOM     42  C   UNL A   1      43.304  32.843  33.022  1.00  0.00     0.010 A 
ATOM     43  C   UNL A   1      44.038  34.989  31.377  1.00  0.00     0.020 A 
ATOM     44  C   UNL A   1      43.482  34.114  33.576  1.00  0.00     0.020 A 
ATOM     45  C   UNL A   1      43.877  35.171  32.753  1.00  0.00     0.054 A 
BRANCH  45  46
ATOM     46  S   UNL A   1      44.205  36.809  33.462  1.00  0.00     0.124 S 
ATOM     47  O   UNL A   1      45.604  36.685  33.865  1.00  0.00    -0.237 OA
ATOM     48  O   UNL A   1      43.954  37.704  32.335  1.00  0.00    -0.237 OA
ATOM     49  O   UNL A   1      43.246  36.910  34.558  1.00  0.00    -0.744 OA
ENDBRANCH  45  46
ENDBRANCH  26  40
BRANCH  27  50
ATOM     50  C   UNL A   1      42.434  23.459  27.713  1.00  0.00    -0.014 A 
ATOM     51  C   UNL A   1      42.694  23.273  26.345  1.00  0.00     0.010 A 
ATOM     52  C   UNL A   1      42.077  22.344  28.499  1.00  0.00     0.010 A 
ATOM     53  C   UNL A   1      42.616  21.996  25.779  1.00  0.00     0.020 A 
ATOM     54  C   UNL A   1      42.016  21.064  27.941  1.00  0.00     0.020 A 
ATOM     55  C   UNL A   1      42.289  20.898  26.582  1.00  0.00     0.054 A 
BRANCH  55  56
ATOM     56  S   UNL A   1      42.308  19.238  25.849  1.00  0.00     0.124 S 
ATOM     57  O   UNL A   1      40.898  19.021  25.546  1.00  0.00    -0.237 OA
ATOM     58  O   UNL A   1      43.186  19.418  24.696  1.00  0.00    -0.237 OA
ATOM     59  O   UNL A   1      42.860  18.403  26.913  1.00  0.00    -0.744 OA
ENDBRANCH  55  56
ENDBRANCH  27  50
BRANCH  39  60
ATOM     60  C   UNL A   1      47.816  26.947  30.539  1.00  0.00    -0.014 A 
ATOM     61  C   UNL A   1      48.839  27.296  29.643  1.00  0.00     0.010 A 
ATOM     62  C   UNL A   1      48.144  26.356  31.772  1.00  0.00     0.010 A 
ATOM     63  C   UNL A   1      50.175  27.062  29.981  1.00  0.00     0.020 A 
ATOM     64  C   UNL A   1      49.477  26.139  32.121  1.00  0.00     0.020 A 
ATOM     65  C   UNL A   1      50.485  26.492  31.220  1.00  0.00     0.054 A 
BRANCH  65  66
ATOM     66  S   UNL A   1      52.228  26.291  31.680  1.00  0.00     0.124 S 
ATOM     67  O   UNL A   1      52.562  27.619  32.184  1.00  0.00    -0.237 OA
ATOM     68  O   UNL A   1      52.176  25.231  32.683  1.00  0.00    -0.237 OA
ATOM     69  O   UNL A   1      52.875  25.919  30.424  1.00  0.00    -0.744 OA
ENDBRANCH  65  66
ENDBRANCH  39  60
ENDBRANCH  13  14
ENDBRANCH   6   8
ENDBRANCH   5   6
ENDBRANCH   4   5
ENDBRANCH   3   4
ENDBRANCH   2   3
ENDBRANCH   1   2
BRANCH   1  70
ATOM     70  C   UNL A   1      31.602  26.604  26.341  1.00  0.00     0.188 C 
BRANCH  70  71
ATOM     71  O   UNL A   1      30.513  25.769  26.726  1.00  0.00    -0.376 OA
BRANCH  71  72
ATOM     72  C   UNL A   1      30.427  24.491  26.106  1.00  0.00     0.202 C 
BRANCH  72  73
ATOM     73  C   UNL A   1      30.993  23.292  26.875  1.00  0.00     0.261 C 
BRANCH  73  74
ATOM     74  O   UNL A   1      32.303  23.500  27.433  1.00  0.00    -0.460 OA
BRANCH  74  75
ATOM     75  C   UNL A   1      33.179  22.488  27.200  1.00  0.00     0.338 C 
ATOM     76  O   UNL A   1      33.332  21.485  27.878  1.00  0.00    -0.246 OA
BRANCH  75  77
ATOM     77  C   UNL A   1      34.023  22.754  26.014  1.00  0.00     0.062 A 
ATOM     78  C   UNL A   1      35.050  21.834  25.747  1.00  0.00     0.019 A 
ATOM     79  C   UNL A   1      33.779  23.820  25.136  1.00  0.00     0.045 A 
ATOM     80  C   UNL A   1      35.826  21.962  24.595  1.00  0.00     0.042 A 
ATOM     81  C   UNL A   1      34.559  23.943  23.983  1.00  0.00     0.085 A 
ATOM     82  C   UNL A   1      35.563  23.004  23.712  1.00  0.00     0.147 A 
ATOM     83  F   UNL A   1      36.327  23.148  22.620  1.00  0.00    -0.205 F 
BRANCH  81  84
ATOM     84  N   UNL A   1      34.359  25.052  23.093  1.00  0.00    -0.277 N 
ATOM     85  H   UNL A   1      35.029  25.772  23.021  1.00  0.00     0.180 HD
BRANCH  84  86
ATOM     86  S   UNL A   1      32.941  25.086  22.170  1.00  0.00     0.264 S 
ATOM     87  O   UNL A   1      33.337  25.277  20.799  1.00  0.00    -0.201 OA
ATOM     88  O   UNL A   1      32.089  23.979  22.558  1.00  0.00    -0.201 OA
BRANCH  86  89
ATOM     89  C   UNL A   1      32.003  26.479  22.590  1.00  0.00     0.118 A 
ATOM     90  C   UNL A   1      30.586  26.396  22.811  1.00  0.00     0.056 A 
ATOM     91  C   UNL A   1      32.441  27.779  22.695  1.00  0.00     0.115 A 
ATOM     92  C   UNL A   1      30.046  27.629  23.056  1.00  0.00     0.096 A 
ATOM     93  S   UNL A   1      31.189  28.871  23.086  1.00  0.00    -0.110 S 
ATOM     94  Cl  UNL A   1      34.000  28.462  22.459  1.00  0.00    -0.071 Cl
ATOM     95  Cl  UNL A   1      28.387  27.989  23.308  1.00  0.00    -0.072 Cl
ENDBRANCH  86  89
ENDBRANCH  84  86
ENDBRANCH  81  84
ENDBRANCH  75  77
ENDBRANCH  74  75
ENDBRANCH  73  74
ENDBRANCH  72  73
ENDBRANCH  71  72
ENDBRANCH  70  71
ENDBRANCH   1  70
TORSDOF 23
ENDMDL
MODEL 2
REMARK VINA RESULT:     -10.0      4.873     10.433
REMARK SMILES O=C(OCCOCCOCCOC(=O)c1ccc(F)c(NS(=O)(=O)c2cc(Cl)sc2Cl)c1)c1ccc(-c2c3nc(c(-c4ccc(S(=O)(=O)[O-])cc4)c4ccc([nH]4)c(-c4ccc(S(=O)(=O)[O-])cc4)c4nc(c(-c5ccc(S(=O)(=O)[O-])cc5)c5ccc2[nH]5)C=C4)C=C3)cc1
REMARK SMILES IDX 7 1 6 2 5 3 4 4 3 5 2 6 1 7 33 8 34 9 92 10 35 11 91 12
REMARK SMILES IDX 36 13 37 14 38 15 85 16 39 17 90 18 84 19 86 20 40 21 89 22
REMARK SMILES IDX 83 23 82 24 41 26 71 27 52 28 70 29 53 30 56 31 69 32 87 33
REMARK SMILES IDX 54 34 55 35 68 37 88 38 57 39 42 40 43 41 51 42 44 43 50 44
REMARK SMILES IDX 45 45 46 46 47 47 48 48 49 49 72 50 73 51 81 52 74 53 80 54
REMARK SMILES IDX 75 55 76 56 77 57 78 58 79 59 58 60 59 61 67 62 60 63 66 64
REMARK SMILES IDX 61 65 62 66 63 67 64 68 65 69 8 70 9 71 10 72 11 73 12 74
REMARK SMILES IDX 13 75 14 76 15 77 16 78 32 79 17 80 20 81 18 82 19 83 21 84
REMARK SMILES IDX 22 86 23 87 24 88 25 89 26 90 30 91 27 92 29 93 31 94 28 95
REMARK H PARENT 86 25 56 36 21 85
REMARK Flexibility Score: inf
ROOT
ATOM      1  C   UNL A   1      36.095  22.883  24.713  1.00  0.00     0.188 C 
ENDROOT
BRANCH   1   2
ATOM      2  O   UNL A   1      37.416  23.436  24.785  1.00  0.00    -0.376 OA
BRANCH   2   3
ATOM      3  C   UNL A   1      37.789  23.811  26.117  1.00  0.00     0.202 C 
BRANCH   3   4
ATOM      4  C   UNL A   1      39.186  23.346  26.536  1.00  0.00     0.261 C 
BRANCH   4   5
ATOM      5  O   UNL A   1      39.835  24.302  27.380  1.00  0.00    -0.460 OA
BRANCH   5   6
ATOM      6  C   UNL A   1      40.060  25.599  27.062  1.00  0.00     0.338 C 
ATOM      7  O   UNL A   1      40.570  25.841  25.970  1.00  0.00    -0.246 OA
BRANCH   6   8
ATOM      8  C   UNL A   1      39.845  26.742  28.020  1.00  0.00     0.060 A 
ATOM      9  C   UNL A   1      40.378  28.031  27.922  1.00  0.00     0.016 A 
ATOM     10  C   UNL A   1      39.064  26.453  29.155  1.00  0.00     0.016 A 
ATOM     11  C   UNL A   1      40.238  28.962  28.954  1.00  0.00     0.010 A 
ATOM     12  C   UNL A   1      38.893  27.386  30.182  1.00  0.00     0.010 A 
ATOM     13  C   UNL A   1      39.540  28.622  30.109  1.00  0.00    -0.014 A 
BRANCH  13  14
ATOM     14  C   UNL A   1      39.724  29.436  31.327  1.00  0.00     0.031 A 
ATOM     15  C   UNL A   1      40.879  29.090  32.223  1.00  0.00     0.074 A 
ATOM     16  C   UNL A   1      38.935  30.487  31.599  1.00  0.00     0.049 A 
ATOM     17  N   UNL A   1      41.231  29.625  33.360  1.00  0.00    -0.248 NA
ATOM     18  C   UNL A   1      41.770  28.013  31.756  1.00  0.00     0.031 C 
ATOM     19  C   UNL A   1      37.874  30.989  30.731  1.00  0.00     0.029 A 
ATOM     20  N   UNL A   1      38.895  31.313  32.691  1.00  0.00    -0.354 N 
ATOM     21  C   UNL A   1      42.387  28.954  33.739  1.00  0.00     0.074 A 
ATOM     22  C   UNL A   1      42.655  27.950  32.736  1.00  0.00     0.031 C 
ATOM     23  C   UNL A   1      37.238  31.994  31.355  1.00  0.00     0.029 A 
ATOM     24  C   UNL A   1      37.841  32.193  32.669  1.00  0.00     0.049 A 
ATOM     25  H   UNL A   1      39.557  31.279  33.420  1.00  0.00     0.167 HD
ATOM     26  C   UNL A   1      43.163  29.164  34.828  1.00  0.00     0.031 A 
ATOM     27  C   UNL A   1      37.396  33.042  33.616  1.00  0.00     0.031 A 
ATOM     28  C   UNL A   1      42.854  30.131  35.840  1.00  0.00     0.049 A 
ATOM     29  C   UNL A   1      38.181  33.166  34.890  1.00  0.00     0.074 A 
ATOM     30  C   UNL A   1      43.538  30.409  37.008  1.00  0.00     0.029 A 
ATOM     31  N   UNL A   1      41.748  30.970  35.807  1.00  0.00    -0.354 N 
ATOM     32  N   UNL A   1      39.275  32.530  35.241  1.00  0.00    -0.248 NA
ATOM     33  C   UNL A   1      37.699  34.132  35.884  1.00  0.00     0.031 C 
ATOM     34  C   UNL A   1      42.817  31.386  37.704  1.00  0.00     0.029 A 
ATOM     35  C   UNL A   1      41.715  31.752  36.945  1.00  0.00     0.049 A 
ATOM     36  H   UNL A   1      41.087  31.003  35.079  1.00  0.00     0.167 HD
ATOM     37  C   UNL A   1      39.637  33.046  36.477  1.00  0.00     0.074 A 
ATOM     38  C   UNL A   1      38.637  34.040  36.820  1.00  0.00     0.031 C 
ATOM     39  C   UNL A   1      40.708  32.741  37.249  1.00  0.00     0.031 A 
BRANCH  26  40
ATOM     40  C   UNL A   1      44.361  28.269  34.977  1.00  0.00    -0.014 A 
ATOM     41  C   UNL A   1      45.605  28.622  34.419  1.00  0.00     0.010 A 
ATOM     42  C   UNL A   1      44.220  27.022  35.607  1.00  0.00     0.010 A 
ATOM     43  C   UNL A   1      46.666  27.711  34.426  1.00  0.00     0.020 A 
ATOM     44  C   UNL A   1      45.285  26.117  35.637  1.00  0.00     0.020 A 
ATOM     45  C   UNL A   1      46.491  26.457  35.020  1.00  0.00     0.054 A 
BRANCH  45  46
ATOM     46  S   UNL A   1      47.859  25.267  34.964  1.00  0.00     0.124 S 
ATOM     47  O   UNL A   1      47.424  24.268  35.939  1.00  0.00    -0.237 OA
ATOM     48  O   UNL A   1      47.849  24.828  33.571  1.00  0.00    -0.237 OA
ATOM     49  O   UNL A   1      49.022  26.057  35.357  1.00  0.00    -0.744 OA
ENDBRANCH  45  46
ENDBRANCH  26  40
BRANCH  27  50
ATOM     50  C   UNL A   1      36.138  33.797  33.379  1.00  0.00    -0.014 A 
ATOM     51  C   UNL A   1      36.155  35.087  32.823  1.00  0.00     0.010 A 
ATOM     52  C   UNL A   1      34.897  33.180  33.638  1.00  0.00     0.010 A 
ATOM     53  C   UNL A   1      34.955  35.739  32.516  1.00  0.00     0.020 A 
ATOM     54  C   UNL A   1      33.698  33.820  33.317  1.00  0.00     0.020 A 
ATOM     55  C   UNL A   1      33.734  35.097  32.755  1.00  0.00     0.054 A 
BRANCH  55  56
ATOM     56  S   UNL A   1      32.198  35.916  32.242  1.00  0.00     0.124 S 
ATOM     57  O   UNL A   1      32.260  37.173  32.979  1.00  0.00    -0.237 OA
ATOM     58  O   UNL A   1      32.369  36.018  30.795  1.00  0.00    -0.237 OA
ATOM     59  O   UNL A   1      31.157  34.984  32.671  1.00  0.00    -0.744 OA
ENDBRANCH  55  56
ENDBRANCH  27  50
BRANCH  39  60
ATOM     60  C   UNL A   1      40.894  33.519  38.519  1.00  0.00    -0.014 A 
ATOM     61  C   UNL A   1      41.841  34.551  38.608  1.00  0.00     0.010 A 
ATOM     62  C   UNL A   1      40.016  33.288  39.594  1.00  0.00     0.010 A 
ATOM     63  C   UNL A   1      41.905  35.346  39.755  1.00  0.00     0.020 A 
ATOM     64  C   UNL A   1      40.064  34.092  40.733  1.00  0.00     0.020 A 
ATOM     65  C   UNL A   1      41.012  35.115  40.807  1.00  0.00     0.054 A 
BRANCH  65  66
ATOM     66  S   UNL A   1      41.045  36.223  42.242  1.00  0.00     0.124 S 
ATOM     67  O   UNL A   1      39.624  36.463  42.471  1.00  0.00    -0.237 OA
ATOM     68  O   UNL A   1      41.719  35.416  43.255  1.00  0.00    -0.237 OA
ATOM     69  O   UNL A   1      41.805  37.378  41.769  1.00  0.00    -0.744 OA
ENDBRANCH  65  66
ENDBRANCH  39  60
ENDBRANCH  13  14
ENDBRANCH   6   8
ENDBRANCH   5   6
ENDBRANCH   4   5
ENDBRANCH   3   4
ENDBRANCH   2   3
ENDBRANCH   1   2
BRANCH   1  70
ATOM     70  C   UNL A   1      35.576  22.411  26.074  1.00  0.00     0.188 C 
BRANCH  70  71
ATOM     71  O   UNL A   1      34.211  22.701  26.368  1.00  0.00    -0.376 OA
BRANCH  71  72
ATOM     72  C   UNL A   1      33.286  22.620  25.289  1.00  0.00     0.202 C 
BRANCH  72  73
ATOM     73  C   UNL A   1      32.438  23.862  24.990  1.00  0.00     0.261 C 
BRANCH  73  74
ATOM     74  O   UNL A   1      32.247  24.138  23.591  1.00  0.00    -0.460 OA
BRANCH  74  75
ATOM     75  C   UNL A   1      33.051  25.114  23.097  1.00  0.00     0.338 C 
ATOM     76  O   UNL A   1      34.124  24.962  22.535  1.00  0.00    -0.246 OA
BRANCH  75  77
ATOM     77  C   UNL A   1      32.509  26.463  23.371  1.00  0.00     0.062 A 
ATOM     78  C   UNL A   1      31.197  26.720  22.943  1.00  0.00     0.019 A 
ATOM     79  C   UNL A   1      33.221  27.432  24.095  1.00  0.00     0.045 A 
ATOM     80  C   UNL A   1      30.582  27.934  23.249  1.00  0.00     0.042 A 
ATOM     81  C   UNL A   1      32.600  28.646  24.399  1.00  0.00     0.085 A 
ATOM     82  C   UNL A   1      31.280  28.880  23.990  1.00  0.00     0.147 A 
ATOM     83  F   UNL A   1      30.704  30.060  24.260  1.00  0.00    -0.205 F 
BRANCH  81  84
ATOM     84  N   UNL A   1      33.324  29.670  25.099  1.00  0.00    -0.277 N 
ATOM     85  H   UNL A   1      33.840  30.351  24.608  1.00  0.00     0.180 HD
BRANCH  84  86
ATOM     86  S   UNL A   1      33.263  29.674  26.790  1.00  0.00     0.264 S 
ATOM     87  O   UNL A   1      31.885  29.859  27.160  1.00  0.00    -0.201 OA
ATOM     88  O   UNL A   1      34.034  28.557  27.301  1.00  0.00    -0.201 OA
BRANCH  86  89
ATOM     89  C   UNL A   1      34.107  31.056  27.402  1.00  0.00     0.118 A 
ATOM     90  C   UNL A   1      33.432  32.296  27.668  1.00  0.00     0.056 A 
ATOM     91  C   UNL A   1      35.458  31.172  27.637  1.00  0.00     0.115 A 
ATOM     92  C   UNL A   1      34.310  33.266  28.072  1.00  0.00     0.096 A 
ATOM     93  S   UNL A   1      35.902  32.721  28.198  1.00  0.00    -0.110 S 
ATOM     94  Cl  UNL A   1      36.737  30.045  27.419  1.00  0.00    -0.071 Cl
ATOM     95  Cl  UNL A   1      33.935  34.902  28.428  1.00  0.00    -0.072 Cl
ENDBRANCH  86  89
ENDBRANCH  84  86
ENDBRANCH  81  84
ENDBRANCH  75  77
ENDBRANCH  74  75
ENDBRANCH  73  74
ENDBRANCH  72  73
ENDBRANCH  71  72
ENDBRANCH  70  71
ENDBRANCH   1  70
TORSDOF 23
ENDMDL
MODEL 3
REMARK VINA RESULT:      -9.6      3.552      5.168
REMARK SMILES O=C(OCCOCCOCCOC(=O)c1ccc(F)c(NS(=O)(=O)c2cc(Cl)sc2Cl)c1)c1ccc(-c2c3nc(c(-c4ccc(S(=O)(=O)[O-])cc4)c4ccc([nH]4)c(-c4ccc(S(=O)(=O)[O-])cc4)c4nc(c(-c5ccc(S(=O)(=O)[O-])cc5)c5ccc2[nH]5)C=C4)C=C3)cc1
REMARK SMILES IDX 7 1 6 2 5 3 4 4 3 5 2 6 1 7 33 8 34 9 92 10 35 11 91 12
REMARK SMILES IDX 36 13 37 14 38 15 85 16 39 17 90 18 84 19 86 20 40 21 89 22
REMARK SMILES IDX 83 23 82 24 41 26 71 27 52 28 70 29 53 30 56 31 69 32 87 33
REMARK SMILES IDX 54 34 55 35 68 37 88 38 57 39 42 40 43 41 51 42 44 43 50 44
REMARK SMILES IDX 45 45 46 46 47 47 48 48 49 49 72 50 73 51 81 52 74 53 80 54
REMARK SMILES IDX 75 55 76 56 77 57 78 58 79 59 58 60 59 61 67 62 60 63 66 64
REMARK SMILES IDX 61 65 62 66 63 67 64 68 65 69 8 70 9 71 10 72 11 73 12 74
REMARK SMILES IDX 13 75 14 76 15 77 16 78 32 79 17 80 20 81 18 82 19 83 21 84
REMARK SMILES IDX 22 86 23 87 24 88 25 89 26 90 30 91 27 92 29 93 31 94 28 95
REMARK H PARENT 86 25 56 36 21 85
REMARK Flexibility Score: inf
ROOT
ATOM      1  C   UNL A   1      34.888  33.913  28.555  1.00  0.00     0.188 C 
ENDROOT
BRANCH   1   2
ATOM      2  O   UNL A   1      35.842  33.350  29.464  1.00  0.00    -0.376 OA
BRANCH   2   3
ATOM      3  C   UNL A   1      35.235  32.819  30.649  1.00  0.00     0.202 C 
BRANCH   3   4
ATOM      4  C   UNL A   1      36.193  32.656  31.832  1.00  0.00     0.261 C 
BRANCH   4   5
ATOM      5  O   UNL A   1      36.491  31.281  32.091  1.00  0.00    -0.460 OA
BRANCH   5   6
ATOM      6  C   UNL A   1      36.854  30.370  31.156  1.00  0.00     0.338 C 
ATOM      7  O   UNL A   1      36.071  29.455  30.914  1.00  0.00    -0.246 OA
BRANCH   6   8
ATOM      8  C   UNL A   1      38.211  30.344  30.501  1.00  0.00     0.060 A 
ATOM      9  C   UNL A   1      38.478  30.257  29.131  1.00  0.00     0.016 A 
ATOM     10  C   UNL A   1      39.315  30.360  31.373  1.00  0.00     0.016 A 
ATOM     11  C   UNL A   1      39.778  30.081  28.649  1.00  0.00     0.010 A 
ATOM     12  C   UNL A   1      40.622  30.214  30.901  1.00  0.00     0.010 A 
ATOM     13  C   UNL A   1      40.847  30.006  29.537  1.00  0.00    -0.014 A 
BRANCH  13  14
ATOM     14  C   UNL A   1      42.129  29.439  29.075  1.00  0.00     0.031 A 
ATOM     15  C   UNL A   1      43.297  30.374  28.955  1.00  0.00     0.074 A 
ATOM     16  C   UNL A   1      42.272  28.126  28.832  1.00  0.00     0.049 A 
ATOM     17  N   UNL A   1      44.510  30.131  28.540  1.00  0.00    -0.248 NA
ATOM     18  C   UNL A   1      43.069  31.765  29.388  1.00  0.00     0.031 C 
ATOM     19  C   UNL A   1      41.243  27.113  29.047  1.00  0.00     0.029 A 
ATOM     20  N   UNL A   1      43.338  27.422  28.338  1.00  0.00    -0.354 N 
ATOM     21  C   UNL A   1      45.190  31.336  28.669  1.00  0.00     0.074 A 
ATOM     22  C   UNL A   1      44.250  32.315  29.162  1.00  0.00     0.031 C 
ATOM     23  C   UNL A   1      41.702  25.926  28.618  1.00  0.00     0.029 A 
ATOM     24  C   UNL A   1      43.051  26.102  28.090  1.00  0.00     0.049 A 
ATOM     25  H   UNL A   1      44.223  27.823  28.177  1.00  0.00     0.167 HD
ATOM     26  C   UNL A   1      46.492  31.600  28.407  1.00  0.00     0.031 A 
ATOM     27  C   UNL A   1      43.784  25.153  27.477  1.00  0.00     0.031 A 
ATOM     28  C   UNL A   1      47.399  30.628  27.871  1.00  0.00     0.049 A 
ATOM     29  C   UNL A   1      45.184  25.492  27.053  1.00  0.00     0.074 A 
ATOM     30  C   UNL A   1      48.728  30.784  27.525  1.00  0.00     0.029 A 
ATOM     31  N   UNL A   1      47.057  29.313  27.586  1.00  0.00    -0.354 N 
ATOM     32  N   UNL A   1      45.821  26.634  27.181  1.00  0.00    -0.248 NA
ATOM     33  C   UNL A   1      45.975  24.425  26.430  1.00  0.00     0.031 C 
ATOM     34  C   UNL A   1      49.175  29.573  26.985  1.00  0.00     0.029 A 
ATOM     35  C   UNL A   1      48.141  28.650  27.044  1.00  0.00     0.049 A 
ATOM     36  H   UNL A   1      46.172  28.913  27.746  1.00  0.00     0.167 HD
ATOM     37  C   UNL A   1      47.102  26.412  26.692  1.00  0.00     0.074 A 
ATOM     38  C   UNL A   1      47.145  25.029  26.255  1.00  0.00     0.031 C 
ATOM     39  C   UNL A   1      48.151  27.267  26.630  1.00  0.00     0.031 A 
BRANCH  26  40
ATOM     40  C   UNL A   1      46.947  33.013  28.640  1.00  0.00    -0.014 A 
ATOM     41  C   UNL A   1      46.871  33.979  27.619  1.00  0.00     0.010 A 
ATOM     42  C   UNL A   1      47.538  33.355  29.868  1.00  0.00     0.010 A 
ATOM     43  C   UNL A   1      47.444  35.242  27.798  1.00  0.00     0.020 A 
ATOM     44  C   UNL A   1      48.091  34.625  30.060  1.00  0.00     0.020 A 
ATOM     45  C   UNL A   1      48.066  35.549  29.012  1.00  0.00     0.054 A 
BRANCH  45  46
ATOM     46  S   UNL A   1      48.858  37.170  29.203  1.00  0.00     0.124 S 
ATOM     47  O   UNL A   1      48.051  38.002  28.312  1.00  0.00    -0.237 OA
ATOM     48  O   UNL A   1      48.698  37.441  30.629  1.00  0.00    -0.237 OA
ATOM     49  O   UNL A   1      50.231  36.938  28.765  1.00  0.00    -0.744 OA
ENDBRANCH  45  46
ENDBRANCH  26  40
BRANCH  27  50
ATOM     50  C   UNL A   1      43.176  23.821  27.220  1.00  0.00    -0.014 A 
ATOM     51  C   UNL A   1      42.589  23.513  25.981  1.00  0.00     0.010 A 
ATOM     52  C   UNL A   1      43.260  22.816  28.206  1.00  0.00     0.010 A 
ATOM     53  C   UNL A   1      42.112  22.222  25.728  1.00  0.00     0.020 A 
ATOM     54  C   UNL A   1      42.801  21.521  27.949  1.00  0.00     0.020 A 
ATOM     55  C   UNL A   1      42.231  21.232  26.709  1.00  0.00     0.054 A 
BRANCH  55  56
ATOM     56  S   UNL A   1      41.711  19.538  26.314  1.00  0.00     0.124 S 
ATOM     57  O   UNL A   1      42.499  19.246  25.123  1.00  0.00    -0.237 OA
ATOM     58  O   UNL A   1      42.089  18.809  27.522  1.00  0.00    -0.237 OA
ATOM     59  O   UNL A   1      40.271  19.666  26.102  1.00  0.00    -0.744 OA
ENDBRANCH  55  56
ENDBRANCH  27  50
BRANCH  39  60
ATOM     60  C   UNL A   1      49.456  26.730  26.117  1.00  0.00    -0.014 A 
ATOM     61  C   UNL A   1      49.821  26.874  24.769  1.00  0.00     0.010 A 
ATOM     62  C   UNL A   1      50.376  26.188  27.033  1.00  0.00     0.010 A 
ATOM     63  C   UNL A   1      51.094  26.483  24.345  1.00  0.00     0.020 A 
ATOM     64  C   UNL A   1      51.654  25.815  26.616  1.00  0.00     0.020 A 
ATOM     65  C   UNL A   1      52.004  25.964  25.271  1.00  0.00     0.054 A 
BRANCH  65  66
ATOM     66  S   UNL A   1      53.683  25.560  24.718  1.00  0.00     0.124 S 
ATOM     67  O   UNL A   1      53.640  24.102  24.663  1.00  0.00    -0.237 OA
ATOM     68  O   UNL A   1      53.767  26.236  23.427  1.00  0.00    -0.237 OA
ATOM     69  O   UNL A   1      54.535  26.120  25.764  1.00  0.00    -0.744 OA
ENDBRANCH  65  66
ENDBRANCH  39  60
ENDBRANCH  13  14
ENDBRANCH   6   8
ENDBRANCH   5   6
ENDBRANCH   4   5
ENDBRANCH   3   4
ENDBRANCH   2   3
ENDBRANCH   1   2
BRANCH   1  70
ATOM     70  C   UNL A   1      33.855  32.890  28.073  1.00  0.00     0.188 C 
BRANCH  70  71
ATOM     71  O   UNL A   1      34.370  31.704  27.473  1.00  0.00    -0.376 OA
BRANCH  71  72
ATOM     72  C   UNL A   1      33.708  30.483  27.782  1.00  0.00     0.202 C 
BRANCH  72  73
ATOM     73  C   UNL A   1      33.423  29.519  26.625  1.00  0.00     0.261 C 
BRANCH  73  74
ATOM     74  O   UNL A   1      32.032  29.208  26.429  1.00  0.00    -0.460 OA
BRANCH  74  75
ATOM     75  C   UNL A   1      31.654  28.000  26.921  1.00  0.00     0.338 C 
ATOM     76  O   UNL A   1      31.487  27.709  28.095  1.00  0.00    -0.246 OA
BRANCH  75  77
ATOM     77  C   UNL A   1      31.511  26.990  25.849  1.00  0.00     0.062 A 
ATOM     78  C   UNL A   1      30.720  27.344  24.745  1.00  0.00     0.019 A 
ATOM     79  C   UNL A   1      32.189  25.762  25.872  1.00  0.00     0.045 A 
ATOM     80  C   UNL A   1      30.615  26.484  23.651  1.00  0.00     0.042 A 
ATOM     81  C   UNL A   1      32.081  24.905  24.774  1.00  0.00     0.085 A 
ATOM     82  C   UNL A   1      31.311  25.280  23.665  1.00  0.00     0.147 A 
ATOM     83  F   UNL A   1      31.188  24.439  22.629  1.00  0.00    -0.205 F 
BRANCH  81  84
ATOM     84  N   UNL A   1      32.729  23.623  24.793  1.00  0.00    -0.277 N 
ATOM     85  H   UNL A   1      33.529  23.452  24.245  1.00  0.00     0.180 HD
BRANCH  84  86
ATOM     86  S   UNL A   1      32.076  22.417  25.785  1.00  0.00     0.264 S 
ATOM     87  O   UNL A   1      32.839  22.419  27.005  1.00  0.00    -0.201 OA
ATOM     88  O   UNL A   1      30.631  22.539  25.802  1.00  0.00    -0.201 OA
BRANCH  86  89
ATOM     89  C   UNL A   1      32.338  20.864  25.066  1.00  0.00     0.118 A 
ATOM     90  C   UNL A   1      32.714  19.722  25.852  1.00  0.00     0.056 A 
ATOM     91  C   UNL A   1      32.293  20.546  23.728  1.00  0.00     0.115 A 
ATOM     92  C   UNL A   1      32.939  18.626  25.064  1.00  0.00     0.096 A 
ATOM     93  S   UNL A   1      32.657  18.907  23.424  1.00  0.00    -0.110 S 
ATOM     94  Cl  UNL A   1      31.976  21.524  22.351  1.00  0.00    -0.071 Cl
ATOM     95  Cl  UNL A   1      33.467  17.079  25.588  1.00  0.00    -0.072 Cl
ENDBRANCH  86  89
ENDBRANCH  84  86
ENDBRANCH  81  84
ENDBRANCH  75  77
ENDBRANCH  74  75
ENDBRANCH  73  74
ENDBRANCH  72  73
ENDBRANCH  71  72
ENDBRANCH  70  71
ENDBRANCH   1  70
TORSDOF 23
ENDMDL
