MODEL 1
REMARK VINA RESULT:      -9.7      0.000      0.000
REMARK SMILES CC(C)(C)OC(=O)N[C@H](c1ccccc1)[C@@H](O)CC(=O)OCCOCCOCCOC(=O)c1ccc(-c2c3nc(c(-c4ccc(S(=O)(=O)[O-])cc4)c4ccc([nH]4)c(-c4ccc(S(=O)(=O)[O-])cc4)c4nc(c(-c5ccc(S(=O)(=O)[O-])cc5)c5ccc2[nH]5)C=C4)C=C3)cc1
REMARK SMILES IDX 25 1 24 2 23 3 22 4 21 5 19 6 20 7 18 8 16 9 9 10 8 11 6 12
REMARK SMILES IDX 7 13 5 15 2 16 1 17 3 18 4 19 10 20 11 21 15 22 12 23 14 24
REMARK SMILES IDX 13 25 17 26 26 28 27 29 28 30 29 31 30 32 31 33 32 34 33 35
REMARK SMILES IDX 34 36 92 37 35 38 91 39 36 40 37 41 38 42 85 43 39 44 90 45
REMARK SMILES IDX 84 46 86 47 40 48 89 49 83 50 82 51 41 53 71 54 52 55 70 56
REMARK SMILES IDX 53 57 56 58 69 59 87 60 54 61 55 62 68 64 88 65 57 66 42 67
REMARK SMILES IDX 43 68 51 69 44 70 50 71 45 72 46 73 47 74 48 75 49 76 72 77
REMARK SMILES IDX 73 78 81 79 74 80 80 81 75 82 76 83 77 84 78 85 79 86 58 87
REMARK SMILES IDX 59 88 67 89 60 90 66 91 61 92 62 93 63 94 64 95 65 96
REMARK H PARENT 8 14 17 27 86 52 56 63
REMARK Flexibility Score: inf
ROOT
ATOM      1  C   UNL A   1      33.131  27.894  25.546  1.00  0.00     0.188 C 
ENDROOT
BRANCH   1   2
ATOM      2  O   UNL A   1      32.143  28.708  24.925  1.00  0.00    -0.376 OA
BRANCH   2   3
ATOM      3  C   UNL A   1      31.334  28.065  23.935  1.00  0.00     0.202 C 
BRANCH   3   4
ATOM      4  C   UNL A   1      31.567  26.556  23.798  1.00  0.00     0.261 C 
BRANCH   4   5
ATOM      5  O   UNL A   1      31.852  26.182  22.428  1.00  0.00    -0.463 OA
BRANCH   5   6
ATOM      6  C   UNL A   1      33.149  25.956  22.126  1.00  0.00     0.308 C 
ATOM      7  O   UNL A   1      33.833  26.716  21.449  1.00  0.00    -0.252 OA
BRANCH   6   8
ATOM      8  C   UNL A   1      33.755  24.721  22.762  1.00  0.00     0.157 C 
BRANCH   8   9
ATOM      9  C   UNL A   1      33.309  23.282  22.458  1.00  0.00     0.152 C 
BRANCH   9  10
ATOM     10  C   UNL A   1      33.936  22.173  23.364  1.00  0.00     0.145 C 
BRANCH  10  11
ATOM     11  N   UNL A   1      32.930  21.674  24.287  1.00  0.00    -0.312 N 
ATOM     12  C   UNL A   1      32.523  20.404  24.501  1.00  0.00     0.408 C 
ATOM     13  O   UNL A   1      31.678  20.161  25.358  1.00  0.00    -0.225 OA
ATOM     14  H   UNL A   1      32.482  22.359  24.833  1.00  0.00     0.167 HD
BRANCH  12  15
ATOM     15  O   UNL A   1      33.092  19.505  23.669  1.00  0.00    -0.444 OA
BRANCH  15  16
ATOM     16  C   UNL A   1      33.604  18.266  24.218  1.00  0.00     0.106 C 
ATOM     17  C   UNL A   1      35.026  18.593  24.695  1.00  0.00     0.056 C 
ATOM     18  C   UNL A   1      33.690  17.190  23.125  1.00  0.00     0.056 C 
ATOM     19  C   UNL A   1      32.782  17.800  25.426  1.00  0.00     0.056 C 
ENDBRANCH  15  16
ENDBRANCH  12  15
ENDBRANCH  10  11
BRANCH  10  20
ATOM     20  C   UNL A   1      35.155  22.662  24.166  1.00  0.00    -0.023 A 
ATOM     21  C   UNL A   1      36.424  22.096  23.963  1.00  0.00     0.006 A 
ATOM     22  C   UNL A   1      35.045  23.671  25.138  1.00  0.00     0.006 A 
ATOM     23  C   UNL A   1      37.531  22.520  24.710  1.00  0.00     0.000 A 
ATOM     24  C   UNL A   1      36.142  24.085  25.896  1.00  0.00     0.000 A 
ATOM     25  C   UNL A   1      37.387  23.508  25.683  1.00  0.00     0.000 A 
ENDBRANCH  10  20
ENDBRANCH   9  10
BRANCH   9  26
ATOM     26  O   UNL A   1      31.872  23.321  22.618  1.00  0.00    -0.390 OA
ATOM     27  H   UNL A   1      31.589  22.581  23.177  1.00  0.00     0.211 HD
ENDBRANCH   9  26
ENDBRANCH   8   9
ENDBRANCH   6   8
ENDBRANCH   5   6
ENDBRANCH   4   5
ENDBRANCH   3   4
ENDBRANCH   2   3
ENDBRANCH   1   2
BRANCH   1  28
ATOM     28  C   UNL A   1      33.710  28.488  26.827  1.00  0.00     0.188 C 
BRANCH  28  29
ATOM     29  O   UNL A   1      34.248  29.794  26.752  1.00  0.00    -0.376 OA
BRANCH  29  30
ATOM     30  C   UNL A   1      33.737  30.807  27.626  1.00  0.00     0.202 C 
BRANCH  30  31
ATOM     31  C   UNL A   1      34.587  31.786  28.478  1.00  0.00     0.261 C 
BRANCH  31  32
ATOM     32  O   UNL A   1      36.012  31.624  28.544  1.00  0.00    -0.460 OA
BRANCH  32  33
ATOM     33  C   UNL A   1      36.565  31.170  29.693  1.00  0.00     0.338 C 
ATOM     34  O   UNL A   1      35.977  30.970  30.740  1.00  0.00    -0.246 OA
BRANCH  33  35
ATOM     35  C   UNL A   1      37.933  30.661  29.356  1.00  0.00     0.060 A 
ATOM     36  C   UNL A   1      38.896  30.633  30.377  1.00  0.00     0.016 A 
ATOM     37  C   UNL A   1      38.232  30.078  28.119  1.00  0.00     0.016 A 
ATOM     38  C   UNL A   1      40.135  30.012  30.175  1.00  0.00     0.010 A 
ATOM     39  C   UNL A   1      39.485  29.485  27.907  1.00  0.00     0.010 A 
ATOM     40  C   UNL A   1      40.449  29.452  28.931  1.00  0.00    -0.014 A 
BRANCH  40  41
ATOM     41  C   UNL A   1      41.825  28.964  28.638  1.00  0.00     0.031 A 
ATOM     42  C   UNL A   1      42.947  29.966  28.603  1.00  0.00     0.074 A 
ATOM     43  C   UNL A   1      42.084  27.666  28.385  1.00  0.00     0.049 A 
ATOM     44  N   UNL A   1      44.198  29.802  28.259  1.00  0.00    -0.248 NA
ATOM     45  C   UNL A   1      42.609  31.341  29.010  1.00  0.00     0.031 C 
ATOM     46  C   UNL A   1      41.108  26.578  28.437  1.00  0.00     0.029 A 
ATOM     47  N   UNL A   1      43.255  27.047  28.010  1.00  0.00    -0.354 N 
ATOM     48  C   UNL A   1      44.792  31.052  28.386  1.00  0.00     0.074 A 
ATOM     49  C   UNL A   1      43.762  31.968  28.827  1.00  0.00     0.031 C 
ATOM     50  C   UNL A   1      41.716  25.430  28.084  1.00  0.00     0.029 A 
ATOM     51  C   UNL A   1      43.110  25.707  27.733  1.00  0.00     0.049 A 
ATOM     52  H   UNL A   1      44.117  27.520  27.946  1.00  0.00     0.167 HD
ATOM     53  C   UNL A   1      46.077  31.409  28.153  1.00  0.00     0.031 A 
ATOM     54  C   UNL A   1      43.983  24.814  27.219  1.00  0.00     0.031 A 
ATOM     55  C   UNL A   1      47.100  30.503  27.700  1.00  0.00     0.049 A 
ATOM     56  C   UNL A   1      45.385  25.257  26.872  1.00  0.00     0.074 A 
ATOM     57  C   UNL A   1      48.438  30.770  27.465  1.00  0.00     0.029 A 
ATOM     58  N   UNL A   1      46.900  29.166  27.396  1.00  0.00    -0.354 N 
ATOM     59  N   UNL A   1      45.943  26.432  27.037  1.00  0.00    -0.248 NA
ATOM     60  C   UNL A   1      46.272  24.254  26.261  1.00  0.00     0.031 C 
ATOM     61  C   UNL A   1      49.029  29.615  26.946  1.00  0.00     0.029 A 
ATOM     62  C   UNL A   1      48.078  28.607  26.928  1.00  0.00     0.049 A 
ATOM     63  H   UNL A   1      46.048  28.683  27.499  1.00  0.00     0.167 HD
ATOM     64  C   UNL A   1      47.248  26.303  26.566  1.00  0.00     0.074 A 
ATOM     65  C   UNL A   1      47.404  24.931  26.134  1.00  0.00     0.031 C 
ATOM     66  C   UNL A   1      48.226  27.241  26.494  1.00  0.00     0.031 A 
BRANCH  53  67
ATOM     67  C   UNL A   1      46.447  32.857  28.333  1.00  0.00    -0.014 A 
ATOM     68  C   UNL A   1      46.952  33.340  29.554  1.00  0.00     0.010 A 
ATOM     69  C   UNL A   1      46.343  33.737  27.239  1.00  0.00     0.010 A 
ATOM     70  C   UNL A   1      47.317  34.683  29.684  1.00  0.00     0.020 A 
ATOM     71  C   UNL A   1      46.736  35.073  27.357  1.00  0.00     0.020 A 
ATOM     72  C   UNL A   1      47.209  35.540  28.584  1.00  0.00     0.054 A 
BRANCH  72  73
ATOM     73  S   UNL A   1      47.727  37.268  28.775  1.00  0.00     0.124 S 
ATOM     74  O   UNL A   1      46.624  37.984  28.139  1.00  0.00    -0.237 OA
ATOM     75  O   UNL A   1      47.816  37.415  30.226  1.00  0.00    -0.237 OA
ATOM     76  O   UNL A   1      49.001  37.330  28.065  1.00  0.00    -0.744 OA
ENDBRANCH  72  73
ENDBRANCH  53  67
BRANCH  54  77
ATOM     77  C   UNL A   1      43.547  23.414  26.936  1.00  0.00    -0.014 A 
ATOM     78  C   UNL A   1      43.391  22.958  25.615  1.00  0.00     0.010 A 
ATOM     79  C   UNL A   1      43.260  22.533  27.996  1.00  0.00     0.010 A 
ATOM     80  C   UNL A   1      42.942  21.656  25.360  1.00  0.00     0.020 A 
ATOM     81  C   UNL A   1      42.843  21.223  27.747  1.00  0.00     0.020 A 
ATOM     82  C   UNL A   1      42.676  20.796  26.429  1.00  0.00     0.054 A 
BRANCH  82  83
ATOM     83  S   UNL A   1      42.142  19.098  26.074  1.00  0.00     0.124 S 
ATOM     84  O   UNL A   1      40.708  19.268  25.859  1.00  0.00    -0.237 OA
ATOM     85  O   UNL A   1      42.925  18.764  24.887  1.00  0.00    -0.237 OA
ATOM     86  O   UNL A   1      42.509  18.362  27.282  1.00  0.00    -0.744 OA
ENDBRANCH  82  83
ENDBRANCH  54  77
BRANCH  66  87
ATOM     87  C   UNL A   1      49.565  26.826  25.936  1.00  0.00    -0.014 A 
ATOM     88  C   UNL A   1      49.946  27.173  24.628  1.00  0.00     0.010 A 
ATOM     89  C   UNL A   1      50.490  26.157  26.762  1.00  0.00     0.010 A 
ATOM     90  C   UNL A   1      51.219  26.847  24.151  1.00  0.00     0.020 A 
ATOM     91  C   UNL A   1      51.774  25.856  26.298  1.00  0.00     0.020 A 
ATOM     92  C   UNL A   1      52.128  26.197  24.991  1.00  0.00     0.054 A 
BRANCH  92  93
ATOM     93  S   UNL A   1      53.796  25.851  24.368  1.00  0.00     0.124 S 
ATOM     94  O   UNL A   1      54.019  24.484  24.830  1.00  0.00    -0.237 OA
ATOM     95  O   UNL A   1      53.637  26.008  22.924  1.00  0.00    -0.237 OA
ATOM     96  O   UNL A   1      54.626  26.869  25.011  1.00  0.00    -0.744 OA
ENDBRANCH  92  93
ENDBRANCH  66  87
ENDBRANCH  40  41
ENDBRANCH  33  35
ENDBRANCH  32  33
ENDBRANCH  31  32
ENDBRANCH  30  31
ENDBRANCH  29  30
ENDBRANCH  28  29
ENDBRANCH   1  28
TORSDOF 27
ENDMDL
MODEL 2
REMARK VINA RESULT:      -9.4      2.031      8.776
REMARK SMILES CC(C)(C)OC(=O)N[C@H](c1ccccc1)[C@@H](O)CC(=O)OCCOCCOCCOC(=O)c1ccc(-c2c3nc(c(-c4ccc(S(=O)(=O)[O-])cc4)c4ccc([nH]4)c(-c4ccc(S(=O)(=O)[O-])cc4)c4nc(c(-c5ccc(S(=O)(=O)[O-])cc5)c5ccc2[nH]5)C=C4)C=C3)cc1
REMARK SMILES IDX 25 1 24 2 23 3 22 4 21 5 19 6 20 7 18 8 16 9 9 10 8 11 6 12
REMARK SMILES IDX 7 13 5 15 2 16 1 17 3 18 4 19 10 20 11 21 15 22 12 23 14 24
REMARK SMILES IDX 13 25 17 26 26 28 27 29 28 30 29 31 30 32 31 33 32 34 33 35
REMARK SMILES IDX 34 36 92 37 35 38 91 39 36 40 37 41 38 42 85 43 39 44 90 45
REMARK SMILES IDX 84 46 86 47 40 48 89 49 83 50 82 51 41 53 71 54 52 55 70 56
REMARK SMILES IDX 53 57 56 58 69 59 87 60 54 61 55 62 68 64 88 65 57 66 42 67
REMARK SMILES IDX 43 68 51 69 44 70 50 71 45 72 46 73 47 74 48 75 49 76 72 77
REMARK SMILES IDX 73 78 81 79 74 80 80 81 75 82 76 83 77 84 78 85 79 86 58 87
REMARK SMILES IDX 59 88 67 89 60 90 66 91 61 92 62 93 63 94 64 95 65 96
REMARK H PARENT 8 14 17 27 86 52 56 63
REMARK Flexibility Score: inf
ROOT
ATOM      1  C   UNL A   1      34.099  18.116  24.623  1.00  0.00     0.188 C 
ENDROOT
BRANCH   1   2
ATOM      2  O   UNL A   1      32.776  18.616  24.466  1.00  0.00    -0.376 OA
BRANCH   2   3
ATOM      3  C   UNL A   1      32.368  18.899  23.125  1.00  0.00     0.202 C 
BRANCH   3   4
ATOM      4  C   UNL A   1      32.045  20.372  22.849  1.00  0.00     0.261 C 
BRANCH   4   5
ATOM      5  O   UNL A   1      32.239  21.190  24.029  1.00  0.00    -0.463 OA
BRANCH   5   6
ATOM      6  C   UNL A   1      32.714  22.437  23.822  1.00  0.00     0.308 C 
ATOM      7  O   UNL A   1      33.049  22.865  22.721  1.00  0.00    -0.252 OA
BRANCH   6   8
ATOM      8  C   UNL A   1      32.727  23.335  25.042  1.00  0.00     0.157 C 
BRANCH   8   9
ATOM      9  C   UNL A   1      31.490  24.059  25.598  1.00  0.00     0.152 C 
BRANCH   9  10
ATOM     10  C   UNL A   1      31.233  25.494  25.034  1.00  0.00     0.145 C 
BRANCH  10  11
ATOM     11  N   UNL A   1      31.618  25.540  23.633  1.00  0.00    -0.312 N 
ATOM     12  C   UNL A   1      31.353  26.487  22.707  1.00  0.00     0.408 C 
ATOM     13  O   UNL A   1      31.795  26.379  21.567  1.00  0.00    -0.225 OA
ATOM     14  H   UNL A   1      32.146  24.774  23.314  1.00  0.00     0.167 HD
BRANCH  12  15
ATOM     15  O   UNL A   1      30.549  27.475  23.156  1.00  0.00    -0.444 OA
BRANCH  15  16
ATOM     16  C   UNL A   1      31.024  28.842  23.112  1.00  0.00     0.106 C 
ATOM     17  C   UNL A   1      30.262  29.499  21.953  1.00  0.00     0.056 C 
ATOM     18  C   UNL A   1      32.526  28.879  22.793  1.00  0.00     0.056 C 
ATOM     19  C   UNL A   1      30.689  29.599  24.404  1.00  0.00     0.056 C 
ENDBRANCH  15  16
ENDBRANCH  12  15
ENDBRANCH  10  11
BRANCH  10  20
ATOM     20  C   UNL A   1      31.992  26.591  25.801  1.00  0.00    -0.023 A 
ATOM     21  C   UNL A   1      33.343  26.859  25.524  1.00  0.00     0.006 A 
ATOM     22  C   UNL A   1      31.377  27.348  26.812  1.00  0.00     0.006 A 
ATOM     23  C   UNL A   1      34.045  27.839  26.239  1.00  0.00     0.000 A 
ATOM     24  C   UNL A   1      32.078  28.313  27.539  1.00  0.00     0.000 A 
ATOM     25  C   UNL A   1      33.414  28.559  27.252  1.00  0.00     0.000 A 
ENDBRANCH  10  20
ENDBRANCH   9  10
BRANCH   9  26
ATOM     26  O   UNL A   1      30.392  23.176  25.269  1.00  0.00    -0.390 OA
ATOM     27  H   UNL A   1      29.806  23.613  24.631  1.00  0.00     0.211 HD
ENDBRANCH   9  26
ENDBRANCH   8   9
ENDBRANCH   6   8
ENDBRANCH   5   6
ENDBRANCH   4   5
ENDBRANCH   3   4
ENDBRANCH   2   3
ENDBRANCH   1   2
BRANCH   1  28
ATOM     28  C   UNL A   1      35.165  19.203  24.734  1.00  0.00     0.188 C 
BRANCH  28  29
ATOM     29  O   UNL A   1      36.518  18.791  24.683  1.00  0.00    -0.376 OA
BRANCH  29  30
ATOM     30  C   UNL A   1      37.545  19.745  24.974  1.00  0.00     0.202 C 
BRANCH  30  31
ATOM     31  C   UNL A   1      39.003  19.415  25.388  1.00  0.00     0.261 C 
BRANCH  31  32
ATOM     32  O   UNL A   1      39.812  20.420  26.016  1.00  0.00    -0.460 OA
BRANCH  32  33
ATOM     33  C   UNL A   1      41.108  20.140  26.290  1.00  0.00     0.338 C 
ATOM     34  O   UNL A   1      41.672  19.084  26.072  1.00  0.00    -0.246 OA
BRANCH  33  35
ATOM     35  C   UNL A   1      41.787  21.439  26.601  1.00  0.00     0.060 A 
ATOM     36  C   UNL A   1      42.294  21.624  27.897  1.00  0.00     0.016 A 
ATOM     37  C   UNL A   1      42.065  22.394  25.616  1.00  0.00     0.016 A 
ATOM     38  C   UNL A   1      43.088  22.736  28.204  1.00  0.00     0.010 A 
ATOM     39  C   UNL A   1      42.833  23.524  25.932  1.00  0.00     0.010 A 
ATOM     40  C   UNL A   1      43.345  23.708  27.229  1.00  0.00    -0.014 A 
BRANCH  40  41
ATOM     41  C   UNL A   1      44.019  24.987  27.585  1.00  0.00     0.031 A 
ATOM     42  C   UNL A   1      43.189  26.088  28.190  1.00  0.00     0.074 A 
ATOM     43  C   UNL A   1      45.332  25.190  27.363  1.00  0.00     0.049 A 
ATOM     44  N   UNL A   1      43.523  27.321  28.473  1.00  0.00    -0.248 NA
ATOM     45  C   UNL A   1      41.793  25.751  28.517  1.00  0.00     0.031 C 
ATOM     46  C   UNL A   1      46.268  24.198  26.835  1.00  0.00     0.029 A 
ATOM     47  N   UNL A   1      46.102  26.317  27.536  1.00  0.00    -0.354 N 
ATOM     48  C   UNL A   1      42.376  27.912  28.991  1.00  0.00     0.074 A 
ATOM     49  C   UNL A   1      41.334  26.908  28.970  1.00  0.00     0.031 C 
ATOM     50  C   UNL A   1      47.480  24.768  26.706  1.00  0.00     0.029 A 
ATOM     51  C   UNL A   1      47.398  26.177  27.095  1.00  0.00     0.049 A 
ATOM     52  H   UNL A   1      45.758  27.148  27.939  1.00  0.00     0.167 HD
ATOM     53  C   UNL A   1      42.202  29.179  29.437  1.00  0.00     0.031 A 
ATOM     54  C   UNL A   1      48.392  27.084  26.978  1.00  0.00     0.031 A 
ATOM     55  C   UNL A   1      43.233  30.184  29.444  1.00  0.00     0.049 A 
ATOM     56  C   UNL A   1      48.147  28.516  27.390  1.00  0.00     0.074 A 
ATOM     57  C   UNL A   1      43.156  31.486  29.907  1.00  0.00     0.029 A 
ATOM     58  N   UNL A   1      44.517  30.010  28.953  1.00  0.00    -0.354 N 
ATOM     59  N   UNL A   1      47.071  29.050  27.916  1.00  0.00    -0.248 NA
ATOM     60  C   UNL A   1      49.249  29.471  27.185  1.00  0.00     0.031 C 
ATOM     61  C   UNL A   1      44.368  32.122  29.625  1.00  0.00     0.029 A 
ATOM     62  C   UNL A   1      45.226  31.195  29.055  1.00  0.00     0.049 A 
ATOM     63  H   UNL A   1      44.873  29.167  28.588  1.00  0.00     0.167 HD
ATOM     64  C   UNL A   1      47.373  30.396  28.118  1.00  0.00     0.074 A 
ATOM     65  C   UNL A   1      48.739  30.589  27.682  1.00  0.00     0.031 C 
ATOM     66  C   UNL A   1      46.585  31.382  28.614  1.00  0.00     0.031 A 
BRANCH  53  67
ATOM     67  C   UNL A   1      40.829  29.573  29.913  1.00  0.00    -0.014 A 
ATOM     68  C   UNL A   1      40.431  29.382  31.248  1.00  0.00     0.010 A 
ATOM     69  C   UNL A   1      39.943  30.201  29.017  1.00  0.00     0.010 A 
ATOM     70  C   UNL A   1      39.162  29.787  31.670  1.00  0.00     0.020 A 
ATOM     71  C   UNL A   1      38.685  30.634  29.443  1.00  0.00     0.020 A 
ATOM     72  C   UNL A   1      38.298  30.412  30.766  1.00  0.00     0.054 A 
BRANCH  72  73
ATOM     73  S   UNL A   1      36.671  30.958  31.354  1.00  0.00     0.124 S 
ATOM     74  O   UNL A   1      36.365  29.953  32.369  1.00  0.00    -0.237 OA
ATOM     75  O   UNL A   1      36.951  32.298  31.864  1.00  0.00    -0.237 OA
ATOM     76  O   UNL A   1      35.834  30.911  30.159  1.00  0.00    -0.744 OA
ENDBRANCH  72  73
ENDBRANCH  53  67
BRANCH  54  77
ATOM     77  C   UNL A   1      49.704  26.688  26.386  1.00  0.00    -0.014 A 
ATOM     78  C   UNL A   1      49.985  26.921  25.028  1.00  0.00     0.010 A 
ATOM     79  C   UNL A   1      50.676  26.049  27.180  1.00  0.00     0.010 A 
ATOM     80  C   UNL A   1      51.203  26.510  24.473  1.00  0.00     0.020 A 
ATOM     81  C   UNL A   1      51.905  25.665  26.638  1.00  0.00     0.020 A 
ATOM     82  C   UNL A   1      52.157  25.888  25.283  1.00  0.00     0.054 A 
BRANCH  82  83
ATOM     83  S   UNL A   1      53.747  25.407  24.553  1.00  0.00     0.124 S 
ATOM     84  O   UNL A   1      53.556  25.756  23.149  1.00  0.00    -0.237 OA
ATOM     85  O   UNL A   1      54.696  26.239  25.288  1.00  0.00    -0.237 OA
ATOM     86  O   UNL A   1      53.836  23.975  24.834  1.00  0.00    -0.744 OA
ENDBRANCH  82  83
ENDBRANCH  54  77
BRANCH  66  87
ATOM     87  C   UNL A   1      47.172  32.767  28.729  1.00  0.00    -0.014 A 
ATOM     88  C   UNL A   1      47.035  33.703  27.689  1.00  0.00     0.010 A 
ATOM     89  C   UNL A   1      47.792  33.167  29.929  1.00  0.00     0.010 A 
ATOM     90  C   UNL A   1      47.519  35.006  27.839  1.00  0.00     0.020 A 
ATOM     91  C   UNL A   1      48.251  34.478  30.094  1.00  0.00     0.020 A 
ATOM     92  C   UNL A   1      48.117  35.387  29.043  1.00  0.00     0.054 A 
BRANCH  92  93
ATOM     93  S   UNL A   1      48.670  37.105  29.235  1.00  0.00     0.124 S 
ATOM     94  O   UNL A   1      49.330  37.359  27.958  1.00  0.00    -0.237 OA
ATOM     95  O   UNL A   1      47.414  37.822  29.447  1.00  0.00    -0.237 OA
ATOM     96  O   UNL A   1      49.557  37.058  30.396  1.00  0.00    -0.744 OA
ENDBRANCH  92  93
ENDBRANCH  66  87
ENDBRANCH  40  41
ENDBRANCH  33  35
ENDBRANCH  32  33
ENDBRANCH  31  32
ENDBRANCH  30  31
ENDBRANCH  29  30
ENDBRANCH  28  29
ENDBRANCH   1  28
TORSDOF 27
ENDMDL
MODEL 3
REMARK VINA RESULT:      -9.3      2.546      9.081
REMARK SMILES CC(C)(C)OC(=O)N[C@H](c1ccccc1)[C@@H](O)CC(=O)OCCOCCOCCOC(=O)c1ccc(-c2c3nc(c(-c4ccc(S(=O)(=O)[O-])cc4)c4ccc([nH]4)c(-c4ccc(S(=O)(=O)[O-])cc4)c4nc(c(-c5ccc(S(=O)(=O)[O-])cc5)c5ccc2[nH]5)C=C4)C=C3)cc1
REMARK SMILES IDX 25 1 24 2 23 3 22 4 21 5 19 6 20 7 18 8 16 9 9 10 8 11 6 12
REMARK SMILES IDX 7 13 5 15 2 16 1 17 3 18 4 19 10 20 11 21 15 22 12 23 14 24
REMARK SMILES IDX 13 25 17 26 26 28 27 29 28 30 29 31 30 32 31 33 32 34 33 35
REMARK SMILES IDX 34 36 92 37 35 38 91 39 36 40 37 41 38 42 85 43 39 44 90 45
REMARK SMILES IDX 84 46 86 47 40 48 89 49 83 50 82 51 41 53 71 54 52 55 70 56
REMARK SMILES IDX 53 57 56 58 69 59 87 60 54 61 55 62 68 64 88 65 57 66 42 67
REMARK SMILES IDX 43 68 51 69 44 70 50 71 45 72 46 73 47 74 48 75 49 76 72 77
REMARK SMILES IDX 73 78 81 79 74 80 80 81 75 82 76 83 77 84 78 85 79 86 58 87
REMARK SMILES IDX 59 88 67 89 60 90 66 91 61 92 62 93 63 94 64 95 65 96
REMARK H PARENT 8 14 17 27 86 52 56 63
REMARK Flexibility Score: inf
ROOT
ATOM      1  C   UNL A   1      33.333  19.488  25.146  1.00  0.00     0.188 C 
ENDROOT
BRANCH   1   2
ATOM      2  O   UNL A   1      32.156  19.652  24.363  1.00  0.00    -0.376 OA
BRANCH   2   3
ATOM      3  C   UNL A   1      32.360  20.042  23.002  1.00  0.00     0.202 C 
BRANCH   3   4
ATOM      4  C   UNL A   1      31.808  21.427  22.643  1.00  0.00     0.261 C 
BRANCH   4   5
ATOM      5  O   UNL A   1      31.392  22.158  23.821  1.00  0.00    -0.463 OA
BRANCH   5   6
ATOM      6  C   UNL A   1      31.842  23.427  23.930  1.00  0.00     0.308 C 
ATOM      7  O   UNL A   1      33.006  23.757  23.726  1.00  0.00    -0.252 OA
BRANCH   6   8
ATOM      8  C   UNL A   1      30.782  24.465  24.238  1.00  0.00     0.157 C 
BRANCH   8   9
ATOM      9  C   UNL A   1      30.467  25.674  23.342  1.00  0.00     0.152 C 
BRANCH   9  10
ATOM     10  C   UNL A   1      30.667  27.077  24.003  1.00  0.00     0.145 C 
BRANCH  10  11
ATOM     11  N   UNL A   1      30.664  26.937  25.449  1.00  0.00    -0.312 N 
ATOM     12  C   UNL A   1      31.387  27.607  26.373  1.00  0.00     0.408 C 
ATOM     13  O   UNL A   1      31.225  27.382  27.569  1.00  0.00    -0.225 OA
ATOM     14  H   UNL A   1      30.048  26.258  25.807  1.00  0.00     0.167 HD
BRANCH  12  15
ATOM     15  O   UNL A   1      32.286  28.462  25.841  1.00  0.00    -0.444 OA
BRANCH  15  16
ATOM     16  C   UNL A   1      33.667  28.042  25.716  1.00  0.00     0.106 C 
ATOM     17  C   UNL A   1      34.070  28.401  24.279  1.00  0.00     0.056 C 
ATOM     18  C   UNL A   1      33.783  26.521  25.890  1.00  0.00     0.056 C 
ATOM     19  C   UNL A   1      34.581  28.808  26.681  1.00  0.00     0.056 C 
ENDBRANCH  15  16
ENDBRANCH  12  15
ENDBRANCH  10  11
BRANCH  10  20
ATOM     20  C   UNL A   1      29.591  28.098  23.594  1.00  0.00    -0.023 A 
ATOM     21  C   UNL A   1      28.248  27.711  23.454  1.00  0.00     0.006 A 
ATOM     22  C   UNL A   1      29.907  29.441  23.326  1.00  0.00     0.006 A 
ATOM     23  C   UNL A   1      27.270  28.632  23.056  1.00  0.00     0.000 A 
ATOM     24  C   UNL A   1      28.939  30.357  22.913  1.00  0.00     0.000 A 
ATOM     25  C   UNL A   1      27.618  29.952  22.776  1.00  0.00     0.000 A 
ENDBRANCH  10  20
ENDBRANCH   9  10
BRANCH   9  26
ATOM     26  O   UNL A   1      31.355  25.511  22.212  1.00  0.00    -0.390 OA
ATOM     27  H   UNL A   1      31.127  26.157  21.525  1.00  0.00     0.211 HD
ENDBRANCH   9  26
ENDBRANCH   8   9
ENDBRANCH   6   8
ENDBRANCH   5   6
ENDBRANCH   4   5
ENDBRANCH   3   4
ENDBRANCH   2   3
ENDBRANCH   1   2
BRANCH   1  28
ATOM     28  C   UNL A   1      34.254  20.705  25.147  1.00  0.00     0.188 C 
BRANCH  28  29
ATOM     29  O   UNL A   1      35.648  20.462  25.180  1.00  0.00    -0.376 OA
BRANCH  29  30
ATOM     30  C   UNL A   1      36.541  21.571  25.329  1.00  0.00     0.202 C 
BRANCH  30  31
ATOM     31  C   UNL A   1      38.091  21.495  25.351  1.00  0.00     0.261 C 
BRANCH  31  32
ATOM     32  O   UNL A   1      38.845  22.498  26.047  1.00  0.00    -0.460 OA
BRANCH  32  33
ATOM     33  C   UNL A   1      39.855  22.110  26.861  1.00  0.00     0.338 C 
ATOM     34  O   UNL A   1      40.243  20.968  27.022  1.00  0.00    -0.246 OA
BRANCH  33  35
ATOM     35  C   UNL A   1      40.600  23.345  27.265  1.00  0.00     0.060 A 
ATOM     36  C   UNL A   1      40.337  24.532  26.564  1.00  0.00     0.016 A 
ATOM     37  C   UNL A   1      41.419  23.389  28.399  1.00  0.00     0.016 A 
ATOM     38  C   UNL A   1      40.867  25.753  27.000  1.00  0.00     0.010 A 
ATOM     39  C   UNL A   1      41.975  24.606  28.817  1.00  0.00     0.010 A 
ATOM     40  C   UNL A   1      41.709  25.797  28.117  1.00  0.00    -0.014 A 
BRANCH  40  41
ATOM     41  C   UNL A   1      42.434  27.047  28.478  1.00  0.00     0.031 A 
ATOM     42  C   UNL A   1      41.639  28.203  29.022  1.00  0.00     0.074 A 
ATOM     43  C   UNL A   1      43.765  27.174  28.312  1.00  0.00     0.049 A 
ATOM     44  N   UNL A   1      42.025  29.423  29.295  1.00  0.00    -0.248 NA
ATOM     45  C   UNL A   1      40.214  27.948  29.290  1.00  0.00     0.031 C 
ATOM     46  C   UNL A   1      44.669  26.123  27.849  1.00  0.00     0.029 A 
ATOM     47  N   UNL A   1      44.587  28.263  28.499  1.00  0.00    -0.354 N 
ATOM     48  C   UNL A   1      40.890  30.086  29.746  1.00  0.00     0.074 A 
ATOM     49  C   UNL A   1      39.798  29.138  29.698  1.00  0.00     0.031 C 
ATOM     50  C   UNL A   1      45.915  26.625  27.765  1.00  0.00     0.029 A 
ATOM     51  C   UNL A   1      45.892  28.044  28.121  1.00  0.00     0.049 A 
ATOM     52  H   UNL A   1      44.270  29.119  28.868  1.00  0.00     0.167 HD
ATOM     53  C   UNL A   1      40.765  31.370  30.159  1.00  0.00     0.031 A 
ATOM     54  C   UNL A   1      46.938  28.894  28.032  1.00  0.00     0.031 A 
ATOM     55  C   UNL A   1      41.847  32.318  30.193  1.00  0.00     0.049 A 
ATOM     56  C   UNL A   1      46.752  30.347  28.402  1.00  0.00     0.074 A 
ATOM     57  C   UNL A   1      41.819  33.633  30.625  1.00  0.00     0.029 A 
ATOM     58  N   UNL A   1      43.140  32.065  29.766  1.00  0.00    -0.354 N 
ATOM     59  N   UNL A   1      45.683  30.949  28.867  1.00  0.00    -0.248 NA
ATOM     60  C   UNL A   1      47.911  31.237  28.229  1.00  0.00     0.031 C 
ATOM     61  C   UNL A   1      43.075  34.198  30.387  1.00  0.00     0.029 A 
ATOM     62  C   UNL A   1      43.907  33.214  29.875  1.00  0.00     0.049 A 
ATOM     63  H   UNL A   1      43.467  31.197  29.434  1.00  0.00     0.167 HD
ATOM     64  C   UNL A   1      46.048  32.281  29.056  1.00  0.00     0.074 A 
ATOM     65  C   UNL A   1      47.440  32.391  28.679  1.00  0.00     0.031 C 
ATOM     66  C   UNL A   1      45.293  33.319  29.495  1.00  0.00     0.031 A 
BRANCH  53  67
ATOM     67  C   UNL A   1      39.395  31.847  30.562  1.00  0.00    -0.014 A 
ATOM     68  C   UNL A   1      38.533  32.468  29.640  1.00  0.00     0.010 A 
ATOM     69  C   UNL A   1      38.941  31.613  31.873  1.00  0.00     0.010 A 
ATOM     70  C   UNL A   1      37.254  32.873  30.032  1.00  0.00     0.020 A 
ATOM     71  C   UNL A   1      37.652  31.988  32.261  1.00  0.00     0.020 A 
ATOM     72  C   UNL A   1      36.821  32.629  31.339  1.00  0.00     0.054 A 
BRANCH  72  73
ATOM     73  S   UNL A   1      35.142  33.132  31.807  1.00  0.00     0.124 S 
ATOM     74  O   UNL A   1      35.031  32.591  33.159  1.00  0.00    -0.237 OA
ATOM     75  O   UNL A   1      35.210  34.588  31.717  1.00  0.00    -0.237 OA
ATOM     76  O   UNL A   1      34.294  32.488  30.807  1.00  0.00    -0.744 OA
ENDBRANCH  72  73
ENDBRANCH  53  67
BRANCH  54  77
ATOM     77  C   UNL A   1      48.252  28.417  27.509  1.00  0.00    -0.014 A 
ATOM     78  C   UNL A   1      48.543  28.459  26.134  1.00  0.00     0.010 A 
ATOM     79  C   UNL A   1      49.215  27.890  28.390  1.00  0.00     0.010 A 
ATOM     80  C   UNL A   1      49.762  27.971  25.649  1.00  0.00     0.020 A 
ATOM     81  C   UNL A   1      50.447  27.431  27.915  1.00  0.00     0.020 A 
ATOM     82  C   UNL A   1      50.708  27.464  26.545  1.00  0.00     0.054 A 
BRANCH  82  83
ATOM     83  S   UNL A   1      52.301  26.881  25.899  1.00  0.00     0.124 S 
ATOM     84  O   UNL A   1      53.067  26.668  27.123  1.00  0.00    -0.237 OA
ATOM     85  O   UNL A   1      51.922  25.673  25.171  1.00  0.00    -0.237 OA
ATOM     86  O   UNL A   1      52.758  27.988  25.060  1.00  0.00    -0.744 OA
ENDBRANCH  82  83
ENDBRANCH  54  77
BRANCH  66  87
ATOM     87  C   UNL A   1      45.948  34.672  29.609  1.00  0.00    -0.014 A 
ATOM     88  C   UNL A   1      45.899  35.595  28.548  1.00  0.00     0.010 A 
ATOM     89  C   UNL A   1      46.544  35.062  30.824  1.00  0.00     0.010 A 
ATOM     90  C   UNL A   1      46.445  36.873  28.695  1.00  0.00     0.020 A 
ATOM     91  C   UNL A   1      47.065  36.349  30.984  1.00  0.00     0.020 A 
ATOM     92  C   UNL A   1      47.019  37.245  29.914  1.00  0.00     0.054 A 
BRANCH  92  93
ATOM     93  S   UNL A   1      47.654  38.935  30.099  1.00  0.00     0.124 S 
ATOM     94  O   UNL A   1      46.754  39.696  29.237  1.00  0.00    -0.237 OA
ATOM     95  O   UNL A   1      47.505  39.177  31.532  1.00  0.00    -0.237 OA
ATOM     96  O   UNL A   1      49.035  38.841  29.629  1.00  0.00    -0.744 OA
ENDBRANCH  92  93
ENDBRANCH  66  87
ENDBRANCH  40  41
ENDBRANCH  33  35
ENDBRANCH  32  33
ENDBRANCH  31  32
ENDBRANCH  30  31
ENDBRANCH  29  30
ENDBRANCH  28  29
ENDBRANCH   1  28
TORSDOF 27
ENDMDL
