MODEL 1
REMARK VINA RESULT:      -9.6      0.000      0.000
REMARK SMILES O=C(OCCOCCOCCOC(=O)c1cc(SCc2csc(-c3ccsc3)n2)ccn1)c1ccc(-c2c3nc(c(-c4ccc(S(=O)(=O)[O-])cc4)c4ccc([nH]4)c(-c4ccc(S(=O)(=O)[O-])cc4)c4nc(c(-c5ccc(S(=O)(=O)[O-])cc5)c5ccc2[nH]5)C=C4)C=C3)cc1
REMARK SMILES IDX 8 1 7 2 6 3 5 4 4 5 3 6 2 7 1 8 33 9 34 10 92 11 35 12 91 13
REMARK SMILES IDX 36 14 37 15 38 16 85 17 39 18 90 19 84 20 86 21 40 22 89 23
REMARK SMILES IDX 83 24 82 25 41 27 71 28 52 29 70 30 53 31 56 32 69 33 87 34
REMARK SMILES IDX 54 35 55 36 68 38 88 39 57 40 42 41 43 42 51 43 44 44 50 45
REMARK SMILES IDX 45 46 46 47 47 48 48 49 49 50 72 51 73 52 81 53 74 54 80 55
REMARK SMILES IDX 75 56 76 57 77 58 78 59 79 60 58 61 59 62 67 63 60 64 66 65
REMARK SMILES IDX 61 66 62 67 63 68 64 69 65 70 9 71 10 72 11 73 12 74 13 75
REMARK SMILES IDX 14 76 15 77 16 78 32 79 17 80 31 81 30 82 18 83 19 84 20 85
REMARK SMILES IDX 21 86 29 87 22 88 23 89 24 90 25 91 28 92 26 93 27 94
REMARK H PARENT 86 26 56 37
REMARK Flexibility Score: inf
ROOT
ATOM      1  C   UNL A   1      40.011  21.872  26.754  1.00  0.00     0.188 C 
ENDROOT
BRANCH   1   2
ATOM      2  C   UNL A   1      41.143  21.173  27.524  1.00  0.00     0.188 C 
BRANCH   2   3
ATOM      3  O   UNL A   1      42.448  21.451  27.049  1.00  0.00    -0.376 OA
BRANCH   3   4
ATOM      4  C   UNL A   1      43.028  22.735  27.217  1.00  0.00     0.202 C 
BRANCH   4   5
ATOM      5  C   UNL A   1      43.184  23.757  26.073  1.00  0.00     0.261 C 
BRANCH   5   6
ATOM      6  O   UNL A   1      42.085  24.643  25.783  1.00  0.00    -0.460 OA
BRANCH   6   7
ATOM      7  C   UNL A   1      41.900  25.975  25.883  1.00  0.00     0.338 C 
ATOM      8  O   UNL A   1      41.918  26.642  24.849  1.00  0.00    -0.246 OA
BRANCH   7   9
ATOM      9  C   UNL A   1      41.746  26.700  27.176  1.00  0.00     0.060 A 
ATOM     10  C   UNL A   1      40.994  26.249  28.257  1.00  0.00     0.016 A 
ATOM     11  C   UNL A   1      42.499  27.874  27.346  1.00  0.00     0.016 A 
ATOM     12  C   UNL A   1      40.882  26.988  29.429  1.00  0.00     0.010 A 
ATOM     13  C   UNL A   1      42.435  28.602  28.536  1.00  0.00     0.010 A 
ATOM     14  C   UNL A   1      41.581  28.183  29.561  1.00  0.00    -0.014 A 
BRANCH  14  15
ATOM     15  C   UNL A   1      41.272  29.082  30.687  1.00  0.00     0.031 A 
ATOM     16  C   UNL A   1      42.211  29.090  31.845  1.00  0.00     0.074 A 
ATOM     17  C   UNL A   1      40.246  29.944  30.634  1.00  0.00     0.049 A 
ATOM     18  N   UNL A   1      42.130  29.758  32.960  1.00  0.00    -0.248 NA
ATOM     19  C   UNL A   1      43.415  28.254  31.716  1.00  0.00     0.031 C 
ATOM     20  C   UNL A   1      39.424  30.163  29.451  1.00  0.00     0.029 A 
ATOM     21  N   UNL A   1      39.770  30.846  31.549  1.00  0.00    -0.354 N 
ATOM     22  C   UNL A   1      43.242  29.377  33.696  1.00  0.00     0.074 A 
ATOM     23  C   UNL A   1      43.994  28.442  32.889  1.00  0.00     0.031 C 
ATOM     24  C   UNL A   1      38.553  31.147  29.714  1.00  0.00     0.029 A 
ATOM     25  C   UNL A   1      38.698  31.575  31.090  1.00  0.00     0.049 A 
ATOM     26  H   UNL A   1      40.156  30.961  32.447  1.00  0.00     0.167 HD
ATOM     27  C   UNL A   1      43.574  29.754  34.949  1.00  0.00     0.031 A 
ATOM     28  C   UNL A   1      37.905  32.474  31.702  1.00  0.00     0.031 A 
ATOM     29  C   UNL A   1      42.772  30.649  35.735  1.00  0.00     0.049 A 
ATOM     30  C   UNL A   1      38.225  32.805  33.125  1.00  0.00     0.074 A 
ATOM     31  C   UNL A   1      42.954  31.041  37.048  1.00  0.00     0.029 A 
ATOM     32  N   UNL A   1      41.621  31.282  35.279  1.00  0.00    -0.354 N 
ATOM     33  N   UNL A   1      39.230  32.372  33.849  1.00  0.00    -0.248 NA
ATOM     34  C   UNL A   1      37.323  33.727  33.820  1.00  0.00     0.031 C 
ATOM     35  C   UNL A   1      41.877  31.859  37.403  1.00  0.00     0.029 A 
ATOM     36  C   UNL A   1      41.065  32.041  36.291  1.00  0.00     0.049 A 
ATOM     37  H   UNL A   1      41.256  31.201  34.368  1.00  0.00     0.167 HD
ATOM     38  C   UNL A   1      39.094  32.980  35.084  1.00  0.00     0.074 A 
ATOM     39  C   UNL A   1      37.911  33.819  35.007  1.00  0.00     0.031 C 
ATOM     40  C   UNL A   1      39.881  32.859  36.179  1.00  0.00     0.031 A 
BRANCH  27  41
ATOM     41  C   UNL A   1      44.766  29.068  35.555  1.00  0.00    -0.014 A 
ATOM     42  C   UNL A   1      44.633  28.069  36.538  1.00  0.00     0.010 A 
ATOM     43  C   UNL A   1      46.052  29.512  35.198  1.00  0.00     0.010 A 
ATOM     44  C   UNL A   1      45.760  27.584  37.204  1.00  0.00     0.020 A 
ATOM     45  C   UNL A   1      47.183  29.005  35.838  1.00  0.00     0.020 A 
ATOM     46  C   UNL A   1      47.027  28.066  36.859  1.00  0.00     0.054 A 
BRANCH  46  47
ATOM     47  S   UNL A   1      48.471  27.461  37.774  1.00  0.00     0.124 S 
ATOM     48  O   UNL A   1      47.852  26.582  38.763  1.00  0.00    -0.237 OA
ATOM     49  O   UNL A   1      49.248  26.789  36.736  1.00  0.00    -0.237 OA
ATOM     50  O   UNL A   1      49.075  28.678  38.311  1.00  0.00    -0.744 OA
ENDBRANCH  46  47
ENDBRANCH  27  41
BRANCH  28  51
ATOM     51  C   UNL A   1      36.726  33.048  30.992  1.00  0.00    -0.014 A 
ATOM     52  C   UNL A   1      35.416  32.850  31.460  1.00  0.00     0.010 A 
ATOM     53  C   UNL A   1      36.922  33.864  29.859  1.00  0.00     0.010 A 
ATOM     54  C   UNL A   1      34.333  33.471  30.825  1.00  0.00     0.020 A 
ATOM     55  C   UNL A   1      35.847  34.502  29.233  1.00  0.00     0.020 A 
ATOM     56  C   UNL A   1      34.556  34.308  29.727  1.00  0.00     0.054 A 
BRANCH  56  57
ATOM     57  S   UNL A   1      33.155  35.227  29.026  1.00  0.00     0.124 S 
ATOM     58  O   UNL A   1      32.347  35.503  30.210  1.00  0.00    -0.237 OA
ATOM     59  O   UNL A   1      33.814  36.386  28.425  1.00  0.00    -0.237 OA
ATOM     60  O   UNL A   1      32.566  34.292  28.071  1.00  0.00    -0.744 OA
ENDBRANCH  56  57
ENDBRANCH  28  51
BRANCH  40  61
ATOM     61  C   UNL A   1      39.513  33.679  37.378  1.00  0.00    -0.014 A 
ATOM     62  C   UNL A   1      38.849  33.107  38.475  1.00  0.00     0.010 A 
ATOM     63  C   UNL A   1      39.948  35.015  37.445  1.00  0.00     0.010 A 
ATOM     64  C   UNL A   1      38.630  33.861  39.628  1.00  0.00     0.020 A 
ATOM     65  C   UNL A   1      39.756  35.761  38.606  1.00  0.00     0.020 A 
ATOM     66  C   UNL A   1      39.097  35.179  39.690  1.00  0.00     0.054 A 
BRANCH  66  67
ATOM     67  S   UNL A   1      38.903  36.097  41.239  1.00  0.00     0.124 S 
ATOM     68  O   UNL A   1      40.153  35.795  41.931  1.00  0.00    -0.237 OA
ATOM     69  O   UNL A   1      38.757  37.474  40.776  1.00  0.00    -0.237 OA
ATOM     70  O   UNL A   1      37.702  35.517  41.838  1.00  0.00    -0.744 OA
ENDBRANCH  66  67
ENDBRANCH  40  61
ENDBRANCH  14  15
ENDBRANCH   7   9
ENDBRANCH   6   7
ENDBRANCH   5   6
ENDBRANCH   4   5
ENDBRANCH   3   4
ENDBRANCH   2   3
ENDBRANCH   1   2
BRANCH   1  71
ATOM     71  O   UNL A   1      39.211  21.108  25.859  1.00  0.00    -0.376 OA
BRANCH  71  72
ATOM     72  C   UNL A   1      38.009  21.690  25.370  1.00  0.00     0.202 C 
BRANCH  72  73
ATOM     73  C   UNL A   1      36.794  20.801  25.048  1.00  0.00     0.261 C 
BRANCH  73  74
ATOM     74  O   UNL A   1      35.583  21.112  25.739  1.00  0.00    -0.459 OA
BRANCH  74  75
ATOM     75  C   UNL A   1      34.465  20.625  25.151  1.00  0.00     0.357 C 
ATOM     76  O   UNL A   1      34.322  19.515  24.642  1.00  0.00    -0.244 OA
BRANCH  75  77
ATOM     77  C   UNL A   1      33.457  21.691  25.038  1.00  0.00     0.149 A 
ATOM     78  C   UNL A   1      33.478  22.409  23.857  1.00  0.00     0.051 A 
ATOM     79  N   UNL A   1      32.572  21.879  26.053  1.00  0.00    -0.249 NA
ATOM     80  C   UNL A   1      32.556  23.422  23.700  1.00  0.00     0.012 A 
ATOM     81  C   UNL A   1      31.628  22.817  25.830  1.00  0.00     0.113 A 
ATOM     82  C   UNL A   1      31.573  23.591  24.679  1.00  0.00     0.035 A 
BRANCH  80  83
ATOM     83  S   UNL A   1      32.554  24.505  22.302  1.00  0.00    -0.120 SA
BRANCH  83  84
ATOM     84  C   UNL A   1      33.631  25.902  22.739  1.00  0.00     0.132 C 
BRANCH  84  85
ATOM     85  C   UNL A   1      33.106  27.057  23.566  1.00  0.00     0.062 A 
ATOM     86  C   UNL A   1      31.753  27.326  23.703  1.00  0.00     0.091 A 
ATOM     87  N   UNL A   1      33.918  27.868  24.369  1.00  0.00    -0.240 NA
ATOM     88  S   UNL A   1      31.478  28.428  24.973  1.00  0.00    -0.122 S 
ATOM     89  C   UNL A   1      33.178  28.565  25.216  1.00  0.00     0.124 A 
BRANCH  89  90
ATOM     90  C   UNL A   1      33.738  29.444  26.310  1.00  0.00     0.021 A 
ATOM     91  C   UNL A   1      33.142  30.642  26.791  1.00  0.00     0.023 A 
ATOM     92  C   UNL A   1      34.917  29.179  26.981  1.00  0.00     0.076 A 
ATOM     93  C   UNL A   1      33.848  31.225  27.821  1.00  0.00     0.065 A 
ATOM     94  S   UNL A   1      35.275  30.354  28.176  1.00  0.00    -0.152 S 
ENDBRANCH  89  90
ENDBRANCH  84  85
ENDBRANCH  83  84
ENDBRANCH  80  83
ENDBRANCH  75  77
ENDBRANCH  74  75
ENDBRANCH  73  74
ENDBRANCH  72  73
ENDBRANCH  71  72
ENDBRANCH   1  71
TORSDOF 24
ENDMDL
MODEL 2
REMARK VINA RESULT:      -9.3      1.385      8.177
REMARK SMILES O=C(OCCOCCOCCOC(=O)c1cc(SCc2csc(-c3ccsc3)n2)ccn1)c1ccc(-c2c3nc(c(-c4ccc(S(=O)(=O)[O-])cc4)c4ccc([nH]4)c(-c4ccc(S(=O)(=O)[O-])cc4)c4nc(c(-c5ccc(S(=O)(=O)[O-])cc5)c5ccc2[nH]5)C=C4)C=C3)cc1
REMARK SMILES IDX 8 1 7 2 6 3 5 4 4 5 3 6 2 7 1 8 33 9 34 10 92 11 35 12 91 13
REMARK SMILES IDX 36 14 37 15 38 16 85 17 39 18 90 19 84 20 86 21 40 22 89 23
REMARK SMILES IDX 83 24 82 25 41 27 71 28 52 29 70 30 53 31 56 32 69 33 87 34
REMARK SMILES IDX 54 35 55 36 68 38 88 39 57 40 42 41 43 42 51 43 44 44 50 45
REMARK SMILES IDX 45 46 46 47 47 48 48 49 49 50 72 51 73 52 81 53 74 54 80 55
REMARK SMILES IDX 75 56 76 57 77 58 78 59 79 60 58 61 59 62 67 63 60 64 66 65
REMARK SMILES IDX 61 66 62 67 63 68 64 69 65 70 9 71 10 72 11 73 12 74 13 75
REMARK SMILES IDX 14 76 15 77 16 78 32 79 17 80 31 81 30 82 18 83 19 84 20 85
REMARK SMILES IDX 21 86 29 87 22 88 23 89 24 90 25 91 28 92 26 93 27 94
REMARK H PARENT 86 26 56 37
REMARK Flexibility Score: inf
ROOT
ATOM      1  C   UNL A   1      40.472  23.408  27.689  1.00  0.00     0.188 C 
ENDROOT
BRANCH   1   2
ATOM      2  C   UNL A   1      41.910  23.602  28.196  1.00  0.00     0.188 C 
BRANCH   2   3
ATOM      3  O   UNL A   1      42.921  23.334  27.241  1.00  0.00    -0.376 OA
BRANCH   3   4
ATOM      4  C   UNL A   1      43.515  24.383  26.493  1.00  0.00     0.202 C 
BRANCH   4   5
ATOM      5  C   UNL A   1      42.993  24.855  25.121  1.00  0.00     0.261 C 
BRANCH   5   6
ATOM      6  O   UNL A   1      42.146  26.019  25.068  1.00  0.00    -0.460 OA
BRANCH   6   7
ATOM      7  C   UNL A   1      42.284  27.301  25.460  1.00  0.00     0.338 C 
ATOM      8  O   UNL A   1      42.645  28.127  24.623  1.00  0.00    -0.246 OA
BRANCH   7   9
ATOM      9  C   UNL A   1      42.097  27.768  26.863  1.00  0.00     0.060 A 
ATOM     10  C   UNL A   1      41.402  27.071  27.848  1.00  0.00     0.016 A 
ATOM     11  C   UNL A   1      42.758  28.949  27.239  1.00  0.00     0.016 A 
ATOM     12  C   UNL A   1      41.254  27.576  29.135  1.00  0.00     0.010 A 
ATOM     13  C   UNL A   1      42.658  29.445  28.541  1.00  0.00     0.010 A 
ATOM     14  C   UNL A   1      41.858  28.781  29.477  1.00  0.00    -0.014 A 
BRANCH  14  15
ATOM     15  C   UNL A   1      41.500  29.436  30.747  1.00  0.00     0.031 A 
ATOM     16  C   UNL A   1      40.233  30.221  30.788  1.00  0.00     0.074 A 
ATOM     17  C   UNL A   1      42.223  29.250  31.861  1.00  0.00     0.049 A 
ATOM     18  N   UNL A   1      39.732  30.917  31.768  1.00  0.00    -0.248 NA
ATOM     19  C   UNL A   1      39.410  30.197  29.569  1.00  0.00     0.031 C 
ATOM     20  C   UNL A   1      43.337  28.317  31.964  1.00  0.00     0.029 A 
ATOM     21  N   UNL A   1      42.091  29.760  33.126  1.00  0.00    -0.354 N 
ATOM     22  C   UNL A   1      38.562  31.465  31.266  1.00  0.00     0.074 A 
ATOM     23  C   UNL A   1      38.415  31.000  29.905  1.00  0.00     0.031 C 
ATOM     24  C   UNL A   1      43.776  28.315  33.230  1.00  0.00     0.029 A 
ATOM     25  C   UNL A   1      43.037  29.289  34.006  1.00  0.00     0.049 A 
ATOM     26  H   UNL A   1      41.388  30.400  33.380  1.00  0.00     0.167 HD
ATOM     27  C   UNL A   1      37.712  32.312  31.886  1.00  0.00     0.031 A 
ATOM     28  C   UNL A   1      43.300  29.610  35.286  1.00  0.00     0.031 A 
ATOM     29  C   UNL A   1      37.920  32.788  33.225  1.00  0.00     0.049 A 
ATOM     30  C   UNL A   1      42.411  30.627  35.928  1.00  0.00     0.074 A 
ATOM     31  C   UNL A   1      37.180  33.715  33.935  1.00  0.00     0.029 A 
ATOM     32  N   UNL A   1      38.960  32.381  34.053  1.00  0.00    -0.354 N 
ATOM     33  N   UNL A   1      41.354  31.214  35.417  1.00  0.00    -0.248 NA
ATOM     34  C   UNL A   1      42.735  31.036  37.297  1.00  0.00     0.031 C 
ATOM     35  C   UNL A   1      37.811  33.915  35.167  1.00  0.00     0.029 A 
ATOM     36  C   UNL A   1      38.899  33.056  35.257  1.00  0.00     0.049 A 
ATOM     37  H   UNL A   1      39.641  31.709  33.816  1.00  0.00     0.167 HD
ATOM     38  C   UNL A   1      40.873  32.052  36.408  1.00  0.00     0.074 A 
ATOM     39  C   UNL A   1      41.752  31.891  37.552  1.00  0.00     0.031 C 
ATOM     40  C   UNL A   1      39.798  32.874  36.372  1.00  0.00     0.031 A 
BRANCH  27  41
ATOM     41  C   UNL A   1      36.594  32.863  31.048  1.00  0.00    -0.014 A 
ATOM     42  C   UNL A   1      35.305  32.296  31.055  1.00  0.00     0.010 A 
ATOM     43  C   UNL A   1      36.875  33.915  30.157  1.00  0.00     0.010 A 
ATOM     44  C   UNL A   1      34.345  32.721  30.134  1.00  0.00     0.020 A 
ATOM     45  C   UNL A   1      35.908  34.365  29.258  1.00  0.00     0.020 A 
ATOM     46  C   UNL A   1      34.658  33.743  29.232  1.00  0.00     0.054 A 
BRANCH  46  47
ATOM     47  S   UNL A   1      33.415  34.242  28.010  1.00  0.00     0.124 S 
ATOM     48  O   UNL A   1      32.853  32.953  27.612  1.00  0.00    -0.237 OA
ATOM     49  O   UNL A   1      32.527  35.100  28.789  1.00  0.00    -0.237 OA
ATOM     50  O   UNL A   1      34.194  34.927  26.982  1.00  0.00    -0.744 OA
ENDBRANCH  46  47
ENDBRANCH  27  41
BRANCH  28  51
ATOM     51  C   UNL A   1      44.473  29.015  35.989  1.00  0.00    -0.014 A 
ATOM     52  C   UNL A   1      44.317  28.015  36.964  1.00  0.00     0.010 A 
ATOM     53  C   UNL A   1      45.777  29.409  35.627  1.00  0.00     0.010 A 
ATOM     54  C   UNL A   1      45.439  27.411  37.547  1.00  0.00     0.020 A 
ATOM     55  C   UNL A   1      46.899  28.796  36.191  1.00  0.00     0.020 A 
ATOM     56  C   UNL A   1      46.723  27.791  37.143  1.00  0.00     0.054 A 
BRANCH  56  57
ATOM     57  S   UNL A   1      48.152  26.879  37.795  1.00  0.00     0.124 S 
ATOM     58  O   UNL A   1      47.607  26.287  39.013  1.00  0.00    -0.237 OA
ATOM     59  O   UNL A   1      48.442  25.942  36.710  1.00  0.00    -0.237 OA
ATOM     60  O   UNL A   1      49.163  27.912  38.000  1.00  0.00    -0.744 OA
ENDBRANCH  56  57
ENDBRANCH  28  51
BRANCH  40  61
ATOM     61  C   UNL A   1      39.485  33.642  37.621  1.00  0.00    -0.014 A 
ATOM     62  C   UNL A   1      38.659  33.102  38.620  1.00  0.00     0.010 A 
ATOM     63  C   UNL A   1      40.131  34.873  37.839  1.00  0.00     0.010 A 
ATOM     64  C   UNL A   1      38.487  33.784  39.825  1.00  0.00     0.020 A 
ATOM     65  C   UNL A   1      39.982  35.542  39.052  1.00  0.00     0.020 A 
ATOM     66  C   UNL A   1      39.161  34.992  40.037  1.00  0.00     0.054 A 
BRANCH  66  67
ATOM     67  S   UNL A   1      39.011  35.798  41.653  1.00  0.00     0.124 S 
ATOM     68  O   UNL A   1      39.096  37.212  41.297  1.00  0.00    -0.237 OA
ATOM     69  O   UNL A   1      37.702  35.343  42.115  1.00  0.00    -0.237 OA
ATOM     70  O   UNL A   1      40.148  35.275  42.408  1.00  0.00    -0.744 OA
ENDBRANCH  66  67
ENDBRANCH  40  61
ENDBRANCH  14  15
ENDBRANCH   7   9
ENDBRANCH   6   7
ENDBRANCH   5   6
ENDBRANCH   4   5
ENDBRANCH   3   4
ENDBRANCH   2   3
ENDBRANCH   1   2
BRANCH   1  71
ATOM     71  O   UNL A   1      39.989  22.086  27.471  1.00  0.00    -0.376 OA
BRANCH  71  72
ATOM     72  C   UNL A   1      39.945  21.600  26.136  1.00  0.00     0.202 C 
BRANCH  72  73
ATOM     73  C   UNL A   1      38.695  20.862  25.623  1.00  0.00     0.261 C 
BRANCH  73  74
ATOM     74  O   UNL A   1      37.552  21.673  25.343  1.00  0.00    -0.459 OA
BRANCH  74  75
ATOM     75  C   UNL A   1      36.396  20.982  25.217  1.00  0.00     0.357 C 
ATOM     76  O   UNL A   1      36.265  19.827  24.816  1.00  0.00    -0.244 OA
BRANCH  75  77
ATOM     77  C   UNL A   1      35.253  21.874  25.467  1.00  0.00     0.149 A 
ATOM     78  C   UNL A   1      34.388  22.047  24.403  1.00  0.00     0.051 A 
ATOM     79  N   UNL A   1      35.101  22.430  26.698  1.00  0.00    -0.249 NA
ATOM     80  C   UNL A   1      33.301  22.877  24.582  1.00  0.00     0.012 A 
ATOM     81  C   UNL A   1      33.980  23.163  26.867  1.00  0.00     0.113 A 
ATOM     82  C   UNL A   1      33.059  23.397  25.857  1.00  0.00     0.035 A 
BRANCH  80  83
ATOM     83  S   UNL A   1      32.190  23.294  23.271  1.00  0.00    -0.120 SA
BRANCH  83  84
ATOM     84  C   UNL A   1      32.841  24.814  22.518  1.00  0.00     0.132 C 
BRANCH  84  85
ATOM     85  C   UNL A   1      32.388  26.176  23.002  1.00  0.00     0.062 A 
ATOM     86  C   UNL A   1      33.231  27.053  23.666  1.00  0.00     0.091 A 
ATOM     87  N   UNL A   1      31.133  26.724  22.710  1.00  0.00    -0.240 NA
ATOM     88  S   UNL A   1      32.550  28.614  23.738  1.00  0.00    -0.122 S 
ATOM     89  C   UNL A   1      31.127  28.022  22.967  1.00  0.00     0.124 A 
BRANCH  89  90
ATOM     90  C   UNL A   1      29.976  28.947  22.647  1.00  0.00     0.021 A 
ATOM     91  C   UNL A   1      29.978  29.946  21.635  1.00  0.00     0.023 A 
ATOM     92  C   UNL A   1      28.766  28.927  23.314  1.00  0.00     0.076 A 
ATOM     93  C   UNL A   1      28.780  30.621  21.534  1.00  0.00     0.065 A 
ATOM     94  S   UNL A   1      27.659  30.087  22.708  1.00  0.00    -0.152 S 
ENDBRANCH  89  90
ENDBRANCH  84  85
ENDBRANCH  83  84
ENDBRANCH  80  83
ENDBRANCH  75  77
ENDBRANCH  74  75
ENDBRANCH  73  74
ENDBRANCH  72  73
ENDBRANCH  71  72
ENDBRANCH   1  71
TORSDOF 24
ENDMDL
MODEL 3
REMARK VINA RESULT:      -9.0      5.241      8.082
REMARK SMILES O=C(OCCOCCOCCOC(=O)c1cc(SCc2csc(-c3ccsc3)n2)ccn1)c1ccc(-c2c3nc(c(-c4ccc(S(=O)(=O)[O-])cc4)c4ccc([nH]4)c(-c4ccc(S(=O)(=O)[O-])cc4)c4nc(c(-c5ccc(S(=O)(=O)[O-])cc5)c5ccc2[nH]5)C=C4)C=C3)cc1
REMARK SMILES IDX 8 1 7 2 6 3 5 4 4 5 3 6 2 7 1 8 33 9 34 10 92 11 35 12 91 13
REMARK SMILES IDX 36 14 37 15 38 16 85 17 39 18 90 19 84 20 86 21 40 22 89 23
REMARK SMILES IDX 83 24 82 25 41 27 71 28 52 29 70 30 53 31 56 32 69 33 87 34
REMARK SMILES IDX 54 35 55 36 68 38 88 39 57 40 42 41 43 42 51 43 44 44 50 45
REMARK SMILES IDX 45 46 46 47 47 48 48 49 49 50 72 51 73 52 81 53 74 54 80 55
REMARK SMILES IDX 75 56 76 57 77 58 78 59 79 60 58 61 59 62 67 63 60 64 66 65
REMARK SMILES IDX 61 66 62 67 63 68 64 69 65 70 9 71 10 72 11 73 12 74 13 75
REMARK SMILES IDX 14 76 15 77 16 78 32 79 17 80 31 81 30 82 18 83 19 84 20 85
REMARK SMILES IDX 21 86 29 87 22 88 23 89 24 90 25 91 28 92 26 93 27 94
REMARK H PARENT 86 26 56 37
REMARK Flexibility Score: inf
ROOT
ATOM      1  C   UNL A   1      35.336  22.156  26.139  1.00  0.00     0.188 C 
ENDROOT
BRANCH   1   2
ATOM      2  C   UNL A   1      35.443  21.859  24.635  1.00  0.00     0.188 C 
BRANCH   2   3
ATOM      3  O   UNL A   1      36.747  21.545  24.180  1.00  0.00    -0.376 OA
BRANCH   3   4
ATOM      4  C   UNL A   1      37.602  20.705  24.939  1.00  0.00     0.202 C 
BRANCH   4   5
ATOM      5  C   UNL A   1      38.857  21.209  25.680  1.00  0.00     0.261 C 
BRANCH   5   6
ATOM      6  O   UNL A   1      39.870  20.254  26.052  1.00  0.00    -0.460 OA
BRANCH   6   7
ATOM      7  C   UNL A   1      41.216  20.288  26.116  1.00  0.00     0.338 C 
ATOM      8  O   UNL A   1      41.834  19.254  25.865  1.00  0.00    -0.246 OA
BRANCH   7   9
ATOM      9  C   UNL A   1      42.000  21.482  26.542  1.00  0.00     0.060 A 
ATOM     10  C   UNL A   1      42.524  21.677  27.817  1.00  0.00     0.016 A 
ATOM     11  C   UNL A   1      42.315  22.428  25.552  1.00  0.00     0.016 A 
ATOM     12  C   UNL A   1      43.233  22.826  28.148  1.00  0.00     0.010 A 
ATOM     13  C   UNL A   1      43.067  23.564  25.858  1.00  0.00     0.010 A 
ATOM     14  C   UNL A   1      43.483  23.787  27.175  1.00  0.00    -0.014 A 
BRANCH  14  15
ATOM     15  C   UNL A   1      44.008  25.104  27.576  1.00  0.00     0.031 A 
ATOM     16  C   UNL A   1      45.403  25.444  27.176  1.00  0.00     0.074 A 
ATOM     17  C   UNL A   1      43.233  26.012  28.186  1.00  0.00     0.049 A 
ATOM     18  N   UNL A   1      46.096  26.514  27.446  1.00  0.00    -0.248 NA
ATOM     19  C   UNL A   1      46.101  24.458  26.336  1.00  0.00     0.031 C 
ATOM     20  C   UNL A   1      41.802  25.849  28.404  1.00  0.00     0.029 A 
ATOM     21  N   UNL A   1      43.505  27.271  28.655  1.00  0.00    -0.354 N 
ATOM     22  C   UNL A   1      47.335  26.305  26.861  1.00  0.00     0.074 A 
ATOM     23  C   UNL A   1      47.290  25.020  26.200  1.00  0.00     0.031 C 
ATOM     24  C   UNL A   1      41.323  26.973  28.954  1.00  0.00     0.029 A 
ATOM     25  C   UNL A   1      42.409  27.900  29.197  1.00  0.00     0.049 A 
ATOM     26  H   UNL A   1      44.397  27.684  28.610  1.00  0.00     0.167 HD
ATOM     27  C   UNL A   1      48.420  27.107  26.911  1.00  0.00     0.031 A 
ATOM     28  C   UNL A   1      42.284  29.079  29.835  1.00  0.00     0.031 A 
ATOM     29  C   UNL A   1      48.438  28.356  27.621  1.00  0.00     0.049 A 
ATOM     30  C   UNL A   1      43.519  29.911  29.972  1.00  0.00     0.074 A 
ATOM     31  C   UNL A   1      49.498  29.219  27.820  1.00  0.00     0.029 A 
ATOM     32  N   UNL A   1      47.337  28.912  28.263  1.00  0.00    -0.354 N 
ATOM     33  N   UNL A   1      44.716  29.667  29.493  1.00  0.00    -0.248 NA
ATOM     34  C   UNL A   1      43.407  31.162  30.728  1.00  0.00     0.031 C 
ATOM     35  C   UNL A   1      49.054  30.263  28.637  1.00  0.00     0.029 A 
ATOM     36  C   UNL A   1      47.697  30.093  28.883  1.00  0.00     0.049 A 
ATOM     37  H   UNL A   1      46.433  28.521  28.275  1.00  0.00     0.167 HD
ATOM     38  C   UNL A   1      45.501  30.741  29.874  1.00  0.00     0.074 A 
ATOM     39  C   UNL A   1      44.640  31.642  30.619  1.00  0.00     0.031 C 
ATOM     40  C   UNL A   1      46.813  30.961  29.623  1.00  0.00     0.031 A 
BRANCH  27  41
ATOM     41  C   UNL A   1      49.680  26.559  26.304  1.00  0.00    -0.014 A 
ATOM     42  C   UNL A   1      50.559  25.731  27.028  1.00  0.00     0.010 A 
ATOM     43  C   UNL A   1      50.038  26.970  25.007  1.00  0.00     0.010 A 
ATOM     44  C   UNL A   1      51.803  25.389  26.494  1.00  0.00     0.020 A 
ATOM     45  C   UNL A   1      51.266  26.602  24.456  1.00  0.00     0.020 A 
ATOM     46  C   UNL A   1      52.154  25.839  25.216  1.00  0.00     0.054 A 
BRANCH  46  47
ATOM     47  S   UNL A   1      53.794  25.427  24.565  1.00  0.00     0.124 S 
ATOM     48  O   UNL A   1      53.655  25.785  23.155  1.00  0.00    -0.237 OA
ATOM     49  O   UNL A   1      54.675  26.290  25.347  1.00  0.00    -0.237 OA
ATOM     50  O   UNL A   1      53.926  23.997  24.835  1.00  0.00    -0.744 OA
ENDBRANCH  46  47
ENDBRANCH  27  41
BRANCH  28  51
ATOM     51  C   UNL A   1      40.976  29.482  30.427  1.00  0.00    -0.014 A 
ATOM     52  C   UNL A   1      40.504  28.914  31.622  1.00  0.00     0.010 A 
ATOM     53  C   UNL A   1      40.219  30.503  29.818  1.00  0.00     0.010 A 
ATOM     54  C   UNL A   1      39.314  29.371  32.205  1.00  0.00     0.020 A 
ATOM     55  C   UNL A   1      39.042  30.976  30.405  1.00  0.00     0.020 A 
ATOM     56  C   UNL A   1      38.600  30.412  31.602  1.00  0.00     0.054 A 
BRANCH  56  57
ATOM     57  S   UNL A   1      37.153  31.093  32.462  1.00  0.00     0.124 S 
ATOM     58  O   UNL A   1      37.668  31.300  33.812  1.00  0.00    -0.237 OA
ATOM     59  O   UNL A   1      36.880  32.309  31.695  1.00  0.00    -0.237 OA
ATOM     60  O   UNL A   1      36.143  30.047  32.332  1.00  0.00    -0.744 OA
ENDBRANCH  56  57
ENDBRANCH  28  51
BRANCH  40  61
ATOM     61  C   UNL A   1      47.397  32.246  30.128  1.00  0.00    -0.014 A 
ATOM     62  C   UNL A   1      47.320  33.427  29.374  1.00  0.00     0.010 A 
ATOM     63  C   UNL A   1      47.924  32.284  31.433  1.00  0.00     0.010 A 
ATOM     64  C   UNL A   1      47.759  34.633  29.920  1.00  0.00     0.020 A 
ATOM     65  C   UNL A   1      48.337  33.491  31.991  1.00  0.00     0.020 A 
ATOM     66  C   UNL A   1      48.252  34.659  31.230  1.00  0.00     0.054 A 
BRANCH  66  67
ATOM     67  S   UNL A   1      48.707  36.255  31.956  1.00  0.00     0.124 S 
ATOM     68  O   UNL A   1      50.024  35.970  32.517  1.00  0.00    -0.237 OA
ATOM     69  O   UNL A   1      48.695  37.146  30.799  1.00  0.00    -0.237 OA
ATOM     70  O   UNL A   1      47.651  36.503  32.936  1.00  0.00    -0.744 OA
ENDBRANCH  66  67
ENDBRANCH  40  61
ENDBRANCH  14  15
ENDBRANCH   7   9
ENDBRANCH   6   7
ENDBRANCH   5   6
ENDBRANCH   4   5
ENDBRANCH   3   4
ENDBRANCH   2   3
ENDBRANCH   1   2
BRANCH   1  71
ATOM     71  O   UNL A   1      34.359  21.465  26.912  1.00  0.00    -0.376 OA
BRANCH  71  72
ATOM     72  C   UNL A   1      33.170  22.160  27.265  1.00  0.00     0.202 C 
BRANCH  72  73
ATOM     73  C   UNL A   1      32.760  23.432  26.500  1.00  0.00     0.261 C 
BRANCH  73  74
ATOM     74  O   UNL A   1      31.534  23.362  25.769  1.00  0.00    -0.459 OA
BRANCH  74  75
ATOM     75  C   UNL A   1      31.672  22.952  24.487  1.00  0.00     0.357 C 
ATOM     76  O   UNL A   1      31.884  21.805  24.096  1.00  0.00    -0.244 OA
BRANCH  75  77
ATOM     77  C   UNL A   1      31.711  24.120  23.593  1.00  0.00     0.149 A 
ATOM     78  C   UNL A   1      30.935  25.195  23.982  1.00  0.00     0.051 A 
ATOM     79  N   UNL A   1      32.508  24.087  22.492  1.00  0.00    -0.249 NA
ATOM     80  C   UNL A   1      30.933  26.316  23.178  1.00  0.00     0.012 A 
ATOM     81  C   UNL A   1      32.552  25.230  21.776  1.00  0.00     0.113 A 
ATOM     82  C   UNL A   1      31.805  26.358  22.086  1.00  0.00     0.035 A 
BRANCH  80  83
ATOM     83  S   UNL A   1      29.888  27.709  23.482  1.00  0.00    -0.120 SA
BRANCH  83  84
ATOM     84  C   UNL A   1      30.993  29.099  23.870  1.00  0.00     0.132 C 
BRANCH  84  85
ATOM     85  C   UNL A   1      31.885  29.063  25.094  1.00  0.00     0.062 A 
ATOM     86  C   UNL A   1      32.419  27.887  25.597  1.00  0.00     0.091 A 
ATOM     87  N   UNL A   1      32.357  30.211  25.742  1.00  0.00    -0.240 NA
ATOM     88  S   UNL A   1      33.657  28.215  26.721  1.00  0.00    -0.122 S 
ATOM     89  C   UNL A   1      33.356  29.903  26.553  1.00  0.00     0.124 A 
BRANCH  89  90
ATOM     90  C   UNL A   1      34.179  30.918  27.311  1.00  0.00     0.021 A 
ATOM     91  C   UNL A   1      35.500  30.711  27.796  1.00  0.00     0.023 A 
ATOM     92  C   UNL A   1      33.735  32.188  27.626  1.00  0.00     0.076 A 
ATOM     93  C   UNL A   1      36.030  31.819  28.421  1.00  0.00     0.065 A 
ATOM     94  S   UNL A   1      34.906  33.106  28.476  1.00  0.00    -0.152 S 
ENDBRANCH  89  90
ENDBRANCH  84  85
ENDBRANCH  83  84
ENDBRANCH  80  83
ENDBRANCH  75  77
ENDBRANCH  74  75
ENDBRANCH  73  74
ENDBRANCH  72  73
ENDBRANCH  71  72
ENDBRANCH   1  71
TORSDOF 24
ENDMDL
