MODEL 1
REMARK VINA RESULT:     -10.6      0.000      0.000
REMARK SMILES COc1ccc2c(c1)C(=O)N(c1ccccc1C(=O)OCCOCCOCCOC(=O)c1ccc(-c3c4nc(c(-c5ccc(S(=O)(=O)[O-])cc5)c5ccc([nH]5)c(-c5ccc(S(=O)(=O)[O-])cc5)c5nc(c(-c6ccc(S(=O)(=O)[O-])cc6)c6ccc3[nH]6)C=C5)C=C4)cc1)C2=O
REMARK SMILES IDX 25 1 24 2 23 3 22 4 21 5 20 6 18 7 19 8 17 9 12 10 13 11
REMARK SMILES IDX 14 12 16 13 15 14 11 15 3 16 4 17 8 18 5 19 7 20 6 21 9 22
REMARK SMILES IDX 92 23 10 24 93 25 2 26 1 27 26 28 27 29 28 30 29 31 30 32
REMARK SMILES IDX 31 33 32 34 33 35 91 36 34 37 90 38 35 39 36 40 37 41 84 42
REMARK SMILES IDX 38 43 89 44 83 45 85 46 39 47 88 48 82 49 81 50 40 52 70 53
REMARK SMILES IDX 51 54 69 55 52 56 55 57 68 58 86 59 53 60 54 61 67 63 87 64
REMARK SMILES IDX 56 65 41 66 42 67 50 68 43 69 49 70 44 71 45 72 46 73 47 74
REMARK SMILES IDX 48 75 71 76 72 77 80 78 73 79 79 80 74 81 75 82 76 83 77 84
REMARK SMILES IDX 78 85 57 86 58 87 66 88 59 89 65 90 60 91 61 92 62 93 63 94
REMARK SMILES IDX 64 95
REMARK H PARENT 85 51 55 62
REMARK Flexibility Score: inf
ROOT
ATOM      1  C   UNL A   1      34.855  31.686  27.730  1.00  0.00     0.188 C 
ENDROOT
BRANCH   1   2
ATOM      2  C   UNL A   1      34.232  30.355  27.261  1.00  0.00     0.188 C 
BRANCH   2   3
ATOM      3  O   UNL A   1      32.819  30.284  27.089  1.00  0.00    -0.376 OA
BRANCH   3   4
ATOM      4  C   UNL A   1      32.152  29.067  27.416  1.00  0.00     0.202 C 
BRANCH   4   5
ATOM      5  C   UNL A   1      31.405  28.347  26.289  1.00  0.00     0.261 C 
BRANCH   5   6
ATOM      6  O   UNL A   1      31.570  26.921  26.355  1.00  0.00    -0.460 OA
BRANCH   6   7
ATOM      7  C   UNL A   1      32.554  26.415  25.567  1.00  0.00     0.340 C 
ATOM      8  O   UNL A   1      33.740  26.696  25.627  1.00  0.00    -0.246 OA
BRANCH   7   9
ATOM      9  C   UNL A   1      32.036  25.275  24.766  1.00  0.00     0.084 A 
ATOM     10  C   UNL A   1      31.023  25.333  23.783  1.00  0.00     0.067 A 
ATOM     11  C   UNL A   1      30.599  24.108  23.219  1.00  0.00     0.028 A 
ATOM     12  C   UNL A   1      31.126  22.879  23.623  1.00  0.00     0.002 A 
ATOM     13  C   UNL A   1      32.552  24.025  25.173  1.00  0.00     0.018 A 
ATOM     14  C   UNL A   1      32.095  22.835  24.612  1.00  0.00     0.001 A 
BRANCH  10  15
ATOM     15  N   UNL A   1      30.366  26.529  23.371  1.00  0.00    -0.241 N 
ATOM     16  C   UNL A   1      28.909  30.696  22.070  1.00  0.00     0.119 A 
ATOM     17  C   UNL A   1      27.727  30.227  22.685  1.00  0.00     0.047 A 
ATOM     18  C   UNL A   1      30.046  29.884  22.012  1.00  0.00     0.061 A 
ATOM     19  C   UNL A   1      27.654  28.942  23.230  1.00  0.00     0.018 A 
ATOM     20  C   UNL A   1      29.950  28.621  22.566  1.00  0.00     0.057 A 
ATOM     21  C   UNL A   1      28.791  28.163  23.152  1.00  0.00     0.053 A 
ATOM     22  C   UNL A   1      30.941  27.552  22.652  1.00  0.00     0.266 C 
ATOM     23  C   UNL A   1      29.043  26.815  23.640  1.00  0.00     0.266 C 
ATOM     24  O   UNL A   1      32.007  27.623  22.070  1.00  0.00    -0.268 OA
ATOM     25  O   UNL A   1      28.168  26.168  24.190  1.00  0.00    -0.268 OA
BRANCH  16  26
ATOM     26  O   UNL A   1      28.826  31.973  21.585  1.00  0.00    -0.497 OA
ATOM     27  C   UNL A   1      27.987  32.156  20.449  1.00  0.00     0.278 C 
ENDBRANCH  16  26
ENDBRANCH  10  15
ENDBRANCH   7   9
ENDBRANCH   6   7
ENDBRANCH   5   6
ENDBRANCH   4   5
ENDBRANCH   3   4
ENDBRANCH   2   3
ENDBRANCH   1   2
BRANCH   1  28
ATOM     28  O   UNL A   1      34.032  32.445  28.603  1.00  0.00    -0.376 OA
BRANCH  28  29
ATOM     29  C   UNL A   1      34.667  33.545  29.244  1.00  0.00     0.202 C 
BRANCH  29  30
ATOM     30  C   UNL A   1      35.362  33.255  30.584  1.00  0.00     0.261 C 
BRANCH  30  31
ATOM     31  O   UNL A   1      36.678  32.683  30.497  1.00  0.00    -0.460 OA
BRANCH  31  32
ATOM     32  C   UNL A   1      36.915  31.559  31.211  1.00  0.00     0.338 C 
ATOM     33  O   UNL A   1      36.200  31.077  32.070  1.00  0.00    -0.246 OA
BRANCH  32  34
ATOM     34  C   UNL A   1      38.114  30.904  30.637  1.00  0.00     0.060 A 
ATOM     35  C   UNL A   1      39.089  30.396  31.505  1.00  0.00     0.016 A 
ATOM     36  C   UNL A   1      38.267  30.778  29.254  1.00  0.00     0.016 A 
ATOM     37  C   UNL A   1      40.231  29.781  30.985  1.00  0.00     0.010 A 
ATOM     38  C   UNL A   1      39.420  30.177  28.736  1.00  0.00     0.010 A 
ATOM     39  C   UNL A   1      40.421  29.697  29.598  1.00  0.00    -0.014 A 
BRANCH  39  40
ATOM     40  C   UNL A   1      41.729  29.248  29.056  1.00  0.00     0.031 A 
ATOM     41  C   UNL A   1      42.857  30.242  28.965  1.00  0.00     0.074 A 
ATOM     42  C   UNL A   1      41.929  27.974  28.673  1.00  0.00     0.049 A 
ATOM     43  N   UNL A   1      44.089  30.064  28.564  1.00  0.00    -0.248 NA
ATOM     44  C   UNL A   1      42.552  31.619  29.387  1.00  0.00     0.031 C 
ATOM     45  C   UNL A   1      40.932  26.906  28.725  1.00  0.00     0.029 A 
ATOM     46  N   UNL A   1      43.049  27.364  28.161  1.00  0.00    -0.354 N 
ATOM     47  C   UNL A   1      44.709  31.303  28.689  1.00  0.00     0.074 A 
ATOM     48  C   UNL A   1      43.707  32.229  29.171  1.00  0.00     0.031 C 
ATOM     49  C   UNL A   1      41.486  25.770  28.264  1.00  0.00     0.029 A 
ATOM     50  C   UNL A   1      42.869  26.034  27.866  1.00  0.00     0.049 A 
ATOM     51  H   UNL A   1      43.901  27.836  28.019  1.00  0.00     0.167 HD
ATOM     52  C   UNL A   1      45.997  31.640  28.436  1.00  0.00     0.031 A 
ATOM     53  C   UNL A   1      43.717  25.134  27.328  1.00  0.00     0.031 A 
ATOM     54  C   UNL A   1      46.990  30.731  27.926  1.00  0.00     0.049 A 
ATOM     55  C   UNL A   1      45.126  25.549  26.989  1.00  0.00     0.074 A 
ATOM     56  C   UNL A   1      48.324  30.979  27.651  1.00  0.00     0.029 A 
ATOM     57  N   UNL A   1      46.754  29.405  27.601  1.00  0.00    -0.354 N 
ATOM     58  N   UNL A   1      45.708  26.713  27.156  1.00  0.00    -0.248 NA
ATOM     59  C   UNL A   1      45.996  24.519  26.401  1.00  0.00     0.031 C 
ATOM     60  C   UNL A   1      48.882  29.815  27.110  1.00  0.00     0.029 A 
ATOM     61  C   UNL A   1      47.911  28.828  27.102  1.00  0.00     0.049 A 
ATOM     62  H   UNL A   1      45.893  28.941  27.708  1.00  0.00     0.167 HD
ATOM     63  C   UNL A   1      47.017  26.549  26.714  1.00  0.00     0.074 A 
ATOM     64  C   UNL A   1      47.146  25.170  26.289  1.00  0.00     0.031 C 
ATOM     65  C   UNL A   1      48.024  27.457  26.667  1.00  0.00     0.031 A 
BRANCH  52  66
ATOM     66  C   UNL A   1      46.391  33.071  28.682  1.00  0.00    -0.014 A 
ATOM     67  C   UNL A   1      46.890  33.483  29.932  1.00  0.00     0.010 A 
ATOM     68  C   UNL A   1      46.274  34.016  27.646  1.00  0.00     0.010 A 
ATOM     69  C   UNL A   1      47.221  34.821  30.155  1.00  0.00     0.020 A 
ATOM     70  C   UNL A   1      46.629  35.351  27.858  1.00  0.00     0.020 A 
ATOM     71  C   UNL A   1      47.082  35.748  29.118  1.00  0.00     0.054 A 
BRANCH  71  72
ATOM     72  S   UNL A   1      47.523  37.480  29.431  1.00  0.00     0.124 S 
ATOM     73  O   UNL A   1      47.843  37.455  30.856  1.00  0.00    -0.237 OA
ATOM     74  O   UNL A   1      48.659  37.689  28.537  1.00  0.00    -0.237 OA
ATOM     75  O   UNL A   1      46.312  38.216  29.077  1.00  0.00    -0.744 OA
ENDBRANCH  71  72
ENDBRANCH  52  66
BRANCH  53  76
ATOM     76  C   UNL A   1      43.259  23.740  27.073  1.00  0.00    -0.014 A 
ATOM     77  C   UNL A   1      43.123  22.825  28.131  1.00  0.00     0.010 A 
ATOM     78  C   UNL A   1      42.960  23.321  25.763  1.00  0.00     0.010 A 
ATOM     79  C   UNL A   1      42.708  21.513  27.883  1.00  0.00     0.020 A 
ATOM     80  C   UNL A   1      42.522  22.018  25.515  1.00  0.00     0.020 A 
ATOM     81  C   UNL A   1      42.408  21.118  26.576  1.00  0.00     0.054 A 
BRANCH  81  82
ATOM     82  S   UNL A   1      41.816  19.427  26.285  1.00  0.00     0.124 S 
ATOM     83  O   UNL A   1      40.397  19.643  26.026  1.00  0.00    -0.237 OA
ATOM     84  O   UNL A   1      42.612  19.008  25.134  1.00  0.00    -0.237 OA
ATOM     85  O   UNL A   1      42.129  18.737  27.534  1.00  0.00    -0.744 OA
ENDBRANCH  81  82
ENDBRANCH  53  76
BRANCH  65  86
ATOM     86  C   UNL A   1      49.361  26.983  26.159  1.00  0.00    -0.014 A 
ATOM     87  C   UNL A   1      50.262  26.304  26.999  1.00  0.00     0.010 A 
ATOM     88  C   UNL A   1      49.710  27.198  24.813  1.00  0.00     0.010 A 
ATOM     89  C   UNL A   1      51.506  25.888  26.514  1.00  0.00     0.020 A 
ATOM     90  C   UNL A   1      50.942  26.761  24.317  1.00  0.00     0.020 A 
ATOM     91  C   UNL A   1      51.840  26.126  25.176  1.00  0.00     0.054 A 
BRANCH  91  92
ATOM     92  S   UNL A   1      53.453  25.566  24.563  1.00  0.00     0.124 S 
ATOM     93  O   UNL A   1      53.309  25.748  23.121  1.00  0.00    -0.237 OA
ATOM     94  O   UNL A   1      54.385  26.478  25.221  1.00  0.00    -0.237 OA
ATOM     95  O   UNL A   1      53.531  24.177  25.011  1.00  0.00    -0.744 OA
ENDBRANCH  91  92
ENDBRANCH  65  86
ENDBRANCH  39  40
ENDBRANCH  32  34
ENDBRANCH  31  32
ENDBRANCH  30  31
ENDBRANCH  29  30
ENDBRANCH  28  29
ENDBRANCH   1  28
TORSDOF 22
ENDMDL
MODEL 2
REMARK VINA RESULT:     -10.3      1.089      3.296
REMARK SMILES COc1ccc2c(c1)C(=O)N(c1ccccc1C(=O)OCCOCCOCCOC(=O)c1ccc(-c3c4nc(c(-c5ccc(S(=O)(=O)[O-])cc5)c5ccc([nH]5)c(-c5ccc(S(=O)(=O)[O-])cc5)c5nc(c(-c6ccc(S(=O)(=O)[O-])cc6)c6ccc3[nH]6)C=C5)C=C4)cc1)C2=O
REMARK SMILES IDX 25 1 24 2 23 3 22 4 21 5 20 6 18 7 19 8 17 9 12 10 13 11
REMARK SMILES IDX 14 12 16 13 15 14 11 15 3 16 4 17 8 18 5 19 7 20 6 21 9 22
REMARK SMILES IDX 92 23 10 24 93 25 2 26 1 27 26 28 27 29 28 30 29 31 30 32
REMARK SMILES IDX 31 33 32 34 33 35 91 36 34 37 90 38 35 39 36 40 37 41 84 42
REMARK SMILES IDX 38 43 89 44 83 45 85 46 39 47 88 48 82 49 81 50 40 52 70 53
REMARK SMILES IDX 51 54 69 55 52 56 55 57 68 58 86 59 53 60 54 61 67 63 87 64
REMARK SMILES IDX 56 65 41 66 42 67 50 68 43 69 49 70 44 71 45 72 46 73 47 74
REMARK SMILES IDX 48 75 71 76 72 77 80 78 73 79 79 80 74 81 75 82 76 83 77 84
REMARK SMILES IDX 78 85 57 86 58 87 66 88 59 89 65 90 60 91 61 92 62 93 63 94
REMARK SMILES IDX 64 95
REMARK H PARENT 85 51 55 62
REMARK Flexibility Score: inf
ROOT
ATOM      1  C   UNL A   1      34.070  32.471  28.074  1.00  0.00     0.188 C 
ENDROOT
BRANCH   1   2
ATOM      2  C   UNL A   1      34.608  31.182  27.420  1.00  0.00     0.188 C 
BRANCH   2   3
ATOM      3  O   UNL A   1      33.768  30.031  27.384  1.00  0.00    -0.376 OA
BRANCH   3   4
ATOM      4  C   UNL A   1      32.365  30.216  27.204  1.00  0.00     0.202 C 
BRANCH   4   5
ATOM      5  C   UNL A   1      31.633  29.224  26.296  1.00  0.00     0.261 C 
BRANCH   5   6
ATOM      6  O   UNL A   1      32.538  28.502  25.443  1.00  0.00    -0.460 OA
BRANCH   6   7
ATOM      7  C   UNL A   1      32.287  28.608  24.112  1.00  0.00     0.340 C 
ATOM      8  O   UNL A   1      33.117  28.589  23.219  1.00  0.00    -0.246 OA
BRANCH   7   9
ATOM      9  C   UNL A   1      30.826  28.506  23.856  1.00  0.00     0.084 A 
ATOM     10  C   UNL A   1      30.064  27.318  23.805  1.00  0.00     0.067 A 
ATOM     11  C   UNL A   1      28.705  27.436  23.434  1.00  0.00     0.028 A 
ATOM     12  C   UNL A   1      28.129  28.664  23.098  1.00  0.00     0.002 A 
ATOM     13  C   UNL A   1      30.233  29.740  23.504  1.00  0.00     0.018 A 
ATOM     14  C   UNL A   1      28.897  29.817  23.120  1.00  0.00     0.001 A 
BRANCH  10  15
ATOM     15  N   UNL A   1      30.587  26.014  24.045  1.00  0.00    -0.241 N 
ATOM     16  C   UNL A   1      32.156  21.687  24.107  1.00  0.00     0.119 A 
ATOM     17  C   UNL A   1      31.706  21.783  25.442  1.00  0.00     0.047 A 
ATOM     18  C   UNL A   1      32.038  22.780  23.242  1.00  0.00     0.061 A 
ATOM     19  C   UNL A   1      31.154  22.967  25.939  1.00  0.00     0.018 A 
ATOM     20  C   UNL A   1      31.480  23.937  23.756  1.00  0.00     0.057 A 
ATOM     21  C   UNL A   1      31.056  24.028  25.063  1.00  0.00     0.053 A 
ATOM     22  C   UNL A   1      31.236  25.227  23.120  1.00  0.00     0.266 C 
ATOM     23  C   UNL A   1      30.513  25.364  25.260  1.00  0.00     0.266 C 
ATOM     24  O   UNL A   1      31.663  25.482  22.009  1.00  0.00    -0.268 OA
ATOM     25  O   UNL A   1      30.080  25.717  26.345  1.00  0.00    -0.268 OA
BRANCH  16  26
ATOM     26  O   UNL A   1      32.671  20.465  23.769  1.00  0.00    -0.497 OA
ATOM     27  C   UNL A   1      32.565  19.448  24.759  1.00  0.00     0.278 C 
ENDBRANCH  16  26
ENDBRANCH  10  15
ENDBRANCH   7   9
ENDBRANCH   6   7
ENDBRANCH   5   6
ENDBRANCH   4   5
ENDBRANCH   3   4
ENDBRANCH   2   3
ENDBRANCH   1   2
BRANCH   1  28
ATOM     28  O   UNL A   1      34.047  32.445  29.494  1.00  0.00    -0.376 OA
BRANCH  28  29
ATOM     29  C   UNL A   1      34.793  33.470  30.140  1.00  0.00     0.202 C 
BRANCH  29  30
ATOM     30  C   UNL A   1      36.323  33.396  30.007  1.00  0.00     0.261 C 
BRANCH  30  31
ATOM     31  O   UNL A   1      37.021  32.796  31.111  1.00  0.00    -0.460 OA
BRANCH  31  32
ATOM     32  C   UNL A   1      36.888  31.460  31.276  1.00  0.00     0.338 C 
ATOM     33  O   UNL A   1      35.905  30.870  31.684  1.00  0.00    -0.246 OA
BRANCH  32  34
ATOM     34  C   UNL A   1      38.087  30.813  30.696  1.00  0.00     0.060 A 
ATOM     35  C   UNL A   1      39.091  30.349  31.556  1.00  0.00     0.016 A 
ATOM     36  C   UNL A   1      38.214  30.649  29.314  1.00  0.00     0.016 A 
ATOM     37  C   UNL A   1      40.235  29.743  31.031  1.00  0.00     0.010 A 
ATOM     38  C   UNL A   1      39.369  30.055  28.789  1.00  0.00     0.010 A 
ATOM     39  C   UNL A   1      40.396  29.621  29.642  1.00  0.00    -0.014 A 
BRANCH  39  40
ATOM     40  C   UNL A   1      41.702  29.182  29.086  1.00  0.00     0.031 A 
ATOM     41  C   UNL A   1      42.821  30.186  28.983  1.00  0.00     0.074 A 
ATOM     42  C   UNL A   1      41.907  27.910  28.700  1.00  0.00     0.049 A 
ATOM     43  N   UNL A   1      44.050  30.017  28.568  1.00  0.00    -0.248 NA
ATOM     44  C   UNL A   1      42.511  31.559  29.410  1.00  0.00     0.031 C 
ATOM     45  C   UNL A   1      40.919  26.835  28.762  1.00  0.00     0.029 A 
ATOM     46  N   UNL A   1      43.026  27.310  28.175  1.00  0.00    -0.354 N 
ATOM     47  C   UNL A   1      44.662  31.260  28.688  1.00  0.00     0.074 A 
ATOM     48  C   UNL A   1      43.659  32.179  29.182  1.00  0.00     0.031 C 
ATOM     49  C   UNL A   1      41.477  25.704  28.294  1.00  0.00     0.029 A 
ATOM     50  C   UNL A   1      42.853  25.978  27.880  1.00  0.00     0.049 A 
ATOM     51  H   UNL A   1      43.873  27.788  28.024  1.00  0.00     0.167 HD
ATOM     52  C   UNL A   1      45.945  31.607  28.421  1.00  0.00     0.031 A 
ATOM     53  C   UNL A   1      43.702  25.085  27.333  1.00  0.00     0.031 A 
ATOM     54  C   UNL A   1      46.938  30.707  27.900  1.00  0.00     0.049 A 
ATOM     55  C   UNL A   1      45.104  25.511  26.979  1.00  0.00     0.074 A 
ATOM     56  C   UNL A   1      48.267  30.965  27.610  1.00  0.00     0.029 A 
ATOM     57  N   UNL A   1      46.709  29.379  27.576  1.00  0.00    -0.354 N 
ATOM     58  N   UNL A   1      45.679  26.679  27.140  1.00  0.00    -0.248 NA
ATOM     59  C   UNL A   1      45.975  24.488  26.380  1.00  0.00     0.031 C 
ATOM     60  C   UNL A   1      48.829  29.805  27.062  1.00  0.00     0.029 A 
ATOM     61  C   UNL A   1      47.865  28.810  27.063  1.00  0.00     0.049 A 
ATOM     62  H   UNL A   1      45.853  28.908  27.692  1.00  0.00     0.167 HD
ATOM     63  C   UNL A   1      46.984  26.526  26.683  1.00  0.00     0.074 A 
ATOM     64  C   UNL A   1      47.119  25.148  26.255  1.00  0.00     0.031 C 
ATOM     65  C   UNL A   1      47.983  27.441  26.626  1.00  0.00     0.031 A 
BRANCH  52  66
ATOM     66  C   UNL A   1      46.331  33.041  28.664  1.00  0.00    -0.014 A 
ATOM     67  C   UNL A   1      46.186  34.013  27.657  1.00  0.00     0.010 A 
ATOM     68  C   UNL A   1      46.832  33.426  29.920  1.00  0.00     0.010 A 
ATOM     69  C   UNL A   1      46.578  35.334  27.887  1.00  0.00     0.020 A 
ATOM     70  C   UNL A   1      47.201  34.753  30.163  1.00  0.00     0.020 A 
ATOM     71  C   UNL A   1      47.090  35.694  29.137  1.00  0.00     0.054 A 
BRANCH  71  72
ATOM     72  S   UNL A   1      47.587  37.416  29.413  1.00  0.00     0.124 S 
ATOM     73  O   UNL A   1      47.134  37.644  30.783  1.00  0.00    -0.237 OA
ATOM     74  O   UNL A   1      49.035  37.365  29.232  1.00  0.00    -0.237 OA
ATOM     75  O   UNL A   1      46.860  38.156  28.385  1.00  0.00    -0.744 OA
ENDBRANCH  71  72
ENDBRANCH  52  66
BRANCH  53  76
ATOM     76  C   UNL A   1      43.251  23.688  27.081  1.00  0.00    -0.014 A 
ATOM     77  C   UNL A   1      43.350  22.711  28.086  1.00  0.00     0.010 A 
ATOM     78  C   UNL A   1      42.724  23.329  25.827  1.00  0.00     0.010 A 
ATOM     79  C   UNL A   1      42.941  21.397  27.840  1.00  0.00     0.020 A 
ATOM     80  C   UNL A   1      42.292  22.022  25.584  1.00  0.00     0.020 A 
ATOM     81  C   UNL A   1      42.412  21.061  26.590  1.00  0.00     0.054 A 
BRANCH  81  82
ATOM     82  S   UNL A   1      41.834  19.364  26.310  1.00  0.00     0.124 S 
ATOM     83  O   UNL A   1      42.823  18.859  25.362  1.00  0.00    -0.237 OA
ATOM     84  O   UNL A   1      41.890  18.786  27.650  1.00  0.00    -0.237 OA
ATOM     85  O   UNL A   1      40.487  19.546  25.773  1.00  0.00    -0.744 OA
ENDBRANCH  81  82
ENDBRANCH  53  76
BRANCH  65  86
ATOM     86  C   UNL A   1      49.319  26.978  26.103  1.00  0.00    -0.014 A 
ATOM     87  C   UNL A   1      49.697  27.205  24.768  1.00  0.00     0.010 A 
ATOM     88  C   UNL A   1      50.218  26.330  26.969  1.00  0.00     0.010 A 
ATOM     89  C   UNL A   1      50.933  26.751  24.296  1.00  0.00     0.020 A 
ATOM     90  C   UNL A   1      51.465  25.898  26.508  1.00  0.00     0.020 A 
ATOM     91  C   UNL A   1      51.807  26.094  25.169  1.00  0.00     0.054 A 
BRANCH  91  92
ATOM     92  S   UNL A   1      53.412  25.526  24.540  1.00  0.00     0.124 S 
ATOM     93  O   UNL A   1      53.277  25.763  23.106  1.00  0.00    -0.237 OA
ATOM     94  O   UNL A   1      54.358  26.396  25.234  1.00  0.00    -0.237 OA
ATOM     95  O   UNL A   1      53.461  24.121  24.938  1.00  0.00    -0.744 OA
ENDBRANCH  91  92
ENDBRANCH  65  86
ENDBRANCH  39  40
ENDBRANCH  32  34
ENDBRANCH  31  32
ENDBRANCH  30  31
ENDBRANCH  29  30
ENDBRANCH  28  29
ENDBRANCH   1  28
TORSDOF 22
ENDMDL
MODEL 3
REMARK VINA RESULT:     -10.1      5.854     11.424
REMARK SMILES COc1ccc2c(c1)C(=O)N(c1ccccc1C(=O)OCCOCCOCCOC(=O)c1ccc(-c3c4nc(c(-c5ccc(S(=O)(=O)[O-])cc5)c5ccc([nH]5)c(-c5ccc(S(=O)(=O)[O-])cc5)c5nc(c(-c6ccc(S(=O)(=O)[O-])cc6)c6ccc3[nH]6)C=C5)C=C4)cc1)C2=O
REMARK SMILES IDX 25 1 24 2 23 3 22 4 21 5 20 6 18 7 19 8 17 9 12 10 13 11
REMARK SMILES IDX 14 12 16 13 15 14 11 15 3 16 4 17 8 18 5 19 7 20 6 21 9 22
REMARK SMILES IDX 92 23 10 24 93 25 2 26 1 27 26 28 27 29 28 30 29 31 30 32
REMARK SMILES IDX 31 33 32 34 33 35 91 36 34 37 90 38 35 39 36 40 37 41 84 42
REMARK SMILES IDX 38 43 89 44 83 45 85 46 39 47 88 48 82 49 81 50 40 52 70 53
REMARK SMILES IDX 51 54 69 55 52 56 55 57 68 58 86 59 53 60 54 61 67 63 87 64
REMARK SMILES IDX 56 65 41 66 42 67 50 68 43 69 49 70 44 71 45 72 46 73 47 74
REMARK SMILES IDX 48 75 71 76 72 77 80 78 73 79 79 80 74 81 75 82 76 83 77 84
REMARK SMILES IDX 78 85 57 86 58 87 66 88 59 89 65 90 60 91 61 92 62 93 63 94
REMARK SMILES IDX 64 95
REMARK H PARENT 85 51 55 62
REMARK Flexibility Score: inf
ROOT
ATOM      1  C   UNL A   1      40.577  21.787  27.587  1.00  0.00     0.188 C 
ENDROOT
BRANCH   1   2
ATOM      2  C   UNL A   1      39.687  21.627  26.336  1.00  0.00     0.188 C 
BRANCH   2   3
ATOM      3  O   UNL A   1      39.090  22.790  25.768  1.00  0.00    -0.376 OA
BRANCH   3   4
ATOM      4  C   UNL A   1      37.693  23.003  25.960  1.00  0.00     0.202 C 
BRANCH   4   5
ATOM      5  C   UNL A   1      36.737  22.371  24.944  1.00  0.00     0.261 C 
BRANCH   5   6
ATOM      6  O   UNL A   1      36.261  21.085  25.376  1.00  0.00    -0.460 OA
BRANCH   6   7
ATOM      7  C   UNL A   1      34.994  21.073  25.868  1.00  0.00     0.340 C 
ATOM      8  O   UNL A   1      34.629  21.553  26.928  1.00  0.00    -0.246 OA
BRANCH   7   9
ATOM      9  C   UNL A   1      34.043  20.605  24.826  1.00  0.00     0.084 A 
ATOM     10  C   UNL A   1      33.067  21.387  24.170  1.00  0.00     0.067 A 
ATOM     11  C   UNL A   1      32.186  20.717  23.289  1.00  0.00     0.028 A 
ATOM     12  C   UNL A   1      32.244  19.336  23.086  1.00  0.00     0.002 A 
ATOM     13  C   UNL A   1      34.083  19.208  24.619  1.00  0.00     0.018 A 
ATOM     14  C   UNL A   1      33.185  18.576  23.762  1.00  0.00     0.001 A 
BRANCH  10  15
ATOM     15  N   UNL A   1      32.876  22.783  24.381  1.00  0.00    -0.241 N 
ATOM     16  C   UNL A   1      32.959  27.361  24.858  1.00  0.00     0.119 A 
ATOM     17  C   UNL A   1      31.969  27.052  25.817  1.00  0.00     0.047 A 
ATOM     18  C   UNL A   1      33.560  26.343  24.111  1.00  0.00     0.061 A 
ATOM     19  C   UNL A   1      31.549  25.736  26.029  1.00  0.00     0.018 A 
ATOM     20  C   UNL A   1      33.134  25.048  24.347  1.00  0.00     0.057 A 
ATOM     21  C   UNL A   1      32.158  24.756  25.273  1.00  0.00     0.053 A 
ATOM     22  C   UNL A   1      33.552  23.792  23.732  1.00  0.00     0.266 C 
ATOM     23  C   UNL A   1      31.967  23.312  25.275  1.00  0.00     0.266 C 
ATOM     24  O   UNL A   1      34.288  23.770  22.764  1.00  0.00    -0.268 OA
ATOM     25  O   UNL A   1      31.140  22.784  25.999  1.00  0.00    -0.268 OA
BRANCH  16  26
ATOM     26  O   UNL A   1      33.263  28.692  24.766  1.00  0.00    -0.497 OA
ATOM     27  C   UNL A   1      33.631  29.333  25.982  1.00  0.00     0.278 C 
ENDBRANCH  16  26
ENDBRANCH  10  15
ENDBRANCH   7   9
ENDBRANCH   6   7
ENDBRANCH   5   6
ENDBRANCH   4   5
ENDBRANCH   3   4
ENDBRANCH   2   3
ENDBRANCH   1   2
BRANCH   1  28
ATOM     28  O   UNL A   1      41.957  21.543  27.362  1.00  0.00    -0.376 OA
BRANCH  28  29
ATOM     29  C   UNL A   1      42.381  21.616  26.006  1.00  0.00     0.202 C 
BRANCH  29  30
ATOM     30  C   UNL A   1      43.021  22.939  25.555  1.00  0.00     0.261 C 
BRANCH  30  31
ATOM     31  O   UNL A   1      42.934  24.029  26.488  1.00  0.00    -0.460 OA
BRANCH  31  32
ATOM     32  C   UNL A   1      42.732  25.266  25.980  1.00  0.00     0.338 C 
ATOM     33  O   UNL A   1      42.738  25.582  24.805  1.00  0.00    -0.246 OA
BRANCH  32  34
ATOM     34  C   UNL A   1      42.313  26.148  27.094  1.00  0.00     0.060 A 
ATOM     35  C   UNL A   1      42.870  27.429  27.191  1.00  0.00     0.016 A 
ATOM     36  C   UNL A   1      41.365  25.720  28.028  1.00  0.00     0.016 A 
ATOM     37  C   UNL A   1      42.495  28.275  28.238  1.00  0.00     0.010 A 
ATOM     38  C   UNL A   1      41.003  26.563  29.085  1.00  0.00     0.010 A 
ATOM     39  C   UNL A   1      41.584  27.836  29.211  1.00  0.00    -0.014 A 
BRANCH  39  40
ATOM     40  C   UNL A   1      41.361  28.648  30.435  1.00  0.00     0.031 A 
ATOM     41  C   UNL A   1      40.238  29.652  30.446  1.00  0.00     0.074 A 
ATOM     42  C   UNL A   1      42.124  28.487  31.531  1.00  0.00     0.049 A 
ATOM     43  N   UNL A   1      39.837  30.437  31.412  1.00  0.00    -0.248 NA
ATOM     44  C   UNL A   1      39.463  29.780  29.201  1.00  0.00     0.031 C 
ATOM     45  C   UNL A   1      43.230  27.540  31.664  1.00  0.00     0.029 A 
ATOM     46  N   UNL A   1      42.077  29.122  32.748  1.00  0.00    -0.354 N 
ATOM     47  C   UNL A   1      38.761  31.151  30.895  1.00  0.00     0.074 A 
ATOM     48  C   UNL A   1      38.594  30.727  29.521  1.00  0.00     0.031 C 
ATOM     49  C   UNL A   1      43.758  27.657  32.895  1.00  0.00     0.029 A 
ATOM     50  C   UNL A   1      43.042  28.699  33.632  1.00  0.00     0.049 A 
ATOM     51  H   UNL A   1      41.415  29.817  32.968  1.00  0.00     0.167 HD
ATOM     52  C   UNL A   1      37.974  32.068  31.509  1.00  0.00     0.031 A 
ATOM     53  C   UNL A   1      43.321  29.108  34.886  1.00  0.00     0.031 A 
ATOM     54  C   UNL A   1      38.154  32.516  32.864  1.00  0.00     0.049 A 
ATOM     55  C   UNL A   1      42.476  30.180  35.525  1.00  0.00     0.074 A 
ATOM     56  C   UNL A   1      37.398  33.432  33.576  1.00  0.00     0.029 A 
ATOM     57  N   UNL A   1      39.168  32.093  33.708  1.00  0.00    -0.354 N 
ATOM     58  N   UNL A   1      41.434  30.811  35.037  1.00  0.00    -0.248 NA
ATOM     59  C   UNL A   1      42.839  30.583  36.892  1.00  0.00     0.031 C 
ATOM     60  C   UNL A   1      37.987  33.601  34.835  1.00  0.00     0.029 A 
ATOM     61  C   UNL A   1      39.075  32.749  34.926  1.00  0.00     0.049 A 
ATOM     62  H   UNL A   1      39.853  31.425  33.478  1.00  0.00     0.167 HD
ATOM     63  C   UNL A   1      41.005  31.670  36.045  1.00  0.00     0.074 A 
ATOM     64  C   UNL A   1      41.889  31.464  37.174  1.00  0.00     0.031 C 
ATOM     65  C   UNL A   1      39.970  32.547  36.038  1.00  0.00     0.031 A 
BRANCH  52  66
ATOM     66  C   UNL A   1      36.861  32.669  30.694  1.00  0.00    -0.014 A 
ATOM     67  C   UNL A   1      37.094  33.762  29.840  1.00  0.00     0.010 A 
ATOM     68  C   UNL A   1      35.566  32.125  30.772  1.00  0.00     0.010 A 
ATOM     69  C   UNL A   1      36.045  34.330  29.114  1.00  0.00     0.020 A 
ATOM     70  C   UNL A   1      34.518  32.674  30.028  1.00  0.00     0.020 A 
ATOM     71  C   UNL A   1      34.761  33.786  29.218  1.00  0.00     0.054 A 
BRANCH  71  72
ATOM     72  S   UNL A   1      33.415  34.537  28.262  1.00  0.00     0.124 S 
ATOM     73  O   UNL A   1      34.130  35.069  27.104  1.00  0.00    -0.237 OA
ATOM     74  O   UNL A   1      32.540  33.400  27.989  1.00  0.00    -0.237 OA
ATOM     75  O   UNL A   1      32.863  35.541  29.168  1.00  0.00    -0.744 OA
ENDBRANCH  71  72
ENDBRANCH  52  66
BRANCH  53  76
ATOM     76  C   UNL A   1      44.459  28.502  35.630  1.00  0.00    -0.014 A 
ATOM     77  C   UNL A   1      44.261  27.384  36.459  1.00  0.00     0.010 A 
ATOM     78  C   UNL A   1      45.752  29.046  35.514  1.00  0.00     0.010 A 
ATOM     79  C   UNL A   1      45.330  26.829  37.168  1.00  0.00     0.020 A 
ATOM     80  C   UNL A   1      46.828  28.480  36.203  1.00  0.00     0.020 A 
ATOM     81  C   UNL A   1      46.608  27.380  37.034  1.00  0.00     0.054 A 
BRANCH  81  82
ATOM     82  S   UNL A   1      47.992  26.608  37.919  1.00  0.00     0.124 S 
ATOM     83  O   UNL A   1      48.773  26.041  36.824  1.00  0.00    -0.237 OA
ATOM     84  O   UNL A   1      48.600  27.745  38.606  1.00  0.00    -0.237 OA
ATOM     85  O   UNL A   1      47.339  25.637  38.793  1.00  0.00    -0.744 OA
ENDBRANCH  81  82
ENDBRANCH  53  76
BRANCH  65  86
ATOM     86  C   UNL A   1      39.722  33.335  37.299  1.00  0.00    -0.014 A 
ATOM     87  C   UNL A   1      40.207  34.647  37.446  1.00  0.00     0.010 A 
ATOM     88  C   UNL A   1      38.968  32.764  38.340  1.00  0.00     0.010 A 
ATOM     89  C   UNL A   1      39.982  35.356  38.630  1.00  0.00     0.020 A 
ATOM     90  C   UNL A   1      38.719  33.478  39.515  1.00  0.00     0.020 A 
ATOM     91  C   UNL A   1      39.244  34.764  39.660  1.00  0.00     0.054 A 
BRANCH  91  92
ATOM     92  S   UNL A   1      38.952  35.706  41.183  1.00  0.00     0.124 S 
ATOM     93  O   UNL A   1      39.885  35.077  42.114  1.00  0.00    -0.237 OA
ATOM     94  O   UNL A   1      39.284  37.072  40.788  1.00  0.00    -0.237 OA
ATOM     95  O   UNL A   1      37.537  35.473  41.467  1.00  0.00    -0.744 OA
ENDBRANCH  91  92
ENDBRANCH  65  86
ENDBRANCH  39  40
ENDBRANCH  32  34
ENDBRANCH  31  32
ENDBRANCH  30  31
ENDBRANCH  29  30
ENDBRANCH  28  29
ENDBRANCH   1  28
TORSDOF 22
ENDMDL
