MODEL 1
REMARK VINA RESULT:     -10.0      0.000      0.000
REMARK SMILES O=C(OCCOCCOCCOC(=O)c1cc2ncoc2cn1)c1ccc(-c2c3nc(c(-c4ccc(S(=O)(=O)[O-])cc4)c4ccc([nH]4)c(-c4ccc(S(=O)(=O)[O-])cc4)c4nc(c(-c5ccc(S(=O)(=O)[O-])cc5)c5ccc2[nH]5)C=C4)C=C3)cc1
REMARK SMILES IDX 6 1 5 2 4 3 3 4 2 5 1 6 24 7 25 8 83 9 26 10 82 11 27 12
REMARK SMILES IDX 28 13 29 14 76 15 30 16 81 17 75 18 77 19 31 20 80 21 74 22
REMARK SMILES IDX 73 23 32 25 62 26 43 27 61 28 44 29 47 30 60 31 78 32 45 33
REMARK SMILES IDX 46 34 59 36 79 37 48 38 33 39 34 40 42 41 35 42 41 43 36 44
REMARK SMILES IDX 37 45 38 46 39 47 40 48 63 49 64 50 72 51 65 52 71 53 66 54
REMARK SMILES IDX 67 55 68 56 69 57 70 58 49 59 50 60 58 61 51 62 57 63 52 64
REMARK SMILES IDX 53 65 54 66 55 67 56 68 7 69 8 70 9 71 10 72 11 73 12 74
REMARK SMILES IDX 13 75 14 76 15 77 16 78 23 79 17 80 22 81 18 82 21 83 19 84
REMARK SMILES IDX 20 85
REMARK H PARENT 77 24 47 35
REMARK Flexibility Score: inf
ROOT
ATOM      1  O   UNL A   1      41.632  21.301  26.657  1.00  0.00    -0.376 OA
ENDROOT
BRANCH   1   2
ATOM      2  C   UNL A   1      41.707  19.900  26.448  1.00  0.00     0.202 C 
BRANCH   2   3
ATOM      3  C   UNL A   1      42.924  19.407  25.650  1.00  0.00     0.261 C 
BRANCH   3   4
ATOM      4  O   UNL A   1      43.548  20.284  24.673  1.00  0.00    -0.460 OA
BRANCH   4   5
ATOM      5  C   UNL A   1      44.641  21.080  24.790  1.00  0.00     0.338 C 
ATOM      6  O   UNL A   1      45.767  20.661  24.557  1.00  0.00    -0.246 OA
BRANCH   5   7
ATOM      7  C   UNL A   1      44.445  22.432  25.330  1.00  0.00     0.060 A 
ATOM      8  C   UNL A   1      45.058  22.730  26.548  1.00  0.00     0.016 A 
ATOM      9  C   UNL A   1      43.547  23.321  24.734  1.00  0.00     0.016 A 
ATOM     10  C   UNL A   1      44.615  23.833  27.256  1.00  0.00     0.010 A 
ATOM     11  C   UNL A   1      43.059  24.388  25.477  1.00  0.00     0.010 A 
ATOM     12  C   UNL A   1      43.554  24.606  26.763  1.00  0.00    -0.014 A 
BRANCH  12  13
ATOM     13  C   UNL A   1      43.211  25.810  27.518  1.00  0.00     0.031 A 
ATOM     14  C   UNL A   1      44.256  26.845  27.368  1.00  0.00     0.074 A 
ATOM     15  C   UNL A   1      42.073  26.075  28.184  1.00  0.00     0.049 A 
ATOM     16  N   UNL A   1      45.136  27.245  28.223  1.00  0.00    -0.248 NA
ATOM     17  C   UNL A   1      44.450  27.346  25.997  1.00  0.00     0.031 C 
ATOM     18  C   UNL A   1      40.805  25.346  28.130  1.00  0.00     0.029 A 
ATOM     19  N   UNL A   1      41.797  27.123  29.019  1.00  0.00    -0.354 N 
ATOM     20  C   UNL A   1      45.881  28.191  27.535  1.00  0.00     0.074 A 
ATOM     21  C   UNL A   1      45.585  28.022  26.136  1.00  0.00     0.031 C 
ATOM     22  C   UNL A   1      39.858  26.048  28.789  1.00  0.00     0.029 A 
ATOM     23  C   UNL A   1      40.453  27.254  29.340  1.00  0.00     0.049 A 
ATOM     24  H   UNL A   1      42.491  27.732  29.363  1.00  0.00     0.167 HD
ATOM     25  C   UNL A   1      46.461  29.258  28.145  1.00  0.00     0.031 A 
ATOM     26  C   UNL A   1      39.846  28.334  29.900  1.00  0.00     0.031 A 
ATOM     27  C   UNL A   1      46.586  29.095  29.563  1.00  0.00     0.049 A 
ATOM     28  C   UNL A   1      40.894  29.159  30.549  1.00  0.00     0.074 A 
ATOM     29  C   UNL A   1      47.265  28.221  30.384  1.00  0.00     0.029 A 
ATOM     30  N   UNL A   1      45.638  29.706  30.345  1.00  0.00    -0.354 N 
ATOM     31  N   UNL A   1      41.583  28.783  31.591  1.00  0.00    -0.248 NA
ATOM     32  C   UNL A   1      41.460  30.271  29.801  1.00  0.00     0.031 C 
ATOM     33  C   UNL A   1      46.423  28.040  31.517  1.00  0.00     0.029 A 
ATOM     34  C   UNL A   1      45.292  28.846  31.358  1.00  0.00     0.049 A 
ATOM     35  H   UNL A   1      45.268  30.608  30.203  1.00  0.00     0.167 HD
ATOM     36  C   UNL A   1      42.846  29.328  31.406  1.00  0.00     0.074 A 
ATOM     37  C   UNL A   1      42.676  30.320  30.351  1.00  0.00     0.031 C 
ATOM     38  C   UNL A   1      43.962  28.744  31.937  1.00  0.00     0.031 A 
BRANCH  25  39
ATOM     39  C   UNL A   1      46.551  30.586  27.446  1.00  0.00    -0.014 A 
ATOM     40  C   UNL A   1      45.399  31.342  27.128  1.00  0.00     0.010 A 
ATOM     41  C   UNL A   1      47.795  31.209  27.262  1.00  0.00     0.010 A 
ATOM     42  C   UNL A   1      45.468  32.601  26.547  1.00  0.00     0.020 A 
ATOM     43  C   UNL A   1      47.877  32.508  26.736  1.00  0.00     0.020 A 
ATOM     44  C   UNL A   1      46.713  33.181  26.357  1.00  0.00     0.054 A 
BRANCH  44  45
ATOM     45  S   UNL A   1      46.756  34.855  25.682  1.00  0.00     0.124 S 
ATOM     46  O   UNL A   1      48.133  34.949  25.204  1.00  0.00    -0.237 OA
ATOM     47  O   UNL A   1      45.731  34.801  24.643  1.00  0.00    -0.237 OA
ATOM     48  O   UNL A   1      46.433  35.694  26.832  1.00  0.00    -0.744 OA
ENDBRANCH  44  45
ENDBRANCH  25  39
BRANCH  26  49
ATOM     49  C   UNL A   1      38.515  28.874  29.496  1.00  0.00    -0.014 A 
ATOM     50  C   UNL A   1      38.284  29.226  28.148  1.00  0.00     0.010 A 
ATOM     51  C   UNL A   1      37.562  29.297  30.444  1.00  0.00     0.010 A 
ATOM     52  C   UNL A   1      37.198  30.010  27.761  1.00  0.00     0.020 A 
ATOM     53  C   UNL A   1      36.470  30.103  30.065  1.00  0.00     0.020 A 
ATOM     54  C   UNL A   1      36.320  30.481  28.728  1.00  0.00     0.054 A 
BRANCH  54  55
ATOM     55  S   UNL A   1      35.066  31.679  28.198  1.00  0.00     0.124 S 
ATOM     56  O   UNL A   1      34.486  32.091  29.474  1.00  0.00    -0.237 OA
ATOM     57  O   UNL A   1      35.868  32.696  27.521  1.00  0.00    -0.237 OA
ATOM     58  O   UNL A   1      34.186  30.902  27.331  1.00  0.00    -0.744 OA
ENDBRANCH  54  55
ENDBRANCH  26  49
BRANCH  38  59
ATOM     59  C   UNL A   1      43.799  27.722  33.047  1.00  0.00    -0.014 A 
ATOM     60  C   UNL A   1      43.799  28.203  34.370  1.00  0.00     0.010 A 
ATOM     61  C   UNL A   1      43.835  26.329  32.847  1.00  0.00     0.010 A 
ATOM     62  C   UNL A   1      43.882  27.331  35.459  1.00  0.00     0.020 A 
ATOM     63  C   UNL A   1      43.889  25.444  33.940  1.00  0.00     0.020 A 
ATOM     64  C   UNL A   1      43.943  25.954  35.239  1.00  0.00     0.054 A 
BRANCH  64  65
ATOM     65  S   UNL A   1      44.107  24.868  36.685  1.00  0.00     0.124 S 
ATOM     66  O   UNL A   1      42.987  25.289  37.527  1.00  0.00    -0.237 OA
ATOM     67  O   UNL A   1      43.966  23.534  36.102  1.00  0.00    -0.237 OA
ATOM     68  O   UNL A   1      45.436  25.159  37.216  1.00  0.00    -0.744 OA
ENDBRANCH  64  65
ENDBRANCH  38  59
ENDBRANCH  12  13
ENDBRANCH   5   7
ENDBRANCH   4   5
ENDBRANCH   3   4
ENDBRANCH   2   3
ENDBRANCH   1   2
BRANCH   1  69
ATOM     69  C   UNL A   1      40.420  21.737  27.249  1.00  0.00     0.188 C 
BRANCH  69  70
ATOM     70  C   UNL A   1      39.286  21.905  26.233  1.00  0.00     0.188 C 
BRANCH  70  71
ATOM     71  O   UNL A   1      38.511  23.095  26.304  1.00  0.00    -0.376 OA
BRANCH  71  72
ATOM     72  C   UNL A   1      37.410  23.230  25.413  1.00  0.00     0.202 C 
BRANCH  72  73
ATOM     73  C   UNL A   1      35.960  23.109  25.907  1.00  0.00     0.261 C 
BRANCH  73  74
ATOM     74  O   UNL A   1      34.950  22.740  24.968  1.00  0.00    -0.459 OA
BRANCH  74  75
ATOM     75  C   UNL A   1      34.557  23.781  24.176  1.00  0.00     0.357 C 
ATOM     76  O   UNL A   1      34.980  24.048  23.086  1.00  0.00    -0.244 OA
BRANCH  75  77
ATOM     77  C   UNL A   1      33.593  24.615  24.946  1.00  0.00     0.150 A 
ATOM     78  C   UNL A   1      33.943  25.901  25.344  1.00  0.00     0.068 A 
ATOM     79  N   UNL A   1      32.390  24.023  25.191  1.00  0.00    -0.245 NA
ATOM     80  C   UNL A   1      32.973  26.568  26.093  1.00  0.00     0.113 A 
ATOM     81  C   UNL A   1      31.450  24.682  25.907  1.00  0.00     0.161 A 
ATOM     82  N   UNL A   1      32.983  27.815  26.675  1.00  0.00    -0.216 NA
ATOM     83  C   UNL A   1      31.762  25.946  26.357  1.00  0.00     0.172 A 
ATOM     84  C   UNL A   1      31.811  27.879  27.270  1.00  0.00     0.309 A 
ATOM     85  O   UNL A   1      31.006  26.791  27.113  1.00  0.00    -0.442 OA
ENDBRANCH  75  77
ENDBRANCH  74  75
ENDBRANCH  73  74
ENDBRANCH  72  73
ENDBRANCH  71  72
ENDBRANCH  70  71
ENDBRANCH  69  70
ENDBRANCH   1  69
TORSDOF 20
ENDMDL
MODEL 2
REMARK VINA RESULT:     -10.0      2.310      2.962
REMARK SMILES O=C(OCCOCCOCCOC(=O)c1cc2ncoc2cn1)c1ccc(-c2c3nc(c(-c4ccc(S(=O)(=O)[O-])cc4)c4ccc([nH]4)c(-c4ccc(S(=O)(=O)[O-])cc4)c4nc(c(-c5ccc(S(=O)(=O)[O-])cc5)c5ccc2[nH]5)C=C4)C=C3)cc1
REMARK SMILES IDX 6 1 5 2 4 3 3 4 2 5 1 6 24 7 25 8 83 9 26 10 82 11 27 12
REMARK SMILES IDX 28 13 29 14 76 15 30 16 81 17 75 18 77 19 31 20 80 21 74 22
REMARK SMILES IDX 73 23 32 25 62 26 43 27 61 28 44 29 47 30 60 31 78 32 45 33
REMARK SMILES IDX 46 34 59 36 79 37 48 38 33 39 34 40 42 41 35 42 41 43 36 44
REMARK SMILES IDX 37 45 38 46 39 47 40 48 63 49 64 50 72 51 65 52 71 53 66 54
REMARK SMILES IDX 67 55 68 56 69 57 70 58 49 59 50 60 58 61 51 62 57 63 52 64
REMARK SMILES IDX 53 65 54 66 55 67 56 68 7 69 8 70 9 71 10 72 11 73 12 74
REMARK SMILES IDX 13 75 14 76 15 77 16 78 23 79 17 80 22 81 18 82 21 83 19 84
REMARK SMILES IDX 20 85
REMARK H PARENT 77 24 47 35
REMARK Flexibility Score: inf
ROOT
ATOM      1  O   UNL A   1      38.420  21.350  25.944  1.00  0.00    -0.376 OA
ENDROOT
BRANCH   1   2
ATOM      2  C   UNL A   1      39.629  22.085  26.048  1.00  0.00     0.202 C 
BRANCH   2   3
ATOM      3  C   UNL A   1      40.920  21.252  26.024  1.00  0.00     0.261 C 
BRANCH   3   4
ATOM      4  O   UNL A   1      42.210  21.920  26.092  1.00  0.00    -0.460 OA
BRANCH   4   5
ATOM      5  C   UNL A   1      42.687  22.965  25.372  1.00  0.00     0.338 C 
ATOM      6  O   UNL A   1      43.271  22.798  24.309  1.00  0.00    -0.246 OA
BRANCH   5   7
ATOM      7  C   UNL A   1      42.593  24.305  25.968  1.00  0.00     0.060 A 
ATOM      8  C   UNL A   1      43.115  24.472  27.251  1.00  0.00     0.016 A 
ATOM      9  C   UNL A   1      41.861  25.319  25.345  1.00  0.00     0.016 A 
ATOM     10  C   UNL A   1      42.732  25.585  27.979  1.00  0.00     0.010 A 
ATOM     11  C   UNL A   1      41.427  26.400  26.100  1.00  0.00     0.010 A 
ATOM     12  C   UNL A   1      41.817  26.499  27.437  1.00  0.00    -0.014 A 
BRANCH  12  13
ATOM     13  C   UNL A   1      41.540  27.698  28.225  1.00  0.00     0.031 A 
ATOM     14  C   UNL A   1      42.682  28.635  28.182  1.00  0.00     0.074 A 
ATOM     15  C   UNL A   1      40.393  28.042  28.837  1.00  0.00     0.049 A 
ATOM     16  N   UNL A   1      43.542  28.917  29.103  1.00  0.00    -0.248 NA
ATOM     17  C   UNL A   1      43.003  29.171  26.848  1.00  0.00     0.031 C 
ATOM     18  C   UNL A   1      39.070  27.436  28.679  1.00  0.00     0.029 A 
ATOM     19  N   UNL A   1      40.163  29.077  29.703  1.00  0.00    -0.354 N 
ATOM     20  C   UNL A   1      44.410  29.817  28.502  1.00  0.00     0.074 A 
ATOM     21  C   UNL A   1      44.184  29.732  27.081  1.00  0.00     0.031 C 
ATOM     22  C   UNL A   1      38.152  28.197  29.314  1.00  0.00     0.029 A 
ATOM     23  C   UNL A   1      38.820  29.320  29.952  1.00  0.00     0.049 A 
ATOM     24  H   UNL A   1      40.888  29.603  30.112  1.00  0.00     0.167 HD
ATOM     25  C   UNL A   1      45.047  30.799  29.191  1.00  0.00     0.031 A 
ATOM     26  C   UNL A   1      38.281  30.428  30.526  1.00  0.00     0.031 A 
ATOM     27  C   UNL A   1      45.070  30.568  30.605  1.00  0.00     0.049 A 
ATOM     28  C   UNL A   1      39.358  31.124  31.270  1.00  0.00     0.074 A 
ATOM     29  C   UNL A   1      45.616  29.603  31.422  1.00  0.00     0.029 A 
ATOM     30  N   UNL A   1      44.136  31.234  31.360  1.00  0.00    -0.354 N 
ATOM     31  N   UNL A   1      39.946  30.645  32.331  1.00  0.00    -0.248 NA
ATOM     32  C   UNL A   1      40.068  32.208  30.607  1.00  0.00     0.031 C 
ATOM     33  C   UNL A   1      44.694  29.455  32.497  1.00  0.00     0.029 A 
ATOM     34  C   UNL A   1      43.653  30.370  32.311  1.00  0.00     0.049 A 
ATOM     35  H   UNL A   1      43.859  32.170  31.238  1.00  0.00     0.167 HD
ATOM     36  C   UNL A   1      41.263  31.075  32.243  1.00  0.00     0.074 A 
ATOM     37  C   UNL A   1      41.248  32.121  31.226  1.00  0.00     0.031 C 
ATOM     38  C   UNL A   1      42.286  30.370  32.809  1.00  0.00     0.031 A 
BRANCH  25  39
ATOM     39  C   UNL A   1      45.300  32.140  28.560  1.00  0.00    -0.014 A 
ATOM     40  C   UNL A   1      44.312  33.152  28.537  1.00  0.00     0.010 A 
ATOM     41  C   UNL A   1      46.591  32.498  28.145  1.00  0.00     0.010 A 
ATOM     42  C   UNL A   1      44.552  34.419  28.022  1.00  0.00     0.020 A 
ATOM     43  C   UNL A   1      46.863  33.795  27.683  1.00  0.00     0.020 A 
ATOM     44  C   UNL A   1      45.834  34.735  27.600  1.00  0.00     0.054 A 
BRANCH  44  45
ATOM     45  S   UNL A   1      46.126  36.421  27.019  1.00  0.00     0.124 S 
ATOM     46  O   UNL A   1      46.969  36.960  28.082  1.00  0.00    -0.237 OA
ATOM     47  O   UNL A   1      46.791  36.200  25.738  1.00  0.00    -0.237 OA
ATOM     48  O   UNL A   1      44.784  36.988  26.934  1.00  0.00    -0.744 OA
ENDBRANCH  44  45
ENDBRANCH  25  39
BRANCH  26  49
ATOM     49  C   UNL A   1      37.031  31.106  30.073  1.00  0.00    -0.014 A 
ATOM     50  C   UNL A   1      36.989  31.710  28.797  1.00  0.00     0.010 A 
ATOM     51  C   UNL A   1      35.978  31.401  30.960  1.00  0.00     0.010 A 
ATOM     52  C   UNL A   1      35.988  32.610  28.435  1.00  0.00     0.020 A 
ATOM     53  C   UNL A   1      34.971  32.322  30.610  1.00  0.00     0.020 A 
ATOM     54  C   UNL A   1      35.007  32.946  29.360  1.00  0.00     0.054 A 
BRANCH  54  55
ATOM     55  S   UNL A   1      33.872  34.289  28.917  1.00  0.00     0.124 S 
ATOM     56  O   UNL A   1      34.785  35.282  28.356  1.00  0.00    -0.237 OA
ATOM     57  O   UNL A   1      32.983  33.644  27.953  1.00  0.00    -0.237 OA
ATOM     58  O   UNL A   1      33.251  34.653  30.187  1.00  0.00    -0.744 OA
ENDBRANCH  54  55
ENDBRANCH  26  49
BRANCH  38  59
ATOM     59  C   UNL A   1      41.965  29.323  33.860  1.00  0.00    -0.014 A 
ATOM     60  C   UNL A   1      42.315  29.619  35.191  1.00  0.00     0.010 A 
ATOM     61  C   UNL A   1      41.515  28.021  33.565  1.00  0.00     0.010 A 
ATOM     62  C   UNL A   1      42.268  28.641  36.188  1.00  0.00     0.020 A 
ATOM     63  C   UNL A   1      41.438  27.040  34.571  1.00  0.00     0.020 A 
ATOM     64  C   UNL A   1      41.845  27.350  35.870  1.00  0.00     0.054 A 
BRANCH  64  65
ATOM     65  S   UNL A   1      41.857  26.101  37.189  1.00  0.00     0.124 S 
ATOM     66  O   UNL A   1      42.864  26.624  38.113  1.00  0.00    -0.237 OA
ATOM     67  O   UNL A   1      40.484  26.150  37.690  1.00  0.00    -0.237 OA
ATOM     68  O   UNL A   1      42.211  24.855  36.515  1.00  0.00    -0.744 OA
ENDBRANCH  64  65
ENDBRANCH  38  59
ENDBRANCH  12  13
ENDBRANCH   5   7
ENDBRANCH   4   5
ENDBRANCH   3   4
ENDBRANCH   2   3
ENDBRANCH   1   2
BRANCH   1  69
ATOM     69  C   UNL A   1      37.634  21.679  24.810  1.00  0.00     0.188 C 
BRANCH  69  70
ATOM     70  C   UNL A   1      36.446  22.584  25.149  1.00  0.00     0.188 C 
BRANCH  70  71
ATOM     71  O   UNL A   1      35.654  22.233  26.276  1.00  0.00    -0.376 OA
BRANCH  71  72
ATOM     72  C   UNL A   1      34.663  21.226  26.109  1.00  0.00     0.202 C 
BRANCH  72  73
ATOM     73  C   UNL A   1      34.046  20.929  24.733  1.00  0.00     0.261 C 
BRANCH  73  74
ATOM     74  O   UNL A   1      32.643  21.133  24.558  1.00  0.00    -0.459 OA
BRANCH  74  75
ATOM     75  C   UNL A   1      32.299  21.358  23.256  1.00  0.00     0.357 C 
ATOM     76  O   UNL A   1      32.211  20.534  22.388  1.00  0.00    -0.244 OA
BRANCH  75  77
ATOM     77  C   UNL A   1      32.170  22.828  23.055  1.00  0.00     0.150 A 
ATOM     78  C   UNL A   1      33.164  23.532  22.383  1.00  0.00     0.068 A 
ATOM     79  N   UNL A   1      31.026  23.376  23.555  1.00  0.00    -0.245 NA
ATOM     80  C   UNL A   1      32.948  24.908  22.293  1.00  0.00     0.113 A 
ATOM     81  C   UNL A   1      30.819  24.709  23.451  1.00  0.00     0.161 A 
ATOM     82  N   UNL A   1      33.718  25.907  21.743  1.00  0.00    -0.216 NA
ATOM     83  C   UNL A   1      31.793  25.458  22.828  1.00  0.00     0.172 A 
ATOM     84  C   UNL A   1      33.019  26.995  21.985  1.00  0.00     0.309 A 
ATOM     85  O   UNL A   1      31.832  26.806  22.628  1.00  0.00    -0.442 OA
ENDBRANCH  75  77
ENDBRANCH  74  75
ENDBRANCH  73  74
ENDBRANCH  72  73
ENDBRANCH  71  72
ENDBRANCH  70  71
ENDBRANCH  69  70
ENDBRANCH   1  69
TORSDOF 20
ENDMDL
MODEL 3
REMARK VINA RESULT:      -9.6      1.642      2.235
REMARK SMILES O=C(OCCOCCOCCOC(=O)c1cc2ncoc2cn1)c1ccc(-c2c3nc(c(-c4ccc(S(=O)(=O)[O-])cc4)c4ccc([nH]4)c(-c4ccc(S(=O)(=O)[O-])cc4)c4nc(c(-c5ccc(S(=O)(=O)[O-])cc5)c5ccc2[nH]5)C=C4)C=C3)cc1
REMARK SMILES IDX 6 1 5 2 4 3 3 4 2 5 1 6 24 7 25 8 83 9 26 10 82 11 27 12
REMARK SMILES IDX 28 13 29 14 76 15 30 16 81 17 75 18 77 19 31 20 80 21 74 22
REMARK SMILES IDX 73 23 32 25 62 26 43 27 61 28 44 29 47 30 60 31 78 32 45 33
REMARK SMILES IDX 46 34 59 36 79 37 48 38 33 39 34 40 42 41 35 42 41 43 36 44
REMARK SMILES IDX 37 45 38 46 39 47 40 48 63 49 64 50 72 51 65 52 71 53 66 54
REMARK SMILES IDX 67 55 68 56 69 57 70 58 49 59 50 60 58 61 51 62 57 63 52 64
REMARK SMILES IDX 53 65 54 66 55 67 56 68 7 69 8 70 9 71 10 72 11 73 12 74
REMARK SMILES IDX 13 75 14 76 15 77 16 78 23 79 17 80 22 81 18 82 21 83 19 84
REMARK SMILES IDX 20 85
REMARK H PARENT 77 24 47 35
REMARK Flexibility Score: inf
ROOT
ATOM      1  O   UNL A   1      38.749  21.752  25.371  1.00  0.00    -0.376 OA
ENDROOT
BRANCH   1   2
ATOM      2  C   UNL A   1      39.509  21.604  26.560  1.00  0.00     0.202 C 
BRANCH   2   3
ATOM      3  C   UNL A   1      40.671  20.602  26.489  1.00  0.00     0.261 C 
BRANCH   3   4
ATOM      4  O   UNL A   1      41.840  20.909  25.680  1.00  0.00    -0.460 OA
BRANCH   4   5
ATOM      5  C   UNL A   1      43.028  21.456  26.040  1.00  0.00     0.338 C 
ATOM      6  O   UNL A   1      44.052  20.787  26.094  1.00  0.00    -0.246 OA
BRANCH   5   7
ATOM      7  C   UNL A   1      43.026  22.855  26.489  1.00  0.00     0.060 A 
ATOM      8  C   UNL A   1      43.608  23.130  27.728  1.00  0.00     0.016 A 
ATOM      9  C   UNL A   1      42.324  23.835  25.784  1.00  0.00     0.016 A 
ATOM     10  C   UNL A   1      43.311  24.334  28.342  1.00  0.00     0.010 A 
ATOM     11  C   UNL A   1      41.976  25.014  26.431  1.00  0.00     0.010 A 
ATOM     12  C   UNL A   1      42.424  25.234  27.734  1.00  0.00    -0.014 A 
BRANCH  12  13
ATOM     13  C   UNL A   1      42.240  26.524  28.395  1.00  0.00     0.031 A 
ATOM     14  C   UNL A   1      43.377  27.428  28.118  1.00  0.00     0.074 A 
ATOM     15  C   UNL A   1      41.167  26.962  29.078  1.00  0.00     0.049 A 
ATOM     16  N   UNL A   1      44.332  27.801  28.903  1.00  0.00    -0.248 NA
ATOM     17  C   UNL A   1      43.558  27.792  26.703  1.00  0.00     0.031 C 
ATOM     18  C   UNL A   1      39.830  26.368  29.134  1.00  0.00     0.029 A 
ATOM     19  N   UNL A   1      41.038  28.098  29.830  1.00  0.00    -0.354 N 
ATOM     20  C   UNL A   1      45.137  28.605  28.109  1.00  0.00     0.074 A 
ATOM     21  C   UNL A   1      44.761  28.354  26.741  1.00  0.00     0.031 C 
ATOM     22  C   UNL A   1      38.991  27.218  29.765  1.00  0.00     0.029 A 
ATOM     23  C   UNL A   1      39.731  28.396  30.188  1.00  0.00     0.049 A 
ATOM     24  H   UNL A   1      41.806  28.655  30.094  1.00  0.00     0.167 HD
ATOM     25  C   UNL A   1      45.850  29.650  28.603  1.00  0.00     0.031 A 
ATOM     26  C   UNL A   1      39.263  29.575  30.675  1.00  0.00     0.031 A 
ATOM     27  C   UNL A   1      46.023  29.591  30.024  1.00  0.00     0.049 A 
ATOM     28  C   UNL A   1      40.418  30.335  31.212  1.00  0.00     0.074 A 
ATOM     29  C   UNL A   1      46.647  28.720  30.891  1.00  0.00     0.029 A 
ATOM     30  N   UNL A   1      45.179  30.361  30.786  1.00  0.00    -0.354 N 
ATOM     31  N   UNL A   1      41.112  29.975  32.256  1.00  0.00    -0.248 NA
ATOM     32  C   UNL A   1      41.060  31.316  30.351  1.00  0.00     0.031 C 
ATOM     33  C   UNL A   1      45.843  28.722  32.066  1.00  0.00     0.029 A 
ATOM     34  C   UNL A   1      44.794  29.627  31.880  1.00  0.00     0.049 A 
ATOM     35  H   UNL A   1      44.897  31.281  30.581  1.00  0.00     0.167 HD
ATOM     36  C   UNL A   1      42.415  30.366  31.979  1.00  0.00     0.074 A 
ATOM     37  C   UNL A   1      42.299  31.281  30.849  1.00  0.00     0.031 C 
ATOM     38  C   UNL A   1      43.488  29.714  32.516  1.00  0.00     0.031 A 
BRANCH  25  39
ATOM     39  C   UNL A   1      46.043  30.900  27.790  1.00  0.00    -0.014 A 
ATOM     40  C   UNL A   1      45.003  31.842  27.611  1.00  0.00     0.010 A 
ATOM     41  C   UNL A   1      47.322  31.267  27.344  1.00  0.00     0.010 A 
ATOM     42  C   UNL A   1      45.185  33.034  26.923  1.00  0.00     0.020 A 
ATOM     43  C   UNL A   1      47.533  32.499  26.705  1.00  0.00     0.020 A 
ATOM     44  C   UNL A   1      46.457  33.359  26.476  1.00  0.00     0.054 A 
BRANCH  44  45
ATOM     45  S   UNL A   1      46.670  34.959  25.664  1.00  0.00     0.124 S 
ATOM     46  O   UNL A   1      46.233  35.883  26.708  1.00  0.00    -0.237 OA
ATOM     47  O   UNL A   1      48.100  34.972  25.369  1.00  0.00    -0.237 OA
ATOM     48  O   UNL A   1      45.794  34.868  24.500  1.00  0.00    -0.744 OA
ENDBRANCH  44  45
ENDBRANCH  25  39
BRANCH  26  49
ATOM     49  C   UNL A   1      37.977  30.218  30.277  1.00  0.00    -0.014 A 
ATOM     50  C   UNL A   1      37.828  30.728  28.968  1.00  0.00     0.010 A 
ATOM     51  C   UNL A   1      36.997  30.576  31.223  1.00  0.00     0.010 A 
ATOM     52  C   UNL A   1      36.796  31.599  28.625  1.00  0.00     0.020 A 
ATOM     53  C   UNL A   1      35.958  31.469  30.889  1.00  0.00     0.020 A 
ATOM     54  C   UNL A   1      35.891  32.001  29.599  1.00  0.00     0.054 A 
BRANCH  54  55
ATOM     55  S   UNL A   1      34.715  33.307  29.153  1.00  0.00     0.124 S 
ATOM     56  O   UNL A   1      34.015  33.526  30.416  1.00  0.00    -0.237 OA
ATOM     57  O   UNL A   1      35.596  34.394  28.732  1.00  0.00    -0.237 OA
ATOM     58  O   UNL A   1      33.915  32.708  28.088  1.00  0.00    -0.744 OA
ENDBRANCH  54  55
ENDBRANCH  26  49
BRANCH  38  59
ATOM     59  C   UNL A   1      43.274  28.808  33.714  1.00  0.00    -0.014 A 
ATOM     60  C   UNL A   1      42.826  27.498  33.458  1.00  0.00     0.010 A 
ATOM     61  C   UNL A   1      43.315  29.247  35.052  1.00  0.00     0.010 A 
ATOM     62  C   UNL A   1      42.386  26.667  34.493  1.00  0.00     0.020 A 
ATOM     63  C   UNL A   1      42.901  28.404  36.100  1.00  0.00     0.020 A 
ATOM     64  C   UNL A   1      42.410  27.130  35.809  1.00  0.00     0.054 A 
BRANCH  64  65
ATOM     65  S   UNL A   1      41.775  26.032  37.109  1.00  0.00     0.124 S 
ATOM     66  O   UNL A   1      42.858  26.043  38.092  1.00  0.00    -0.237 OA
ATOM     67  O   UNL A   1      40.554  26.714  37.537  1.00  0.00    -0.237 OA
ATOM     68  O   UNL A   1      41.550  24.756  36.436  1.00  0.00    -0.744 OA
ENDBRANCH  64  65
ENDBRANCH  38  59
ENDBRANCH  12  13
ENDBRANCH   5   7
ENDBRANCH   4   5
ENDBRANCH   3   4
ENDBRANCH   2   3
ENDBRANCH   1   2
BRANCH   1  69
ATOM     69  C   UNL A   1      37.795  20.726  25.158  1.00  0.00     0.188 C 
BRANCH  69  70
ATOM     70  C   UNL A   1      36.359  21.253  25.078  1.00  0.00     0.188 C 
BRANCH  70  71
ATOM     71  O   UNL A   1      35.304  20.319  25.265  1.00  0.00    -0.376 OA
BRANCH  71  72
ATOM     72  C   UNL A   1      33.966  20.790  25.152  1.00  0.00     0.202 C 
BRANCH  72  73
ATOM     73  C   UNL A   1      33.503  21.603  23.933  1.00  0.00     0.261 C 
BRANCH  73  74
ATOM     74  O   UNL A   1      33.430  23.023  24.051  1.00  0.00    -0.459 OA
BRANCH  74  75
ATOM     75  C   UNL A   1      34.276  23.671  23.196  1.00  0.00     0.357 C 
ATOM     76  O   UNL A   1      35.176  23.179  22.574  1.00  0.00    -0.244 OA
BRANCH  75  77
ATOM     77  C   UNL A   1      33.974  25.128  23.255  1.00  0.00     0.150 A 
ATOM     78  C   UNL A   1      33.963  25.790  24.478  1.00  0.00     0.068 A 
ATOM     79  N   UNL A   1      33.742  25.715  22.047  1.00  0.00    -0.245 NA
ATOM     80  C   UNL A   1      33.629  27.143  24.409  1.00  0.00     0.113 A 
ATOM     81  C   UNL A   1      33.432  27.031  21.988  1.00  0.00     0.161 A 
ATOM     82  N   UNL A   1      33.485  28.088  25.399  1.00  0.00    -0.216 NA
ATOM     83  C   UNL A   1      33.370  27.724  23.176  1.00  0.00     0.172 A 
ATOM     84  C   UNL A   1      33.132  29.169  24.736  1.00  0.00     0.309 A 
ATOM     85  O   UNL A   1      33.053  29.034  23.382  1.00  0.00    -0.442 OA
ENDBRANCH  75  77
ENDBRANCH  74  75
ENDBRANCH  73  74
ENDBRANCH  72  73
ENDBRANCH  71  72
ENDBRANCH  70  71
ENDBRANCH  69  70
ENDBRANCH   1  69
TORSDOF 20
ENDMDL
