MODEL 1
REMARK VINA RESULT:     -10.0      0.000      0.000
REMARK SMILES Cc1cc(C(=O)OCCOCCOCCOC(=O)c2ccc(-c3c4nc(c(-c5ccc(S(=O)(=O)[O-])cc5)c5ccc([nH]5)c(-c5ccc(S(=O)(=O)[O-])cc5)c5nc(c(-c6ccc(S(=O)(=O)[O-])cc6)c6ccc3[nH]6)C=C5)C=C4)cc2)ccc1NC(=O)c1ccc(=O)n(CCOc2ccccc2)n1
REMARK SMILES IDX 10 1 9 2 8 3 7 4 5 5 6 6 4 7 1 8 2 9 3 10 81 11 80 12 79 13
REMARK SMILES IDX 82 14 83 15 84 17 85 18 86 19 100 20 87 21 90 22 88 23 89 24
REMARK SMILES IDX 91 25 92 26 93 27 94 28 95 29 99 30 96 31 98 32 97 33 11 34
REMARK SMILES IDX 12 35 13 36 14 37 15 38 16 39 17 40 18 41 19 42 20 43 78 44
REMARK SMILES IDX 21 45 77 46 22 47 23 48 24 49 71 50 25 51 76 52 70 53 72 54
REMARK SMILES IDX 26 55 75 56 69 57 68 58 27 60 57 61 38 62 56 63 39 64 42 65
REMARK SMILES IDX 55 66 73 67 40 68 41 69 54 71 74 72 43 73 28 74 29 75 37 76
REMARK SMILES IDX 30 77 36 78 31 79 32 80 33 81 34 82 35 83 58 84 59 85 67 86
REMARK SMILES IDX 60 87 66 88 61 89 62 90 63 91 64 92 65 93 44 94 45 95 53 96
REMARK SMILES IDX 46 97 52 98 47 99 48 100 49 101 50 102 51 103
REMARK H PARENT 82 16 72 59 42 70
REMARK Flexibility Score: inf
ROOT
ATOM      1  O   UNL A   1      39.015  22.301  25.642  1.00  0.00    -0.376 OA
ENDROOT
BRANCH   1   2
ATOM      2  C   UNL A   1      38.301  21.086  25.497  1.00  0.00     0.202 C 
BRANCH   2   3
ATOM      3  C   UNL A   1      36.729  21.126  25.019  1.00  0.00     0.261 C 
BRANCH   3   4
ATOM      4  O   UNL A   1      35.615  22.230  25.339  1.00  0.00    -0.460 OA
BRANCH   4   5
ATOM      5  C   UNL A   1      35.141  23.545  25.445  1.00  0.00     0.338 C 
ATOM      6  O   UNL A   1      35.898  24.445  25.073  1.00  0.00    -0.246 OA
BRANCH   5   7
ATOM      7  C   UNL A   1      33.828  24.142  25.992  1.00  0.00     0.060 A 
ATOM      8  C   UNL A   1      30.148  23.297  27.009  1.00  0.00     0.046 C 
ATOM      9  C   UNL A   1      31.365  24.009  26.465  1.00  0.00    -0.027 A 
ATOM     10  C   UNL A   1      32.643  23.390  26.307  1.00  0.00     0.021 A 
ATOM     11  C   UNL A   1      31.287  25.359  26.133  1.00  0.00     0.044 A 
ATOM     12  C   UNL A   1      32.452  26.127  26.149  1.00  0.00     0.027 A 
ATOM     13  C   UNL A   1      33.711  25.527  26.037  1.00  0.00     0.018 A 
BRANCH  11  14
ATOM     14  N   UNL A   1      30.131  25.865  25.482  1.00  0.00    -0.320 N 
ATOM     15  C   UNL A   1      29.899  25.697  24.111  1.00  0.00     0.276 C 
ATOM     16  H   UNL A   1      29.465  26.353  26.018  1.00  0.00     0.170 HD
ATOM     17  O   UNL A   1      28.894  26.102  23.539  1.00  0.00    -0.267 OA
BRANCH  15  18
ATOM     18  C   UNL A   1      30.960  24.945  23.307  1.00  0.00     0.149 A 
ATOM     19  C   UNL A   1      32.002  25.791  22.695  1.00  0.00     0.042 A 
ATOM     20  N   UNL A   1      30.944  23.646  23.284  1.00  0.00    -0.164 NA
ATOM     21  C   UNL A   1      33.155  25.177  22.430  1.00  0.00     0.076 A 
ATOM     22  N   UNL A   1      32.111  23.024  22.837  1.00  0.00    -0.226 N 
ATOM     23  C   UNL A   1      33.302  23.713  22.617  1.00  0.00     0.266 A 
ATOM     24  O   UNL A   1      34.429  23.234  22.525  1.00  0.00    -0.268 OA
BRANCH  22  25
ATOM     25  C   UNL A   1      32.087  21.562  22.736  1.00  0.00     0.190 C 
BRANCH  25  26
ATOM     26  C   UNL A   1      32.829  20.882  23.890  1.00  0.00     0.253 C 
BRANCH  26  27
ATOM     27  O   UNL A   1      32.064  19.847  24.521  1.00  0.00    -0.492 OA
BRANCH  27  28
ATOM     28  C   UNL A   1      32.573  18.586  24.629  1.00  0.00     0.119 A 
ATOM     29  C   UNL A   1      33.184  18.103  23.470  1.00  0.00     0.046 A 
ATOM     30  C   UNL A   1      32.513  17.761  25.751  1.00  0.00     0.046 A 
ATOM     31  C   UNL A   1      33.689  16.801  23.416  1.00  0.00     0.004 A 
ATOM     32  C   UNL A   1      32.982  16.445  25.690  1.00  0.00     0.004 A 
ATOM     33  C   UNL A   1      33.570  15.965  24.522  1.00  0.00     0.000 A 
ENDBRANCH  27  28
ENDBRANCH  26  27
ENDBRANCH  25  26
ENDBRANCH  22  25
ENDBRANCH  15  18
ENDBRANCH  11  14
ENDBRANCH   5   7
ENDBRANCH   4   5
ENDBRANCH   3   4
ENDBRANCH   2   3
ENDBRANCH   1   2
BRANCH   1  34
ATOM     34  C   UNL A   1      39.692  22.715  26.835  1.00  0.00     0.188 C 
BRANCH  34  35
ATOM     35  C   UNL A   1      39.467  24.132  27.357  1.00  0.00     0.188 C 
BRANCH  35  36
ATOM     36  O   UNL A   1      40.697  24.834  27.392  1.00  0.00    -0.376 OA
BRANCH  36  37
ATOM     37  C   UNL A   1      41.684  24.360  26.498  1.00  0.00     0.202 C 
BRANCH  37  38
ATOM     38  C   UNL A   1      42.039  25.397  25.429  1.00  0.00     0.261 C 
BRANCH  38  39
ATOM     39  O   UNL A   1      41.394  26.654  25.718  1.00  0.00    -0.460 OA
BRANCH  39  40
ATOM     40  C   UNL A   1      42.182  27.780  25.562  1.00  0.00     0.338 C 
ATOM     41  O   UNL A   1      42.368  28.300  24.507  1.00  0.00    -0.246 OA
BRANCH  40  42
ATOM     42  C   UNL A   1      42.625  28.274  26.913  1.00  0.00     0.060 A 
ATOM     43  C   UNL A   1      43.469  29.346  27.174  1.00  0.00     0.016 A 
ATOM     44  C   UNL A   1      42.229  27.585  28.009  1.00  0.00     0.016 A 
ATOM     45  C   UNL A   1      44.054  29.575  28.486  1.00  0.00     0.010 A 
ATOM     46  C   UNL A   1      42.868  27.834  29.236  1.00  0.00     0.010 A 
ATOM     47  C   UNL A   1      43.854  28.748  29.595  1.00  0.00    -0.014 A 
BRANCH  47  48
ATOM     48  C   UNL A   1      44.752  28.677  30.924  1.00  0.00     0.031 A 
ATOM     49  C   UNL A   1      46.206  28.186  31.215  1.00  0.00     0.074 A 
ATOM     50  C   UNL A   1      44.262  29.186  32.077  1.00  0.00     0.049 A 
ATOM     51  N   UNL A   1      46.580  27.010  31.670  1.00  0.00    -0.248 NA
ATOM     52  C   UNL A   1      47.364  29.112  31.212  1.00  0.00     0.031 C 
ATOM     53  C   UNL A   1      44.929  29.293  33.379  1.00  0.00     0.029 A 
ATOM     54  N   UNL A   1      42.955  29.544  32.345  1.00  0.00    -0.354 N 
ATOM     55  C   UNL A   1      47.987  27.039  31.826  1.00  0.00     0.074 A 
ATOM     56  C   UNL A   1      48.432  28.332  31.368  1.00  0.00     0.031 C 
ATOM     57  C   UNL A   1      43.983  29.397  34.328  1.00  0.00     0.029 A 
ATOM     58  C   UNL A   1      42.691  29.253  33.678  1.00  0.00     0.049 A 
ATOM     59  H   UNL A   1      42.321  29.938  31.703  1.00  0.00     0.167 HD
ATOM     60  C   UNL A   1      48.756  26.392  32.758  1.00  0.00     0.031 A 
ATOM     61  C   UNL A   1      41.755  28.303  33.958  1.00  0.00     0.031 A 
ATOM     62  C   UNL A   1      48.036  26.300  34.000  1.00  0.00     0.049 A 
ATOM     63  C   UNL A   1      42.345  27.081  34.621  1.00  0.00     0.074 A 
ATOM     64  C   UNL A   1      48.004  27.149  35.093  1.00  0.00     0.029 A 
ATOM     65  N   UNL A   1      46.960  25.448  34.104  1.00  0.00    -0.354 N 
ATOM     66  N   UNL A   1      43.617  26.780  34.635  1.00  0.00    -0.248 NA
ATOM     67  C   UNL A   1      41.532  26.103  35.337  1.00  0.00     0.031 C 
ATOM     68  C   UNL A   1      46.806  26.886  35.797  1.00  0.00     0.029 A 
ATOM     69  C   UNL A   1      46.176  25.823  35.175  1.00  0.00     0.049 A 
ATOM     70  H   UNL A   1      46.778  24.688  33.506  1.00  0.00     0.167 HD
ATOM     71  C   UNL A   1      43.798  25.613  35.331  1.00  0.00     0.074 A 
ATOM     72  C   UNL A   1      42.466  25.238  35.765  1.00  0.00     0.031 C 
ATOM     73  C   UNL A   1      45.017  25.033  35.516  1.00  0.00     0.031 A 
BRANCH  60  74
ATOM     74  C   UNL A   1      50.283  26.389  32.635  1.00  0.00    -0.014 A 
ATOM     75  C   UNL A   1      51.129  27.278  33.330  1.00  0.00     0.010 A 
ATOM     76  C   UNL A   1      50.922  25.439  31.800  1.00  0.00     0.010 A 
ATOM     77  C   UNL A   1      52.528  27.281  33.132  1.00  0.00     0.020 A 
ATOM     78  C   UNL A   1      52.317  25.431  31.597  1.00  0.00     0.020 A 
ATOM     79  C   UNL A   1      53.114  26.369  32.252  1.00  0.00     0.054 A 
BRANCH  79  80
ATOM     80  S   UNL A   1      54.904  26.472  31.921  1.00  0.00     0.124 S 
ATOM     81  O   UNL A   1      55.455  25.467  32.827  1.00  0.00    -0.237 OA
ATOM     82  O   UNL A   1      54.989  26.145  30.500  1.00  0.00    -0.237 OA
ATOM     83  O   UNL A   1      55.248  27.851  32.261  1.00  0.00    -0.744 OA
ENDBRANCH  79  80
ENDBRANCH  60  74
BRANCH  61  84
ATOM     84  C   UNL A   1      40.553  28.353  33.058  1.00  0.00    -0.014 A 
ATOM     85  C   UNL A   1      39.582  29.338  33.365  1.00  0.00     0.010 A 
ATOM     86  C   UNL A   1      40.503  27.751  31.787  1.00  0.00     0.010 A 
ATOM     87  C   UNL A   1      38.691  29.812  32.399  1.00  0.00     0.020 A 
ATOM     88  C   UNL A   1      39.583  28.211  30.815  1.00  0.00     0.020 A 
ATOM     89  C   UNL A   1      38.717  29.270  31.118  1.00  0.00     0.054 A 
BRANCH  89  90
ATOM     90  S   UNL A   1      37.745  30.130  29.836  1.00  0.00     0.124 S 
ATOM     91  O   UNL A   1      37.867  31.528  30.233  1.00  0.00    -0.237 OA
ATOM     92  O   UNL A   1      38.468  29.763  28.618  1.00  0.00    -0.237 OA
ATOM     93  O   UNL A   1      36.415  29.546  29.975  1.00  0.00    -0.744 OA
ENDBRANCH  89  90
ENDBRANCH  61  84
BRANCH  73  94
ATOM     94  C   UNL A   1      45.264  23.673  36.109  1.00  0.00    -0.014 A 
ATOM     95  C   UNL A   1      45.354  22.506  35.340  1.00  0.00     0.010 A 
ATOM     96  C   UNL A   1      45.574  23.572  37.488  1.00  0.00     0.010 A 
ATOM     97  C   UNL A   1      45.662  21.276  35.933  1.00  0.00     0.020 A 
ATOM     98  C   UNL A   1      45.927  22.359  38.080  1.00  0.00     0.020 A 
ATOM     99  C   UNL A   1      45.937  21.209  37.301  1.00  0.00     0.054 A 
BRANCH  99 100
ATOM    100  S   UNL A   1      46.372  19.627  38.061  1.00  0.00     0.124 S 
ATOM    101  O   UNL A   1      45.465  18.708  37.376  1.00  0.00    -0.237 OA
ATOM    102  O   UNL A   1      47.786  19.471  37.727  1.00  0.00    -0.237 OA
ATOM    103  O   UNL A   1      46.093  19.846  39.478  1.00  0.00    -0.744 OA
ENDBRANCH  99 100
ENDBRANCH  73  94
ENDBRANCH  47  48
ENDBRANCH  40  42
ENDBRANCH  39  40
ENDBRANCH  38  39
ENDBRANCH  37  38
ENDBRANCH  36  37
ENDBRANCH  35  36
ENDBRANCH  34  35
ENDBRANCH   1  34
TORSDOF 26
ENDMDL
MODEL 2
REMARK VINA RESULT:     -10.0      7.826     12.142
REMARK SMILES Cc1cc(C(=O)OCCOCCOCCOC(=O)c2ccc(-c3c4nc(c(-c5ccc(S(=O)(=O)[O-])cc5)c5ccc([nH]5)c(-c5ccc(S(=O)(=O)[O-])cc5)c5nc(c(-c6ccc(S(=O)(=O)[O-])cc6)c6ccc3[nH]6)C=C5)C=C4)cc2)ccc1NC(=O)c1ccc(=O)n(CCOc2ccccc2)n1
REMARK SMILES IDX 10 1 9 2 8 3 7 4 5 5 6 6 4 7 1 8 2 9 3 10 81 11 80 12 79 13
REMARK SMILES IDX 82 14 83 15 84 17 85 18 86 19 100 20 87 21 90 22 88 23 89 24
REMARK SMILES IDX 91 25 92 26 93 27 94 28 95 29 99 30 96 31 98 32 97 33 11 34
REMARK SMILES IDX 12 35 13 36 14 37 15 38 16 39 17 40 18 41 19 42 20 43 78 44
REMARK SMILES IDX 21 45 77 46 22 47 23 48 24 49 71 50 25 51 76 52 70 53 72 54
REMARK SMILES IDX 26 55 75 56 69 57 68 58 27 60 57 61 38 62 56 63 39 64 42 65
REMARK SMILES IDX 55 66 73 67 40 68 41 69 54 71 74 72 43 73 28 74 29 75 37 76
REMARK SMILES IDX 30 77 36 78 31 79 32 80 33 81 34 82 35 83 58 84 59 85 67 86
REMARK SMILES IDX 60 87 66 88 61 89 62 90 63 91 64 92 65 93 44 94 45 95 53 96
REMARK SMILES IDX 46 97 52 98 47 99 48 100 49 101 50 102 51 103
REMARK H PARENT 82 16 72 59 42 70
REMARK Flexibility Score: inf
ROOT
ATOM      1  O   UNL A   1      36.263  32.003  29.720  1.00  0.00    -0.376 OA
ENDROOT
BRANCH   1   2
ATOM      2  C   UNL A   1      35.523  30.994  29.057  1.00  0.00     0.202 C 
BRANCH   2   3
ATOM      3  C   UNL A   1      34.811  31.333  27.614  1.00  0.00     0.261 C 
BRANCH   3   4
ATOM      4  O   UNL A   1      33.935  30.371  26.681  1.00  0.00    -0.460 OA
BRANCH   4   5
ATOM      5  C   UNL A   1      32.730  29.830  26.212  1.00  0.00     0.338 C 
ATOM      6  O   UNL A   1      31.771  30.600  26.114  1.00  0.00    -0.246 OA
BRANCH   5   7
ATOM      7  C   UNL A   1      32.314  28.400  25.808  1.00  0.00     0.060 A 
ATOM      8  C   UNL A   1      29.539  26.291  24.035  1.00  0.00     0.046 C 
ATOM      9  C   UNL A   1      30.618  26.735  24.996  1.00  0.00    -0.027 A 
ATOM     10  C   UNL A   1      31.147  28.062  25.038  1.00  0.00     0.021 A 
ATOM     11  C   UNL A   1      31.189  25.815  25.871  1.00  0.00     0.044 A 
ATOM     12  C   UNL A   1      32.477  26.048  26.351  1.00  0.00     0.027 A 
ATOM     13  C   UNL A   1      33.021  27.337  26.359  1.00  0.00     0.018 A 
BRANCH  11  14
ATOM     14  N   UNL A   1      30.373  24.847  26.514  1.00  0.00    -0.320 N 
ATOM     15  C   UNL A   1      30.491  23.473  26.270  1.00  0.00     0.276 C 
ATOM     16  H   UNL A   1      29.696  25.155  27.159  1.00  0.00     0.170 HD
ATOM     17  O   UNL A   1      29.815  22.623  26.835  1.00  0.00    -0.267 OA
BRANCH  15  18
ATOM     18  C   UNL A   1      31.545  23.030  25.253  1.00  0.00     0.149 A 
ATOM     19  C   UNL A   1      31.178  23.234  23.839  1.00  0.00     0.042 A 
ATOM     20  N   UNL A   1      32.699  22.604  25.671  1.00  0.00    -0.164 NA
ATOM     21  C   UNL A   1      32.202  23.329  22.990  1.00  0.00     0.076 A 
ATOM     22  N   UNL A   1      33.717  22.549  24.718  1.00  0.00    -0.226 N 
ATOM     23  C   UNL A   1      33.595  23.100  23.444  1.00  0.00     0.266 A 
ATOM     24  O   UNL A   1      34.504  23.371  22.665  1.00  0.00    -0.268 OA
BRANCH  22  25
ATOM     25  C   UNL A   1      35.005  22.003  25.154  1.00  0.00     0.190 C 
BRANCH  25  26
ATOM     26  C   UNL A   1      35.060  20.476  25.055  1.00  0.00     0.253 C 
BRANCH  26  27
ATOM     27  O   UNL A   1      33.992  19.923  24.275  1.00  0.00    -0.492 OA
BRANCH  27  28
ATOM     28  C   UNL A   1      33.677  18.600  24.382  1.00  0.00     0.119 A 
ATOM     29  C   UNL A   1      32.882  18.278  25.485  1.00  0.00     0.046 A 
ATOM     30  C   UNL A   1      34.087  17.579  23.528  1.00  0.00     0.046 A 
ATOM     31  C   UNL A   1      32.539  16.951  25.756  1.00  0.00     0.004 A 
ATOM     32  C   UNL A   1      33.778  16.245  23.817  1.00  0.00     0.004 A 
ATOM     33  C   UNL A   1      33.005  15.931  24.932  1.00  0.00     0.000 A 
ENDBRANCH  27  28
ENDBRANCH  26  27
ENDBRANCH  25  26
ENDBRANCH  22  25
ENDBRANCH  15  18
ENDBRANCH  11  14
ENDBRANCH   5   7
ENDBRANCH   4   5
ENDBRANCH   3   4
ENDBRANCH   2   3
ENDBRANCH   1   2
BRANCH   1  34
ATOM     34  C   UNL A   1      35.914  32.575  30.986  1.00  0.00     0.188 C 
BRANCH  34  35
ATOM     35  C   UNL A   1      36.187  34.058  31.227  1.00  0.00     0.188 C 
BRANCH  35  36
ATOM     36  O   UNL A   1      36.078  34.351  32.609  1.00  0.00    -0.376 OA
BRANCH  36  37
ATOM     37  C   UNL A   1      35.291  33.444  33.354  1.00  0.00     0.202 C 
BRANCH  37  38
ATOM     38  C   UNL A   1      35.775  33.313  34.800  1.00  0.00     0.261 C 
BRANCH  38  39
ATOM     39  O   UNL A   1      36.894  32.405  34.872  1.00  0.00    -0.460 OA
BRANCH  39  40
ATOM     40  C   UNL A   1      37.701  32.539  35.987  1.00  0.00     0.338 C 
ATOM     41  O   UNL A   1      37.654  31.794  36.915  1.00  0.00    -0.246 OA
BRANCH  40  42
ATOM     42  C   UNL A   1      38.683  33.659  35.766  1.00  0.00     0.060 A 
ATOM     43  C   UNL A   1      38.555  34.719  34.878  1.00  0.00     0.016 A 
ATOM     44  C   UNL A   1      39.855  33.625  36.443  1.00  0.00     0.016 A 
ATOM     45  C   UNL A   1      39.669  35.591  34.541  1.00  0.00     0.010 A 
ATOM     46  C   UNL A   1      40.901  34.471  36.034  1.00  0.00     0.010 A 
ATOM     47  C   UNL A   1      40.965  35.447  35.043  1.00  0.00    -0.014 A 
BRANCH  47  48
ATOM     48  C   UNL A   1      42.314  36.072  34.437  1.00  0.00     0.031 A 
ATOM     49  C   UNL A   1      42.973  37.486  34.515  1.00  0.00     0.074 A 
ATOM     50  C   UNL A   1      43.161  35.272  33.752  1.00  0.00     0.049 A 
ATOM     51  N   UNL A   1      42.886  38.463  33.639  1.00  0.00    -0.248 NA
ATOM     52  C   UNL A   1      43.996  37.820  35.536  1.00  0.00     0.031 C 
ATOM     53  C   UNL A   1      44.469  35.609  33.181  1.00  0.00     0.029 A 
ATOM     54  N   UNL A   1      42.905  34.004  33.266  1.00  0.00    -0.354 N 
ATOM     55  C   UNL A   1      43.689  39.531  34.106  1.00  0.00     0.074 A 
ATOM     56  C   UNL A   1      44.228  39.123  35.380  1.00  0.00     0.031 C 
ATOM     57  C   UNL A   1      44.747  34.720  32.213  1.00  0.00     0.029 A 
ATOM     58  C   UNL A   1      43.586  33.857  32.064  1.00  0.00     0.049 A 
ATOM     59  H   UNL A   1      42.339  33.324  33.697  1.00  0.00     0.167 HD
ATOM     60  C   UNL A   1      44.400  40.447  33.375  1.00  0.00     0.031 A 
ATOM     61  C   UNL A   1      42.858  33.685  30.926  1.00  0.00     0.031 A 
ATOM     62  C   UNL A   1      44.898  39.829  32.176  1.00  0.00     0.049 A 
ATOM     63  C   UNL A   1      43.000  34.840  29.963  1.00  0.00     0.074 A 
ATOM     64  C   UNL A   1      46.094  39.181  31.920  1.00  0.00     0.029 A 
ATOM     65  N   UNL A   1      44.024  39.503  31.163  1.00  0.00    -0.354 N 
ATOM     66  N   UNL A   1      43.470  36.019  30.275  1.00  0.00    -0.248 NA
ATOM     67  C   UNL A   1      42.628  34.742  28.555  1.00  0.00     0.031 C 
ATOM     68  C   UNL A   1      45.890  38.343  30.800  1.00  0.00     0.029 A 
ATOM     69  C   UNL A   1      44.604  38.562  30.338  1.00  0.00     0.049 A 
ATOM     70  H   UNL A   1      43.125  39.883  31.045  1.00  0.00     0.167 HD
ATOM     71  C   UNL A   1      43.466  36.817  29.161  1.00  0.00     0.074 A 
ATOM     72  C   UNL A   1      42.948  35.968  28.106  1.00  0.00     0.031 C 
ATOM     73  C   UNL A   1      43.892  38.111  29.166  1.00  0.00     0.031 A 
BRANCH  60  74
ATOM     74  C   UNL A   1      45.045  41.655  34.064  1.00  0.00    -0.014 A 
ATOM     75  C   UNL A   1      45.675  42.709  33.371  1.00  0.00     0.010 A 
ATOM     76  C   UNL A   1      45.007  41.766  35.475  1.00  0.00     0.010 A 
ATOM     77  C   UNL A   1      46.315  43.769  34.052  1.00  0.00     0.020 A 
ATOM     78  C   UNL A   1      45.640  42.819  36.165  1.00  0.00     0.020 A 
ATOM     79  C   UNL A   1      46.310  43.809  35.448  1.00  0.00     0.054 A 
BRANCH  79  80
ATOM     80  S   UNL A   1      47.246  45.118  36.306  1.00  0.00     0.124 S 
ATOM     81  O   UNL A   1      48.483  45.187  35.530  1.00  0.00    -0.237 OA
ATOM     82  O   UNL A   1      46.367  46.277  36.182  1.00  0.00    -0.237 OA
ATOM     83  O   UNL A   1      47.408  44.605  37.665  1.00  0.00    -0.744 OA
ENDBRANCH  79  80
ENDBRANCH  60  74
BRANCH  61  84
ATOM     84  C   UNL A   1      41.660  32.796  31.101  1.00  0.00    -0.014 A 
ATOM     85  C   UNL A   1      41.796  31.464  30.638  1.00  0.00     0.010 A 
ATOM     86  C   UNL A   1      40.593  33.086  31.972  1.00  0.00     0.010 A 
ATOM     87  C   UNL A   1      40.995  30.432  31.133  1.00  0.00     0.020 A 
ATOM     88  C   UNL A   1      39.764  32.045  32.456  1.00  0.00     0.020 A 
ATOM     89  C   UNL A   1      40.004  30.721  32.066  1.00  0.00     0.054 A 
BRANCH  89  90
ATOM     90  S   UNL A   1      39.203  29.303  32.888  1.00  0.00     0.124 S 
ATOM     91  O   UNL A   1      39.962  29.189  34.129  1.00  0.00    -0.237 OA
ATOM     92  O   UNL A   1      37.830  29.784  33.040  1.00  0.00    -0.237 OA
ATOM     93  O   UNL A   1      39.384  28.215  31.933  1.00  0.00    -0.744 OA
ENDBRANCH  89  90
ENDBRANCH  61  84
BRANCH  73  94
ATOM     94  C   UNL A   1      43.750  39.090  28.032  1.00  0.00    -0.014 A 
ATOM     95  C   UNL A   1      42.662  39.963  27.905  1.00  0.00     0.010 A 
ATOM     96  C   UNL A   1      44.829  39.254  27.128  1.00  0.00     0.010 A 
ATOM     97  C   UNL A   1      42.615  40.908  26.873  1.00  0.00     0.020 A 
ATOM     98  C   UNL A   1      44.811  40.224  26.125  1.00  0.00     0.020 A 
ATOM     99  C   UNL A   1      43.686  41.025  25.984  1.00  0.00     0.054 A 
BRANCH  99 100
ATOM    100  S   UNL A   1      43.642  42.270  24.674  1.00  0.00     0.124 S 
ATOM    101  O   UNL A   1      43.942  43.494  25.414  1.00  0.00    -0.237 OA
ATOM    102  O   UNL A   1      44.686  41.826  23.753  1.00  0.00    -0.237 OA
ATOM    103  O   UNL A   1      42.279  42.167  24.157  1.00  0.00    -0.744 OA
ENDBRANCH  99 100
ENDBRANCH  73  94
ENDBRANCH  47  48
ENDBRANCH  40  42
ENDBRANCH  39  40
ENDBRANCH  38  39
ENDBRANCH  37  38
ENDBRANCH  36  37
ENDBRANCH  35  36
ENDBRANCH  34  35
ENDBRANCH   1  34
TORSDOF 26
ENDMDL
MODEL 3
REMARK VINA RESULT:      -9.3      7.751     12.239
REMARK SMILES Cc1cc(C(=O)OCCOCCOCCOC(=O)c2ccc(-c3c4nc(c(-c5ccc(S(=O)(=O)[O-])cc5)c5ccc([nH]5)c(-c5ccc(S(=O)(=O)[O-])cc5)c5nc(c(-c6ccc(S(=O)(=O)[O-])cc6)c6ccc3[nH]6)C=C5)C=C4)cc2)ccc1NC(=O)c1ccc(=O)n(CCOc2ccccc2)n1
REMARK SMILES IDX 10 1 9 2 8 3 7 4 5 5 6 6 4 7 1 8 2 9 3 10 81 11 80 12 79 13
REMARK SMILES IDX 82 14 83 15 84 17 85 18 86 19 100 20 87 21 90 22 88 23 89 24
REMARK SMILES IDX 91 25 92 26 93 27 94 28 95 29 99 30 96 31 98 32 97 33 11 34
REMARK SMILES IDX 12 35 13 36 14 37 15 38 16 39 17 40 18 41 19 42 20 43 78 44
REMARK SMILES IDX 21 45 77 46 22 47 23 48 24 49 71 50 25 51 76 52 70 53 72 54
REMARK SMILES IDX 26 55 75 56 69 57 68 58 27 60 57 61 38 62 56 63 39 64 42 65
REMARK SMILES IDX 55 66 73 67 40 68 41 69 54 71 74 72 43 73 28 74 29 75 37 76
REMARK SMILES IDX 30 77 36 78 31 79 32 80 33 81 34 82 35 83 58 84 59 85 67 86
REMARK SMILES IDX 60 87 66 88 61 89 62 90 63 91 64 92 65 93 44 94 45 95 53 96
REMARK SMILES IDX 46 97 52 98 47 99 48 100 49 101 50 102 51 103
REMARK H PARENT 82 16 72 59 42 70
REMARK Flexibility Score: inf
ROOT
ATOM      1  O   UNL A   1      35.610  32.988  29.923  1.00  0.00    -0.376 OA
ENDROOT
BRANCH   1   2
ATOM      2  C   UNL A   1      34.481  32.335  29.372  1.00  0.00     0.202 C 
BRANCH   2   3
ATOM      3  C   UNL A   1      34.663  31.405  28.028  1.00  0.00     0.261 C 
BRANCH   3   4
ATOM      4  O   UNL A   1      33.687  30.273  27.457  1.00  0.00    -0.460 OA
BRANCH   4   5
ATOM      5  C   UNL A   1      32.600  29.814  26.700  1.00  0.00     0.338 C 
ATOM      6  O   UNL A   1      31.761  30.652  26.359  1.00  0.00    -0.246 OA
BRANCH   5   7
ATOM      7  C   UNL A   1      32.185  28.411  26.212  1.00  0.00     0.060 A 
ATOM      8  C   UNL A   1      29.487  26.431  24.188  1.00  0.00     0.046 C 
ATOM      9  C   UNL A   1      30.514  26.814  25.229  1.00  0.00    -0.027 A 
ATOM     10  C   UNL A   1      31.061  28.128  25.360  1.00  0.00     0.021 A 
ATOM     11  C   UNL A   1      31.015  25.847  26.096  1.00  0.00     0.044 A 
ATOM     12  C   UNL A   1      32.276  26.035  26.661  1.00  0.00     0.027 A 
ATOM     13  C   UNL A   1      32.839  27.312  26.757  1.00  0.00     0.018 A 
BRANCH  11  14
ATOM     14  N   UNL A   1      30.145  24.869  26.647  1.00  0.00    -0.320 N 
ATOM     15  C   UNL A   1      30.542  23.545  26.875  1.00  0.00     0.276 C 
ATOM     16  H   UNL A   1      29.226  25.133  26.879  1.00  0.00     0.170 HD
ATOM     17  O   UNL A   1      29.814  22.696  27.375  1.00  0.00    -0.267 OA
BRANCH  15  18
ATOM     18  C   UNL A   1      31.974  23.166  26.492  1.00  0.00     0.149 A 
ATOM     19  C   UNL A   1      32.879  22.904  27.627  1.00  0.00     0.042 A 
ATOM     20  N   UNL A   1      32.281  23.008  25.240  1.00  0.00    -0.164 NA
ATOM     21  C   UNL A   1      33.926  22.126  27.355  1.00  0.00     0.076 A 
ATOM     22  N   UNL A   1      33.476  22.337  24.979  1.00  0.00    -0.226 N 
ATOM     23  C   UNL A   1      34.213  21.687  25.967  1.00  0.00     0.266 A 
ATOM     24  O   UNL A   1      35.082  20.835  25.804  1.00  0.00    -0.268 OA
BRANCH  22  25
ATOM     25  C   UNL A   1      33.875  22.212  23.574  1.00  0.00     0.190 C 
BRANCH  25  26
ATOM     26  C   UNL A   1      32.797  22.719  22.612  1.00  0.00     0.253 C 
BRANCH  26  27
ATOM     27  O   UNL A   1      33.269  23.743  21.726  1.00  0.00    -0.492 OA
BRANCH  27  28
ATOM     28  C   UNL A   1      33.164  25.057  22.078  1.00  0.00     0.119 A 
ATOM     29  C   UNL A   1      32.157  25.759  21.412  1.00  0.00     0.046 A 
ATOM     30  C   UNL A   1      33.964  25.736  22.994  1.00  0.00     0.046 A 
ATOM     31  C   UNL A   1      31.980  27.129  21.624  1.00  0.00     0.004 A 
ATOM     32  C   UNL A   1      33.816  27.115  23.180  1.00  0.00     0.004 A 
ATOM     33  C   UNL A   1      32.825  27.812  22.494  1.00  0.00     0.000 A 
ENDBRANCH  27  28
ENDBRANCH  26  27
ENDBRANCH  25  26
ENDBRANCH  22  25
ENDBRANCH  15  18
ENDBRANCH  11  14
ENDBRANCH   5   7
ENDBRANCH   4   5
ENDBRANCH   3   4
ENDBRANCH   2   3
ENDBRANCH   1   2
BRANCH   1  34
ATOM     34  C   UNL A   1      35.766  33.322  31.308  1.00  0.00     0.188 C 
BRANCH  34  35
ATOM     35  C   UNL A   1      36.421  34.650  31.678  1.00  0.00     0.188 C 
BRANCH  35  36
ATOM     36  O   UNL A   1      36.402  34.824  33.084  1.00  0.00    -0.376 OA
BRANCH  36  37
ATOM     37  C   UNL A   1      35.245  34.337  33.732  1.00  0.00     0.202 C 
BRANCH  37  38
ATOM     38  C   UNL A   1      35.552  33.792  35.130  1.00  0.00     0.261 C 
BRANCH  38  39
ATOM     39  O   UNL A   1      36.725  32.953  35.092  1.00  0.00    -0.460 OA
BRANCH  39  40
ATOM     40  C   UNL A   1      37.477  32.926  36.252  1.00  0.00     0.338 C 
ATOM     41  O   UNL A   1      37.255  32.178  37.152  1.00  0.00    -0.246 OA
BRANCH  40  42
ATOM     42  C   UNL A   1      38.642  33.870  36.118  1.00  0.00     0.060 A 
ATOM     43  C   UNL A   1      38.641  35.117  35.505  1.00  0.00     0.016 A 
ATOM     44  C   UNL A   1      39.850  33.466  36.578  1.00  0.00     0.016 A 
ATOM     45  C   UNL A   1      39.869  35.829  35.188  1.00  0.00     0.010 A 
ATOM     46  C   UNL A   1      40.997  34.183  36.197  1.00  0.00     0.010 A 
ATOM     47  C   UNL A   1      41.154  35.339  35.436  1.00  0.00    -0.014 A 
BRANCH  47  48
ATOM     48  C   UNL A   1      42.527  35.837  34.770  1.00  0.00     0.031 A 
ATOM     49  C   UNL A   1      43.367  37.148  34.891  1.00  0.00     0.074 A 
ATOM     50  C   UNL A   1      43.215  34.992  33.969  1.00  0.00     0.049 A 
ATOM     51  N   UNL A   1      43.345  38.192  34.091  1.00  0.00    -0.248 NA
ATOM     52  C   UNL A   1      44.492  37.275  35.848  1.00  0.00     0.031 C 
ATOM     53  C   UNL A   1      44.512  35.208  33.321  1.00  0.00     0.029 A 
ATOM     54  N   UNL A   1      42.764  33.807  33.420  1.00  0.00    -0.354 N 
ATOM     55  C   UNL A   1      44.310  39.114  34.565  1.00  0.00     0.074 A 
ATOM     56  C   UNL A   1      44.879  38.546  35.762  1.00  0.00     0.031 C 
ATOM     57  C   UNL A   1      44.606  34.368  32.276  1.00  0.00     0.029 A 
ATOM     58  C   UNL A   1      43.336  33.669  32.161  1.00  0.00     0.049 A 
ATOM     59  H   UNL A   1      42.146  33.171  33.847  1.00  0.00     0.167 HD
ATOM     60  C   UNL A   1      45.081  39.989  33.844  1.00  0.00     0.031 A 
ATOM     61  C   UNL A   1      42.514  33.676  31.074  1.00  0.00     0.031 A 
ATOM     62  C   UNL A   1      45.411  39.407  32.571  1.00  0.00     0.049 A 
ATOM     63  C   UNL A   1      42.737  34.876  30.183  1.00  0.00     0.074 A 
ATOM     64  C   UNL A   1      46.493  38.638  32.179  1.00  0.00     0.029 A 
ATOM     65  N   UNL A   1      44.434  39.270  31.609  1.00  0.00    -0.354 N 
ATOM     66  N   UNL A   1      43.375  35.959  30.536  1.00  0.00    -0.248 NA
ATOM     67  C   UNL A   1      42.260  34.932  28.805  1.00  0.00     0.031 C 
ATOM     68  C   UNL A   1      46.105  37.920  31.024  1.00  0.00     0.029 A 
ATOM     69  C   UNL A   1      44.830  38.331  30.681  1.00  0.00     0.049 A 
ATOM     70  H   UNL A   1      43.585  39.767  31.588  1.00  0.00     0.167 HD
ATOM     71  C   UNL A   1      43.398  36.835  29.482  1.00  0.00     0.074 A 
ATOM     72  C   UNL A   1      42.702  36.140  28.416  1.00  0.00     0.031 C 
ATOM     73  C   UNL A   1      43.986  38.063  29.540  1.00  0.00     0.031 A 
BRANCH  60  74
ATOM     74  C   UNL A   1      45.922  41.051  34.559  1.00  0.00    -0.014 A 
ATOM     75  C   UNL A   1      45.464  41.805  35.660  1.00  0.00     0.010 A 
ATOM     76  C   UNL A   1      47.249  41.306  34.134  1.00  0.00     0.010 A 
ATOM     77  C   UNL A   1      46.252  42.822  36.244  1.00  0.00     0.020 A 
ATOM     78  C   UNL A   1      48.045  42.316  34.711  1.00  0.00     0.020 A 
ATOM     79  C   UNL A   1      47.532  43.085  35.754  1.00  0.00     0.054 A 
BRANCH  79  80
ATOM     80  S   UNL A   1      48.482  44.482  36.444  1.00  0.00     0.124 S 
ATOM     81  O   UNL A   1      48.031  44.518  37.833  1.00  0.00    -0.237 OA
ATOM     82  O   UNL A   1      49.865  44.060  36.247  1.00  0.00    -0.237 OA
ATOM     83  O   UNL A   1      48.062  45.626  35.638  1.00  0.00    -0.744 OA
ENDBRANCH  79  80
ENDBRANCH  60  74
BRANCH  61  84
ATOM     84  C   UNL A   1      41.227  32.931  31.283  1.00  0.00    -0.014 A 
ATOM     85  C   UNL A   1      41.236  31.557  30.938  1.00  0.00     0.010 A 
ATOM     86  C   UNL A   1      40.174  33.402  32.090  1.00  0.00     0.010 A 
ATOM     87  C   UNL A   1      40.321  30.658  31.491  1.00  0.00     0.020 A 
ATOM     88  C   UNL A   1      39.229  32.496  32.630  1.00  0.00     0.020 A 
ATOM     89  C   UNL A   1      39.342  31.126  32.362  1.00  0.00     0.054 A 
BRANCH  89  90
ATOM     90  S   UNL A   1      38.378  29.873  33.273  1.00  0.00     0.124 S 
ATOM     91  O   UNL A   1      38.998  28.625  32.843  1.00  0.00    -0.237 OA
ATOM     92  O   UNL A   1      38.637  30.251  34.663  1.00  0.00    -0.237 OA
ATOM     93  O   UNL A   1      37.013  30.096  32.807  1.00  0.00    -0.744 OA
ENDBRANCH  89  90
ENDBRANCH  61  84
BRANCH  73  94
ATOM     94  C   UNL A   1      43.893  39.135  28.489  1.00  0.00    -0.014 A 
ATOM     95  C   UNL A   1      44.918  40.057  28.242  1.00  0.00     0.010 A 
ATOM     96  C   UNL A   1      42.791  39.129  27.598  1.00  0.00     0.010 A 
ATOM     97  C   UNL A   1      44.814  40.986  27.200  1.00  0.00     0.020 A 
ATOM     98  C   UNL A   1      42.699  40.022  26.530  1.00  0.00     0.020 A 
ATOM     99  C   UNL A   1      43.701  40.968  26.357  1.00  0.00     0.054 A 
BRANCH  99 100
ATOM    100  S   UNL A   1      43.583  42.145  24.989  1.00  0.00     0.124 S 
ATOM    101  O   UNL A   1      43.892  43.408  25.653  1.00  0.00    -0.237 OA
ATOM    102  O   UNL A   1      44.596  41.670  24.049  1.00  0.00    -0.237 OA
ATOM    103  O   UNL A   1      42.202  41.994  24.534  1.00  0.00    -0.744 OA
ENDBRANCH  99 100
ENDBRANCH  73  94
ENDBRANCH  47  48
ENDBRANCH  40  42
ENDBRANCH  39  40
ENDBRANCH  38  39
ENDBRANCH  37  38
ENDBRANCH  36  37
ENDBRANCH  35  36
ENDBRANCH  34  35
ENDBRANCH   1  34
TORSDOF 26
ENDMDL
