MODEL 1
REMARK VINA RESULT:      -9.2      0.000      0.000
REMARK SMILES COc1ccc(COc2cncc(C(=O)OCCOCCOCCOC(=O)c3ccc(-c4c5nc(c(-c6ccc(S(=O)(=O)[O-])cc6)c6ccc([nH]6)c(-c6ccc(S(=O)(=O)[O-])cc6)c6nc(c(-c7ccc(S(=O)(=O)[O-])cc7)c7ccc4[nH]7)C=C6)C=C5)cc3)n2)cc1
REMARK SMILES IDX 20 1 19 2 18 3 17 4 16 5 14 6 15 7 13 8 9 9 10 10 88 11
REMARK SMILES IDX 11 12 12 13 8 14 7 15 6 16 3 17 4 18 90 19 5 20 89 21 2 22
REMARK SMILES IDX 1 23 21 24 22 25 23 26 24 27 25 28 26 29 27 30 28 31 29 32
REMARK SMILES IDX 87 33 30 34 86 35 31 36 32 37 33 38 80 39 34 40 85 41 79 42
REMARK SMILES IDX 81 43 35 44 84 45 78 46 77 47 36 49 66 50 47 51 65 52 48 53
REMARK SMILES IDX 51 54 64 55 82 56 49 57 50 58 63 60 83 61 52 62 37 63 38 64
REMARK SMILES IDX 46 65 39 66 45 67 40 68 41 69 42 70 43 71 44 72 67 73 68 74
REMARK SMILES IDX 76 75 69 76 75 77 70 78 71 79 72 80 73 81 74 82 53 83 54 84
REMARK SMILES IDX 62 85 55 86 61 87 56 88 57 89 58 90 59 91 60 92
REMARK H PARENT 81 48 51 59
REMARK Flexibility Score: inf
ROOT
ATOM      1  C   UNL A   1      33.365  30.732  27.284  1.00  0.00     0.188 C 
ENDROOT
BRANCH   1   2
ATOM      2  O   UNL A   1      32.248  30.582  26.427  1.00  0.00    -0.376 OA
BRANCH   2   3
ATOM      3  C   UNL A   1      32.090  29.402  25.657  1.00  0.00     0.202 C 
BRANCH   3   4
ATOM      4  C   UNL A   1      31.853  28.038  26.318  1.00  0.00     0.261 C 
BRANCH   4   5
ATOM      5  O   UNL A   1      31.849  26.931  25.410  1.00  0.00    -0.458 OA
BRANCH   5   6
ATOM      6  C   UNL A   1      31.888  25.706  25.996  1.00  0.00     0.358 C 
ATOM      7  O   UNL A   1      31.136  25.286  26.861  1.00  0.00    -0.244 OA
BRANCH   6   8
ATOM      8  C   UNL A   1      32.829  24.831  25.271  1.00  0.00     0.170 A 
ATOM      9  C   UNL A   1      33.327  22.968  24.034  1.00  0.00     0.233 A 
ATOM     10  C   UNL A   1      34.676  23.318  24.109  1.00  0.00     0.179 A 
ATOM     11  N   UNL A   1      32.372  23.716  24.637  1.00  0.00    -0.203 NA
ATOM     12  N   UNL A   1      35.131  24.406  24.780  1.00  0.00    -0.257 NA
ATOM     13  C   UNL A   1      34.171  25.174  25.335  1.00  0.00     0.147 A 
BRANCH   9  14
ATOM     14  O   UNL A   1      32.834  21.952  23.259  1.00  0.00    -0.472 OA
BRANCH  14  15
ATOM     15  C   UNL A   1      31.946  21.032  23.907  1.00  0.00     0.267 C 
BRANCH  15  16
ATOM     16  C   UNL A   1      32.530  19.644  24.056  1.00  0.00    -0.010 A 
ATOM     17  C   UNL A   1      33.354  16.967  24.342  1.00  0.00     0.118 A 
ATOM     18  C   UNL A   1      33.268  17.806  25.455  1.00  0.00     0.047 A 
ATOM     19  C   UNL A   1      33.058  17.477  23.079  1.00  0.00     0.047 A 
ATOM     20  C   UNL A   1      32.876  19.139  25.316  1.00  0.00     0.011 A 
ATOM     21  C   UNL A   1      32.660  18.811  22.934  1.00  0.00     0.011 A 
BRANCH  17  22
ATOM     22  O   UNL A   1      33.700  15.675  24.626  1.00  0.00    -0.497 OA
ATOM     23  C   UNL A   1      35.017  15.459  25.117  1.00  0.00     0.278 C 
ENDBRANCH  17  22
ENDBRANCH  15  16
ENDBRANCH  14  15
ENDBRANCH   9  14
ENDBRANCH   6   8
ENDBRANCH   5   6
ENDBRANCH   4   5
ENDBRANCH   3   4
ENDBRANCH   2   3
ENDBRANCH   1   2
BRANCH   1  24
ATOM     24  C   UNL A   1      33.805  32.125  27.778  1.00  0.00     0.188 C 
BRANCH  24  25
ATOM     25  O   UNL A   1      34.764  32.237  28.803  1.00  0.00    -0.376 OA
BRANCH  25  26
ATOM     26  C   UNL A   1      36.148  32.339  28.526  1.00  0.00     0.202 C 
BRANCH  26  27
ATOM     27  C   UNL A   1      37.292  31.887  29.448  1.00  0.00     0.261 C 
BRANCH  27  28
ATOM     28  O   UNL A   1      37.336  30.515  29.833  1.00  0.00    -0.460 OA
BRANCH  28  29
ATOM     29  C   UNL A   1      37.292  29.638  28.805  1.00  0.00     0.338 C 
ATOM     30  O   UNL A   1      36.308  29.320  28.145  1.00  0.00    -0.246 OA
BRANCH  29  31
ATOM     31  C   UNL A   1      38.658  29.217  28.464  1.00  0.00     0.060 A 
ATOM     32  C   UNL A   1      39.535  28.907  29.509  1.00  0.00     0.016 A 
ATOM     33  C   UNL A   1      39.088  29.193  27.136  1.00  0.00     0.016 A 
ATOM     34  C   UNL A   1      40.868  28.613  29.232  1.00  0.00     0.010 A 
ATOM     35  C   UNL A   1      40.430  28.913  26.861  1.00  0.00     0.010 A 
ATOM     36  C   UNL A   1      41.332  28.662  27.910  1.00  0.00    -0.014 A 
BRANCH  36  37
ATOM     37  C   UNL A   1      42.792  28.648  27.655  1.00  0.00     0.031 A 
ATOM     38  C   UNL A   1      43.411  27.392  27.104  1.00  0.00     0.074 A 
ATOM     39  C   UNL A   1      43.547  29.740  27.867  1.00  0.00     0.049 A 
ATOM     40  N   UNL A   1      44.658  27.149  26.796  1.00  0.00    -0.248 NA
ATOM     41  C   UNL A   1      42.500  26.259  26.868  1.00  0.00     0.031 C 
ATOM     42  C   UNL A   1      43.059  31.028  28.356  1.00  0.00     0.029 A 
ATOM     43  N   UNL A   1      44.896  29.933  27.695  1.00  0.00    -0.354 N 
ATOM     44  C   UNL A   1      44.683  25.838  26.334  1.00  0.00     0.074 A 
ATOM     45  C   UNL A   1      43.334  25.326  26.431  1.00  0.00     0.031 C 
ATOM     46  C   UNL A   1      44.097  31.879  28.449  1.00  0.00     0.029 A 
ATOM     47  C   UNL A   1      45.323  31.189  28.053  1.00  0.00     0.049 A 
ATOM     48  H   UNL A   1      45.500  29.237  27.348  1.00  0.00     0.167 HD
ATOM     49  C   UNL A   1      45.734  25.124  25.864  1.00  0.00     0.031 A 
ATOM     50  C   UNL A   1      46.564  31.715  28.071  1.00  0.00     0.031 A 
ATOM     51  C   UNL A   1      47.079  25.625  25.786  1.00  0.00     0.049 A 
ATOM     52  C   UNL A   1      47.730  30.877  27.613  1.00  0.00     0.074 A 
ATOM     53  C   UNL A   1      48.211  24.982  25.315  1.00  0.00     0.029 A 
ATOM     54  N   UNL A   1      47.477  26.889  26.194  1.00  0.00    -0.354 N 
ATOM     55  N   UNL A   1      47.733  29.648  27.151  1.00  0.00    -0.248 NA
ATOM     56  C   UNL A   1      49.059  31.503  27.666  1.00  0.00     0.031 C 
ATOM     57  C   UNL A   1      49.303  25.837  25.490  1.00  0.00     0.029 A 
ATOM     58  C   UNL A   1      48.842  27.036  26.011  1.00  0.00     0.049 A 
ATOM     59  H   UNL A   1      46.878  27.579  26.560  1.00  0.00     0.167 HD
ATOM     60  C   UNL A   1      49.058  29.365  26.832  1.00  0.00     0.074 A 
ATOM     61  C   UNL A   1      49.825  30.555  27.141  1.00  0.00     0.031 C 
ATOM     62  C   UNL A   1      49.592  28.227  26.324  1.00  0.00     0.031 A 
BRANCH  49  63
ATOM     63  C   UNL A   1      45.467  23.708  25.431  1.00  0.00    -0.014 A 
ATOM     64  C   UNL A   1      45.192  23.395  24.087  1.00  0.00     0.010 A 
ATOM     65  C   UNL A   1      45.517  22.669  26.379  1.00  0.00     0.010 A 
ATOM     66  C   UNL A   1      44.931  22.077  23.706  1.00  0.00     0.020 A 
ATOM     67  C   UNL A   1      45.284  21.346  25.998  1.00  0.00     0.020 A 
ATOM     68  C   UNL A   1      44.976  21.060  24.666  1.00  0.00     0.054 A 
BRANCH  68  69
ATOM     69  S   UNL A   1      44.648  19.355  24.141  1.00  0.00     0.124 S 
ATOM     70  O   UNL A   1      43.393  19.065  24.827  1.00  0.00    -0.237 OA
ATOM     71  O   UNL A   1      44.556  19.479  22.689  1.00  0.00    -0.237 OA
ATOM     72  O   UNL A   1      45.809  18.614  24.628  1.00  0.00    -0.744 OA
ENDBRANCH  68  69
ENDBRANCH  49  63
BRANCH  50  73
ATOM     73  C   UNL A   1      46.775  33.107  28.555  1.00  0.00    -0.014 A 
ATOM     74  C   UNL A   1      46.938  33.376  29.926  1.00  0.00     0.010 A 
ATOM     75  C   UNL A   1      46.800  34.177  27.642  1.00  0.00     0.010 A 
ATOM     76  C   UNL A   1      47.104  34.690  30.375  1.00  0.00     0.020 A 
ATOM     77  C   UNL A   1      46.993  35.488  28.084  1.00  0.00     0.020 A 
ATOM     78  C   UNL A   1      47.133  35.738  29.451  1.00  0.00     0.054 A 
BRANCH  78  79
ATOM     79  S   UNL A   1      47.393  37.430  30.052  1.00  0.00     0.124 S 
ATOM     80  O   UNL A   1      46.514  37.477  31.215  1.00  0.00    -0.237 OA
ATOM     81  O   UNL A   1      48.825  37.446  30.338  1.00  0.00    -0.237 OA
ATOM     82  O   UNL A   1      46.982  38.261  28.922  1.00  0.00    -0.744 OA
ENDBRANCH  78  79
ENDBRANCH  50  73
BRANCH  62  83
ATOM     83  C   UNL A   1      51.070  28.218  26.032  1.00  0.00    -0.014 A 
ATOM     84  C   UNL A   1      52.006  27.811  26.997  1.00  0.00     0.010 A 
ATOM     85  C   UNL A   1      51.522  28.571  24.746  1.00  0.00     0.010 A 
ATOM     86  C   UNL A   1      53.370  27.788  26.694  1.00  0.00     0.020 A 
ATOM     87  C   UNL A   1      52.882  28.522  24.429  1.00  0.00     0.020 A 
ATOM     88  C   UNL A   1      53.800  28.145  25.411  1.00  0.00     0.054 A 
BRANCH  88  89
ATOM     89  S   UNL A   1      55.572  28.069  25.028  1.00  0.00     0.124 S 
ATOM     90  O   UNL A   1      56.141  28.941  26.051  1.00  0.00    -0.237 OA
ATOM     91  O   UNL A   1      55.871  26.647  25.176  1.00  0.00    -0.237 OA
ATOM     92  O   UNL A   1      55.653  28.577  23.660  1.00  0.00    -0.744 OA
ENDBRANCH  88  89
ENDBRANCH  62  83
ENDBRANCH  36  37
ENDBRANCH  29  31
ENDBRANCH  28  29
ENDBRANCH  27  28
ENDBRANCH  26  27
ENDBRANCH  25  26
ENDBRANCH  24  25
ENDBRANCH   1  24
TORSDOF 24
ENDMDL
MODEL 2
REMARK VINA RESULT:      -8.7      7.130     13.413
REMARK SMILES COc1ccc(COc2cncc(C(=O)OCCOCCOCCOC(=O)c3ccc(-c4c5nc(c(-c6ccc(S(=O)(=O)[O-])cc6)c6ccc([nH]6)c(-c6ccc(S(=O)(=O)[O-])cc6)c6nc(c(-c7ccc(S(=O)(=O)[O-])cc7)c7ccc4[nH]7)C=C6)C=C5)cc3)n2)cc1
REMARK SMILES IDX 20 1 19 2 18 3 17 4 16 5 14 6 15 7 13 8 9 9 10 10 88 11
REMARK SMILES IDX 11 12 12 13 8 14 7 15 6 16 3 17 4 18 90 19 5 20 89 21 2 22
REMARK SMILES IDX 1 23 21 24 22 25 23 26 24 27 25 28 26 29 27 30 28 31 29 32
REMARK SMILES IDX 87 33 30 34 86 35 31 36 32 37 33 38 80 39 34 40 85 41 79 42
REMARK SMILES IDX 81 43 35 44 84 45 78 46 77 47 36 49 66 50 47 51 65 52 48 53
REMARK SMILES IDX 51 54 64 55 82 56 49 57 50 58 63 60 83 61 52 62 37 63 38 64
REMARK SMILES IDX 46 65 39 66 45 67 40 68 41 69 42 70 43 71 44 72 67 73 68 74
REMARK SMILES IDX 76 75 69 76 75 77 70 78 71 79 72 80 73 81 74 82 53 83 54 84
REMARK SMILES IDX 62 85 55 86 61 87 56 88 57 89 58 90 59 91 60 92
REMARK H PARENT 81 48 51 59
REMARK Flexibility Score: inf
ROOT
ATOM      1  C   UNL A   1      43.804  21.659  25.321  1.00  0.00     0.188 C 
ENDROOT
BRANCH   1   2
ATOM      2  O   UNL A   1      44.189  20.298  25.388  1.00  0.00    -0.376 OA
BRANCH   2   3
ATOM      3  C   UNL A   1      43.207  19.276  25.389  1.00  0.00     0.202 C 
BRANCH   3   4
ATOM      4  C   UNL A   1      42.376  18.961  26.638  1.00  0.00     0.261 C 
BRANCH   4   5
ATOM      5  O   UNL A   1      41.387  19.946  26.957  1.00  0.00    -0.458 OA
BRANCH   5   6
ATOM      6  C   UNL A   1      40.308  19.968  26.131  1.00  0.00     0.358 C 
ATOM      7  O   UNL A   1      39.804  19.012  25.564  1.00  0.00    -0.244 OA
BRANCH   6   8
ATOM      8  C   UNL A   1      39.655  21.289  26.191  1.00  0.00     0.170 A 
ATOM      9  C   UNL A   1      39.485  23.437  26.970  1.00  0.00     0.233 A 
ATOM     10  C   UNL A   1      38.289  23.566  26.262  1.00  0.00     0.179 A 
ATOM     11  N   UNL A   1      40.186  22.278  26.963  1.00  0.00    -0.203 NA
ATOM     12  N   UNL A   1      37.742  22.563  25.530  1.00  0.00    -0.257 NA
ATOM     13  C   UNL A   1      38.469  21.428  25.485  1.00  0.00     0.147 A 
BRANCH   9  14
ATOM     14  O   UNL A   1      40.121  24.469  27.608  1.00  0.00    -0.472 OA
BRANCH  14  15
ATOM     15  C   UNL A   1      39.423  25.721  27.641  1.00  0.00     0.267 C 
BRANCH  15  16
ATOM     16  C   UNL A   1      40.239  26.874  27.099  1.00  0.00    -0.010 A 
ATOM     17  C   UNL A   1      41.968  28.927  26.248  1.00  0.00     0.118 A 
ATOM     18  C   UNL A   1      41.063  29.146  27.289  1.00  0.00     0.047 A 
ATOM     19  C   UNL A   1      41.987  27.687  25.611  1.00  0.00     0.047 A 
ATOM     20  C   UNL A   1      40.192  28.137  27.703  1.00  0.00     0.011 A 
ATOM     21  C   UNL A   1      41.119  26.670  26.025  1.00  0.00     0.011 A 
BRANCH  17  22
ATOM     22  O   UNL A   1      42.796  29.980  25.978  1.00  0.00    -0.497 OA
ATOM     23  C   UNL A   1      43.892  30.176  26.864  1.00  0.00     0.278 C 
ENDBRANCH  17  22
ENDBRANCH  15  16
ENDBRANCH  14  15
ENDBRANCH   9  14
ENDBRANCH   6   8
ENDBRANCH   5   6
ENDBRANCH   4   5
ENDBRANCH   3   4
ENDBRANCH   2   3
ENDBRANCH   1   2
BRANCH   1  24
ATOM     24  C   UNL A   1      44.477  22.627  24.326  1.00  0.00     0.188 C 
BRANCH  24  25
ATOM     25  O   UNL A   1      45.377  23.603  24.795  1.00  0.00    -0.376 OA
BRANCH  25  26
ATOM     26  C   UNL A   1      44.943  24.888  25.200  1.00  0.00     0.202 C 
BRANCH  26  27
ATOM     27  C   UNL A   1      44.522  25.294  26.622  1.00  0.00     0.261 C 
BRANCH  27  28
ATOM     28  O   UNL A   1      44.768  24.370  27.680  1.00  0.00    -0.460 OA
BRANCH  28  29
ATOM     29  C   UNL A   1      45.899  24.603  28.383  1.00  0.00     0.338 C 
ATOM     30  O   UNL A   1      47.042  24.286  28.073  1.00  0.00    -0.246 OA
BRANCH  29  31
ATOM     31  C   UNL A   1      45.588  25.459  29.536  1.00  0.00     0.060 A 
ATOM     32  C   UNL A   1      44.678  24.984  30.487  1.00  0.00     0.016 A 
ATOM     33  C   UNL A   1      46.135  26.739  29.645  1.00  0.00     0.016 A 
ATOM     34  C   UNL A   1      44.274  25.810  31.534  1.00  0.00     0.010 A 
ATOM     35  C   UNL A   1      45.716  27.572  30.686  1.00  0.00     0.010 A 
ATOM     36  C   UNL A   1      44.755  27.124  31.609  1.00  0.00    -0.014 A 
BRANCH  36  37
ATOM     37  C   UNL A   1      44.101  28.082  32.532  1.00  0.00     0.031 A 
ATOM     38  C   UNL A   1      44.736  28.334  33.873  1.00  0.00     0.074 A 
ATOM     39  C   UNL A   1      42.988  28.747  32.174  1.00  0.00     0.049 A 
ATOM     40  N   UNL A   1      44.351  29.129  34.836  1.00  0.00    -0.248 NA
ATOM     41  C   UNL A   1      45.974  27.589  34.164  1.00  0.00     0.031 C 
ATOM     42  C   UNL A   1      42.303  28.623  30.889  1.00  0.00     0.029 A 
ATOM     43  N   UNL A   1      42.239  29.664  32.869  1.00  0.00    -0.354 N 
ATOM     44  C   UNL A   1      45.293  28.979  35.848  1.00  0.00     0.074 A 
ATOM     45  C   UNL A   1      46.251  27.994  35.395  1.00  0.00     0.031 C 
ATOM     46  C   UNL A   1      41.229  29.433  30.889  1.00  0.00     0.029 A 
ATOM     47  C   UNL A   1      41.137  30.110  32.182  1.00  0.00     0.049 A 
ATOM     48  H   UNL A   1      42.471  29.973  33.775  1.00  0.00     0.167 HD
ATOM     49  C   UNL A   1      45.361  29.610  37.044  1.00  0.00     0.031 A 
ATOM     50  C   UNL A   1      40.158  30.956  32.560  1.00  0.00     0.031 A 
ATOM     51  C   UNL A   1      44.399  30.574  37.503  1.00  0.00     0.049 A 
ATOM     52  C   UNL A   1      40.214  31.590  33.926  1.00  0.00     0.074 A 
ATOM     53  C   UNL A   1      44.385  31.276  38.697  1.00  0.00     0.029 A 
ATOM     54  N   UNL A   1      43.275  30.970  36.794  1.00  0.00    -0.354 N 
ATOM     55  N   UNL A   1      41.127  31.460  34.860  1.00  0.00    -0.248 NA
ATOM     56  C   UNL A   1      39.112  32.496  34.284  1.00  0.00     0.031 C 
ATOM     57  C   UNL A   1      43.224  32.054  38.732  1.00  0.00     0.029 A 
ATOM     58  C   UNL A   1      42.547  31.886  37.534  1.00  0.00     0.049 A 
ATOM     59  H   UNL A   1      43.031  30.647  35.897  1.00  0.00     0.167 HD
ATOM     60  C   UNL A   1      40.725  32.290  35.903  1.00  0.00     0.074 A 
ATOM     61  C   UNL A   1      39.494  32.926  35.480  1.00  0.00     0.031 C 
ATOM     62  C   UNL A   1      41.323  32.510  37.100  1.00  0.00     0.031 A 
BRANCH  49  63
ATOM     63  C   UNL A   1      46.503  29.243  37.954  1.00  0.00    -0.014 A 
ATOM     64  C   UNL A   1      46.390  28.186  38.875  1.00  0.00     0.010 A 
ATOM     65  C   UNL A   1      47.716  29.950  37.869  1.00  0.00     0.010 A 
ATOM     66  C   UNL A   1      47.454  27.868  39.722  1.00  0.00     0.020 A 
ATOM     67  C   UNL A   1      48.792  29.619  38.695  1.00  0.00     0.020 A 
ATOM     68  C   UNL A   1      48.649  28.590  39.629  1.00  0.00     0.054 A 
BRANCH  68  69
ATOM     69  S   UNL A   1      50.020  28.148  40.730  1.00  0.00     0.124 S 
ATOM     70  O   UNL A   1      50.952  29.250  40.507  1.00  0.00    -0.237 OA
ATOM     71  O   UNL A   1      49.381  28.123  42.044  1.00  0.00    -0.237 OA
ATOM     72  O   UNL A   1      50.461  26.849  40.230  1.00  0.00    -0.744 OA
ENDBRANCH  68  69
ENDBRANCH  49  63
BRANCH  50  73
ATOM     73  C   UNL A   1      39.027  31.245  31.636  1.00  0.00    -0.014 A 
ATOM     74  C   UNL A   1      37.857  30.466  31.662  1.00  0.00     0.010 A 
ATOM     75  C   UNL A   1      39.122  32.301  30.711  1.00  0.00     0.010 A 
ATOM     76  C   UNL A   1      36.812  30.725  30.770  1.00  0.00     0.020 A 
ATOM     77  C   UNL A   1      38.069  32.581  29.836  1.00  0.00     0.020 A 
ATOM     78  C   UNL A   1      36.924  31.782  29.863  1.00  0.00     0.054 A 
BRANCH  78  79
ATOM     79  S   UNL A   1      35.538  32.128  28.743  1.00  0.00     0.124 S 
ATOM     80  O   UNL A   1      34.472  32.469  29.678  1.00  0.00    -0.237 OA
ATOM     81  O   UNL A   1      36.053  33.232  27.937  1.00  0.00    -0.237 OA
ATOM     82  O   UNL A   1      35.361  30.869  28.021  1.00  0.00    -0.744 OA
ENDBRANCH  78  79
ENDBRANCH  50  73
BRANCH  62  83
ATOM     83  C   UNL A   1      40.680  33.508  38.029  1.00  0.00    -0.014 A 
ATOM     84  C   UNL A   1      39.659  33.129  38.917  1.00  0.00     0.010 A 
ATOM     85  C   UNL A   1      41.149  34.834  38.049  1.00  0.00     0.010 A 
ATOM     86  C   UNL A   1      39.095  34.068  39.786  1.00  0.00     0.020 A 
ATOM     87  C   UNL A   1      40.608  35.769  38.936  1.00  0.00     0.020 A 
ATOM     88  C   UNL A   1      39.573  35.383  39.790  1.00  0.00     0.054 A 
BRANCH  88  89
ATOM     89  S   UNL A   1      38.854  36.574  40.955  1.00  0.00     0.124 S 
ATOM     90  O   UNL A   1      37.926  35.736  41.710  1.00  0.00    -0.237 OA
ATOM     91  O   UNL A   1      40.022  37.044  41.695  1.00  0.00    -0.237 OA
ATOM     92  O   UNL A   1      38.229  37.571  40.089  1.00  0.00    -0.744 OA
ENDBRANCH  88  89
ENDBRANCH  62  83
ENDBRANCH  36  37
ENDBRANCH  29  31
ENDBRANCH  28  29
ENDBRANCH  27  28
ENDBRANCH  26  27
ENDBRANCH  25  26
ENDBRANCH  24  25
ENDBRANCH   1  24
TORSDOF 24
ENDMDL
MODEL 3
REMARK VINA RESULT:      -8.6      7.484     14.117
REMARK SMILES COc1ccc(COc2cncc(C(=O)OCCOCCOCCOC(=O)c3ccc(-c4c5nc(c(-c6ccc(S(=O)(=O)[O-])cc6)c6ccc([nH]6)c(-c6ccc(S(=O)(=O)[O-])cc6)c6nc(c(-c7ccc(S(=O)(=O)[O-])cc7)c7ccc4[nH]7)C=C6)C=C5)cc3)n2)cc1
REMARK SMILES IDX 20 1 19 2 18 3 17 4 16 5 14 6 15 7 13 8 9 9 10 10 88 11
REMARK SMILES IDX 11 12 12 13 8 14 7 15 6 16 3 17 4 18 90 19 5 20 89 21 2 22
REMARK SMILES IDX 1 23 21 24 22 25 23 26 24 27 25 28 26 29 27 30 28 31 29 32
REMARK SMILES IDX 87 33 30 34 86 35 31 36 32 37 33 38 80 39 34 40 85 41 79 42
REMARK SMILES IDX 81 43 35 44 84 45 78 46 77 47 36 49 66 50 47 51 65 52 48 53
REMARK SMILES IDX 51 54 64 55 82 56 49 57 50 58 63 60 83 61 52 62 37 63 38 64
REMARK SMILES IDX 46 65 39 66 45 67 40 68 41 69 42 70 43 71 44 72 67 73 68 74
REMARK SMILES IDX 76 75 69 76 75 77 70 78 71 79 72 80 73 81 74 82 53 83 54 84
REMARK SMILES IDX 62 85 55 86 61 87 56 88 57 89 58 90 59 91 60 92
REMARK H PARENT 81 48 51 59
REMARK Flexibility Score: inf
ROOT
ATOM      1  C   UNL A   1      46.079  42.005  26.290  1.00  0.00     0.188 C 
ENDROOT
BRANCH   1   2
ATOM      2  O   UNL A   1      46.299  43.141  25.473  1.00  0.00    -0.376 OA
BRANCH   2   3
ATOM      3  C   UNL A   1      45.384  44.224  25.491  1.00  0.00     0.202 C 
BRANCH   3   4
ATOM      4  C   UNL A   1      44.527  44.571  24.269  1.00  0.00     0.261 C 
BRANCH   4   5
ATOM      5  O   UNL A   1      44.702  43.692  23.151  1.00  0.00    -0.458 OA
BRANCH   5   6
ATOM      6  C   UNL A   1      43.670  42.838  22.924  1.00  0.00     0.358 C 
ATOM      7  O   UNL A   1      43.138  42.103  23.741  1.00  0.00    -0.244 OA
BRANCH   6   8
ATOM      8  C   UNL A   1      43.097  43.085  21.588  1.00  0.00     0.170 A 
ATOM      9  C   UNL A   1      43.277  43.633  19.371  1.00  0.00     0.233 A 
ATOM     10  C   UNL A   1      41.884  43.604  19.283  1.00  0.00     0.179 A 
ATOM     11  N   UNL A   1      43.914  43.391  20.542  1.00  0.00    -0.203 NA
ATOM     12  N   UNL A   1      41.074  43.342  20.339  1.00  0.00    -0.257 NA
ATOM     13  C   UNL A   1      41.714  43.052  21.490  1.00  0.00     0.147 A 
BRANCH   9  14
ATOM     14  O   UNL A   1      44.117  43.767  18.297  1.00  0.00    -0.472 OA
BRANCH  14  15
ATOM     15  C   UNL A   1      43.548  44.343  17.114  1.00  0.00     0.267 C 
BRANCH  15  16
ATOM     16  C   UNL A   1      43.639  45.854  17.084  1.00  0.00    -0.010 A 
ATOM     17  C   UNL A   1      43.874  48.652  17.296  1.00  0.00     0.118 A 
ATOM     18  C   UNL A   1      42.626  48.034  17.398  1.00  0.00     0.047 A 
ATOM     19  C   UNL A   1      45.004  47.871  17.056  1.00  0.00     0.047 A 
ATOM     20  C   UNL A   1      42.502  46.649  17.276  1.00  0.00     0.011 A 
ATOM     21  C   UNL A   1      44.886  46.481  16.938  1.00  0.00     0.011 A 
BRANCH  17  22
ATOM     22  O   UNL A   1      43.860  50.005  17.485  1.00  0.00    -0.497 OA
ATOM     23  C   UNL A   1      43.426  50.469  18.757  1.00  0.00     0.278 C 
ENDBRANCH  17  22
ENDBRANCH  15  16
ENDBRANCH  14  15
ENDBRANCH   9  14
ENDBRANCH   6   8
ENDBRANCH   5   6
ENDBRANCH   4   5
ENDBRANCH   3   4
ENDBRANCH   2   3
ENDBRANCH   1   2
BRANCH   1  24
ATOM     24  C   UNL A   1      44.654  41.602  26.722  1.00  0.00     0.188 C 
BRANCH  24  25
ATOM     25  O   UNL A   1      44.300  40.242  26.798  1.00  0.00    -0.376 OA
BRANCH  25  26
ATOM     26  C   UNL A   1      43.001  39.787  26.468  1.00  0.00     0.202 C 
BRANCH  26  27
ATOM     27  C   UNL A   1      42.303  38.546  27.048  1.00  0.00     0.261 C 
BRANCH  27  28
ATOM     28  O   UNL A   1      42.643  37.273  26.502  1.00  0.00    -0.460 OA
BRANCH  28  29
ATOM     29  C   UNL A   1      42.131  36.216  27.171  1.00  0.00     0.338 C 
ATOM     30  O   UNL A   1      41.036  36.144  27.717  1.00  0.00    -0.246 OA
BRANCH  29  31
ATOM     31  C   UNL A   1      43.028  35.062  27.017  1.00  0.00     0.060 A 
ATOM     32  C   UNL A   1      43.480  34.415  28.173  1.00  0.00     0.016 A 
ATOM     33  C   UNL A   1      43.470  34.662  25.754  1.00  0.00     0.016 A 
ATOM     34  C   UNL A   1      44.416  33.389  28.073  1.00  0.00     0.010 A 
ATOM     35  C   UNL A   1      44.422  33.644  25.657  1.00  0.00     0.010 A 
ATOM     36  C   UNL A   1      44.928  33.033  26.818  1.00  0.00    -0.014 A 
BRANCH  36  37
ATOM     37  C   UNL A   1      46.128  32.166  26.745  1.00  0.00     0.031 A 
ATOM     38  C   UNL A   1      45.932  30.675  26.667  1.00  0.00     0.074 A 
ATOM     39  C   UNL A   1      47.366  32.690  26.708  1.00  0.00     0.049 A 
ATOM     40  N   UNL A   1      46.827  29.725  26.588  1.00  0.00    -0.248 NA
ATOM     41  C   UNL A   1      44.540  30.194  26.676  1.00  0.00     0.031 C 
ATOM     42  C   UNL A   1      47.684  34.116  26.734  1.00  0.00     0.029 A 
ATOM     43  N   UNL A   1      48.590  32.072  26.640  1.00  0.00    -0.354 N 
ATOM     44  C   UNL A   1      46.109  28.536  26.542  1.00  0.00     0.074 A 
ATOM     45  C   UNL A   1      44.707  28.880  26.633  1.00  0.00     0.031 C 
ATOM     46  C   UNL A   1      49.021  34.264  26.686  1.00  0.00     0.029 A 
ATOM     47  C   UNL A   1      49.650  32.945  26.655  1.00  0.00     0.049 A 
ATOM     48  H   UNL A   1      48.697  31.094  26.586  1.00  0.00     0.167 HD
ATOM     49  C   UNL A   1      46.573  27.269  26.427  1.00  0.00     0.031 A 
ATOM     50  C   UNL A   1      50.976  32.705  26.657  1.00  0.00     0.031 A 
ATOM     51  C   UNL A   1      47.967  26.924  26.357  1.00  0.00     0.049 A 
ATOM     52  C   UNL A   1      51.471  31.283  26.603  1.00  0.00     0.074 A 
ATOM     53  C   UNL A   1      48.538  25.669  26.230  1.00  0.00     0.029 A 
ATOM     54  N   UNL A   1      49.011  27.834  26.414  1.00  0.00    -0.354 N 
ATOM     55  N   UNL A   1      50.780  30.169  26.530  1.00  0.00    -0.248 NA
ATOM     56  C   UNL A   1      52.929  31.085  26.618  1.00  0.00     0.031 C 
ATOM     57  C   UNL A   1      49.928  25.817  26.266  1.00  0.00     0.029 A 
ATOM     58  C   UNL A   1      50.223  27.168  26.351  1.00  0.00     0.049 A 
ATOM     59  H   UNL A   1      48.906  28.810  26.488  1.00  0.00     0.167 HD
ATOM     60  C   UNL A   1      51.718  29.143  26.462  1.00  0.00     0.074 A 
ATOM     61  C   UNL A   1      53.024  29.768  26.489  1.00  0.00     0.031 C 
ATOM     62  C   UNL A   1      51.516  27.804  26.379  1.00  0.00     0.031 A 
BRANCH  49  63
ATOM     63  C   UNL A   1      45.555  26.160  26.407  1.00  0.00    -0.014 A 
ATOM     64  C   UNL A   1      45.105  25.606  25.195  1.00  0.00     0.010 A 
ATOM     65  C   UNL A   1      45.061  25.648  27.621  1.00  0.00     0.010 A 
ATOM     66  C   UNL A   1      44.148  24.588  25.195  1.00  0.00     0.020 A 
ATOM     67  C   UNL A   1      44.124  24.611  27.626  1.00  0.00     0.020 A 
ATOM     68  C   UNL A   1      43.661  24.099  26.412  1.00  0.00     0.054 A 
BRANCH  68  69
ATOM     69  S   UNL A   1      42.431  22.767  26.384  1.00  0.00     0.124 S 
ATOM     70  O   UNL A   1      41.192  23.496  26.638  1.00  0.00    -0.237 OA
ATOM     71  O   UNL A   1      42.576  22.225  25.035  1.00  0.00    -0.237 OA
ATOM     72  O   UNL A   1      42.860  21.876  27.459  1.00  0.00    -0.744 OA
ENDBRANCH  68  69
ENDBRANCH  49  63
BRANCH  50  73
ATOM     73  C   UNL A   1      51.937  33.840  26.726  1.00  0.00    -0.014 A 
ATOM     74  C   UNL A   1      52.425  34.444  25.553  1.00  0.00     0.010 A 
ATOM     75  C   UNL A   1      52.381  34.317  27.973  1.00  0.00     0.010 A 
ATOM     76  C   UNL A   1      53.351  35.489  25.626  1.00  0.00     0.020 A 
ATOM     77  C   UNL A   1      53.286  35.379  28.051  1.00  0.00     0.020 A 
ATOM     78  C   UNL A   1      53.774  35.951  26.875  1.00  0.00     0.054 A 
BRANCH  78  79
ATOM     79  S   UNL A   1      54.944  37.337  26.947  1.00  0.00     0.124 S 
ATOM     80  O   UNL A   1      54.876  37.861  25.587  1.00  0.00    -0.237 OA
ATOM     81  O   UNL A   1      54.362  38.186  27.983  1.00  0.00    -0.237 OA
ATOM     82  O   UNL A   1      56.207  36.699  27.312  1.00  0.00    -0.744 OA
ENDBRANCH  78  79
ENDBRANCH  50  73
BRANCH  62  83
ATOM     83  C   UNL A   1      52.732  26.921  26.272  1.00  0.00    -0.014 A 
ATOM     84  C   UNL A   1      53.341  26.660  25.033  1.00  0.00     0.010 A 
ATOM     85  C   UNL A   1      53.306  26.390  27.442  1.00  0.00     0.010 A 
ATOM     86  C   UNL A   1      54.483  25.856  24.962  1.00  0.00     0.020 A 
ATOM     87  C   UNL A   1      54.463  25.610  27.379  1.00  0.00     0.020 A 
ATOM     88  C   UNL A   1      55.037  25.335  26.136  1.00  0.00     0.054 A 
BRANCH  88  89
ATOM     89  S   UNL A   1      56.542  24.329  26.023  1.00  0.00     0.124 S 
ATOM     90  O   UNL A   1      57.417  24.981  26.992  1.00  0.00    -0.237 OA
ATOM     91  O   UNL A   1      56.068  22.999  26.399  1.00  0.00    -0.237 OA
ATOM     92  O   UNL A   1      56.947  24.466  24.626  1.00  0.00    -0.744 OA
ENDBRANCH  88  89
ENDBRANCH  62  83
ENDBRANCH  36  37
ENDBRANCH  29  31
ENDBRANCH  28  29
ENDBRANCH  27  28
ENDBRANCH  26  27
ENDBRANCH  25  26
ENDBRANCH  24  25
ENDBRANCH   1  24
TORSDOF 24
ENDMDL
