MODEL 1
REMARK VINA RESULT:      -8.0      0.000      0.000
REMARK SMILES CC[NH+](CC)C[C@H](F)C(=O)OCCOCCOCCOC(=O)c1ccc(-c2c3nc(c(-c4ccc(S(=O)(=O)[O-])cc4)c4ccc([nH]4)c(-c4ccc(S(=O)(=O)[O-])cc4)c4nc(c(-c5ccc(S(=O)(=O)[O-])cc5)c5ccc2[nH]5)C=C4)C=C3)cc1
REMARK SMILES IDX 15 1 14 2 13 3 12 4 11 5 9 6 10 7 7 8 8 9 6 10 3 11 2 13
REMARK SMILES IDX 1 14 4 15 5 16 16 17 17 18 18 19 19 20 20 21 21 22 22 23
REMARK SMILES IDX 23 24 24 25 82 26 25 27 81 28 26 29 27 30 28 31 75 32 29 33
REMARK SMILES IDX 80 34 74 35 76 36 30 37 79 38 73 39 72 40 31 42 61 43 42 44
REMARK SMILES IDX 60 45 43 46 46 47 59 48 77 49 44 50 45 51 58 53 78 54 47 55
REMARK SMILES IDX 32 56 33 57 41 58 34 59 40 60 35 61 36 62 37 63 38 64 39 65
REMARK SMILES IDX 62 66 63 67 71 68 64 69 70 70 65 71 66 72 67 73 68 74 69 75
REMARK SMILES IDX 48 76 49 77 57 78 50 79 56 80 51 81 52 82 53 83 54 84 55 85
REMARK H PARENT 3 12 76 41 46 52
REMARK Flexibility Score: inf
ROOT
ATOM      1  C   UNL A   1      40.592  22.635  26.359  1.00  0.00     0.188 C 
ENDROOT
BRANCH   1   2
ATOM      2  O   UNL A   1      39.274  22.274  26.773  1.00  0.00    -0.376 OA
BRANCH   2   3
ATOM      3  C   UNL A   1      38.300  21.973  25.781  1.00  0.00     0.202 C 
BRANCH   3   4
ATOM      4  C   UNL A   1      37.022  22.821  25.740  1.00  0.00     0.261 C 
BRANCH   4   5
ATOM      5  O   UNL A   1      36.035  22.307  24.835  1.00  0.00    -0.461 OA
BRANCH   5   6
ATOM      6  C   UNL A   1      35.778  23.033  23.715  1.00  0.00     0.346 C 
ATOM      7  O   UNL A   1      36.432  22.965  22.681  1.00  0.00    -0.248 OA
BRANCH   6   8
ATOM      8  C   UNL A   1      34.585  23.950  23.891  1.00  0.00     0.330 C 
ATOM      9  F   UNL A   1      34.399  24.842  22.873  1.00  0.00    -0.228 F 
BRANCH   8  10
ATOM     10  C   UNL A   1      33.287  23.180  24.178  1.00  0.00     0.312 C 
BRANCH  10  11
ATOM     11  N   UNL A   1      32.711  23.065  25.530  1.00  0.00    -0.332 N 
ATOM     12  H   UNL A   1      31.731  22.956  25.268  1.00  0.00     0.348 HD
BRANCH  11  13
ATOM     13  C   UNL A   1      32.967  21.836  26.281  1.00  0.00     0.258 C 
ATOM     14  C   UNL A   1      33.491  22.079  27.693  1.00  0.00     0.071 C 
ENDBRANCH  11  13
BRANCH  11  15
ATOM     15  C   UNL A   1      32.734  24.276  26.349  1.00  0.00     0.258 C 
ATOM     16  C   UNL A   1      31.573  25.250  26.205  1.00  0.00     0.071 C 
ENDBRANCH  11  15
ENDBRANCH  10  11
ENDBRANCH   8  10
ENDBRANCH   6   8
ENDBRANCH   5   6
ENDBRANCH   4   5
ENDBRANCH   3   4
ENDBRANCH   2   3
ENDBRANCH   1   2
BRANCH   1  17
ATOM     17  C   UNL A   1      41.658  21.533  26.147  1.00  0.00     0.188 C 
BRANCH  17  18
ATOM     18  O   UNL A   1      42.984  22.024  26.054  1.00  0.00    -0.376 OA
BRANCH  18  19
ATOM     19  C   UNL A   1      43.328  22.649  24.830  1.00  0.00     0.202 C 
BRANCH  19  20
ATOM     20  C   UNL A   1      43.854  24.095  24.894  1.00  0.00     0.261 C 
BRANCH  20  21
ATOM     21  O   UNL A   1      43.501  24.860  26.062  1.00  0.00    -0.460 OA
BRANCH  21  22
ATOM     22  C   UNL A   1      42.519  25.780  25.927  1.00  0.00     0.338 C 
ATOM     23  O   UNL A   1      41.745  25.879  24.987  1.00  0.00    -0.246 OA
BRANCH  22  24
ATOM     24  C   UNL A   1      42.391  26.532  27.199  1.00  0.00     0.060 A 
ATOM     25  C   UNL A   1      41.407  26.136  28.116  1.00  0.00     0.016 A 
ATOM     26  C   UNL A   1      43.227  27.612  27.498  1.00  0.00     0.016 A 
ATOM     27  C   UNL A   1      41.233  26.840  29.311  1.00  0.00     0.010 A 
ATOM     28  C   UNL A   1      43.037  28.328  28.690  1.00  0.00     0.010 A 
ATOM     29  C   UNL A   1      42.017  27.969  29.589  1.00  0.00    -0.014 A 
BRANCH  29  30
ATOM     30  C   UNL A   1      41.647  28.855  30.728  1.00  0.00     0.031 A 
ATOM     31  C   UNL A   1      42.453  28.776  32.002  1.00  0.00     0.074 A 
ATOM     32  C   UNL A   1      40.654  29.761  30.625  1.00  0.00     0.049 A 
ATOM     33  N   UNL A   1      42.334  29.471  33.104  1.00  0.00    -0.248 NA
ATOM     34  C   UNL A   1      43.536  27.780  32.032  1.00  0.00     0.031 C 
ATOM     35  C   UNL A   1      39.814  29.966  29.447  1.00  0.00     0.029 A 
ATOM     36  N   UNL A   1      40.189  30.683  31.533  1.00  0.00    -0.354 N 
ATOM     37  C   UNL A   1      43.332  29.006  33.954  1.00  0.00     0.074 A 
ATOM     38  C   UNL A   1      44.014  27.937  33.258  1.00  0.00     0.031 C 
ATOM     39  C   UNL A   1      38.931  30.948  29.706  1.00  0.00     0.029 A 
ATOM     40  C   UNL A   1      39.126  31.425  31.074  1.00  0.00     0.049 A 
ATOM     41  H   UNL A   1      40.581  30.800  32.429  1.00  0.00     0.167 HD
ATOM     42  C   UNL A   1      43.665  29.435  35.196  1.00  0.00     0.031 A 
ATOM     43  C   UNL A   1      38.386  32.372  31.688  1.00  0.00     0.031 A 
ATOM     44  C   UNL A   1      42.974  30.481  35.905  1.00  0.00     0.049 A 
ATOM     45  C   UNL A   1      38.730  32.785  33.099  1.00  0.00     0.074 A 
ATOM     46  C   UNL A   1      43.238  30.984  37.169  1.00  0.00     0.029 A 
ATOM     47  N   UNL A   1      41.882  31.182  35.419  1.00  0.00    -0.354 N 
ATOM     48  N   UNL A   1      39.695  32.352  33.876  1.00  0.00    -0.248 NA
ATOM     49  C   UNL A   1      37.893  33.830  33.707  1.00  0.00     0.031 C 
ATOM     50  C   UNL A   1      42.269  31.947  37.470  1.00  0.00     0.029 A 
ATOM     51  C   UNL A   1      41.445  32.096  36.366  1.00  0.00     0.049 A 
ATOM     52  H   UNL A   1      41.475  31.051  34.533  1.00  0.00     0.167 HD
ATOM     53  C   UNL A   1      39.594  33.088  35.054  1.00  0.00     0.074 A 
ATOM     54  C   UNL A   1      38.495  34.014  34.874  1.00  0.00     0.031 C 
ATOM     55  C   UNL A   1      40.341  33.004  36.184  1.00  0.00     0.031 A 
BRANCH  42  56
ATOM     56  C   UNL A   1      44.826  28.757  35.879  1.00  0.00    -0.014 A 
ATOM     57  C   UNL A   1      44.638  27.590  36.641  1.00  0.00     0.010 A 
ATOM     58  C   UNL A   1      46.129  29.262  35.714  1.00  0.00     0.010 A 
ATOM     59  C   UNL A   1      45.726  26.958  37.251  1.00  0.00     0.020 A 
ATOM     60  C   UNL A   1      47.223  28.616  36.296  1.00  0.00     0.020 A 
ATOM     61  C   UNL A   1      47.012  27.474  37.072  1.00  0.00     0.054 A 
BRANCH  61  62
ATOM     62  S   UNL A   1      48.408  26.610  37.843  1.00  0.00     0.124 S 
ATOM     63  O   UNL A   1      47.771  25.971  38.992  1.00  0.00    -0.237 OA
ATOM     64  O   UNL A   1      48.846  25.704  36.784  1.00  0.00    -0.237 OA
ATOM     65  O   UNL A   1      49.345  27.682  38.170  1.00  0.00    -0.744 OA
ENDBRANCH  61  62
ENDBRANCH  42  56
BRANCH  43  66
ATOM     66  C   UNL A   1      37.219  32.982  30.988  1.00  0.00    -0.014 A 
ATOM     67  C   UNL A   1      35.905  32.787  31.451  1.00  0.00     0.010 A 
ATOM     68  C   UNL A   1      37.421  33.747  29.823  1.00  0.00     0.010 A 
ATOM     69  C   UNL A   1      34.818  33.322  30.750  1.00  0.00     0.020 A 
ATOM     70  C   UNL A   1      36.340  34.311  29.139  1.00  0.00     0.020 A 
ATOM     71  C   UNL A   1      35.043  34.083  29.600  1.00  0.00     0.054 A 
BRANCH  71  72
ATOM     72  S   UNL A   1      33.621  34.802  28.732  1.00  0.00     0.124 S 
ATOM     73  O   UNL A   1      32.608  34.836  29.782  1.00  0.00    -0.237 OA
ATOM     74  O   UNL A   1      34.137  36.102  28.307  1.00  0.00    -0.237 OA
ATOM     75  O   UNL A   1      33.368  33.856  27.648  1.00  0.00    -0.744 OA
ENDBRANCH  71  72
ENDBRANCH  43  66
BRANCH  55  76
ATOM     76  C   UNL A   1      40.010  33.960  37.306  1.00  0.00    -0.014 A 
ATOM     77  C   UNL A   1      40.589  35.241  37.375  1.00  0.00     0.010 A 
ATOM     78  C   UNL A   1      39.095  33.572  38.303  1.00  0.00     0.010 A 
ATOM     79  C   UNL A   1      40.308  36.089  38.451  1.00  0.00     0.020 A 
ATOM     80  C   UNL A   1      38.783  34.432  39.361  1.00  0.00     0.020 A 
ATOM     81  C   UNL A   1      39.412  35.675  39.441  1.00  0.00     0.054 A 
BRANCH  81  82
ATOM     82  S   UNL A   1      39.070  36.792  40.830  1.00  0.00     0.124 S 
ATOM     83  O   UNL A   1      38.339  37.874  40.176  1.00  0.00    -0.237 OA
ATOM     84  O   UNL A   1      38.281  35.953  41.728  1.00  0.00    -0.237 OA
ATOM     85  O   UNL A   1      40.398  37.147  41.324  1.00  0.00    -0.744 OA
ENDBRANCH  81  82
ENDBRANCH  55  76
ENDBRANCH  29  30
ENDBRANCH  22  24
ENDBRANCH  21  22
ENDBRANCH  20  21
ENDBRANCH  19  20
ENDBRANCH  18  19
ENDBRANCH  17  18
ENDBRANCH   1  17
TORSDOF 24
ENDMDL
MODEL 2
REMARK VINA RESULT:      -7.1      3.340      9.586
REMARK SMILES CC[NH+](CC)C[C@H](F)C(=O)OCCOCCOCCOC(=O)c1ccc(-c2c3nc(c(-c4ccc(S(=O)(=O)[O-])cc4)c4ccc([nH]4)c(-c4ccc(S(=O)(=O)[O-])cc4)c4nc(c(-c5ccc(S(=O)(=O)[O-])cc5)c5ccc2[nH]5)C=C4)C=C3)cc1
REMARK SMILES IDX 15 1 14 2 13 3 12 4 11 5 9 6 10 7 7 8 8 9 6 10 3 11 2 13
REMARK SMILES IDX 1 14 4 15 5 16 16 17 17 18 18 19 19 20 20 21 21 22 22 23
REMARK SMILES IDX 23 24 24 25 82 26 25 27 81 28 26 29 27 30 28 31 75 32 29 33
REMARK SMILES IDX 80 34 74 35 76 36 30 37 79 38 73 39 72 40 31 42 61 43 42 44
REMARK SMILES IDX 60 45 43 46 46 47 59 48 77 49 44 50 45 51 58 53 78 54 47 55
REMARK SMILES IDX 32 56 33 57 41 58 34 59 40 60 35 61 36 62 37 63 38 64 39 65
REMARK SMILES IDX 62 66 63 67 71 68 64 69 70 70 65 71 66 72 67 73 68 74 69 75
REMARK SMILES IDX 48 76 49 77 57 78 50 79 56 80 51 81 52 82 53 83 54 84 55 85
REMARK H PARENT 3 12 76 41 46 52
REMARK Flexibility Score: inf
ROOT
ATOM      1  C   UNL A   1      35.824  32.664  27.975  1.00  0.00     0.188 C 
ENDROOT
BRANCH   1   2
ATOM      2  O   UNL A   1      36.579  31.486  28.261  1.00  0.00    -0.376 OA
BRANCH   2   3
ATOM      3  C   UNL A   1      36.321  30.306  27.511  1.00  0.00     0.202 C 
BRANCH   3   4
ATOM      4  C   UNL A   1      34.861  29.875  27.318  1.00  0.00     0.261 C 
BRANCH   4   5
ATOM      5  O   UNL A   1      34.730  28.526  26.846  1.00  0.00    -0.461 OA
BRANCH   5   6
ATOM      6  C   UNL A   1      33.537  28.171  26.300  1.00  0.00     0.346 C 
ATOM      7  O   UNL A   1      32.936  27.136  26.566  1.00  0.00    -0.248 OA
BRANCH   6   8
ATOM      8  C   UNL A   1      33.032  29.201  25.312  1.00  0.00     0.330 C 
ATOM      9  F   UNL A   1      33.577  29.107  24.064  1.00  0.00    -0.228 F 
BRANCH   8  10
ATOM     10  C   UNL A   1      31.497  29.235  25.229  1.00  0.00     0.312 C 
BRANCH  10  11
ATOM     11  N   UNL A   1      30.766  30.201  24.389  1.00  0.00    -0.332 N 
ATOM     12  H   UNL A   1      31.512  30.423  23.730  1.00  0.00     0.348 HD
BRANCH  11  13
ATOM     13  C   UNL A   1      29.719  29.685  23.507  1.00  0.00     0.258 C 
ATOM     14  C   UNL A   1      29.406  30.601  22.328  1.00  0.00     0.071 C 
ENDBRANCH  11  13
BRANCH  11  15
ATOM     15  C   UNL A   1      30.439  31.483  25.011  1.00  0.00     0.258 C 
ATOM     16  C   UNL A   1      31.181  31.861  26.285  1.00  0.00     0.071 C 
ENDBRANCH  11  15
ENDBRANCH  10  11
ENDBRANCH   8  10
ENDBRANCH   6   8
ENDBRANCH   5   6
ENDBRANCH   4   5
ENDBRANCH   3   4
ENDBRANCH   2   3
ENDBRANCH   1   2
BRANCH   1  17
ATOM     17  C   UNL A   1      34.423  32.849  28.606  1.00  0.00     0.188 C 
BRANCH  17  18
ATOM     18  O   UNL A   1      33.678  33.920  28.052  1.00  0.00    -0.376 OA
BRANCH  18  19
ATOM     19  C   UNL A   1      34.065  35.220  28.463  1.00  0.00     0.202 C 
BRANCH  19  20
ATOM     20  C   UNL A   1      33.351  35.818  29.689  1.00  0.00     0.261 C 
BRANCH  20  21
ATOM     21  O   UNL A   1      32.847  34.884  30.663  1.00  0.00    -0.460 OA
BRANCH  21  22
ATOM     22  C   UNL A   1      32.954  35.227  31.966  1.00  0.00     0.338 C 
ATOM     23  O   UNL A   1      32.116  35.823  32.628  1.00  0.00    -0.246 OA
BRANCH  22  24
ATOM     24  C   UNL A   1      34.167  34.587  32.532  1.00  0.00     0.060 A 
ATOM     25  C   UNL A   1      35.218  35.407  32.964  1.00  0.00     0.016 A 
ATOM     26  C   UNL A   1      34.275  33.198  32.644  1.00  0.00     0.016 A 
ATOM     27  C   UNL A   1      36.391  34.841  33.472  1.00  0.00     0.010 A 
ATOM     28  C   UNL A   1      35.461  32.632  33.137  1.00  0.00     0.010 A 
ATOM     29  C   UNL A   1      36.541  33.447  33.522  1.00  0.00    -0.014 A 
BRANCH  29  30
ATOM     30  C   UNL A   1      37.880  32.865  33.815  1.00  0.00     0.031 A 
ATOM     31  C   UNL A   1      38.494  33.101  35.173  1.00  0.00     0.074 A 
ATOM     32  C   UNL A   1      38.523  32.088  32.921  1.00  0.00     0.049 A 
ATOM     33  N   UNL A   1      39.629  32.665  35.658  1.00  0.00    -0.248 NA
ATOM     34  C   UNL A   1      37.724  33.939  36.105  1.00  0.00     0.031 C 
ATOM     35  C   UNL A   1      38.036  31.754  31.584  1.00  0.00     0.029 A 
ATOM     36  N   UNL A   1      39.730  31.435  33.010  1.00  0.00    -0.354 N 
ATOM     37  C   UNL A   1      39.703  33.165  36.954  1.00  0.00     0.074 A 
ATOM     38  C   UNL A   1      38.523  33.977  37.161  1.00  0.00     0.031 C 
ATOM     39  C   UNL A   1      38.938  30.963  30.975  1.00  0.00     0.029 A 
ATOM     40  C   UNL A   1      40.077  30.753  31.867  1.00  0.00     0.049 A 
ATOM     41  H   UNL A   1      40.294  31.455  33.817  1.00  0.00     0.167 HD
ATOM     42  C   UNL A   1      40.656  32.960  37.896  1.00  0.00     0.031 A 
ATOM     43  C   UNL A   1      41.190  30.051  31.568  1.00  0.00     0.031 A 
ATOM     44  C   UNL A   1      41.845  32.175  37.689  1.00  0.00     0.049 A 
ATOM     45  C   UNL A   1      42.272  29.894  32.609  1.00  0.00     0.074 A 
ATOM     46  C   UNL A   1      42.869  31.911  38.584  1.00  0.00     0.029 A 
ATOM     47  N   UNL A   1      42.175  31.531  36.507  1.00  0.00    -0.354 N 
ATOM     48  N   UNL A   1      42.311  30.352  33.838  1.00  0.00    -0.248 NA
ATOM     49  C   UNL A   1      43.453  29.107  32.224  1.00  0.00     0.031 C 
ATOM     50  C   UNL A   1      43.846  31.157  37.925  1.00  0.00     0.029 A 
ATOM     51  C   UNL A   1      43.397  30.890  36.641  1.00  0.00     0.049 A 
ATOM     52  H   UNL A   1      41.624  31.528  35.692  1.00  0.00     0.167 HD
ATOM     53  C   UNL A   1      43.509  29.890  34.379  1.00  0.00     0.074 A 
ATOM     54  C   UNL A   1      44.147  29.091  33.353  1.00  0.00     0.031 C 
ATOM     55  C   UNL A   1      44.034  30.108  35.611  1.00  0.00     0.031 A 
BRANCH  42  56
ATOM     56  C   UNL A   1      40.458  33.613  39.241  1.00  0.00    -0.014 A 
ATOM     57  C   UNL A   1      40.087  32.855  40.367  1.00  0.00     0.010 A 
ATOM     58  C   UNL A   1      40.695  34.991  39.394  1.00  0.00     0.010 A 
ATOM     59  C   UNL A   1      39.929  33.468  41.613  1.00  0.00     0.020 A 
ATOM     60  C   UNL A   1      40.567  35.603  40.644  1.00  0.00     0.020 A 
ATOM     61  C   UNL A   1      40.172  34.839  41.744  1.00  0.00     0.054 A 
BRANCH  61  62
ATOM     62  S   UNL A   1      39.996  35.598  43.382  1.00  0.00     0.124 S 
ATOM     63  O   UNL A   1      39.055  34.691  44.036  1.00  0.00    -0.237 OA
ATOM     64  O   UNL A   1      41.362  35.565  43.897  1.00  0.00    -0.237 OA
ATOM     65  O   UNL A   1      39.473  36.932  43.093  1.00  0.00    -0.744 OA
ENDBRANCH  61  62
ENDBRANCH  42  56
BRANCH  43  66
ATOM     66  C   UNL A   1      41.361  29.461  30.208  1.00  0.00    -0.014 A 
ATOM     67  C   UNL A   1      40.806  28.210  29.881  1.00  0.00     0.010 A 
ATOM     68  C   UNL A   1      42.114  30.145  29.235  1.00  0.00     0.010 A 
ATOM     69  C   UNL A   1      41.021  27.646  28.617  1.00  0.00     0.020 A 
ATOM     70  C   UNL A   1      42.302  29.601  27.962  1.00  0.00     0.020 A 
ATOM     71  C   UNL A   1      41.767  28.347  27.665  1.00  0.00     0.054 A 
BRANCH  71  72
ATOM     72  S   UNL A   1      41.998  27.617  26.020  1.00  0.00     0.124 S 
ATOM     73  O   UNL A   1      42.073  28.801  25.169  1.00  0.00    -0.237 OA
ATOM     74  O   UNL A   1      43.244  26.871  26.180  1.00  0.00    -0.237 OA
ATOM     75  O   UNL A   1      40.805  26.793  25.842  1.00  0.00    -0.744 OA
ENDBRANCH  71  72
ENDBRANCH  43  66
BRANCH  55  76
ATOM     76  C   UNL A   1      45.355  29.450  35.927  1.00  0.00    -0.014 A 
ATOM     77  C   UNL A   1      45.419  28.151  36.465  1.00  0.00     0.010 A 
ATOM     78  C   UNL A   1      46.556  30.140  35.671  1.00  0.00     0.010 A 
ATOM     79  C   UNL A   1      46.652  27.582  36.800  1.00  0.00     0.020 A 
ATOM     80  C   UNL A   1      47.792  29.559  35.970  1.00  0.00     0.020 A 
ATOM     81  C   UNL A   1      47.831  28.293  36.556  1.00  0.00     0.054 A 
BRANCH  81  82
ATOM     82  S   UNL A   1      49.417  27.535  37.005  1.00  0.00     0.124 S 
ATOM     83  O   UNL A   1      50.199  28.694  37.426  1.00  0.00    -0.237 OA
ATOM     84  O   UNL A   1      49.039  26.611  38.071  1.00  0.00    -0.237 OA
ATOM     85  O   UNL A   1      49.860  26.901  35.766  1.00  0.00    -0.744 OA
ENDBRANCH  81  82
ENDBRANCH  55  76
ENDBRANCH  29  30
ENDBRANCH  22  24
ENDBRANCH  21  22
ENDBRANCH  20  21
ENDBRANCH  19  20
ENDBRANCH  18  19
ENDBRANCH  17  18
ENDBRANCH   1  17
TORSDOF 24
ENDMDL
MODEL 3
REMARK VINA RESULT:      -7.0     10.630     17.194
REMARK SMILES CC[NH+](CC)C[C@H](F)C(=O)OCCOCCOCCOC(=O)c1ccc(-c2c3nc(c(-c4ccc(S(=O)(=O)[O-])cc4)c4ccc([nH]4)c(-c4ccc(S(=O)(=O)[O-])cc4)c4nc(c(-c5ccc(S(=O)(=O)[O-])cc5)c5ccc2[nH]5)C=C4)C=C3)cc1
REMARK SMILES IDX 15 1 14 2 13 3 12 4 11 5 9 6 10 7 7 8 8 9 6 10 3 11 2 13
REMARK SMILES IDX 1 14 4 15 5 16 16 17 17 18 18 19 19 20 20 21 21 22 22 23
REMARK SMILES IDX 23 24 24 25 82 26 25 27 81 28 26 29 27 30 28 31 75 32 29 33
REMARK SMILES IDX 80 34 74 35 76 36 30 37 79 38 73 39 72 40 31 42 61 43 42 44
REMARK SMILES IDX 60 45 43 46 46 47 59 48 77 49 44 50 45 51 58 53 78 54 47 55
REMARK SMILES IDX 32 56 33 57 41 58 34 59 40 60 35 61 36 62 37 63 38 64 39 65
REMARK SMILES IDX 62 66 63 67 71 68 64 69 70 70 65 71 66 72 67 73 68 74 69 75
REMARK SMILES IDX 48 76 49 77 57 78 50 79 56 80 51 81 52 82 53 83 54 84 55 85
REMARK H PARENT 3 12 76 41 46 52
REMARK Flexibility Score: inf
ROOT
ATOM      1  C   UNL A   1      41.586  41.364  24.740  1.00  0.00     0.188 C 
ENDROOT
BRANCH   1   2
ATOM      2  O   UNL A   1      42.385  41.666  23.596  1.00  0.00    -0.376 OA
BRANCH   2   3
ATOM      3  C   UNL A   1      42.156  42.884  22.900  1.00  0.00     0.202 C 
BRANCH   3   4
ATOM      4  C   UNL A   1      43.310  43.481  22.085  1.00  0.00     0.261 C 
BRANCH   4   5
ATOM      5  O   UNL A   1      44.265  42.499  21.656  1.00  0.00    -0.461 OA
BRANCH   5   6
ATOM      6  C   UNL A   1      45.455  42.459  22.312  1.00  0.00     0.346 C 
ATOM      7  O   UNL A   1      45.620  41.947  23.413  1.00  0.00    -0.248 OA
BRANCH   6   8
ATOM      8  C   UNL A   1      46.562  43.129  21.526  1.00  0.00     0.330 C 
ATOM      9  F   UNL A   1      47.824  42.755  21.890  1.00  0.00    -0.228 F 
BRANCH   8  10
ATOM     10  C   UNL A   1      46.374  42.990  20.008  1.00  0.00     0.312 C 
BRANCH  10  11
ATOM     11  N   UNL A   1      46.204  44.152  19.116  1.00  0.00    -0.332 N 
ATOM     12  H   UNL A   1      46.357  43.681  18.224  1.00  0.00     0.348 HD
BRANCH  11  13
ATOM     13  C   UNL A   1      44.856  44.695  18.950  1.00  0.00     0.258 C 
ATOM     14  C   UNL A   1      44.823  46.213  18.795  1.00  0.00     0.071 C 
ENDBRANCH  11  13
BRANCH  11  15
ATOM     15  C   UNL A   1      47.252  45.170  19.172  1.00  0.00     0.258 C 
ATOM     16  C   UNL A   1      48.325  45.141  18.093  1.00  0.00     0.071 C 
ENDBRANCH  11  15
ENDBRANCH  10  11
ENDBRANCH   8  10
ENDBRANCH   6   8
ENDBRANCH   5   6
ENDBRANCH   4   5
ENDBRANCH   3   4
ENDBRANCH   2   3
ENDBRANCH   1   2
BRANCH   1  17
ATOM     17  C   UNL A   1      42.251  40.778  26.009  1.00  0.00     0.188 C 
BRANCH  17  18
ATOM     18  O   UNL A   1      41.420  39.895  26.740  1.00  0.00    -0.376 OA
BRANCH  18  19
ATOM     19  C   UNL A   1      41.982  39.353  27.923  1.00  0.00     0.202 C 
BRANCH  19  20
ATOM     20  C   UNL A   1      42.955  38.170  27.770  1.00  0.00     0.261 C 
BRANCH  20  21
ATOM     21  O   UNL A   1      42.665  37.226  26.721  1.00  0.00    -0.460 OA
BRANCH  21  22
ATOM     22  C   UNL A   1      42.067  36.067  27.075  1.00  0.00     0.338 C 
ATOM     23  O   UNL A   1      40.873  35.903  27.281  1.00  0.00    -0.246 OA
BRANCH  22  24
ATOM     24  C   UNL A   1      43.058  34.968  26.978  1.00  0.00     0.060 A 
ATOM     25  C   UNL A   1      43.527  34.381  28.161  1.00  0.00     0.016 A 
ATOM     26  C   UNL A   1      43.522  34.510  25.741  1.00  0.00     0.016 A 
ATOM     27  C   UNL A   1      44.487  33.365  28.112  1.00  0.00     0.010 A 
ATOM     28  C   UNL A   1      44.499  33.503  25.696  1.00  0.00     0.010 A 
ATOM     29  C   UNL A   1      45.014  32.947  26.882  1.00  0.00    -0.014 A 
BRANCH  29  30
ATOM     30  C   UNL A   1      46.211  32.062  26.861  1.00  0.00     0.031 A 
ATOM     31  C   UNL A   1      46.009  30.567  26.807  1.00  0.00     0.074 A 
ATOM     32  C   UNL A   1      47.461  32.565  26.828  1.00  0.00     0.049 A 
ATOM     33  N   UNL A   1      46.899  29.610  26.748  1.00  0.00    -0.248 NA
ATOM     34  C   UNL A   1      44.616  30.093  26.822  1.00  0.00     0.031 C 
ATOM     35  C   UNL A   1      47.803  33.986  26.847  1.00  0.00     0.029 A 
ATOM     36  N   UNL A   1      48.678  31.928  26.770  1.00  0.00    -0.354 N 
ATOM     37  C   UNL A   1      46.177  28.422  26.706  1.00  0.00     0.074 A 
ATOM     38  C   UNL A   1      44.777  28.778  26.796  1.00  0.00     0.031 C 
ATOM     39  C   UNL A   1      49.142  34.113  26.806  1.00  0.00     0.029 A 
ATOM     40  C   UNL A   1      49.754  32.785  26.783  1.00  0.00     0.049 A 
ATOM     41  H   UNL A   1      48.771  30.949  26.723  1.00  0.00     0.167 HD
ATOM     42  C   UNL A   1      46.629  27.150  26.589  1.00  0.00     0.031 A 
ATOM     43  C   UNL A   1      51.079  32.531  26.789  1.00  0.00     0.031 A 
ATOM     44  C   UNL A   1      48.021  26.788  26.524  1.00  0.00     0.049 A 
ATOM     45  C   UNL A   1      51.562  31.102  26.729  1.00  0.00     0.074 A 
ATOM     46  C   UNL A   1      48.578  25.524  26.407  1.00  0.00     0.029 A 
ATOM     47  N   UNL A   1      49.078  27.683  26.577  1.00  0.00    -0.354 N 
ATOM     48  N   UNL A   1      50.862  29.994  26.663  1.00  0.00    -0.248 NA
ATOM     49  C   UNL A   1      53.018  30.894  26.727  1.00  0.00     0.031 C 
ATOM     50  C   UNL A   1      49.970  25.651  26.447  1.00  0.00     0.029 A 
ATOM     51  C   UNL A   1      50.283  26.999  26.517  1.00  0.00     0.049 A 
ATOM     52  H   UNL A   1      48.988  28.660  26.646  1.00  0.00     0.167 HD
ATOM     53  C   UNL A   1      51.793  28.960  26.588  1.00  0.00     0.074 A 
ATOM     54  C   UNL A   1      53.102  29.579  26.585  1.00  0.00     0.031 C 
ATOM     55  C   UNL A   1      51.583  27.621  26.530  1.00  0.00     0.031 A 
BRANCH  42  56
ATOM     56  C   UNL A   1      45.602  26.048  26.539  1.00  0.00    -0.014 A 
ATOM     57  C   UNL A   1      45.160  25.414  27.715  1.00  0.00     0.010 A 
ATOM     58  C   UNL A   1      45.032  25.675  25.308  1.00  0.00     0.010 A 
ATOM     59  C   UNL A   1      44.191  24.409  27.658  1.00  0.00     0.020 A 
ATOM     60  C   UNL A   1      44.040  24.691  25.250  1.00  0.00     0.020 A 
ATOM     61  C   UNL A   1      43.636  24.055  26.425  1.00  0.00     0.054 A 
BRANCH  61  62
ATOM     62  S   UNL A   1      42.351  22.775  26.387  1.00  0.00     0.124 S 
ATOM     63  O   UNL A   1      42.691  21.972  27.560  1.00  0.00    -0.237 OA
ATOM     64  O   UNL A   1      41.121  23.554  26.496  1.00  0.00    -0.237 OA
ATOM     65  O   UNL A   1      42.556  22.113  25.101  1.00  0.00    -0.744 OA
ENDBRANCH  61  62
ENDBRANCH  42  56
BRANCH  43  66
ATOM     66  C   UNL A   1      52.057  33.654  26.884  1.00  0.00    -0.014 A 
ATOM     67  C   UNL A   1      52.526  34.313  25.734  1.00  0.00     0.010 A 
ATOM     68  C   UNL A   1      52.549  34.052  28.143  1.00  0.00     0.010 A 
ATOM     69  C   UNL A   1      53.485  35.328  25.837  1.00  0.00     0.020 A 
ATOM     70  C   UNL A   1      53.480  35.088  28.253  1.00  0.00     0.020 A 
ATOM     71  C   UNL A   1      53.954  35.711  27.097  1.00  0.00     0.054 A 
BRANCH  71  72
ATOM     72  S   UNL A   1      55.164  37.058  27.211  1.00  0.00     0.124 S 
ATOM     73  O   UNL A   1      54.307  38.239  27.198  1.00  0.00    -0.237 OA
ATOM     74  O   UNL A   1      55.832  36.774  28.479  1.00  0.00    -0.237 OA
ATOM     75  O   UNL A   1      55.994  36.873  26.023  1.00  0.00    -0.744 OA
ENDBRANCH  71  72
ENDBRANCH  43  66
BRANCH  55  76
ATOM     76  C   UNL A   1      52.800  26.733  26.430  1.00  0.00    -0.014 A 
ATOM     77  C   UNL A   1      53.183  26.144  25.210  1.00  0.00     0.010 A 
ATOM     78  C   UNL A   1      53.583  26.492  27.576  1.00  0.00     0.010 A 
ATOM     79  C   UNL A   1      54.283  25.283  25.152  1.00  0.00     0.020 A 
ATOM     80  C   UNL A   1      54.705  25.661  27.514  1.00  0.00     0.020 A 
ATOM     81  C   UNL A   1      55.033  25.042  26.307  1.00  0.00     0.054 A 
BRANCH  81  82
ATOM     82  S   UNL A   1      56.452  23.915  26.206  1.00  0.00     0.124 S 
ATOM     83  O   UNL A   1      57.284  24.376  27.315  1.00  0.00    -0.237 OA
ATOM     84  O   UNL A   1      55.834  22.604  26.386  1.00  0.00    -0.237 OA
ATOM     85  O   UNL A   1      56.998  24.164  24.874  1.00  0.00    -0.744 OA
ENDBRANCH  81  82
ENDBRANCH  55  76
ENDBRANCH  29  30
ENDBRANCH  22  24
ENDBRANCH  21  22
ENDBRANCH  20  21
ENDBRANCH  19  20
ENDBRANCH  18  19
ENDBRANCH  17  18
ENDBRANCH   1  17
TORSDOF 24
ENDMDL
