MODEL 1
REMARK VINA RESULT:      -6.0      0.000      0.000
REMARK SMILES CC[NH2+][C@]1(C(=O)OCCOCCOCCOC(=O)c2ccc(-c3c4nc(c(-c5ccc(S(=O)(=O)[O-])cc5)c5ccc([nH]5)c(-c5ccc(S(=O)(=O)[O-])cc5)c5nc(c(-c6ccc(S(=O)(=O)[O-])cc6)c6ccc3[nH]6)C=C5)C=C4)cc2)CCC[C@H]1CCOC1CCC1
REMARK SMILES IDX 11 1 10 2 9 3 8 4 7 5 5 6 6 7 4 8 79 9 82 10 80 11 81 12
REMARK SMILES IDX 3 13 2 16 1 17 83 18 84 19 85 20 86 21 87 22 89 23 88 24
REMARK SMILES IDX 12 25 13 26 14 27 15 28 16 29 17 30 18 31 19 32 20 33 78 34
REMARK SMILES IDX 21 35 77 36 22 37 23 38 24 39 71 40 25 41 76 42 70 43 72 44
REMARK SMILES IDX 26 45 75 46 69 47 68 48 27 50 57 51 38 52 56 53 39 54 42 55
REMARK SMILES IDX 55 56 73 57 40 58 41 59 54 61 74 62 43 63 28 64 29 65 37 66
REMARK SMILES IDX 30 67 36 68 31 69 32 70 33 71 34 72 35 73 58 74 59 75 67 76
REMARK SMILES IDX 60 77 66 78 61 79 62 80 63 81 64 82 65 83 44 84 45 85 53 86
REMARK SMILES IDX 46 87 52 88 47 89 48 90 49 91 50 92 51 93
REMARK H PARENT 3 14 3 15 72 49 42 60
REMARK Flexibility Score: inf
ROOT
ATOM      1  C   UNL A   1      36.772  30.691  28.284  1.00  0.00     0.188 C 
ENDROOT
BRANCH   1   2
ATOM      2  O   UNL A   1      36.123  29.645  28.971  1.00  0.00    -0.376 OA
BRANCH   2   3
ATOM      3  C   UNL A   1      36.474  29.421  30.320  1.00  0.00     0.202 C 
BRANCH   3   4
ATOM      4  C   UNL A   1      37.610  30.196  31.024  1.00  0.00     0.261 C 
BRANCH   4   5
ATOM      5  O   UNL A   1      38.386  29.544  32.039  1.00  0.00    -0.459 OA
BRANCH   5   6
ATOM      6  C   UNL A   1      39.084  30.348  32.890  1.00  0.00     0.368 C 
ATOM      7  O   UNL A   1      38.654  31.429  33.277  1.00  0.00    -0.245 OA
BRANCH   6   8
ATOM      8  C   UNL A   1      40.439  29.727  33.359  1.00  0.00     0.197 C 
ATOM      9  C   UNL A   1      40.419  28.177  33.357  1.00  0.00     0.081 C 
ATOM     10  C   UNL A   1      41.640  30.000  32.406  1.00  0.00     0.065 C 
ATOM     11  C   UNL A   1      41.877  27.758  33.426  1.00  0.00     0.008 C 
ATOM     12  C   UNL A   1      42.606  28.799  32.594  1.00  0.00     0.011 C 
BRANCH   8  13
ATOM     13  N   UNL A   1      40.814  30.146  34.762  1.00  0.00    -0.332 N 
ATOM     14  H   UNL A   1      39.981  30.543  35.198  1.00  0.00     0.347 HD
ATOM     15  H   UNL A   1      41.168  29.299  35.206  1.00  0.00     0.347 HD
BRANCH  13  16
ATOM     16  C   UNL A   1      41.891  31.124  34.896  1.00  0.00     0.257 C 
ATOM     17  C   UNL A   1      42.769  30.806  36.095  1.00  0.00     0.071 C 
ENDBRANCH  13  16
ENDBRANCH   8  13
BRANCH  10  18
ATOM     18  C   UNL A   1      41.353  30.266  30.913  1.00  0.00     0.039 C 
BRANCH  18  19
ATOM     19  C   UNL A   1      41.575  29.080  29.951  1.00  0.00     0.161 C 
BRANCH  19  20
ATOM     20  O   UNL A   1      41.242  29.381  28.590  1.00  0.00    -0.378 OA
BRANCH  20  21
ATOM     21  C   UNL A   1      41.929  28.629  27.556  1.00  0.00     0.118 C 
ATOM     22  C   UNL A   1      40.981  27.842  26.599  1.00  0.00     0.032 C 
ATOM     23  C   UNL A   1      42.428  29.376  26.301  1.00  0.00     0.032 C 
ATOM     24  C   UNL A   1      41.916  28.196  25.448  1.00  0.00     0.005 C 
ENDBRANCH  20  21
ENDBRANCH  19  20
ENDBRANCH  18  19
ENDBRANCH  10  18
ENDBRANCH   6   8
ENDBRANCH   5   6
ENDBRANCH   4   5
ENDBRANCH   3   4
ENDBRANCH   2   3
ENDBRANCH   1   2
BRANCH   1  25
ATOM     25  C   UNL A   1      35.912  31.967  28.215  1.00  0.00     0.188 C 
BRANCH  25  26
ATOM     26  O   UNL A   1      34.755  32.095  29.030  1.00  0.00    -0.376 OA
BRANCH  26  27
ATOM     27  C   UNL A   1      34.778  33.065  30.063  1.00  0.00     0.202 C 
BRANCH  27  28
ATOM     28  C   UNL A   1      35.992  34.006  30.174  1.00  0.00     0.261 C 
BRANCH  28  29
ATOM     29  O   UNL A   1      37.182  33.451  30.774  1.00  0.00    -0.460 OA
BRANCH  29  30
ATOM     30  C   UNL A   1      37.929  34.319  31.518  1.00  0.00     0.338 C 
ATOM     31  O   UNL A   1      37.652  34.754  32.616  1.00  0.00    -0.246 OA
BRANCH  30  32
ATOM     32  C   UNL A   1      39.268  34.521  30.894  1.00  0.00     0.060 A 
ATOM     33  C   UNL A   1      39.321  34.800  29.522  1.00  0.00     0.016 A 
ATOM     34  C   UNL A   1      40.457  34.402  31.615  1.00  0.00     0.016 A 
ATOM     35  C   UNL A   1      40.552  34.968  28.876  1.00  0.00     0.010 A 
ATOM     36  C   UNL A   1      41.693  34.554  30.957  1.00  0.00     0.010 A 
ATOM     37  C   UNL A   1      41.753  34.842  29.582  1.00  0.00    -0.014 A 
BRANCH  37  38
ATOM     38  C   UNL A   1      43.056  34.916  28.861  1.00  0.00     0.031 A 
ATOM     39  C   UNL A   1      43.851  33.657  28.633  1.00  0.00     0.074 A 
ATOM     40  C   UNL A   1      43.531  36.082  28.376  1.00  0.00     0.049 A 
ATOM     41  N   UNL A   1      45.053  33.517  28.132  1.00  0.00    -0.248 NA
ATOM     42  C   UNL A   1      43.201  32.393  29.006  1.00  0.00     0.031 C 
ATOM     43  C   UNL A   1      42.825  37.361  28.405  1.00  0.00     0.029 A 
ATOM     44  N   UNL A   1      44.727  36.375  27.760  1.00  0.00    -0.354 N 
ATOM     45  C   UNL A   1      45.314  32.151  28.151  1.00  0.00     0.074 A 
ATOM     46  C   UNL A   1      44.137  31.507  28.696  1.00  0.00     0.031 C 
ATOM     47  C   UNL A   1      43.606  38.304  27.844  1.00  0.00     0.029 A 
ATOM     48  C   UNL A   1      44.892  37.711  27.471  1.00  0.00     0.049 A 
ATOM     49  H   UNL A   1      45.403  35.691  27.545  1.00  0.00     0.167 HD
ATOM     50  C   UNL A   1      46.438  31.493  27.777  1.00  0.00     0.031 A 
ATOM     51  C   UNL A   1      45.965  38.389  27.007  1.00  0.00     0.031 A 
ATOM     52  C   UNL A   1      47.630  32.127  27.276  1.00  0.00     0.049 A 
ATOM     53  C   UNL A   1      47.256  37.651  26.731  1.00  0.00     0.074 A 
ATOM     54  C   UNL A   1      48.828  31.535  26.911  1.00  0.00     0.029 A 
ATOM     55  N   UNL A   1      47.788  33.491  27.087  1.00  0.00    -0.354 N 
ATOM     56  N   UNL A   1      47.500  36.362  26.782  1.00  0.00    -0.248 NA
ATOM     57  C   UNL A   1      48.426  38.464  26.357  1.00  0.00     0.031 C 
ATOM     58  C   UNL A   1      49.732  32.546  26.572  1.00  0.00     0.029 A 
ATOM     59  C   UNL A   1      49.076  33.763  26.653  1.00  0.00     0.049 A 
ATOM     60  H   UNL A   1      47.088  34.167  27.238  1.00  0.00     0.167 HD
ATOM     61  C   UNL A   1      48.843  36.214  26.436  1.00  0.00     0.074 A 
ATOM     62  C   UNL A   1      49.351  37.537  26.150  1.00  0.00     0.031 C 
ATOM     63  C   UNL A   1      49.586  35.081  26.372  1.00  0.00     0.031 A 
BRANCH  50  64
ATOM     64  C   UNL A   1      46.466  30.003  27.985  1.00  0.00    -0.014 A 
ATOM     65  C   UNL A   1      46.038  29.110  26.988  1.00  0.00     0.010 A 
ATOM     66  C   UNL A   1      46.966  29.490  29.198  1.00  0.00     0.010 A 
ATOM     67  C   UNL A   1      46.075  27.731  27.215  1.00  0.00     0.020 A 
ATOM     68  C   UNL A   1      47.030  28.113  29.417  1.00  0.00     0.020 A 
ATOM     69  C   UNL A   1      46.569  27.242  28.429  1.00  0.00     0.054 A 
BRANCH  69  70
ATOM     70  S   UNL A   1      46.619  25.449  28.689  1.00  0.00     0.124 S 
ATOM     71  O   UNL A   1      47.162  24.974  27.418  1.00  0.00    -0.237 OA
ATOM     72  O   UNL A   1      47.509  25.317  29.841  1.00  0.00    -0.237 OA
ATOM     73  O   UNL A   1      45.224  25.093  28.940  1.00  0.00    -0.744 OA
ENDBRANCH  69  70
ENDBRANCH  50  64
BRANCH  51  74
ATOM     74  C   UNL A   1      45.915  39.874  26.852  1.00  0.00    -0.014 A 
ATOM     75  C   UNL A   1      46.228  40.728  27.925  1.00  0.00     0.010 A 
ATOM     76  C   UNL A   1      45.498  40.444  25.634  1.00  0.00     0.010 A 
ATOM     77  C   UNL A   1      46.108  42.116  27.789  1.00  0.00     0.020 A 
ATOM     78  C   UNL A   1      45.412  41.830  25.481  1.00  0.00     0.020 A 
ATOM     79  C   UNL A   1      45.705  42.659  26.565  1.00  0.00     0.054 A 
BRANCH  79  80
ATOM     80  S   UNL A   1      45.598  44.462  26.395  1.00  0.00     0.124 S 
ATOM     81  O   UNL A   1      46.994  44.831  26.182  1.00  0.00    -0.237 OA
ATOM     82  O   UNL A   1      44.719  44.617  25.238  1.00  0.00    -0.237 OA
ATOM     83  O   UNL A   1      45.023  44.893  27.667  1.00  0.00    -0.744 OA
ENDBRANCH  79  80
ENDBRANCH  51  74
BRANCH  63  84
ATOM     84  C   UNL A   1      51.035  35.204  25.965  1.00  0.00    -0.014 A 
ATOM     85  C   UNL A   1      51.418  35.184  24.612  1.00  0.00     0.010 A 
ATOM     86  C   UNL A   1      52.021  35.421  26.947  1.00  0.00     0.010 A 
ATOM     87  C   UNL A   1      52.758  35.358  24.249  1.00  0.00     0.020 A 
ATOM     88  C   UNL A   1      53.358  35.624  26.587  1.00  0.00     0.020 A 
ATOM     89  C   UNL A   1      53.720  35.582  25.240  1.00  0.00     0.054 A 
BRANCH  89  90
ATOM     90  S   UNL A   1      55.441  35.863  24.737  1.00  0.00     0.124 S 
ATOM     91  O   UNL A   1      55.869  34.523  24.349  1.00  0.00    -0.237 OA
ATOM     92  O   UNL A   1      55.302  36.821  23.641  1.00  0.00    -0.237 OA
ATOM     93  O   UNL A   1      56.073  36.394  25.943  1.00  0.00    -0.744 OA
ENDBRANCH  89  90
ENDBRANCH  63  84
ENDBRANCH  37  38
ENDBRANCH  30  32
ENDBRANCH  29  30
ENDBRANCH  28  29
ENDBRANCH  27  28
ENDBRANCH  26  27
ENDBRANCH  25  26
ENDBRANCH   1  25
TORSDOF 26
ENDMDL
MODEL 2
REMARK VINA RESULT:      -5.7      4.980     14.311
REMARK SMILES CC[NH2+][C@]1(C(=O)OCCOCCOCCOC(=O)c2ccc(-c3c4nc(c(-c5ccc(S(=O)(=O)[O-])cc5)c5ccc([nH]5)c(-c5ccc(S(=O)(=O)[O-])cc5)c5nc(c(-c6ccc(S(=O)(=O)[O-])cc6)c6ccc3[nH]6)C=C5)C=C4)cc2)CCC[C@H]1CCOC1CCC1
REMARK SMILES IDX 11 1 10 2 9 3 8 4 7 5 5 6 6 7 4 8 79 9 82 10 80 11 81 12
REMARK SMILES IDX 3 13 2 16 1 17 83 18 84 19 85 20 86 21 87 22 89 23 88 24
REMARK SMILES IDX 12 25 13 26 14 27 15 28 16 29 17 30 18 31 19 32 20 33 78 34
REMARK SMILES IDX 21 35 77 36 22 37 23 38 24 39 71 40 25 41 76 42 70 43 72 44
REMARK SMILES IDX 26 45 75 46 69 47 68 48 27 50 57 51 38 52 56 53 39 54 42 55
REMARK SMILES IDX 55 56 73 57 40 58 41 59 54 61 74 62 43 63 28 64 29 65 37 66
REMARK SMILES IDX 30 67 36 68 31 69 32 70 33 71 34 72 35 73 58 74 59 75 67 76
REMARK SMILES IDX 60 77 66 78 61 79 62 80 63 81 64 82 65 83 44 84 45 85 53 86
REMARK SMILES IDX 46 87 52 88 47 89 48 90 49 91 50 92 51 93
REMARK H PARENT 3 14 3 15 72 49 42 60
REMARK Flexibility Score: inf
ROOT
ATOM      1  C   UNL A   1      46.502  43.903  27.955  1.00  0.00     0.188 C 
ENDROOT
BRANCH   1   2
ATOM      2  O   UNL A   1      46.712  43.844  26.562  1.00  0.00    -0.376 OA
BRANCH   2   3
ATOM      3  C   UNL A   1      46.301  44.947  25.784  1.00  0.00     0.202 C 
BRANCH   3   4
ATOM      4  C   UNL A   1      45.199  44.842  24.707  1.00  0.00     0.261 C 
BRANCH   4   5
ATOM      5  O   UNL A   1      45.493  44.203  23.456  1.00  0.00    -0.459 OA
BRANCH   5   6
ATOM      6  C   UNL A   1      46.775  44.305  23.000  1.00  0.00     0.368 C 
ATOM      7  O   UNL A   1      47.694  43.640  23.464  1.00  0.00    -0.245 OA
BRANCH   6   8
ATOM      8  C   UNL A   1      46.929  45.298  21.804  1.00  0.00     0.197 C 
ATOM      9  C   UNL A   1      45.753  46.304  21.705  1.00  0.00     0.081 C 
ATOM     10  C   UNL A   1      48.133  46.278  21.929  1.00  0.00     0.065 C 
ATOM     11  C   UNL A   1      46.250  47.412  20.793  1.00  0.00     0.008 C 
ATOM     12  C   UNL A   1      47.722  47.551  21.141  1.00  0.00     0.011 C 
BRANCH   8  13
ATOM     13  N   UNL A   1      47.000  44.593  20.470  1.00  0.00    -0.332 N 
ATOM     14  H   UNL A   1      46.458  43.731  20.548  1.00  0.00     0.347 HD
ATOM     15  H   UNL A   1      46.641  45.266  19.794  1.00  0.00     0.347 HD
BRANCH  13  16
ATOM     16  C   UNL A   1      48.329  44.233  19.979  1.00  0.00     0.257 C 
ATOM     17  C   UNL A   1      48.629  42.768  20.245  1.00  0.00     0.071 C 
ENDBRANCH  13  16
ENDBRANCH   8  13
BRANCH  10  18
ATOM     18  C   UNL A   1      48.658  46.630  23.337  1.00  0.00     0.039 C 
BRANCH  18  19
ATOM     19  C   UNL A   1      50.049  47.294  23.404  1.00  0.00     0.161 C 
BRANCH  19  20
ATOM     20  O   UNL A   1      50.983  46.755  22.461  1.00  0.00    -0.378 OA
BRANCH  20  21
ATOM     21  C   UNL A   1      51.788  45.627  22.892  1.00  0.00     0.118 C 
ATOM     22  C   UNL A   1      51.242  44.239  22.434  1.00  0.00     0.032 C 
ATOM     23  C   UNL A   1      53.069  45.282  22.105  1.00  0.00     0.032 C 
ATOM     24  C   UNL A   1      52.683  43.793  22.212  1.00  0.00     0.005 C 
ENDBRANCH  20  21
ENDBRANCH  19  20
ENDBRANCH  18  19
ENDBRANCH  10  18
ENDBRANCH   6   8
ENDBRANCH   5   6
ENDBRANCH   4   5
ENDBRANCH   3   4
ENDBRANCH   2   3
ENDBRANCH   1   2
BRANCH   1  25
ATOM     25  C   UNL A   1      46.052  42.549  28.537  1.00  0.00     0.188 C 
BRANCH  25  26
ATOM     26  O   UNL A   1      46.972  41.736  29.251  1.00  0.00    -0.376 OA
BRANCH  26  27
ATOM     27  C   UNL A   1      46.689  40.351  29.353  1.00  0.00     0.202 C 
BRANCH  27  28
ATOM     28  C   UNL A   1      47.679  39.342  28.742  1.00  0.00     0.261 C 
BRANCH  28  29
ATOM     29  O   UNL A   1      47.192  37.995  28.556  1.00  0.00    -0.460 OA
BRANCH  29  30
ATOM     30  C   UNL A   1      47.807  37.272  27.576  1.00  0.00     0.338 C 
ATOM     31  O   UNL A   1      48.644  37.678  26.797  1.00  0.00    -0.246 OA
BRANCH  30  32
ATOM     32  C   UNL A   1      47.472  35.826  27.705  1.00  0.00     0.060 A 
ATOM     33  C   UNL A   1      46.979  35.160  26.576  1.00  0.00     0.016 A 
ATOM     34  C   UNL A   1      47.594  35.133  28.911  1.00  0.00     0.016 A 
ATOM     35  C   UNL A   1      46.618  33.808  26.647  1.00  0.00     0.010 A 
ATOM     36  C   UNL A   1      47.212  33.779  28.981  1.00  0.00     0.010 A 
ATOM     37  C   UNL A   1      46.723  33.102  27.849  1.00  0.00    -0.014 A 
BRANCH  37  38
ATOM     38  C   UNL A   1      46.235  31.696  27.937  1.00  0.00     0.031 A 
ATOM     39  C   UNL A   1      47.139  30.568  27.515  1.00  0.00     0.074 A 
ATOM     40  C   UNL A   1      45.008  31.402  28.416  1.00  0.00     0.049 A 
ATOM     41  N   UNL A   1      46.874  29.291  27.406  1.00  0.00    -0.248 NA
ATOM     42  C   UNL A   1      48.527  30.926  27.187  1.00  0.00     0.031 C 
ATOM     43  C   UNL A   1      44.066  32.366  28.978  1.00  0.00     0.029 A 
ATOM     44  N   UNL A   1      44.348  30.197  28.506  1.00  0.00    -0.354 N 
ATOM     45  C   UNL A   1      48.052  28.693  26.974  1.00  0.00     0.074 A 
ATOM     46  C   UNL A   1      49.039  29.748  26.859  1.00  0.00     0.031 C 
ATOM     47  C   UNL A   1      42.943  31.717  29.343  1.00  0.00     0.029 A 
ATOM     48  C   UNL A   1      43.061  30.303  28.985  1.00  0.00     0.049 A 
ATOM     49  H   UNL A   1      44.758  29.339  28.253  1.00  0.00     0.167 HD
ATOM     50  C   UNL A   1      48.289  27.394  26.672  1.00  0.00     0.031 A 
ATOM     51  C   UNL A   1      42.075  29.383  29.081  1.00  0.00     0.031 A 
ATOM     52  C   UNL A   1      47.305  26.345  26.739  1.00  0.00     0.049 A 
ATOM     53  C   UNL A   1      42.321  27.969  28.604  1.00  0.00     0.074 A 
ATOM     54  C   UNL A   1      47.453  25.007  26.412  1.00  0.00     0.029 A 
ATOM     55  N   UNL A   1      45.989  26.512  27.140  1.00  0.00    -0.354 N 
ATOM     56  N   UNL A   1      43.432  27.423  28.168  1.00  0.00    -0.248 NA
ATOM     57  C   UNL A   1      41.170  27.051  28.609  1.00  0.00     0.031 C 
ATOM     58  C   UNL A   1      46.209  24.383  26.545  1.00  0.00     0.029 A 
ATOM     59  C   UNL A   1      45.303  25.313  27.026  1.00  0.00     0.049 A 
ATOM     60  H   UNL A   1      45.598  27.359  27.459  1.00  0.00     0.167 HD
ATOM     61  C   UNL A   1      43.114  26.101  27.861  1.00  0.00     0.074 A 
ATOM     62  C   UNL A   1      41.716  25.919  28.186  1.00  0.00     0.031 C 
ATOM     63  C   UNL A   1      43.909  25.131  27.345  1.00  0.00     0.031 A 
BRANCH  50  64
ATOM     64  C   UNL A   1      49.656  27.045  26.146  1.00  0.00    -0.014 A 
ATOM     65  C   UNL A   1      49.941  27.051  24.770  1.00  0.00     0.010 A 
ATOM     66  C   UNL A   1      50.682  26.738  27.060  1.00  0.00     0.010 A 
ATOM     67  C   UNL A   1      51.220  26.719  24.315  1.00  0.00     0.020 A 
ATOM     68  C   UNL A   1      51.968  26.434  26.610  1.00  0.00     0.020 A 
ATOM     69  C   UNL A   1      52.225  26.411  25.238  1.00  0.00     0.054 A 
BRANCH  69  70
ATOM     70  S   UNL A   1      53.879  25.999  24.620  1.00  0.00     0.124 S 
ATOM     71  O   UNL A   1      53.844  26.559  23.270  1.00  0.00    -0.237 OA
ATOM     72  O   UNL A   1      54.754  26.690  25.564  1.00  0.00    -0.237 OA
ATOM     73  O   UNL A   1      53.924  24.540  24.687  1.00  0.00    -0.744 OA
ENDBRANCH  69  70
ENDBRANCH  50  64
BRANCH  51  74
ATOM     74  C   UNL A   1      40.719  29.774  29.568  1.00  0.00    -0.014 A 
ATOM     75  C   UNL A   1      39.673  30.044  28.667  1.00  0.00     0.010 A 
ATOM     76  C   UNL A   1      40.480  29.929  30.947  1.00  0.00     0.010 A 
ATOM     77  C   UNL A   1      38.425  30.479  29.132  1.00  0.00     0.020 A 
ATOM     78  C   UNL A   1      39.226  30.328  31.419  1.00  0.00     0.020 A 
ATOM     79  C   UNL A   1      38.209  30.613  30.507  1.00  0.00     0.054 A 
BRANCH  79  80
ATOM     80  S   UNL A   1      36.573  31.134  31.094  1.00  0.00     0.124 S 
ATOM     81  O   UNL A   1      35.777  31.070  29.873  1.00  0.00    -0.237 OA
ATOM     82  O   UNL A   1      36.266  30.126  32.105  1.00  0.00    -0.237 OA
ATOM     83  O   UNL A   1      36.810  32.478  31.617  1.00  0.00    -0.744 OA
ENDBRANCH  79  80
ENDBRANCH  51  74
BRANCH  63  84
ATOM     84  C   UNL A   1      43.304  23.768  27.106  1.00  0.00    -0.014 A 
ATOM     85  C   UNL A   1      42.915  23.357  25.818  1.00  0.00     0.010 A 
ATOM     86  C   UNL A   1      43.193  22.855  28.173  1.00  0.00     0.010 A 
ATOM     87  C   UNL A   1      42.410  22.070  25.605  1.00  0.00     0.020 A 
ATOM     88  C   UNL A   1      42.716  21.558  27.959  1.00  0.00     0.020 A 
ATOM     89  C   UNL A   1      42.318  21.176  26.677  1.00  0.00     0.054 A 
BRANCH  89  90
ATOM     90  S   UNL A   1      41.715  19.493  26.360  1.00  0.00     0.124 S 
ATOM     91  O   UNL A   1      42.020  18.817  27.617  1.00  0.00    -0.237 OA
ATOM     92  O   UNL A   1      40.294  19.708  26.090  1.00  0.00    -0.237 OA
ATOM     93  O   UNL A   1      42.501  19.054  25.209  1.00  0.00    -0.744 OA
ENDBRANCH  89  90
ENDBRANCH  63  84
ENDBRANCH  37  38
ENDBRANCH  30  32
ENDBRANCH  29  30
ENDBRANCH  28  29
ENDBRANCH  27  28
ENDBRANCH  26  27
ENDBRANCH  25  26
ENDBRANCH   1  25
TORSDOF 26
ENDMDL
MODEL 3
REMARK VINA RESULT:      -5.7      4.854     14.046
REMARK SMILES CC[NH2+][C@]1(C(=O)OCCOCCOCCOC(=O)c2ccc(-c3c4nc(c(-c5ccc(S(=O)(=O)[O-])cc5)c5ccc([nH]5)c(-c5ccc(S(=O)(=O)[O-])cc5)c5nc(c(-c6ccc(S(=O)(=O)[O-])cc6)c6ccc3[nH]6)C=C5)C=C4)cc2)CCC[C@H]1CCOC1CCC1
REMARK SMILES IDX 11 1 10 2 9 3 8 4 7 5 5 6 6 7 4 8 79 9 82 10 80 11 81 12
REMARK SMILES IDX 3 13 2 16 1 17 83 18 84 19 85 20 86 21 87 22 89 23 88 24
REMARK SMILES IDX 12 25 13 26 14 27 15 28 16 29 17 30 18 31 19 32 20 33 78 34
REMARK SMILES IDX 21 35 77 36 22 37 23 38 24 39 71 40 25 41 76 42 70 43 72 44
REMARK SMILES IDX 26 45 75 46 69 47 68 48 27 50 57 51 38 52 56 53 39 54 42 55
REMARK SMILES IDX 55 56 73 57 40 58 41 59 54 61 74 62 43 63 28 64 29 65 37 66
REMARK SMILES IDX 30 67 36 68 31 69 32 70 33 71 34 72 35 73 58 74 59 75 67 76
REMARK SMILES IDX 60 77 66 78 61 79 62 80 63 81 64 82 65 83 44 84 45 85 53 86
REMARK SMILES IDX 46 87 52 88 47 89 48 90 49 91 50 92 51 93
REMARK H PARENT 3 14 3 15 72 49 42 60
REMARK Flexibility Score: inf
ROOT
ATOM      1  C   UNL A   1      46.335  44.294  27.836  1.00  0.00     0.188 C 
ENDROOT
BRANCH   1   2
ATOM      2  O   UNL A   1      46.309  44.106  26.439  1.00  0.00    -0.376 OA
BRANCH   2   3
ATOM      3  C   UNL A   1      45.168  44.542  25.734  1.00  0.00     0.202 C 
BRANCH   3   4
ATOM      4  C   UNL A   1      44.364  43.616  24.795  1.00  0.00     0.261 C 
BRANCH   4   5
ATOM      5  O   UNL A   1      44.748  43.502  23.417  1.00  0.00    -0.459 OA
BRANCH   5   6
ATOM      6  C   UNL A   1      45.234  44.628  22.820  1.00  0.00     0.368 C 
ATOM      7  O   UNL A   1      44.695  45.722  22.940  1.00  0.00    -0.245 OA
BRANCH   6   8
ATOM      8  C   UNL A   1      46.562  44.387  22.032  1.00  0.00     0.197 C 
ATOM      9  C   UNL A   1      47.153  42.974  22.273  1.00  0.00     0.081 C 
ATOM     10  C   UNL A   1      46.401  44.370  20.483  1.00  0.00     0.065 C 
ATOM     11  C   UNL A   1      48.161  42.766  21.156  1.00  0.00     0.008 C 
ATOM     12  C   UNL A   1      47.534  43.451  19.954  1.00  0.00     0.011 C 
BRANCH   8  13
ATOM     13  N   UNL A   1      47.646  45.371  22.408  1.00  0.00    -0.332 N 
ATOM     14  H   UNL A   1      47.309  45.910  23.206  1.00  0.00     0.347 HD
ATOM     15  H   UNL A   1      48.470  44.800  22.592  1.00  0.00     0.347 HD
BRANCH  13  16
ATOM     16  C   UNL A   1      48.063  46.322  21.380  1.00  0.00     0.257 C 
ATOM     17  C   UNL A   1      48.123  47.734  21.937  1.00  0.00     0.071 C 
ENDBRANCH  13  16
ENDBRANCH   8  13
BRANCH  10  18
ATOM     18  C   UNL A   1      45.032  43.981  19.886  1.00  0.00     0.039 C 
BRANCH  18  19
ATOM     19  C   UNL A   1      44.633  44.686  18.573  1.00  0.00     0.161 C 
BRANCH  19  20
ATOM     20  O   UNL A   1      45.260  45.962  18.398  1.00  0.00    -0.378 OA
BRANCH  20  21
ATOM     21  C   UNL A   1      44.479  47.138  18.734  1.00  0.00     0.118 C 
ATOM     22  C   UNL A   1      45.161  48.084  19.771  1.00  0.00     0.032 C 
ATOM     23  C   UNL A   1      44.489  48.340  17.767  1.00  0.00     0.032 C 
ATOM     24  C   UNL A   1      44.605  49.271  18.991  1.00  0.00     0.005 C 
ENDBRANCH  20  21
ENDBRANCH  19  20
ENDBRANCH  18  19
ENDBRANCH  10  18
ENDBRANCH   6   8
ENDBRANCH   5   6
ENDBRANCH   4   5
ENDBRANCH   3   4
ENDBRANCH   2   3
ENDBRANCH   1   2
BRANCH   1  25
ATOM     25  C   UNL A   1      46.021  42.998  28.607  1.00  0.00     0.188 C 
BRANCH  25  26
ATOM     26  O   UNL A   1      47.057  42.298  29.281  1.00  0.00    -0.376 OA
BRANCH  26  27
ATOM     27  C   UNL A   1      46.835  40.935  29.602  1.00  0.00     0.202 C 
BRANCH  27  28
ATOM     28  C   UNL A   1      47.672  39.857  28.890  1.00  0.00     0.261 C 
BRANCH  28  29
ATOM     29  O   UNL A   1      47.031  38.580  28.681  1.00  0.00    -0.460 OA
BRANCH  29  30
ATOM     30  C   UNL A   1      47.482  37.858  27.614  1.00  0.00     0.338 C 
ATOM     31  O   UNL A   1      48.185  38.265  26.713  1.00  0.00    -0.246 OA
BRANCH  30  32
ATOM     32  C   UNL A   1      47.170  36.411  27.792  1.00  0.00     0.060 A 
ATOM     33  C   UNL A   1      47.057  35.615  26.645  1.00  0.00     0.016 A 
ATOM     34  C   UNL A   1      46.948  35.842  29.046  1.00  0.00     0.016 A 
ATOM     35  C   UNL A   1      46.735  34.256  26.750  1.00  0.00     0.010 A 
ATOM     36  C   UNL A   1      46.605  34.479  29.145  1.00  0.00     0.010 A 
ATOM     37  C   UNL A   1      46.499  33.672  27.998  1.00  0.00    -0.014 A 
BRANCH  37  38
ATOM     38  C   UNL A   1      46.051  32.252  28.088  1.00  0.00     0.031 A 
ATOM     39  C   UNL A   1      46.972  31.153  27.627  1.00  0.00     0.074 A 
ATOM     40  C   UNL A   1      44.849  31.921  28.602  1.00  0.00     0.049 A 
ATOM     41  N   UNL A   1      46.737  29.870  27.514  1.00  0.00    -0.248 NA
ATOM     42  C   UNL A   1      48.338  31.552  27.259  1.00  0.00     0.031 C 
ATOM     43  C   UNL A   1      43.898  32.853  29.203  1.00  0.00     0.029 A 
ATOM     44  N   UNL A   1      44.224  30.697  28.701  1.00  0.00    -0.354 N 
ATOM     45  C   UNL A   1      47.917  29.309  27.039  1.00  0.00     0.074 A 
ATOM     46  C   UNL A   1      48.871  30.390  26.904  1.00  0.00     0.031 C 
ATOM     47  C   UNL A   1      42.806  32.171  29.596  1.00  0.00     0.029 A 
ATOM     48  C   UNL A   1      42.950  30.764  29.221  1.00  0.00     0.049 A 
ATOM     49  H   UNL A   1      44.649  29.853  28.426  1.00  0.00     0.167 HD
ATOM     50  C   UNL A   1      48.179  28.019  26.717  1.00  0.00     0.031 A 
ATOM     51  C   UNL A   1      41.993  29.817  29.338  1.00  0.00     0.031 A 
ATOM     52  C   UNL A   1      47.226  26.943  26.804  1.00  0.00     0.049 A 
ATOM     53  C   UNL A   1      42.262  28.414  28.840  1.00  0.00     0.074 A 
ATOM     54  C   UNL A   1      47.400  25.613  26.460  1.00  0.00     0.029 A 
ATOM     55  N   UNL A   1      45.919  27.071  27.248  1.00  0.00    -0.354 N 
ATOM     56  N   UNL A   1      43.373  27.903  28.365  1.00  0.00    -0.248 NA
ATOM     57  C   UNL A   1      41.136  27.465  28.872  1.00  0.00     0.031 C 
ATOM     58  C   UNL A   1      46.178  24.954  26.626  1.00  0.00     0.029 A 
ATOM     59  C   UNL A   1      45.263  25.854  27.144  1.00  0.00     0.049 A 
ATOM     60  H   UNL A   1      45.516  27.903  27.587  1.00  0.00     0.167 HD
ATOM     61  C   UNL A   1      43.081  26.575  28.054  1.00  0.00     0.074 A 
ATOM     62  C   UNL A   1      41.700  26.353  28.422  1.00  0.00     0.031 C 
ATOM     63  C   UNL A   1      43.885  25.631  27.505  1.00  0.00     0.031 A 
BRANCH  50  64
ATOM     64  C   UNL A   1      49.538  27.712  26.146  1.00  0.00    -0.014 A 
ATOM     65  C   UNL A   1      49.865  28.021  24.814  1.00  0.00     0.010 A 
ATOM     66  C   UNL A   1      50.515  27.132  26.977  1.00  0.00     0.010 A 
ATOM     67  C   UNL A   1      51.135  27.720  24.314  1.00  0.00     0.020 A 
ATOM     68  C   UNL A   1      51.793  26.856  26.489  1.00  0.00     0.020 A 
ATOM     69  C   UNL A   1      52.090  27.137  25.154  1.00  0.00     0.054 A 
BRANCH  69  70
ATOM     70  S   UNL A   1      53.734  26.772  24.483  1.00  0.00     0.124 S 
ATOM     71  O   UNL A   1      53.823  27.718  23.372  1.00  0.00    -0.237 OA
ATOM     72  O   UNL A   1      54.612  27.051  25.617  1.00  0.00    -0.237 OA
ATOM     73  O   UNL A   1      53.649  25.366  24.095  1.00  0.00    -0.744 OA
ENDBRANCH  69  70
ENDBRANCH  50  64
BRANCH  51  74
ATOM     74  C   UNL A   1      40.643  30.166  29.872  1.00  0.00    -0.014 A 
ATOM     75  C   UNL A   1      39.526  30.254  29.021  1.00  0.00     0.010 A 
ATOM     76  C   UNL A   1      40.477  30.466  31.237  1.00  0.00     0.010 A 
ATOM     77  C   UNL A   1      38.279  30.652  29.519  1.00  0.00     0.020 A 
ATOM     78  C   UNL A   1      39.227  30.828  31.747  1.00  0.00     0.020 A 
ATOM     79  C   UNL A   1      38.138  30.932  30.882  1.00  0.00     0.054 A 
BRANCH  79  80
ATOM     80  S   UNL A   1      36.505  31.403  31.518  1.00  0.00     0.124 S 
ATOM     81  O   UNL A   1      35.885  32.012  30.346  1.00  0.00    -0.237 OA
ATOM     82  O   UNL A   1      35.948  30.118  31.934  1.00  0.00    -0.237 OA
ATOM     83  O   UNL A   1      36.815  32.322  32.611  1.00  0.00    -0.744 OA
ENDBRANCH  79  80
ENDBRANCH  51  74
BRANCH  63  84
ATOM     84  C   UNL A   1      43.309  24.255  27.272  1.00  0.00    -0.014 A 
ATOM     85  C   UNL A   1      42.647  23.934  26.073  1.00  0.00     0.010 A 
ATOM     86  C   UNL A   1      43.501  23.245  28.233  1.00  0.00     0.010 A 
ATOM     87  C   UNL A   1      42.171  22.638  25.849  1.00  0.00     0.020 A 
ATOM     88  C   UNL A   1      43.052  21.940  28.001  1.00  0.00     0.020 A 
ATOM     89  C   UNL A   1      42.381  21.647  26.813  1.00  0.00     0.054 A 
BRANCH  89  90
ATOM     90  S   UNL A   1      41.805  19.959  26.471  1.00  0.00     0.124 S 
ATOM     91  O   UNL A   1      41.998  19.303  27.760  1.00  0.00    -0.237 OA
ATOM     92  O   UNL A   1      40.414  20.171  26.075  1.00  0.00    -0.237 OA
ATOM     93  O   UNL A   1      42.688  19.502  25.400  1.00  0.00    -0.744 OA
ENDBRANCH  89  90
ENDBRANCH  63  84
ENDBRANCH  37  38
ENDBRANCH  30  32
ENDBRANCH  29  30
ENDBRANCH  28  29
ENDBRANCH  27  28
ENDBRANCH  26  27
ENDBRANCH  25  26
ENDBRANCH   1  25
TORSDOF 26
ENDMDL
