MODEL 1
REMARK VINA RESULT:     -12.1      0.000      0.000
REMARK SMILES COc1ccc(C)cc1[C@@H](C)NC(=O)CC1(C(=O)OCCOCCOCCOC(=O)c2ccc(-c3c4nc(c(-c5ccc(S(=O)(=O)[O-])cc5)c5ccc([nH]5)c(-c5ccc(S(=O)(=O)[O-])cc5)c5nc(c(-c6ccc(S(=O)(=O)[O-])cc6)c6ccc3[nH]6)C=C5)C=C4)cc2)CCCC1
REMARK SMILES IDX 23 1 22 2 21 3 20 4 19 5 17 6 18 7 16 8 91 9 94 10 92 11
REMARK SMILES IDX 93 12 15 13 13 14 12 15 14 17 10 18 11 19 9 20 3 21 4 22
REMARK SMILES IDX 5 23 8 24 6 25 7 26 2 27 1 28 24 29 25 30 26 31 27 32 28 33
REMARK SMILES IDX 29 34 30 35 31 36 32 37 90 38 33 39 89 40 34 41 35 42 36 43
REMARK SMILES IDX 83 44 37 45 88 46 82 47 84 48 38 49 87 50 81 51 80 52 39 54
REMARK SMILES IDX 69 55 50 56 68 57 51 58 54 59 67 60 85 61 52 62 53 63 66 65
REMARK SMILES IDX 86 66 55 67 40 68 41 69 49 70 42 71 48 72 43 73 44 74 45 75
REMARK SMILES IDX 46 76 47 77 70 78 71 79 79 80 72 81 78 82 73 83 74 84 75 85
REMARK SMILES IDX 76 86 77 87 56 88 57 89 65 90 58 91 64 92 59 93 60 94 61 95
REMARK SMILES IDX 62 96 63 97
REMARK H PARENT 12 16 84 53 54 64
REMARK Flexibility Score: inf
ROOT
ATOM      1  C   UNL A   1      36.410  31.503  29.764  1.00  0.00     0.188 C 
ENDROOT
BRANCH   1   2
ATOM      2  O   UNL A   1      36.057  31.764  28.389  1.00  0.00    -0.376 OA
BRANCH   2   3
ATOM      3  C   UNL A   1      34.888  31.147  27.829  1.00  0.00     0.202 C 
BRANCH   3   4
ATOM      4  C   UNL A   1      34.753  29.565  27.290  1.00  0.00     0.261 C 
BRANCH   4   5
ATOM      5  O   UNL A   1      33.674  28.944  26.107  1.00  0.00    -0.463 OA
BRANCH   5   6
ATOM      6  C   UNL A   1      33.185  28.441  24.828  1.00  0.00     0.312 C 
ATOM      7  O   UNL A   1      33.132  29.345  23.975  1.00  0.00    -0.252 OA
BRANCH   6   8
ATOM      8  C   UNL A   1      32.794  26.626  24.230  1.00  0.00     0.077 C 
ATOM      9  C   UNL A   1      31.933  26.162  22.947  1.00  0.00     0.019 C 
ATOM     10  C   UNL A   1      31.554  26.352  25.191  1.00  0.00     0.019 C 
ATOM     11  C   UNL A   1      30.514  26.677  23.036  1.00  0.00     0.001 C 
ATOM     12  C   UNL A   1      30.362  27.026  24.494  1.00  0.00     0.001 C 
BRANCH   8  13
ATOM     13  C   UNL A   1      34.033  25.219  24.053  1.00  0.00     0.118 C 
BRANCH  13  14
ATOM     14  C   UNL A   1      34.406  23.700  25.069  1.00  0.00     0.221 C 
ATOM     15  N   UNL A   1      35.743  23.225  25.696  1.00  0.00    -0.349 N 
ATOM     16  H   UNL A   1      35.490  22.671  26.469  1.00  0.00     0.164 HD
ATOM     17  O   UNL A   1      33.390  23.085  25.436  1.00  0.00    -0.275 OA
BRANCH  15  18
ATOM     18  C   UNL A   1      37.581  23.221  25.660  1.00  0.00     0.113 C 
ATOM     19  C   UNL A   1      37.543  21.768  25.090  1.00  0.00     0.036 C 
BRANCH  18  20
ATOM     20  C   UNL A   1      39.049  23.803  26.684  1.00  0.00     0.016 A 
ATOM     21  C   UNL A   1      40.383  23.224  26.791  1.00  0.00     0.124 A 
ATOM     22  C   UNL A   1      41.472  23.810  27.577  1.00  0.00     0.047 A 
ATOM     23  C   UNL A   1      41.413  24.958  28.312  1.00  0.00     0.007 A 
ATOM     24  C   UNL A   1      39.121  24.955  27.590  1.00  0.00     0.013 A 
ATOM     25  C   UNL A   1      40.203  25.549  28.340  1.00  0.00    -0.051 A 
ATOM     26  C   UNL A   1      40.041  26.872  29.039  1.00  0.00     0.044 C 
BRANCH  21  27
ATOM     27  O   UNL A   1      40.796  22.137  26.094  1.00  0.00    -0.496 OA
ATOM     28  C   UNL A   1      41.984  21.428  26.554  1.00  0.00     0.278 C 
ENDBRANCH  21  27
ENDBRANCH  18  20
ENDBRANCH  15  18
ENDBRANCH  13  14
ENDBRANCH   8  13
ENDBRANCH   6   8
ENDBRANCH   5   6
ENDBRANCH   4   5
ENDBRANCH   3   4
ENDBRANCH   2   3
ENDBRANCH   1   2
BRANCH   1  29
ATOM     29  C   UNL A   1      36.584  30.062  30.429  1.00  0.00     0.188 C 
BRANCH  29  30
ATOM     30  O   UNL A   1      36.339  30.031  31.851  1.00  0.00    -0.376 OA
BRANCH  30  31
ATOM     31  C   UNL A   1      36.616  31.153  32.750  1.00  0.00     0.202 C 
BRANCH  31  32
ATOM     32  C   UNL A   1      38.172  31.707  33.223  1.00  0.00     0.261 C 
BRANCH  32  33
ATOM     33  O   UNL A   1      38.899  32.252  34.626  1.00  0.00    -0.460 OA
BRANCH  33  34
ATOM     34  C   UNL A   1      39.790  32.822  35.562  1.00  0.00     0.338 C 
ATOM     35  O   UNL A   1      39.429  32.846  36.743  1.00  0.00    -0.246 OA
BRANCH  34  36
ATOM     36  C   UNL A   1      41.263  33.321  35.328  1.00  0.00     0.060 A 
ATOM     37  C   UNL A   1      41.573  34.607  35.090  1.00  0.00     0.016 A 
ATOM     38  C   UNL A   1      42.487  32.668  35.367  1.00  0.00     0.016 A 
ATOM     39  C   UNL A   1      42.718  34.806  34.227  1.00  0.00     0.010 A 
ATOM     40  C   UNL A   1      43.399  32.768  34.196  1.00  0.00     0.010 A 
ATOM     41  C   UNL A   1      43.257  33.745  33.216  1.00  0.00    -0.014 A 
BRANCH  41  42
ATOM     42  C   UNL A   1      43.536  33.795  31.269  1.00  0.00     0.031 A 
ATOM     43  C   UNL A   1      44.686  32.694  30.221  1.00  0.00     0.074 A 
ATOM     44  C   UNL A   1      43.279  34.823  30.277  1.00  0.00     0.049 A 
ATOM     45  N   UNL A   1      45.264  32.975  29.049  1.00  0.00    -0.248 NA
ATOM     46  C   UNL A   1      45.169  31.203  30.447  1.00  0.00     0.031 C 
ATOM     47  C   UNL A   1      43.314  34.659  28.799  1.00  0.00     0.029 A 
ATOM     48  N   UNL A   1      42.947  36.225  30.273  1.00  0.00    -0.354 N 
ATOM     49  C   UNL A   1      45.695  31.761  28.453  1.00  0.00     0.074 A 
ATOM     50  C   UNL A   1      45.966  30.866  29.489  1.00  0.00     0.031 C 
ATOM     51  C   UNL A   1      43.145  35.795  28.132  1.00  0.00     0.029 A 
ATOM     52  C   UNL A   1      43.260  36.855  29.067  1.00  0.00     0.049 A 
ATOM     53  H   UNL A   1      42.542  36.689  31.040  1.00  0.00     0.167 HD
ATOM     54  C   UNL A   1      45.568  31.358  27.159  1.00  0.00     0.031 A 
ATOM     55  C   UNL A   1      43.861  38.046  28.785  1.00  0.00     0.031 A 
ATOM     56  C   UNL A   1      45.472  32.478  26.281  1.00  0.00     0.049 A 
ATOM     57  C   UNL A   1      44.996  37.898  27.765  1.00  0.00     0.074 A 
ATOM     58  C   UNL A   1      44.542  32.979  25.400  1.00  0.00     0.029 A 
ATOM     59  N   UNL A   1      46.453  33.437  26.430  1.00  0.00    -0.354 N 
ATOM     60  N   UNL A   1      45.211  36.816  27.062  1.00  0.00    -0.248 NA
ATOM     61  C   UNL A   1      46.035  38.897  27.504  1.00  0.00     0.031 C 
ATOM     62  C   UNL A   1      44.920  34.329  25.129  1.00  0.00     0.029 A 
ATOM     63  C   UNL A   1      46.113  34.596  25.781  1.00  0.00     0.049 A 
ATOM     64  H   UNL A   1      47.288  33.307  26.936  1.00  0.00     0.167 HD
ATOM     65  C   UNL A   1      46.446  36.858  26.472  1.00  0.00     0.074 A 
ATOM     66  C   UNL A   1      46.888  38.216  26.712  1.00  0.00     0.031 C 
ATOM     67  C   UNL A   1      47.012  35.738  25.922  1.00  0.00     0.031 A 
BRANCH  54  68
ATOM     68  C   UNL A   1      45.490  29.864  26.758  1.00  0.00    -0.014 A 
ATOM     69  C   UNL A   1      44.267  29.177  26.656  1.00  0.00     0.010 A 
ATOM     70  C   UNL A   1      46.646  29.064  26.518  1.00  0.00     0.010 A 
ATOM     71  C   UNL A   1      44.204  27.807  26.286  1.00  0.00     0.020 A 
ATOM     72  C   UNL A   1      46.597  27.724  26.092  1.00  0.00     0.020 A 
ATOM     73  C   UNL A   1      45.370  27.092  25.992  1.00  0.00     0.054 A 
BRANCH  73  74
ATOM     74  S   UNL A   1      45.287  25.337  25.510  1.00  0.00     0.124 S 
ATOM     75  O   UNL A   1      45.618  24.657  26.759  1.00  0.00    -0.237 OA
ATOM     76  O   UNL A   1      43.908  25.186  25.055  1.00  0.00    -0.237 OA
ATOM     77  O   UNL A   1      46.296  25.217  24.458  1.00  0.00    -0.744 OA
ENDBRANCH  73  74
ENDBRANCH  54  68
BRANCH  55  78
ATOM     78  C   UNL A   1      43.646  39.138  29.765  1.00  0.00    -0.014 A 
ATOM     79  C   UNL A   1      44.613  39.251  30.791  1.00  0.00     0.010 A 
ATOM     80  C   UNL A   1      42.844  40.245  29.479  1.00  0.00     0.010 A 
ATOM     81  C   UNL A   1      44.944  40.496  31.331  1.00  0.00     0.020 A 
ATOM     82  C   UNL A   1      43.178  41.501  30.013  1.00  0.00     0.020 A 
ATOM     83  C   UNL A   1      44.284  41.626  30.859  1.00  0.00     0.054 A 
BRANCH  83  84
ATOM     84  S   UNL A   1      45.083  43.258  31.008  1.00  0.00     0.124 S 
ATOM     85  O   UNL A   1      44.509  43.780  32.243  1.00  0.00    -0.237 OA
ATOM     86  O   UNL A   1      46.508  42.933  31.063  1.00  0.00    -0.237 OA
ATOM     87  O   UNL A   1      44.660  43.903  29.764  1.00  0.00    -0.744 OA
ENDBRANCH  83  84
ENDBRANCH  55  78
BRANCH  67  88
ATOM     88  C   UNL A   1      48.475  35.547  25.527  1.00  0.00    -0.014 A 
ATOM     89  C   UNL A   1      49.211  34.371  25.736  1.00  0.00     0.010 A 
ATOM     90  C   UNL A   1      49.132  36.566  24.783  1.00  0.00     0.010 A 
ATOM     91  C   UNL A   1      50.542  34.247  25.300  1.00  0.00     0.020 A 
ATOM     92  C   UNL A   1      50.434  36.430  24.286  1.00  0.00     0.020 A 
ATOM     93  C   UNL A   1      51.150  35.282  24.588  1.00  0.00     0.054 A 
BRANCH  93  94
ATOM     94  S   UNL A   1      52.868  35.118  24.039  1.00  0.00     0.124 S 
ATOM     95  O   UNL A   1      53.339  36.499  24.115  1.00  0.00    -0.237 OA
ATOM     96  O   UNL A   1      53.444  34.204  25.024  1.00  0.00    -0.237 OA
ATOM     97  O   UNL A   1      52.747  34.571  22.689  1.00  0.00    -0.744 OA
ENDBRANCH  93  94
ENDBRANCH  67  88
ENDBRANCH  41  42
ENDBRANCH  34  36
ENDBRANCH  33  34
ENDBRANCH  32  33
ENDBRANCH  31  32
ENDBRANCH  30  31
ENDBRANCH  29  30
ENDBRANCH   1  29
TORSDOF 25
ENDMDL
MODEL 2
REMARK VINA RESULT:     -11.8      5.077     12.756
REMARK SMILES COc1ccc(C)cc1[C@@H](C)NC(=O)CC1(C(=O)OCCOCCOCCOC(=O)c2ccc(-c3c4nc(c(-c5ccc(S(=O)(=O)[O-])cc5)c5ccc([nH]5)c(-c5ccc(S(=O)(=O)[O-])cc5)c5nc(c(-c6ccc(S(=O)(=O)[O-])cc6)c6ccc3[nH]6)C=C5)C=C4)cc2)CCCC1
REMARK SMILES IDX 23 1 22 2 21 3 20 4 19 5 17 6 18 7 16 8 91 9 94 10 92 11
REMARK SMILES IDX 93 12 15 13 13 14 12 15 14 17 10 18 11 19 9 20 3 21 4 22
REMARK SMILES IDX 5 23 8 24 6 25 7 26 2 27 1 28 24 29 25 30 26 31 27 32 28 33
REMARK SMILES IDX 29 34 30 35 31 36 32 37 90 38 33 39 89 40 34 41 35 42 36 43
REMARK SMILES IDX 83 44 37 45 88 46 82 47 84 48 38 49 87 50 81 51 80 52 39 54
REMARK SMILES IDX 69 55 50 56 68 57 51 58 54 59 67 60 85 61 52 62 53 63 66 65
REMARK SMILES IDX 86 66 55 67 40 68 41 69 49 70 42 71 48 72 43 73 44 74 45 75
REMARK SMILES IDX 46 76 47 77 70 78 71 79 79 80 72 81 78 82 73 83 74 84 75 85
REMARK SMILES IDX 76 86 77 87 56 88 57 89 65 90 58 91 64 92 59 93 60 94 61 95
REMARK SMILES IDX 62 96 63 97
REMARK H PARENT 12 16 84 53 54 64
REMARK Flexibility Score: inf
ROOT
ATOM      1  C   UNL A   1      44.199  32.944  29.139  1.00  0.00     0.188 C 
ENDROOT
BRANCH   1   2
ATOM      2  O   UNL A   1      43.260  32.928  30.235  1.00  0.00    -0.376 OA
BRANCH   2   3
ATOM      3  C   UNL A   1      41.899  33.324  30.007  1.00  0.00     0.202 C 
BRANCH   3   4
ATOM      4  C   UNL A   1      41.357  34.862  29.616  1.00  0.00     0.261 C 
BRANCH   4   5
ATOM      5  O   UNL A   1      41.781  35.812  28.250  1.00  0.00    -0.463 OA
BRANCH   5   6
ATOM      6  C   UNL A   1      42.602  36.536  27.286  1.00  0.00     0.312 C 
ATOM      7  O   UNL A   1      42.483  36.062  26.142  1.00  0.00    -0.252 OA
BRANCH   6   8
ATOM      8  C   UNL A   1      43.664  38.162  27.473  1.00  0.00     0.077 C 
ATOM      9  C   UNL A   1      43.599  39.265  28.649  1.00  0.00     0.019 C 
ATOM     10  C   UNL A   1      42.789  39.093  26.522  1.00  0.00     0.019 C 
ATOM     11  C   UNL A   1      42.223  39.887  28.730  1.00  0.00     0.001 C 
ATOM     12  C   UNL A   1      41.611  39.551  27.395  1.00  0.00     0.001 C 
BRANCH   8  13
ATOM     13  C   UNL A   1      45.531  38.304  27.284  1.00  0.00     0.118 C 
BRANCH  13  14
ATOM     14  C   UNL A   1      46.948  38.315  28.498  1.00  0.00     0.221 C 
ATOM     15  N   UNL A   1      47.151  39.160  29.783  1.00  0.00    -0.349 N 
ATOM     16  H   UNL A   1      47.745  38.626  30.359  1.00  0.00     0.164 HD
ATOM     17  O   UNL A   1      47.750  37.379  28.335  1.00  0.00    -0.275 OA
BRANCH  15  18
ATOM     18  C   UNL A   1      46.794  40.697  30.725  1.00  0.00     0.113 C 
ATOM     19  C   UNL A   1      46.860  39.873  32.050  1.00  0.00     0.036 C 
BRANCH  18  20
ATOM     20  C   UNL A   1      45.727  42.243  30.620  1.00  0.00     0.016 A 
ATOM     21  C   UNL A   1      44.705  42.720  31.544  1.00  0.00     0.124 A 
ATOM     22  C   UNL A   1      43.980  43.984  31.387  1.00  0.00     0.047 A 
ATOM     23  C   UNL A   1      44.142  44.890  30.380  1.00  0.00     0.007 A 
ATOM     24  C   UNL A   1      45.712  43.263  29.566  1.00  0.00     0.013 A 
ATOM     25  C   UNL A   1      45.020  44.523  29.426  1.00  0.00    -0.051 A 
ATOM     26  C   UNL A   1      45.352  45.484  28.316  1.00  0.00     0.044 C 
BRANCH  21  27
ATOM     27  O   UNL A   1      44.383  42.100  32.706  1.00  0.00    -0.496 OA
ATOM     28  C   UNL A   1      43.148  42.481  33.378  1.00  0.00     0.278 C 
ENDBRANCH  21  27
ENDBRANCH  18  20
ENDBRANCH  15  18
ENDBRANCH  13  14
ENDBRANCH   8  13
ENDBRANCH   6   8
ENDBRANCH   5   6
ENDBRANCH   4   5
ENDBRANCH   3   4
ENDBRANCH   2   3
ENDBRANCH   1   2
BRANCH   1  29
ATOM     29  C   UNL A   1      45.389  33.989  28.940  1.00  0.00     0.188 C 
BRANCH  29  30
ATOM     30  O   UNL A   1      45.060  35.342  29.319  1.00  0.00    -0.376 OA
BRANCH  30  31
ATOM     31  C   UNL A   1      45.306  35.897  30.651  1.00  0.00     0.202 C 
BRANCH  31  32
ATOM     32  C   UNL A   1      44.362  37.102  31.434  1.00  0.00     0.261 C 
BRANCH  32  33
ATOM     33  O   UNL A   1      43.642  37.308  32.928  1.00  0.00    -0.460 OA
BRANCH  33  34
ATOM     34  C   UNL A   1      43.200  37.832  34.163  1.00  0.00     0.338 C 
ATOM     35  O   UNL A   1      43.313  39.050  34.332  1.00  0.00    -0.246 OA
BRANCH  34  36
ATOM     36  C   UNL A   1      42.450  37.085  35.326  1.00  0.00     0.060 A 
ATOM     37  C   UNL A   1      43.055  36.212  36.149  1.00  0.00     0.016 A 
ATOM     38  C   UNL A   1      41.147  37.165  35.799  1.00  0.00     0.016 A 
ATOM     39  C   UNL A   1      42.210  35.137  36.622  1.00  0.00     0.010 A 
ATOM     40  C   UNL A   1      40.339  35.922  35.913  1.00  0.00     0.010 A 
ATOM     41  C   UNL A   1      40.910  34.654  35.904  1.00  0.00    -0.014 A 
BRANCH  41  42
ATOM     42  C   UNL A   1      40.365  32.902  35.193  1.00  0.00     0.031 A 
ATOM     43  C   UNL A   1      41.484  31.457  34.650  1.00  0.00     0.074 A 
ATOM     44  C   UNL A   1      39.130  32.442  34.585  1.00  0.00     0.049 A 
ATOM     45  N   UNL A   1      41.226  30.497  33.757  1.00  0.00    -0.248 NA
ATOM     46  C   UNL A   1      42.919  31.021  35.157  1.00  0.00     0.031 C 
ATOM     47  C   UNL A   1      38.752  31.032  34.300  1.00  0.00     0.029 A 
ATOM     48  N   UNL A   1      37.927  33.037  34.061  1.00  0.00    -0.354 N 
ATOM     49  C   UNL A   1      42.146  29.434  33.954  1.00  0.00     0.074 A 
ATOM     50  C   UNL A   1      43.310  29.989  34.488  1.00  0.00     0.031 C 
ATOM     51  C   UNL A   1      37.606  30.910  33.638  1.00  0.00     0.029 A 
ATOM     52  C   UNL A   1      37.247  32.201  33.173  1.00  0.00     0.049 A 
ATOM     53  H   UNL A   1      37.618  33.939  34.303  1.00  0.00     0.167 HD
ATOM     54  C   UNL A   1      41.903  28.094  33.975  1.00  0.00     0.031 A 
ATOM     55  C   UNL A   1      36.666  32.431  31.962  1.00  0.00     0.031 A 
ATOM     56  C   UNL A   1      40.740  27.772  33.215  1.00  0.00     0.049 A 
ATOM     57  C   UNL A   1      37.106  31.412  30.903  1.00  0.00     0.074 A 
ATOM     58  C   UNL A   1      39.510  27.210  33.463  1.00  0.00     0.029 A 
ATOM     59  N   UNL A   1      40.706  28.284  31.934  1.00  0.00    -0.354 N 
ATOM     60  N   UNL A   1      37.762  30.314  31.173  1.00  0.00    -0.248 NA
ATOM     61  C   UNL A   1      36.935  31.568  29.457  1.00  0.00     0.031 C 
ATOM     62  C   UNL A   1      38.683  27.522  32.341  1.00  0.00     0.029 A 
ATOM     63  C   UNL A   1      39.446  28.193  31.399  1.00  0.00     0.049 A 
ATOM     64  H   UNL A   1      41.483  28.666  31.465  1.00  0.00     0.167 HD
ATOM     65  C   UNL A   1      38.278  29.763  30.030  1.00  0.00     0.074 A 
ATOM     66  C   UNL A   1      37.663  30.541  28.975  1.00  0.00     0.031 C 
ATOM     67  C   UNL A   1      39.229  28.778  30.079  1.00  0.00     0.031 A 
BRANCH  54  68
ATOM     68  C   UNL A   1      42.780  27.104  34.780  1.00  0.00    -0.014 A 
ATOM     69  C   UNL A   1      43.646  26.189  34.155  1.00  0.00     0.010 A 
ATOM     70  C   UNL A   1      42.734  27.005  36.202  1.00  0.00     0.010 A 
ATOM     71  C   UNL A   1      44.449  25.284  34.900  1.00  0.00     0.020 A 
ATOM     72  C   UNL A   1      43.566  26.158  36.957  1.00  0.00     0.020 A 
ATOM     73  C   UNL A   1      44.415  25.284  36.299  1.00  0.00     0.054 A 
BRANCH  73  74
ATOM     74  S   UNL A   1      45.450  24.129  37.255  1.00  0.00     0.124 S 
ATOM     75  O   UNL A   1      46.748  24.797  37.245  1.00  0.00    -0.237 OA
ATOM     76  O   UNL A   1      44.776  24.079  38.549  1.00  0.00    -0.237 OA
ATOM     77  O   UNL A   1      45.391  22.888  36.484  1.00  0.00    -0.744 OA
ENDBRANCH  73  74
ENDBRANCH  54  68
BRANCH  55  78
ATOM     78  C   UNL A   1      36.099  33.784  31.752  1.00  0.00    -0.014 A 
ATOM     79  C   UNL A   1      35.365  33.972  30.558  1.00  0.00     0.010 A 
ATOM     80  C   UNL A   1      35.893  34.674  32.810  1.00  0.00     0.010 A 
ATOM     81  C   UNL A   1      34.283  34.854  30.513  1.00  0.00     0.020 A 
ATOM     82  C   UNL A   1      34.801  35.558  32.772  1.00  0.00     0.020 A 
ATOM     83  C   UNL A   1      33.952  35.568  31.660  1.00  0.00     0.054 A 
BRANCH  83  84
ATOM     84  S   UNL A   1      32.251  36.184  31.874  1.00  0.00     0.124 S 
ATOM     85  O   UNL A   1      31.608  35.095  32.602  1.00  0.00    -0.237 OA
ATOM     86  O   UNL A   1      32.431  37.424  32.628  1.00  0.00    -0.237 OA
ATOM     87  O   UNL A   1      31.835  36.379  30.484  1.00  0.00    -0.744 OA
ENDBRANCH  83  84
ENDBRANCH  55  78
BRANCH  67  88
ATOM     88  C   UNL A   1      40.117  28.300  28.933  1.00  0.00    -0.014 A 
ATOM     89  C   UNL A   1      39.781  27.276  28.036  1.00  0.00     0.010 A 
ATOM     90  C   UNL A   1      41.322  29.002  28.649  1.00  0.00     0.010 A 
ATOM     91  C   UNL A   1      40.627  26.921  26.970  1.00  0.00     0.020 A 
ATOM     92  C   UNL A   1      42.141  28.703  27.553  1.00  0.00     0.020 A 
ATOM     93  C   UNL A   1      41.808  27.629  26.742  1.00  0.00     0.054 A 
BRANCH  93  94
ATOM     94  S   UNL A   1      42.897  27.160  25.373  1.00  0.00     0.124 S 
ATOM     95  O   UNL A   1      42.564  25.748  25.198  1.00  0.00    -0.237 OA
ATOM     96  O   UNL A   1      42.468  28.043  24.291  1.00  0.00    -0.237 OA
ATOM     97  O   UNL A   1      44.236  27.428  25.892  1.00  0.00    -0.744 OA
ENDBRANCH  93  94
ENDBRANCH  67  88
ENDBRANCH  41  42
ENDBRANCH  34  36
ENDBRANCH  33  34
ENDBRANCH  32  33
ENDBRANCH  31  32
ENDBRANCH  30  31
ENDBRANCH  29  30
ENDBRANCH   1  29
TORSDOF 25
ENDMDL
MODEL 3
REMARK VINA RESULT:     -11.7      5.497     13.166
REMARK SMILES COc1ccc(C)cc1[C@@H](C)NC(=O)CC1(C(=O)OCCOCCOCCOC(=O)c2ccc(-c3c4nc(c(-c5ccc(S(=O)(=O)[O-])cc5)c5ccc([nH]5)c(-c5ccc(S(=O)(=O)[O-])cc5)c5nc(c(-c6ccc(S(=O)(=O)[O-])cc6)c6ccc3[nH]6)C=C5)C=C4)cc2)CCCC1
REMARK SMILES IDX 23 1 22 2 21 3 20 4 19 5 17 6 18 7 16 8 91 9 94 10 92 11
REMARK SMILES IDX 93 12 15 13 13 14 12 15 14 17 10 18 11 19 9 20 3 21 4 22
REMARK SMILES IDX 5 23 8 24 6 25 7 26 2 27 1 28 24 29 25 30 26 31 27 32 28 33
REMARK SMILES IDX 29 34 30 35 31 36 32 37 90 38 33 39 89 40 34 41 35 42 36 43
REMARK SMILES IDX 83 44 37 45 88 46 82 47 84 48 38 49 87 50 81 51 80 52 39 54
REMARK SMILES IDX 69 55 50 56 68 57 51 58 54 59 67 60 85 61 52 62 53 63 66 65
REMARK SMILES IDX 86 66 55 67 40 68 41 69 49 70 42 71 48 72 43 73 44 74 45 75
REMARK SMILES IDX 46 76 47 77 70 78 71 79 79 80 72 81 78 82 73 83 74 84 75 85
REMARK SMILES IDX 76 86 77 87 56 88 57 89 65 90 58 91 64 92 59 93 60 94 61 95
REMARK SMILES IDX 62 96 63 97
REMARK H PARENT 12 16 84 53 54 64
REMARK Flexibility Score: inf
ROOT
ATOM      1  C   UNL A   1      45.397  32.931  29.321  1.00  0.00     0.188 C 
ENDROOT
BRANCH   1   2
ATOM      2  O   UNL A   1      44.106  33.310  29.844  1.00  0.00    -0.376 OA
BRANCH   2   3
ATOM      3  C   UNL A   1      43.225  34.110  29.044  1.00  0.00     0.202 C 
BRANCH   3   4
ATOM      4  C   UNL A   1      42.715  35.673  29.376  1.00  0.00     0.261 C 
BRANCH   4   5
ATOM      5  O   UNL A   1      43.080  37.108  28.505  1.00  0.00    -0.463 OA
BRANCH   5   6
ATOM      6  C   UNL A   1      43.050  38.117  27.452  1.00  0.00     0.312 C 
ATOM      7  O   UNL A   1      42.381  37.735  26.476  1.00  0.00    -0.252 OA
BRANCH   6   8
ATOM      8  C   UNL A   1      43.713  39.952  27.418  1.00  0.00     0.077 C 
ATOM      9  C   UNL A   1      45.207  40.478  27.725  1.00  0.00     0.019 C 
ATOM     10  C   UNL A   1      43.240  40.372  28.879  1.00  0.00     0.019 C 
ATOM     11  C   UNL A   1      45.628  40.116  29.131  1.00  0.00     0.001 C 
ATOM     12  C   UNL A   1      44.321  39.813  29.817  1.00  0.00     0.001 C 
BRANCH   8  13
ATOM     13  C   UNL A   1      43.421  41.218  26.055  1.00  0.00     0.118 C 
BRANCH  13  14
ATOM     14  C   UNL A   1      42.002  41.549  24.892  1.00  0.00     0.221 C 
ATOM     15  N   UNL A   1      42.008  42.124  23.451  1.00  0.00    -0.349 N 
ATOM     16  H   UNL A   1      41.198  41.768  23.020  1.00  0.00     0.164 HD
ATOM     17  O   UNL A   1      40.921  41.066  25.274  1.00  0.00    -0.275 OA
BRANCH  15  18
ATOM     18  C   UNL A   1      42.832  43.165  22.179  1.00  0.00     0.113 C 
ATOM     19  C   UNL A   1      41.687  42.807  21.178  1.00  0.00     0.036 C 
BRANCH  18  20
ATOM     20  C   UNL A   1      44.554  43.581  21.544  1.00  0.00     0.016 A 
ATOM     21  C   UNL A   1      45.842  43.036  21.954  1.00  0.00     0.124 A 
ATOM     22  C   UNL A   1      47.121  43.395  21.335  1.00  0.00     0.047 A 
ATOM     23  C   UNL A   1      47.304  44.269  20.304  1.00  0.00     0.007 A 
ATOM     24  C   UNL A   1      44.927  44.556  20.514  1.00  0.00     0.013 A 
ATOM     25  C   UNL A   1      46.184  44.888  19.882  1.00  0.00    -0.051 A 
ATOM     26  C   UNL A   1      46.247  45.801  18.689  1.00  0.00     0.044 C 
BRANCH  21  27
ATOM     27  O   UNL A   1      45.993  42.061  22.885  1.00  0.00    -0.496 OA
ATOM     28  C   UNL A   1      47.055  41.082  22.699  1.00  0.00     0.278 C 
ENDBRANCH  21  27
ENDBRANCH  18  20
ENDBRANCH  15  18
ENDBRANCH  13  14
ENDBRANCH   8  13
ENDBRANCH   6   8
ENDBRANCH   5   6
ENDBRANCH   4   5
ENDBRANCH   3   4
ENDBRANCH   2   3
ENDBRANCH   1   2
BRANCH   1  29
ATOM     29  C   UNL A   1      46.797  33.104  30.066  1.00  0.00     0.188 C 
BRANCH  29  30
ATOM     30  O   UNL A   1      46.891  34.286  30.888  1.00  0.00    -0.376 OA
BRANCH  30  31
ATOM     31  C   UNL A   1      46.400  34.361  32.265  1.00  0.00     0.202 C 
BRANCH  31  32
ATOM     32  C   UNL A   1      46.077  35.802  33.145  1.00  0.00     0.261 C 
BRANCH  32  33
ATOM     33  O   UNL A   1      44.925  36.336  34.232  1.00  0.00    -0.460 OA
BRANCH  33  34
ATOM     34  C   UNL A   1      44.256  36.978  35.297  1.00  0.00     0.338 C 
ATOM     35  O   UNL A   1      44.753  38.023  35.729  1.00  0.00    -0.246 OA
BRANCH  34  36
ATOM     36  C   UNL A   1      42.867  36.611  35.938  1.00  0.00     0.060 A 
ATOM     37  C   UNL A   1      42.743  35.832  37.026  1.00  0.00     0.016 A 
ATOM     38  C   UNL A   1      41.569  36.997  35.635  1.00  0.00     0.016 A 
ATOM     39  C   UNL A   1      41.542  35.027  37.062  1.00  0.00     0.010 A 
ATOM     40  C   UNL A   1      40.537  35.952  35.403  1.00  0.00     0.010 A 
ATOM     41  C   UNL A   1      40.706  34.630  35.805  1.00  0.00    -0.014 A 
BRANCH  41  42
ATOM     42  C   UNL A   1      40.181  32.886  35.061  1.00  0.00     0.031 A 
ATOM     43  C   UNL A   1      41.317  31.462  34.497  1.00  0.00     0.074 A 
ATOM     44  C   UNL A   1      38.953  32.425  34.439  1.00  0.00     0.049 A 
ATOM     45  N   UNL A   1      41.073  30.516  33.586  1.00  0.00    -0.248 NA
ATOM     46  C   UNL A   1      42.754  31.032  35.004  1.00  0.00     0.031 C 
ATOM     47  C   UNL A   1      38.591  31.016  34.127  1.00  0.00     0.029 A 
ATOM     48  N   UNL A   1      37.747  33.018  33.920  1.00  0.00    -0.354 N 
ATOM     49  C   UNL A   1      42.002  29.458  33.769  1.00  0.00     0.074 A 
ATOM     50  C   UNL A   1      43.158  30.016  34.318  1.00  0.00     0.031 C 
ATOM     51  C   UNL A   1      37.450  30.895  33.457  1.00  0.00     0.029 A 
ATOM     52  C   UNL A   1      37.080  32.190  33.014  1.00  0.00     0.049 A 
ATOM     53  H   UNL A   1      37.427  33.912  34.176  1.00  0.00     0.167 HD
ATOM     54  C   UNL A   1      41.773  28.117  33.765  1.00  0.00     0.031 A 
ATOM     55  C   UNL A   1      36.501  32.436  31.804  1.00  0.00     0.031 A 
ATOM     56  C   UNL A   1      40.617  27.796  32.994  1.00  0.00     0.049 A 
ATOM     57  C   UNL A   1      36.956  31.441  30.729  1.00  0.00     0.074 A 
ATOM     58  C   UNL A   1      39.391  27.217  33.226  1.00  0.00     0.029 A 
ATOM     59  N   UNL A   1      40.583  28.331  31.722  1.00  0.00    -0.354 N 
ATOM     60  N   UNL A   1      37.623  30.345  30.983  1.00  0.00    -0.248 NA
ATOM     61  C   UNL A   1      36.791  31.620  29.285  1.00  0.00     0.031 C 
ATOM     62  C   UNL A   1      38.566  27.542  32.106  1.00  0.00     0.029 A 
ATOM     63  C   UNL A   1      39.327  28.237  31.180  1.00  0.00     0.049 A 
ATOM     64  H   UNL A   1      41.358  28.729  31.263  1.00  0.00     0.167 HD
ATOM     65  C   UNL A   1      38.149  29.819  29.833  1.00  0.00     0.074 A 
ATOM     66  C   UNL A   1      37.531  30.609  28.789  1.00  0.00     0.031 C 
ATOM     67  C   UNL A   1      39.109  28.843  29.869  1.00  0.00     0.031 A 
BRANCH  54  68
ATOM     68  C   UNL A   1      42.656  27.120  34.556  1.00  0.00    -0.014 A 
ATOM     69  C   UNL A   1      42.381  26.770  35.890  1.00  0.00     0.010 A 
ATOM     70  C   UNL A   1      43.838  26.533  34.016  1.00  0.00     0.010 A 
ATOM     71  C   UNL A   1      43.196  25.854  36.609  1.00  0.00     0.020 A 
ATOM     72  C   UNL A   1      44.619  25.579  34.693  1.00  0.00     0.020 A 
ATOM     73  C   UNL A   1      44.303  25.252  36.001  1.00  0.00     0.054 A 
BRANCH  73  74
ATOM     74  S   UNL A   1      45.342  24.072  36.920  1.00  0.00     0.124 S 
ATOM     75  O   UNL A   1      46.690  24.559  36.635  1.00  0.00    -0.237 OA
ATOM     76  O   UNL A   1      44.889  24.240  38.298  1.00  0.00    -0.237 OA
ATOM     77  O   UNL A   1      45.017  22.779  36.320  1.00  0.00    -0.744 OA
ENDBRANCH  73  74
ENDBRANCH  54  68
BRANCH  55  78
ATOM     78  C   UNL A   1      35.922  33.787  31.616  1.00  0.00    -0.014 A 
ATOM     79  C   UNL A   1      35.030  33.934  30.529  1.00  0.00     0.010 A 
ATOM     80  C   UNL A   1      35.874  34.725  32.651  1.00  0.00     0.010 A 
ATOM     81  C   UNL A   1      33.959  34.829  30.595  1.00  0.00     0.020 A 
ATOM     82  C   UNL A   1      34.794  35.621  32.727  1.00  0.00     0.020 A 
ATOM     83  C   UNL A   1      33.799  35.596  31.745  1.00  0.00     0.054 A 
BRANCH  83  84
ATOM     84  S   UNL A   1      32.149  36.245  32.167  1.00  0.00     0.124 S 
ATOM     85  O   UNL A   1      32.458  37.297  33.128  1.00  0.00    -0.237 OA
ATOM     86  O   UNL A   1      31.625  36.702  30.880  1.00  0.00    -0.237 OA
ATOM     87  O   UNL A   1      31.491  35.048  32.693  1.00  0.00    -0.744 OA
ENDBRANCH  83  84
ENDBRANCH  55  78
BRANCH  67  88
ATOM     88  C   UNL A   1      40.008  28.394  28.719  1.00  0.00    -0.014 A 
ATOM     89  C   UNL A   1      40.737  29.260  27.891  1.00  0.00     0.010 A 
ATOM     90  C   UNL A   1      40.243  27.004  28.523  1.00  0.00     0.010 A 
ATOM     91  C   UNL A   1      41.586  28.774  26.881  1.00  0.00     0.020 A 
ATOM     92  C   UNL A   1      41.135  26.508  27.565  1.00  0.00     0.020 A 
ATOM     93  C   UNL A   1      41.771  27.400  26.716  1.00  0.00     0.054 A 
BRANCH  93  94
ATOM     94  S   UNL A   1      42.859  26.783  25.407  1.00  0.00     0.124 S 
ATOM     95  O   UNL A   1      42.986  27.957  24.546  1.00  0.00    -0.237 OA
ATOM     96  O   UNL A   1      44.071  26.405  26.133  1.00  0.00    -0.237 OA
ATOM     97  O   UNL A   1      42.111  25.665  24.836  1.00  0.00    -0.744 OA
ENDBRANCH  93  94
ENDBRANCH  67  88
ENDBRANCH  41  42
ENDBRANCH  34  36
ENDBRANCH  33  34
ENDBRANCH  32  33
ENDBRANCH  31  32
ENDBRANCH  30  31
ENDBRANCH  29  30
ENDBRANCH   1  29
TORSDOF 25
ENDMDL
