MODEL 1
REMARK VINA RESULT:     -10.0      0.000      0.000
REMARK SMILES Cc1cc(F)cc(NC(=O)N[C@@H]2COC[C@H]2C(=O)OCCOCCOCCOC(=O)c2ccc(-c3c4nc(c(-c5ccc(S(=O)(=O)[O-])cc5)c5ccc([nH]5)c(-c5ccc(S(=O)(=O)[O-])cc5)c5nc(c(-c6ccc(S(=O)(=O)[O-])cc6)c6ccc3[nH]6)C=C5)C=C4)cc2)c1
REMARK SMILES IDX 24 1 23 2 22 3 21 4 20 5 19 6 17 7 18 8 16 9 12 10 13 11
REMARK SMILES IDX 14 12 15 13 11 14 8 15 9 16 10 18 7 20 1 21 2 22 3 23 91 24
REMARK SMILES IDX 4 25 5 26 6 27 25 28 26 29 27 30 28 31 29 32 30 33 31 34
REMARK SMILES IDX 32 35 90 36 33 37 89 38 34 39 35 40 36 41 83 42 37 43 88 44
REMARK SMILES IDX 82 45 84 46 38 47 87 48 81 49 80 50 39 52 69 53 50 54 68 55
REMARK SMILES IDX 51 56 54 57 67 58 85 59 52 60 53 61 66 63 86 64 55 65 40 66
REMARK SMILES IDX 41 67 49 68 42 69 48 70 43 71 44 72 45 73 46 74 47 75 70 76
REMARK SMILES IDX 71 77 79 78 72 79 78 80 73 81 74 82 75 83 76 84 77 85 56 86
REMARK SMILES IDX 57 87 65 88 58 89 64 90 59 91 60 92 61 93 62 94 63 95
REMARK H PARENT 8 17 11 19 84 51 54 62
REMARK Flexibility Score: inf
ROOT
ATOM      1  C   UNL A   1      36.732  20.687  25.302  1.00  0.00     0.188 C 
ENDROOT
BRANCH   1   2
ATOM      2  C   UNL A   1      35.651  21.773  25.319  1.00  0.00     0.188 C 
BRANCH   2   3
ATOM      3  O   UNL A   1      34.531  21.529  24.475  1.00  0.00    -0.376 OA
BRANCH   3   4
ATOM      4  C   UNL A   1      33.703  20.407  24.789  1.00  0.00     0.202 C 
BRANCH   4   5
ATOM      5  C   UNL A   1      32.531  20.639  25.766  1.00  0.00     0.261 C 
BRANCH   5   6
ATOM      6  O   UNL A   1      31.655  21.745  25.410  1.00  0.00    -0.463 OA
BRANCH   6   7
ATOM      7  C   UNL A   1      31.835  22.890  26.105  1.00  0.00     0.313 C 
ATOM      8  O   UNL A   1      31.746  22.956  27.330  1.00  0.00    -0.252 OA
BRANCH   7   9
ATOM      9  C   UNL A   1      32.108  24.149  25.306  1.00  0.00     0.150 C 
ATOM     10  C   UNL A   1      33.464  24.822  25.169  1.00  0.00     0.126 C 
ATOM     11  C   UNL A   1      33.687  25.029  23.670  1.00  0.00     0.186 C 
ATOM     12  O   UNL A   1      32.654  24.358  22.956  1.00  0.00    -0.378 OA
ATOM     13  C   UNL A   1      31.784  23.706  23.881  1.00  0.00     0.177 C 
BRANCH  10  14
ATOM     14  N   UNL A   1      33.770  26.082  25.904  1.00  0.00    -0.332 N 
ATOM     15  N   UNL A   1      32.674  28.207  25.453  1.00  0.00    -0.308 N 
ATOM     16  C   UNL A   1      33.597  27.397  25.963  1.00  0.00     0.319 C 
ATOM     17  H   UNL A   1      32.728  29.086  25.892  1.00  0.00     0.171 HD
ATOM     18  O   UNL A   1      34.430  27.975  26.680  1.00  0.00    -0.248 OA
ATOM     19  H   UNL A   1      34.340  25.835  26.668  1.00  0.00     0.165 HD
BRANCH  15  20
ATOM     20  C   UNL A   1      31.652  28.222  24.501  1.00  0.00     0.046 A 
ATOM     21  C   UNL A   1      28.316  26.418  23.886  1.00  0.00     0.044 C 
ATOM     22  C   UNL A   1      29.499  27.328  23.735  1.00  0.00    -0.046 A 
ATOM     23  C   UNL A   1      29.512  28.228  22.667  1.00  0.00     0.042 A 
ATOM     24  C   UNL A   1      30.582  27.316  24.638  1.00  0.00     0.029 A 
ATOM     25  C   UNL A   1      30.552  29.126  22.555  1.00  0.00     0.125 A 
ATOM     26  F   UNL A   1      30.559  30.019  21.558  1.00  0.00    -0.207 F 
ATOM     27  C   UNL A   1      31.581  29.142  23.484  1.00  0.00     0.065 A 
ENDBRANCH  15  20
ENDBRANCH  10  14
ENDBRANCH   7   9
ENDBRANCH   6   7
ENDBRANCH   5   6
ENDBRANCH   4   5
ENDBRANCH   3   4
ENDBRANCH   2   3
ENDBRANCH   1   2
BRANCH   1  28
ATOM     28  O   UNL A   1      38.037  21.199  25.487  1.00  0.00    -0.376 OA
BRANCH  28  29
ATOM     29  C   UNL A   1      38.255  22.568  25.803  1.00  0.00     0.202 C 
BRANCH  29  30
ATOM     30  C   UNL A   1      39.601  23.017  26.409  1.00  0.00     0.261 C 
BRANCH  30  31
ATOM     31  O   UNL A   1      39.809  24.433  26.565  1.00  0.00    -0.460 OA
BRANCH  31  32
ATOM     32  C   UNL A   1      41.012  24.822  27.058  1.00  0.00     0.338 C 
ATOM     33  O   UNL A   1      42.095  24.562  26.582  1.00  0.00    -0.246 OA
BRANCH  32  34
ATOM     34  C   UNL A   1      40.761  25.862  28.095  1.00  0.00     0.060 A 
ATOM     35  C   UNL A   1      41.760  26.818  28.300  1.00  0.00     0.016 A 
ATOM     36  C   UNL A   1      39.562  25.963  28.797  1.00  0.00     0.016 A 
ATOM     37  C   UNL A   1      41.607  27.840  29.235  1.00  0.00     0.010 A 
ATOM     38  C   UNL A   1      39.406  26.982  29.750  1.00  0.00     0.010 A 
ATOM     39  C   UNL A   1      40.442  27.904  30.001  1.00  0.00    -0.014 A 
BRANCH  39  40
ATOM     40  C   UNL A   1      40.396  28.790  31.194  1.00  0.00     0.031 A 
ATOM     41  C   UNL A   1      39.401  29.921  31.195  1.00  0.00     0.074 A 
ATOM     42  C   UNL A   1      41.171  28.580  32.275  1.00  0.00     0.049 A 
ATOM     43  N   UNL A   1      39.244  30.888  32.061  1.00  0.00    -0.248 NA
ATOM     44  C   UNL A   1      38.456  29.962  30.066  1.00  0.00     0.031 C 
ATOM     45  C   UNL A   1      42.113  27.475  32.446  1.00  0.00     0.029 A 
ATOM     46  N   UNL A   1      41.289  29.304  33.438  1.00  0.00    -0.354 N 
ATOM     47  C   UNL A   1      38.197  31.662  31.572  1.00  0.00     0.074 A 
ATOM     48  C   UNL A   1      37.778  31.071  30.321  1.00  0.00     0.031 C 
ATOM     49  C   UNL A   1      42.731  27.609  33.634  1.00  0.00     0.029 A 
ATOM     50  C   UNL A   1      42.262  28.831  34.287  1.00  0.00     0.049 A 
ATOM     51  H   UNL A   1      40.729  30.087  33.644  1.00  0.00     0.167 HD
ATOM     52  C   UNL A   1      37.627  32.763  32.118  1.00  0.00     0.031 A 
ATOM     53  C   UNL A   1      42.749  29.345  35.436  1.00  0.00     0.031 A 
ATOM     54  C   UNL A   1      38.046  33.355  33.359  1.00  0.00     0.049 A 
ATOM     55  C   UNL A   1      42.171  30.632  35.975  1.00  0.00     0.074 A 
ATOM     56  C   UNL A   1      37.545  34.482  33.986  1.00  0.00     0.029 A 
ATOM     57  N   UNL A   1      39.061  32.868  34.167  1.00  0.00    -0.354 N 
ATOM     58  N   UNL A   1      41.197  31.367  35.491  1.00  0.00    -0.248 NA
ATOM     59  C   UNL A   1      42.756  31.157  37.218  1.00  0.00     0.031 C 
ATOM     60  C   UNL A   1      38.294  34.709  35.144  1.00  0.00     0.029 A 
ATOM     61  C   UNL A   1      39.215  33.681  35.276  1.00  0.00     0.049 A 
ATOM     62  H   UNL A   1      39.594  32.061  33.980  1.00  0.00     0.167 HD
ATOM     63  C   UNL A   1      41.033  32.420  36.388  1.00  0.00     0.074 A 
ATOM     64  C   UNL A   1      41.994  32.217  37.451  1.00  0.00     0.031 C 
ATOM     65  C   UNL A   1      40.166  33.463  36.336  1.00  0.00     0.031 A 
BRANCH  52  66
ATOM     66  C   UNL A   1      36.504  33.415  31.356  1.00  0.00    -0.014 A 
ATOM     67  C   UNL A   1      35.268  33.687  31.969  1.00  0.00     0.010 A 
ATOM     68  C   UNL A   1      36.705  33.804  30.018  1.00  0.00     0.010 A 
ATOM     69  C   UNL A   1      34.243  34.306  31.250  1.00  0.00     0.020 A 
ATOM     70  C   UNL A   1      35.692  34.452  29.305  1.00  0.00     0.020 A 
ATOM     71  C   UNL A   1      34.463  34.688  29.923  1.00  0.00     0.054 A 
BRANCH  71  72
ATOM     72  S   UNL A   1      33.127  35.526  29.029  1.00  0.00     0.124 S 
ATOM     73  O   UNL A   1      33.858  36.539  28.272  1.00  0.00    -0.237 OA
ATOM     74  O   UNL A   1      32.548  34.445  28.236  1.00  0.00    -0.237 OA
ATOM     75  O   UNL A   1      32.269  36.044  30.093  1.00  0.00    -0.744 OA
ENDBRANCH  71  72
ENDBRANCH  52  66
BRANCH  53  76
ATOM     76  C   UNL A   1      43.889  28.682  36.134  1.00  0.00    -0.014 A 
ATOM     77  C   UNL A   1      45.221  29.045  35.862  1.00  0.00     0.010 A 
ATOM     78  C   UNL A   1      43.643  27.646  37.056  1.00  0.00     0.010 A 
ATOM     79  C   UNL A   1      46.281  28.367  36.475  1.00  0.00     0.020 A 
ATOM     80  C   UNL A   1      44.698  26.989  37.695  1.00  0.00     0.020 A 
ATOM     81  C   UNL A   1      46.013  27.343  37.388  1.00  0.00     0.054 A 
BRANCH  81  82
ATOM     82  S   UNL A   1      47.402  26.496  38.191  1.00  0.00     0.124 S 
ATOM     83  O   UNL A   1      47.693  25.426  37.242  1.00  0.00    -0.237 OA
ATOM     84  O   UNL A   1      48.406  27.554  38.279  1.00  0.00    -0.237 OA
ATOM     85  O   UNL A   1      46.846  26.064  39.470  1.00  0.00    -0.744 OA
ENDBRANCH  81  82
ENDBRANCH  53  76
BRANCH  65  86
ATOM     86  C   UNL A   1      40.171  34.440  37.484  1.00  0.00    -0.014 A 
ATOM     87  C   UNL A   1      40.931  35.622  37.442  1.00  0.00     0.010 A 
ATOM     88  C   UNL A   1      39.349  34.197  38.601  1.00  0.00     0.010 A 
ATOM     89  C   UNL A   1      40.895  36.525  38.509  1.00  0.00     0.020 A 
ATOM     90  C   UNL A   1      39.285  35.112  39.655  1.00  0.00     0.020 A 
ATOM     91  C   UNL A   1      40.070  36.265  39.608  1.00  0.00     0.054 A 
BRANCH  91  92
ATOM     92  S   UNL A   1      40.007  37.475  40.959  1.00  0.00     0.124 S 
ATOM     93  O   UNL A   1      41.405  37.532  41.381  1.00  0.00    -0.237 OA
ATOM     94  O   UNL A   1      39.502  38.672  40.292  1.00  0.00    -0.237 OA
ATOM     95  O   UNL A   1      39.091  36.871  41.924  1.00  0.00    -0.744 OA
ENDBRANCH  91  92
ENDBRANCH  65  86
ENDBRANCH  39  40
ENDBRANCH  32  34
ENDBRANCH  31  32
ENDBRANCH  30  31
ENDBRANCH  29  30
ENDBRANCH  28  29
ENDBRANCH   1  28
TORSDOF 22
ENDMDL
MODEL 2
REMARK VINA RESULT:     -10.0      2.007      2.842
REMARK SMILES Cc1cc(F)cc(NC(=O)N[C@@H]2COC[C@H]2C(=O)OCCOCCOCCOC(=O)c2ccc(-c3c4nc(c(-c5ccc(S(=O)(=O)[O-])cc5)c5ccc([nH]5)c(-c5ccc(S(=O)(=O)[O-])cc5)c5nc(c(-c6ccc(S(=O)(=O)[O-])cc6)c6ccc3[nH]6)C=C5)C=C4)cc2)c1
REMARK SMILES IDX 24 1 23 2 22 3 21 4 20 5 19 6 17 7 18 8 16 9 12 10 13 11
REMARK SMILES IDX 14 12 15 13 11 14 8 15 9 16 10 18 7 20 1 21 2 22 3 23 91 24
REMARK SMILES IDX 4 25 5 26 6 27 25 28 26 29 27 30 28 31 29 32 30 33 31 34
REMARK SMILES IDX 32 35 90 36 33 37 89 38 34 39 35 40 36 41 83 42 37 43 88 44
REMARK SMILES IDX 82 45 84 46 38 47 87 48 81 49 80 50 39 52 69 53 50 54 68 55
REMARK SMILES IDX 51 56 54 57 67 58 85 59 52 60 53 61 66 63 86 64 55 65 40 66
REMARK SMILES IDX 41 67 49 68 42 69 48 70 43 71 44 72 45 73 46 74 47 75 70 76
REMARK SMILES IDX 71 77 79 78 72 79 78 80 73 81 74 82 75 83 76 84 77 85 56 86
REMARK SMILES IDX 57 87 65 88 58 89 64 90 59 91 60 92 61 93 62 94 63 95
REMARK H PARENT 8 17 11 19 84 51 54 62
REMARK Flexibility Score: inf
ROOT
ATOM      1  C   UNL A   1      40.144  22.216  27.139  1.00  0.00     0.188 C 
ENDROOT
BRANCH   1   2
ATOM      2  C   UNL A   1      39.144  21.702  26.098  1.00  0.00     0.188 C 
BRANCH   2   3
ATOM      3  O   UNL A   1      37.986  22.510  25.915  1.00  0.00    -0.376 OA
BRANCH   3   4
ATOM      4  C   UNL A   1      37.040  22.089  24.930  1.00  0.00     0.202 C 
BRANCH   4   5
ATOM      5  C   UNL A   1      36.088  20.934  25.305  1.00  0.00     0.261 C 
BRANCH   5   6
ATOM      6  O   UNL A   1      34.696  21.325  25.468  1.00  0.00    -0.463 OA
BRANCH   6   7
ATOM      7  C   UNL A   1      33.776  20.426  25.052  1.00  0.00     0.313 C 
ATOM      8  O   UNL A   1      34.003  19.220  24.966  1.00  0.00    -0.252 OA
BRANCH   7   9
ATOM      9  C   UNL A   1      32.424  20.965  24.627  1.00  0.00     0.150 C 
ATOM     10  C   UNL A   1      31.882  22.342  24.976  1.00  0.00     0.126 C 
ATOM     11  C   UNL A   1      31.421  22.965  23.658  1.00  0.00     0.186 C 
ATOM     12  O   UNL A   1      31.835  22.125  22.585  1.00  0.00    -0.378 OA
ATOM     13  C   UNL A   1      32.556  21.009  23.107  1.00  0.00     0.177 C 
BRANCH  10  14
ATOM     14  N   UNL A   1      30.821  22.507  26.011  1.00  0.00    -0.332 N 
ATOM     15  N   UNL A   1      29.939  24.664  26.708  1.00  0.00    -0.308 N 
ATOM     16  C   UNL A   1      30.153  23.354  26.784  1.00  0.00     0.319 C 
ATOM     17  H   UNL A   1      29.210  24.916  27.319  1.00  0.00     0.171 HD
ATOM     18  O   UNL A   1      29.570  22.805  27.733  1.00  0.00    -0.248 OA
ATOM     19  H   UNL A   1      30.466  21.608  26.200  1.00  0.00     0.165 HD
BRANCH  15  20
ATOM     20  C   UNL A   1      30.407  25.802  26.045  1.00  0.00     0.046 A 
ATOM     21  C   UNL A   1      29.470  27.871  22.946  1.00  0.00     0.044 C 
ATOM     22  C   UNL A   1      30.167  27.379  24.181  1.00  0.00    -0.046 A 
ATOM     23  C   UNL A   1      31.237  28.124  24.680  1.00  0.00     0.042 A 
ATOM     24  C   UNL A   1      29.768  26.207  24.857  1.00  0.00     0.029 A 
ATOM     25  C   UNL A   1      31.840  27.732  25.856  1.00  0.00     0.125 A 
ATOM     26  F   UNL A   1      32.844  28.456  26.366  1.00  0.00    -0.207 F 
ATOM     27  C   UNL A   1      31.399  26.610  26.542  1.00  0.00     0.065 A 
ENDBRANCH  15  20
ENDBRANCH  10  14
ENDBRANCH   7   9
ENDBRANCH   6   7
ENDBRANCH   5   6
ENDBRANCH   4   5
ENDBRANCH   3   4
ENDBRANCH   2   3
ENDBRANCH   1   2
BRANCH   1  28
ATOM     28  O   UNL A   1      40.446  23.590  26.987  1.00  0.00    -0.376 OA
BRANCH  28  29
ATOM     29  C   UNL A   1      41.742  24.021  26.593  1.00  0.00     0.202 C 
BRANCH  29  30
ATOM     30  C   UNL A   1      41.904  25.272  25.704  1.00  0.00     0.261 C 
BRANCH  30  31
ATOM     31  O   UNL A   1      40.981  26.354  25.922  1.00  0.00    -0.460 OA
BRANCH  31  32
ATOM     32  C   UNL A   1      41.503  27.605  25.951  1.00  0.00     0.338 C 
ATOM     33  O   UNL A   1      41.886  28.240  24.993  1.00  0.00    -0.246 OA
BRANCH  32  34
ATOM     34  C   UNL A   1      41.245  28.174  27.304  1.00  0.00     0.060 A 
ATOM     35  C   UNL A   1      41.855  29.391  27.617  1.00  0.00     0.016 A 
ATOM     36  C   UNL A   1      40.373  27.589  28.221  1.00  0.00     0.016 A 
ATOM     37  C   UNL A   1      41.656  30.008  28.851  1.00  0.00     0.010 A 
ATOM     38  C   UNL A   1      40.179  28.197  29.471  1.00  0.00     0.010 A 
ATOM     39  C   UNL A   1      40.848  29.391  29.807  1.00  0.00    -0.014 A 
BRANCH  39  40
ATOM     40  C   UNL A   1      40.873  29.878  31.211  1.00  0.00     0.031 A 
ATOM     41  C   UNL A   1      39.766  30.796  31.661  1.00  0.00     0.074 A 
ATOM     42  C   UNL A   1      41.813  29.483  32.091  1.00  0.00     0.049 A 
ATOM     43  N   UNL A   1      39.625  31.435  32.792  1.00  0.00    -0.248 NA
ATOM     44  C   UNL A   1      38.671  31.018  30.701  1.00  0.00     0.031 C 
ATOM     45  C   UNL A   1      42.889  28.532  31.819  1.00  0.00     0.029 A 
ATOM     46  N   UNL A   1      42.013  29.849  33.402  1.00  0.00    -0.354 N 
ATOM     47  C   UNL A   1      38.438  32.150  32.673  1.00  0.00     0.074 A 
ATOM     48  C   UNL A   1      37.914  31.890  31.351  1.00  0.00     0.031 C 
ATOM     49  C   UNL A   1      43.651  28.408  32.921  1.00  0.00     0.029 A 
ATOM     50  C   UNL A   1      43.145  29.303  33.961  1.00  0.00     0.049 A 
ATOM     51  H   UNL A   1      41.403  30.445  33.893  1.00  0.00     0.167 HD
ATOM     52  C   UNL A   1      37.831  32.946  33.585  1.00  0.00     0.031 A 
ATOM     53  C   UNL A   1      43.730  29.531  35.156  1.00  0.00     0.031 A 
ATOM     54  C   UNL A   1      38.353  33.210  34.899  1.00  0.00     0.049 A 
ATOM     55  C   UNL A   1      43.092  30.504  36.119  1.00  0.00     0.074 A 
ATOM     56  C   UNL A   1      37.822  34.019  35.888  1.00  0.00     0.029 A 
ATOM     57  N   UNL A   1      39.522  32.669  35.410  1.00  0.00    -0.354 N 
ATOM     58  N   UNL A   1      41.982  31.191  35.986  1.00  0.00    -0.248 NA
ATOM     59  C   UNL A   1      43.785  30.729  37.397  1.00  0.00     0.031 C 
ATOM     60  C   UNL A   1      38.698  34.012  36.977  1.00  0.00     0.029 A 
ATOM     61  C   UNL A   1      39.739  33.141  36.693  1.00  0.00     0.049 A 
ATOM     62  H   UNL A   1      40.111  32.042  34.932  1.00  0.00     0.167 HD
ATOM     63  C   UNL A   1      41.830  31.902  37.174  1.00  0.00     0.074 A 
ATOM     64  C   UNL A   1      42.949  31.549  38.020  1.00  0.00     0.031 C 
ATOM     65  C   UNL A   1      40.851  32.772  37.532  1.00  0.00     0.031 A 
BRANCH  52  66
ATOM     66  C   UNL A   1      36.544  33.613  33.178  1.00  0.00    -0.014 A 
ATOM     67  C   UNL A   1      36.544  34.856  32.521  1.00  0.00     0.010 A 
ATOM     68  C   UNL A   1      35.318  32.964  33.417  1.00  0.00     0.010 A 
ATOM     69  C   UNL A   1      35.340  35.454  32.137  1.00  0.00     0.020 A 
ATOM     70  C   UNL A   1      34.114  33.544  33.008  1.00  0.00     0.020 A 
ATOM     71  C   UNL A   1      34.132  34.792  32.381  1.00  0.00     0.054 A 
BRANCH  71  72
ATOM     72  S   UNL A   1      32.590  35.573  31.835  1.00  0.00     0.124 S 
ATOM     73  O   UNL A   1      32.841  36.980  32.139  1.00  0.00    -0.237 OA
ATOM     74  O   UNL A   1      32.547  35.234  30.416  1.00  0.00    -0.237 OA
ATOM     75  O   UNL A   1      31.566  34.933  32.658  1.00  0.00    -0.744 OA
ENDBRANCH  71  72
ENDBRANCH  52  66
BRANCH  53  76
ATOM     76  C   UNL A   1      45.026  28.874  35.497  1.00  0.00    -0.014 A 
ATOM     77  C   UNL A   1      46.253  29.430  35.093  1.00  0.00     0.010 A 
ATOM     78  C   UNL A   1      45.033  27.656  36.203  1.00  0.00     0.010 A 
ATOM     79  C   UNL A   1      47.456  28.768  35.362  1.00  0.00     0.020 A 
ATOM     80  C   UNL A   1      46.234  27.008  36.503  1.00  0.00     0.020 A 
ATOM     81  C   UNL A   1      47.439  27.560  36.066  1.00  0.00     0.054 A 
BRANCH  81  82
ATOM     82  S   UNL A   1      49.012  26.732  36.427  1.00  0.00     0.124 S 
ATOM     83  O   UNL A   1      49.986  27.708  35.948  1.00  0.00    -0.237 OA
ATOM     84  O   UNL A   1      48.951  26.560  37.877  1.00  0.00    -0.237 OA
ATOM     85  O   UNL A   1      48.933  25.495  35.655  1.00  0.00    -0.744 OA
ENDBRANCH  81  82
ENDBRANCH  53  76
BRANCH  65  86
ATOM     86  C   UNL A   1      40.909  33.364  38.917  1.00  0.00    -0.014 A 
ATOM     87  C   UNL A   1      41.619  34.549  39.183  1.00  0.00     0.010 A 
ATOM     88  C   UNL A   1      40.187  32.753  39.960  1.00  0.00     0.010 A 
ATOM     89  C   UNL A   1      41.632  35.092  40.471  1.00  0.00     0.020 A 
ATOM     90  C   UNL A   1      40.170  33.311  41.241  1.00  0.00     0.020 A 
ATOM     91  C   UNL A   1      40.906  34.470  41.492  1.00  0.00     0.054 A 
BRANCH  91  92
ATOM     92  S   UNL A   1      40.903  35.220  43.145  1.00  0.00     0.124 S 
ATOM     93  O   UNL A   1      41.040  34.050  44.010  1.00  0.00    -0.237 OA
ATOM     94  O   UNL A   1      42.065  36.104  43.095  1.00  0.00    -0.237 OA
ATOM     95  O   UNL A   1      39.612  35.899  43.217  1.00  0.00    -0.744 OA
ENDBRANCH  91  92
ENDBRANCH  65  86
ENDBRANCH  39  40
ENDBRANCH  32  34
ENDBRANCH  31  32
ENDBRANCH  30  31
ENDBRANCH  29  30
ENDBRANCH  28  29
ENDBRANCH   1  28
TORSDOF 22
ENDMDL
MODEL 3
REMARK VINA RESULT:     -10.0      1.289      2.025
REMARK SMILES Cc1cc(F)cc(NC(=O)N[C@@H]2COC[C@H]2C(=O)OCCOCCOCCOC(=O)c2ccc(-c3c4nc(c(-c5ccc(S(=O)(=O)[O-])cc5)c5ccc([nH]5)c(-c5ccc(S(=O)(=O)[O-])cc5)c5nc(c(-c6ccc(S(=O)(=O)[O-])cc6)c6ccc3[nH]6)C=C5)C=C4)cc2)c1
REMARK SMILES IDX 24 1 23 2 22 3 21 4 20 5 19 6 17 7 18 8 16 9 12 10 13 11
REMARK SMILES IDX 14 12 15 13 11 14 8 15 9 16 10 18 7 20 1 21 2 22 3 23 91 24
REMARK SMILES IDX 4 25 5 26 6 27 25 28 26 29 27 30 28 31 29 32 30 33 31 34
REMARK SMILES IDX 32 35 90 36 33 37 89 38 34 39 35 40 36 41 83 42 37 43 88 44
REMARK SMILES IDX 82 45 84 46 38 47 87 48 81 49 80 50 39 52 69 53 50 54 68 55
REMARK SMILES IDX 51 56 54 57 67 58 85 59 52 60 53 61 66 63 86 64 55 65 40 66
REMARK SMILES IDX 41 67 49 68 42 69 48 70 43 71 44 72 45 73 46 74 47 75 70 76
REMARK SMILES IDX 71 77 79 78 72 79 78 80 73 81 74 82 75 83 76 84 77 85 56 86
REMARK SMILES IDX 57 87 65 88 58 89 64 90 59 91 60 92 61 93 62 94 63 95
REMARK H PARENT 8 17 11 19 84 51 54 62
REMARK Flexibility Score: inf
ROOT
ATOM      1  C   UNL A   1      36.744  20.362  25.015  1.00  0.00     0.188 C 
ENDROOT
BRANCH   1   2
ATOM      2  C   UNL A   1      35.812  21.451  24.474  1.00  0.00     0.188 C 
BRANCH   2   3
ATOM      3  O   UNL A   1      34.534  21.523  25.098  1.00  0.00    -0.376 OA
BRANCH   3   4
ATOM      4  C   UNL A   1      34.493  21.430  26.524  1.00  0.00     0.202 C 
BRANCH   4   5
ATOM      5  C   UNL A   1      34.414  22.749  27.320  1.00  0.00     0.261 C 
BRANCH   5   6
ATOM      6  O   UNL A   1      33.427  23.698  26.825  1.00  0.00    -0.463 OA
BRANCH   6   7
ATOM      7  C   UNL A   1      33.821  24.474  25.791  1.00  0.00     0.313 C 
ATOM      8  O   UNL A   1      34.981  24.852  25.633  1.00  0.00    -0.252 OA
BRANCH   7   9
ATOM      9  C   UNL A   1      32.748  24.929  24.820  1.00  0.00     0.150 C 
ATOM     10  C   UNL A   1      32.396  24.232  23.515  1.00  0.00     0.126 C 
ATOM     11  C   UNL A   1      30.879  24.036  23.533  1.00  0.00     0.186 C 
ATOM     12  O   UNL A   1      30.386  24.396  24.820  1.00  0.00    -0.378 OA
ATOM     13  C   UNL A   1      31.477  24.790  25.653  1.00  0.00     0.177 C 
BRANCH  10  14
ATOM     14  N   UNL A   1      32.816  24.805  22.204  1.00  0.00    -0.332 N 
ATOM     15  N   UNL A   1      32.597  27.158  21.628  1.00  0.00    -0.308 N 
ATOM     16  C   UNL A   1      32.795  25.863  21.403  1.00  0.00     0.319 C 
ATOM     17  H   UNL A   1      32.883  27.677  20.843  1.00  0.00     0.171 HD
ATOM     18  O   UNL A   1      33.068  25.596  20.222  1.00  0.00    -0.248 OA
ATOM     19  H   UNL A   1      33.323  24.102  21.735  1.00  0.00     0.165 HD
BRANCH  15  20
ATOM     20  C   UNL A   1      32.117  28.026  22.613  1.00  0.00     0.046 A 
ATOM     21  C   UNL A   1      28.921  30.040  23.313  1.00  0.00     0.044 C 
ATOM     22  C   UNL A   1      30.295  29.450  23.434  1.00  0.00    -0.046 A 
ATOM     23  C   UNL A   1      31.041  29.734  24.580  1.00  0.00     0.042 A 
ATOM     24  C   UNL A   1      30.847  28.610  22.444  1.00  0.00     0.029 A 
ATOM     25  C   UNL A   1      32.273  29.139  24.746  1.00  0.00     0.125 A 
ATOM     26  F   UNL A   1      32.984  29.374  25.856  1.00  0.00    -0.207 F 
ATOM     27  C   UNL A   1      32.778  28.269  23.792  1.00  0.00     0.065 A 
ENDBRANCH  15  20
ENDBRANCH  10  14
ENDBRANCH   7   9
ENDBRANCH   6   7
ENDBRANCH   5   6
ENDBRANCH   4   5
ENDBRANCH   3   4
ENDBRANCH   2   3
ENDBRANCH   1   2
BRANCH   1  28
ATOM     28  O   UNL A   1      37.982  20.869  25.475  1.00  0.00    -0.376 OA
BRANCH  28  29
ATOM     29  C   UNL A   1      38.174  22.260  25.699  1.00  0.00     0.202 C 
BRANCH  29  30
ATOM     30  C   UNL A   1      39.485  22.769  26.333  1.00  0.00     0.261 C 
BRANCH  30  31
ATOM     31  O   UNL A   1      39.530  24.153  26.724  1.00  0.00    -0.460 OA
BRANCH  31  32
ATOM     32  C   UNL A   1      40.748  24.656  27.045  1.00  0.00     0.338 C 
ATOM     33  O   UNL A   1      41.780  24.467  26.440  1.00  0.00    -0.246 OA
BRANCH  32  34
ATOM     34  C   UNL A   1      40.543  25.713  28.076  1.00  0.00     0.060 A 
ATOM     35  C   UNL A   1      41.560  26.658  28.238  1.00  0.00     0.016 A 
ATOM     36  C   UNL A   1      39.368  25.837  28.815  1.00  0.00     0.016 A 
ATOM     37  C   UNL A   1      41.449  27.694  29.164  1.00  0.00     0.010 A 
ATOM     38  C   UNL A   1      39.256  26.870  29.759  1.00  0.00     0.010 A 
ATOM     39  C   UNL A   1      40.310  27.781  29.965  1.00  0.00    -0.014 A 
BRANCH  39  40
ATOM     40  C   UNL A   1      40.313  28.683  31.147  1.00  0.00     0.031 A 
ATOM     41  C   UNL A   1      39.362  29.852  31.147  1.00  0.00     0.074 A 
ATOM     42  C   UNL A   1      41.092  28.456  32.222  1.00  0.00     0.049 A 
ATOM     43  N   UNL A   1      39.253  30.834  32.002  1.00  0.00    -0.248 NA
ATOM     44  C   UNL A   1      38.405  29.916  30.028  1.00  0.00     0.031 C 
ATOM     45  C   UNL A   1      41.994  27.318  32.396  1.00  0.00     0.029 A 
ATOM     46  N   UNL A   1      41.253  29.189  33.374  1.00  0.00    -0.354 N 
ATOM     47  C   UNL A   1      38.230  31.642  31.516  1.00  0.00     0.074 A 
ATOM     48  C   UNL A   1      37.773  31.053  30.278  1.00  0.00     0.031 C 
ATOM     49  C   UNL A   1      42.631  27.442  33.574  1.00  0.00     0.029 A 
ATOM     50  C   UNL A   1      42.218  28.689  34.218  1.00  0.00     0.049 A 
ATOM     51  H   UNL A   1      40.726  29.996  33.577  1.00  0.00     0.167 HD
ATOM     52  C   UNL A   1      37.710  32.770  32.055  1.00  0.00     0.031 A 
ATOM     53  C   UNL A   1      42.738  29.198  35.354  1.00  0.00     0.031 A 
ATOM     54  C   UNL A   1      38.167  33.361  33.284  1.00  0.00     0.049 A 
ATOM     55  C   UNL A   1      42.216  30.512  35.884  1.00  0.00     0.074 A 
ATOM     56  C   UNL A   1      37.717  34.514  33.903  1.00  0.00     0.029 A 
ATOM     57  N   UNL A   1      39.172  32.844  34.086  1.00  0.00    -0.354 N 
ATOM     58  N   UNL A   1      41.266  31.278  35.403  1.00  0.00    -0.248 NA
ATOM     59  C   UNL A   1      42.836  31.029  37.114  1.00  0.00     0.031 C 
ATOM     60  C   UNL A   1      38.488  34.725  35.049  1.00  0.00     0.029 A 
ATOM     61  C   UNL A   1      39.371  33.664  35.183  1.00  0.00     0.049 A 
ATOM     62  H   UNL A   1      39.672  32.016  33.902  1.00  0.00     0.167 HD
ATOM     63  C   UNL A   1      41.154  32.347  36.289  1.00  0.00     0.074 A 
ATOM     64  C   UNL A   1      42.119  32.121  37.342  1.00  0.00     0.031 C 
ATOM     65  C   UNL A   1      40.326  33.422  36.234  1.00  0.00     0.031 A 
BRANCH  52  66
ATOM     66  C   UNL A   1      36.604  33.456  31.299  1.00  0.00    -0.014 A 
ATOM     67  C   UNL A   1      36.776  33.861  29.963  1.00  0.00     0.010 A 
ATOM     68  C   UNL A   1      35.357  33.658  31.920  1.00  0.00     0.010 A 
ATOM     69  C   UNL A   1      35.733  34.483  29.272  1.00  0.00     0.020 A 
ATOM     70  C   UNL A   1      34.301  34.251  31.222  1.00  0.00     0.020 A 
ATOM     71  C   UNL A   1      34.500  34.672  29.905  1.00  0.00     0.054 A 
BRANCH  71  72
ATOM     72  S   UNL A   1      33.154  35.445  28.970  1.00  0.00     0.124 S 
ATOM     73  O   UNL A   1      32.622  34.313  28.215  1.00  0.00    -0.237 OA
ATOM     74  O   UNL A   1      32.288  35.959  30.026  1.00  0.00    -0.237 OA
ATOM     75  O   UNL A   1      33.829  36.464  28.168  1.00  0.00    -0.744 OA
ENDBRANCH  71  72
ENDBRANCH  52  66
BRANCH  53  76
ATOM     76  C   UNL A   1      43.861  28.499  36.047  1.00  0.00    -0.014 A 
ATOM     77  C   UNL A   1      43.617  27.565  37.070  1.00  0.00     0.010 A 
ATOM     78  C   UNL A   1      45.194  28.801  35.706  1.00  0.00     0.010 A 
ATOM     79  C   UNL A   1      44.681  26.970  37.756  1.00  0.00     0.020 A 
ATOM     80  C   UNL A   1      46.259  28.182  36.366  1.00  0.00     0.020 A 
ATOM     81  C   UNL A   1      45.997  27.282  37.399  1.00  0.00     0.054 A 
BRANCH  81  82
ATOM     82  S   UNL A   1      47.361  26.477  38.283  1.00  0.00     0.124 S 
ATOM     83  O   UNL A   1      46.709  26.042  39.514  1.00  0.00    -0.237 OA
ATOM     84  O   UNL A   1      47.748  25.412  37.361  1.00  0.00    -0.237 OA
ATOM     85  O   UNL A   1      48.345  27.545  38.440  1.00  0.00    -0.744 OA
ENDBRANCH  81  82
ENDBRANCH  53  76
BRANCH  65  86
ATOM     86  C   UNL A   1      40.383  34.412  37.369  1.00  0.00    -0.014 A 
ATOM     87  C   UNL A   1      39.577  34.270  38.512  1.00  0.00     0.010 A 
ATOM     88  C   UNL A   1      41.309  35.472  37.315  1.00  0.00     0.010 A 
ATOM     89  C   UNL A   1      39.671  35.186  39.564  1.00  0.00     0.020 A 
ATOM     90  C   UNL A   1      41.429  36.372  38.378  1.00  0.00     0.020 A 
ATOM     91  C   UNL A   1      40.598  36.231  39.490  1.00  0.00     0.054 A 
BRANCH  91  92
ATOM     92  S   UNL A   1      40.731  37.382  40.887  1.00  0.00     0.124 S 
ATOM     93  O   UNL A   1      41.538  38.459  40.318  1.00  0.00    -0.237 OA
ATOM     94  O   UNL A   1      39.336  37.717  41.158  1.00  0.00    -0.237 OA
ATOM     95  O   UNL A   1      41.390  36.593  41.926  1.00  0.00    -0.744 OA
ENDBRANCH  91  92
ENDBRANCH  65  86
ENDBRANCH  39  40
ENDBRANCH  32  34
ENDBRANCH  31  32
ENDBRANCH  30  31
ENDBRANCH  29  30
ENDBRANCH  28  29
ENDBRANCH   1  28
TORSDOF 22
ENDMDL
