MODEL 1
REMARK VINA RESULT:     -10.3      0.000      0.000
REMARK SMILES O=C(OCCOCCOCCOC(=O)c1ccc(-c2c3nc(c(-c4ccc(S(=O)(=O)[O-])cc4)c4ccc([nH]4)c(-c4ccc(S(=O)(=O)[O-])cc4)c4nc(c(-c5ccc(S(=O)(=O)[O-])cc5)c5ccc2[nH]5)C=C4)C=C3)cc1)C1=Cc2cc(S(F)(F)(F)(F)F)ccc2O[C@@H]1C(F)(F)F
REMARK SMILES IDX 8 1 7 2 6 3 5 4 4 5 3 6 2 7 1 8 75 9 76 10 90 11 77 12 89 13
REMARK SMILES IDX 78 14 88 15 79 16 87 17 86 18 91 19 92 20 93 21 94 22 80 23
REMARK SMILES IDX 81 24 82 25 83 26 84 27 85 28 9 29 10 30 11 31 12 32 13 33
REMARK SMILES IDX 14 34 15 35 16 36 74 37 17 38 73 39 18 40 19 41 20 42 67 43
REMARK SMILES IDX 21 44 72 45 66 46 68 47 22 48 71 49 65 50 64 51 23 53 53 54
REMARK SMILES IDX 34 55 52 56 35 57 38 58 51 59 69 60 36 61 37 62 50 64 70 65
REMARK SMILES IDX 39 66 24 67 25 68 33 69 26 70 32 71 27 72 28 73 29 74 30 75
REMARK SMILES IDX 31 76 54 77 55 78 63 79 56 80 62 81 57 82 58 83 59 84 60 85
REMARK SMILES IDX 61 86 40 87 41 88 49 89 42 90 48 91 43 92 44 93 45 94 46 95
REMARK SMILES IDX 47 96
REMARK H PARENT 68 52 38 63
REMARK Flexibility Score: inf
ROOT
ATOM      1  C   UNL A   1      35.221  23.101  24.835  1.00  0.00     0.188 C 
ENDROOT
BRANCH   1   2
ATOM      2  C   UNL A   1      34.746  23.791  26.102  1.00  0.00     0.188 C 
BRANCH   2   3
ATOM      3  O   UNL A   1      33.329  23.731  26.172  1.00  0.00    -0.376 OA
BRANCH   3   4
ATOM      4  C   UNL A   1      32.777  24.138  24.929  1.00  0.00     0.202 C 
BRANCH   4   5
ATOM      5  C   UNL A   1      31.861  25.332  25.147  1.00  0.00     0.261 C 
BRANCH   5   6
ATOM      6  O   UNL A   1      32.569  26.351  25.838  1.00  0.00    -0.460 OA
BRANCH   6   7
ATOM      7  C   UNL A   1      31.877  27.493  26.320  1.00  0.00     0.338 C 
ATOM      8  O   UNL A   1      31.533  27.560  27.542  1.00  0.00    -0.246 OA
BRANCH   7   9
ATOM      9  C   UNL A   1      31.547  28.637  25.374  1.00  0.00     0.087 C 
ATOM     10  C   UNL A   1      32.253  29.799  25.440  1.00  0.00     0.027 C 
ATOM     11  C   UNL A   1      30.430  28.483  24.355  1.00  0.00     0.316 C 
ATOM     12  C   UNL A   1      33.371  29.953  26.460  1.00  0.00     0.019 A 
ATOM     13  O   UNL A   1      34.213  27.783  25.983  1.00  0.00    -0.475 OA
ATOM     14  C   UNL A   1      33.313  31.100  27.233  1.00  0.00     0.036 A 
ATOM     15  C   UNL A   1      34.283  29.015  26.685  1.00  0.00     0.128 A 
ATOM     16  C   UNL A   1      34.454  31.302  28.045  1.00  0.00     0.107 A 
ATOM     17  C   UNL A   1      35.293  29.226  27.593  1.00  0.00     0.048 A 
ATOM     18  C   UNL A   1      35.331  30.364  28.349  1.00  0.00     0.028 A 
BRANCH  11  19
ATOM     19  C   UNL A   1      30.996  28.649  22.954  1.00  0.00     0.430 C 
ATOM     20  F   UNL A   1      32.306  28.422  22.975  1.00  0.00    -0.167 F 
ATOM     21  F   UNL A   1      30.409  27.784  22.133  1.00  0.00    -0.167 F 
ATOM     22  F   UNL A   1      30.767  29.889  22.528  1.00  0.00    -0.167 F 
ENDBRANCH  11  19
BRANCH  16  23
ATOM     23  S   UNL A   1      34.730  32.962  28.712  1.00  0.00     0.310 S 
ATOM     24  F   UNL A   1      36.172  32.561  29.239  1.00  0.00    -0.094 F 
ATOM     25  F   UNL A   1      34.164  32.486  30.102  1.00  0.00    -0.094 F 
ATOM     26  F   UNL A   1      34.989  34.388  29.273  1.00  0.00    -0.094 F 
ATOM     27  F   UNL A   1      35.423  33.381  27.355  1.00  0.00    -0.094 F 
ATOM     28  F   UNL A   1      34.578  31.488  28.162  1.00  0.00    -0.094 F 
ENDBRANCH  16  23
ENDBRANCH   7   9
ENDBRANCH   6   7
ENDBRANCH   5   6
ENDBRANCH   4   5
ENDBRANCH   3   4
ENDBRANCH   2   3
ENDBRANCH   1   2
BRANCH   1  29
ATOM     29  O   UNL A   1      36.619  23.299  24.682  1.00  0.00    -0.376 OA
BRANCH  29  30
ATOM     30  C   UNL A   1      37.254  23.180  25.947  1.00  0.00     0.202 C 
BRANCH  30  31
ATOM     31  C   UNL A   1      38.558  23.961  25.934  1.00  0.00     0.261 C 
BRANCH  31  32
ATOM     32  O   UNL A   1      38.581  24.861  27.032  1.00  0.00    -0.460 OA
BRANCH  32  33
ATOM     33  C   UNL A   1      39.681  25.743  27.204  1.00  0.00     0.338 C 
ATOM     34  O   UNL A   1      40.467  25.975  26.233  1.00  0.00    -0.246 OA
BRANCH  33  35
ATOM     35  C   UNL A   1      39.917  26.410  28.550  1.00  0.00     0.060 A 
ATOM     36  C   UNL A   1      38.981  26.199  29.550  1.00  0.00     0.016 A 
ATOM     37  C   UNL A   1      40.894  27.297  28.697  1.00  0.00     0.016 A 
ATOM     38  C   UNL A   1      38.991  27.188  30.561  1.00  0.00     0.010 A 
ATOM     39  C   UNL A   1      40.915  28.141  29.780  1.00  0.00     0.010 A 
ATOM     40  C   UNL A   1      39.985  28.029  30.777  1.00  0.00    -0.014 A 
BRANCH  40  41
ATOM     41  C   UNL A   1      40.093  28.828  32.066  1.00  0.00     0.031 A 
ATOM     42  C   UNL A   1      41.133  28.617  32.973  1.00  0.00     0.074 A 
ATOM     43  C   UNL A   1      39.170  29.855  32.172  1.00  0.00     0.049 A 
ATOM     44  N   UNL A   1      41.441  29.352  34.043  1.00  0.00    -0.248 NA
ATOM     45  C   UNL A   1      42.093  27.507  32.882  1.00  0.00     0.031 C 
ATOM     46  C   UNL A   1      38.124  30.079  31.256  1.00  0.00     0.029 A 
ATOM     47  N   UNL A   1      39.090  30.823  33.148  1.00  0.00    -0.354 N 
ATOM     48  C   UNL A   1      42.515  28.848  34.655  1.00  0.00     0.074 A 
ATOM     49  C   UNL A   1      42.946  27.651  33.920  1.00  0.00     0.031 C 
ATOM     50  C   UNL A   1      37.417  31.159  31.681  1.00  0.00     0.029 A 
ATOM     51  C   UNL A   1      38.008  31.628  32.868  1.00  0.00     0.049 A 
ATOM     52  H   UNL A   1      39.701  30.921  33.914  1.00  0.00     0.167 HD
ATOM     53  C   UNL A   1      43.151  29.340  35.795  1.00  0.00     0.031 A 
ATOM     54  C   UNL A   1      37.549  32.713  33.596  1.00  0.00     0.031 A 
ATOM     55  C   UNL A   1      42.717  30.452  36.498  1.00  0.00     0.049 A 
ATOM     56  C   UNL A   1      38.152  33.172  34.770  1.00  0.00     0.074 A 
ATOM     57  C   UNL A   1      43.352  30.966  37.645  1.00  0.00     0.029 A 
ATOM     58  N   UNL A   1      41.620  31.243  36.232  1.00  0.00    -0.354 N 
ATOM     59  N   UNL A   1      39.248  32.691  35.359  1.00  0.00    -0.248 NA
ATOM     60  C   UNL A   1      37.654  34.301  35.567  1.00  0.00     0.031 C 
ATOM     61  C   UNL A   1      42.644  32.047  38.071  1.00  0.00     0.029 A 
ATOM     62  C   UNL A   1      41.554  32.224  37.197  1.00  0.00     0.049 A 
ATOM     63  H   UNL A   1      40.993  31.127  35.482  1.00  0.00     0.167 HD
ATOM     64  C   UNL A   1      39.530  33.401  36.453  1.00  0.00     0.074 A 
ATOM     65  C   UNL A   1      38.504  34.443  36.606  1.00  0.00     0.031 C 
ATOM     66  C   UNL A   1      40.604  33.227  37.327  1.00  0.00     0.031 A 
BRANCH  53  67
ATOM     67  C   UNL A   1      44.392  28.618  36.292  1.00  0.00    -0.014 A 
ATOM     68  C   UNL A   1      44.186  27.594  37.203  1.00  0.00     0.010 A 
ATOM     69  C   UNL A   1      45.609  28.905  35.843  1.00  0.00     0.010 A 
ATOM     70  C   UNL A   1      45.375  27.114  37.804  1.00  0.00     0.020 A 
ATOM     71  C   UNL A   1      46.716  28.297  36.383  1.00  0.00     0.020 A 
ATOM     72  C   UNL A   1      46.590  27.319  37.329  1.00  0.00     0.054 A 
BRANCH  72  73
ATOM     73  S   UNL A   1      48.012  26.356  37.902  1.00  0.00     0.124 S 
ATOM     74  O   UNL A   1      47.754  25.863  39.328  1.00  0.00    -0.237 OA
ATOM     75  O   UNL A   1      48.220  25.155  36.977  1.00  0.00    -0.237 OA
ATOM     76  O   UNL A   1      49.410  27.340  37.882  1.00  0.00    -0.744 OA
ENDBRANCH  72  73
ENDBRANCH  53  67
BRANCH  54  77
ATOM     77  C   UNL A   1      36.317  33.446  33.090  1.00  0.00    -0.014 A 
ATOM     78  C   UNL A   1      36.422  34.590  32.315  1.00  0.00     0.010 A 
ATOM     79  C   UNL A   1      35.134  32.979  33.470  1.00  0.00     0.010 A 
ATOM     80  C   UNL A   1      35.224  35.340  32.234  1.00  0.00     0.020 A 
ATOM     81  C   UNL A   1      33.989  33.701  33.238  1.00  0.00     0.020 A 
ATOM     82  C   UNL A   1      34.026  34.871  32.531  1.00  0.00     0.054 A 
BRANCH  82  83
ATOM     83  S   UNL A   1      32.514  35.729  32.028  1.00  0.00     0.124 S 
ATOM     84  O   UNL A   1      32.326  35.584  30.515  1.00  0.00    -0.237 OA
ATOM     85  O   UNL A   1      31.314  35.117  32.753  1.00  0.00    -0.237 OA
ATOM     86  O   UNL A   1      32.640  37.387  32.430  1.00  0.00    -0.744 OA
ENDBRANCH  82  83
ENDBRANCH  54  77
BRANCH  66  87
ATOM     87  C   UNL A   1      40.742  34.192  38.492  1.00  0.00    -0.014 A 
ATOM     88  C   UNL A   1      40.105  33.844  39.672  1.00  0.00     0.010 A 
ATOM     89  C   UNL A   1      41.338  35.370  38.353  1.00  0.00     0.010 A 
ATOM     90  C   UNL A   1      39.900  34.932  40.555  1.00  0.00     0.020 A 
ATOM     91  C   UNL A   1      41.208  36.339  39.318  1.00  0.00     0.020 A 
ATOM     92  C   UNL A   1      40.541  36.084  40.485  1.00  0.00     0.054 A 
BRANCH  92  93
ATOM     93  S   UNL A   1      40.535  37.264  41.858  1.00  0.00     0.124 S 
ATOM     94  O   UNL A   1      41.948  37.386  42.431  1.00  0.00    -0.237 OA
ATOM     95  O   UNL A   1      40.069  38.631  41.353  1.00  0.00    -0.237 OA
ATOM     96  O   UNL A   1      39.471  36.713  43.077  1.00  0.00    -0.744 OA
ENDBRANCH  92  93
ENDBRANCH  66  87
ENDBRANCH  40  41
ENDBRANCH  33  35
ENDBRANCH  32  33
ENDBRANCH  31  32
ENDBRANCH  30  31
ENDBRANCH  29  30
ENDBRANCH   1  29
TORSDOF 22
ENDMDL
MODEL 2
REMARK VINA RESULT:     -10.1      2.488      4.002
REMARK SMILES O=C(OCCOCCOCCOC(=O)c1ccc(-c2c3nc(c(-c4ccc(S(=O)(=O)[O-])cc4)c4ccc([nH]4)c(-c4ccc(S(=O)(=O)[O-])cc4)c4nc(c(-c5ccc(S(=O)(=O)[O-])cc5)c5ccc2[nH]5)C=C4)C=C3)cc1)C1=Cc2cc(S(F)(F)(F)(F)F)ccc2O[C@@H]1C(F)(F)F
REMARK SMILES IDX 8 1 7 2 6 3 5 4 4 5 3 6 2 7 1 8 75 9 76 10 90 11 77 12 89 13
REMARK SMILES IDX 78 14 88 15 79 16 87 17 86 18 91 19 92 20 93 21 94 22 80 23
REMARK SMILES IDX 81 24 82 25 83 26 84 27 85 28 9 29 10 30 11 31 12 32 13 33
REMARK SMILES IDX 14 34 15 35 16 36 74 37 17 38 73 39 18 40 19 41 20 42 67 43
REMARK SMILES IDX 21 44 72 45 66 46 68 47 22 48 71 49 65 50 64 51 23 53 53 54
REMARK SMILES IDX 34 55 52 56 35 57 38 58 51 59 69 60 36 61 37 62 50 64 70 65
REMARK SMILES IDX 39 66 24 67 25 68 33 69 26 70 32 71 27 72 28 73 29 74 30 75
REMARK SMILES IDX 31 76 54 77 55 78 63 79 56 80 62 81 57 82 58 83 59 84 60 85
REMARK SMILES IDX 61 86 40 87 41 88 49 89 42 90 48 91 43 92 44 93 45 94 46 95
REMARK SMILES IDX 47 96
REMARK H PARENT 68 52 38 63
REMARK Flexibility Score: inf
ROOT
ATOM      1  C   UNL A   1      40.464  21.778  26.813  1.00  0.00     0.188 C 
ENDROOT
BRANCH   1   2
ATOM      2  C   UNL A   1      39.129  22.301  26.311  1.00  0.00     0.188 C 
BRANCH   2   3
ATOM      3  O   UNL A   1      38.560  21.361  25.411  1.00  0.00    -0.376 OA
BRANCH   3   4
ATOM      4  C   UNL A   1      37.419  21.933  24.790  1.00  0.00     0.202 C 
BRANCH   4   5
ATOM      5  C   UNL A   1      37.183  23.328  25.344  1.00  0.00     0.261 C 
BRANCH   5   6
ATOM      6  O   UNL A   1      36.281  24.027  24.500  1.00  0.00    -0.460 OA
BRANCH   6   7
ATOM      7  C   UNL A   1      35.221  23.330  23.861  1.00  0.00     0.338 C 
ATOM      8  O   UNL A   1      35.302  23.046  22.625  1.00  0.00    -0.246 OA
BRANCH   7   9
ATOM      9  C   UNL A   1      33.991  22.922  24.656  1.00  0.00     0.087 C 
ATOM     10  C   UNL A   1      33.107  23.869  25.074  1.00  0.00     0.027 C 
ATOM     11  C   UNL A   1      33.748  21.458  24.983  1.00  0.00     0.316 C 
ATOM     12  C   UNL A   1      33.349  25.333  24.745  1.00  0.00     0.019 A 
ATOM     13  O   UNL A   1      33.951  24.815  22.505  1.00  0.00    -0.475 OA
ATOM     14  C   UNL A   1      33.268  26.202  25.820  1.00  0.00     0.036 A 
ATOM     15  C   UNL A   1      33.723  25.757  23.543  1.00  0.00     0.128 A 
ATOM     16  C   UNL A   1      33.324  27.569  25.458  1.00  0.00     0.107 A 
ATOM     17  C   UNL A   1      33.890  27.098  23.296  1.00  0.00     0.048 A 
ATOM     18  C   UNL A   1      33.767  28.019  24.299  1.00  0.00     0.028 A 
BRANCH  11  19
ATOM     19  C   UNL A   1      32.425  21.016  24.379  1.00  0.00     0.430 C 
ATOM     20  F   UNL A   1      31.428  21.385  25.178  1.00  0.00    -0.167 F 
ATOM     21  F   UNL A   1      32.271  21.582  23.186  1.00  0.00    -0.167 F 
ATOM     22  F   UNL A   1      32.420  19.693  24.245  1.00  0.00    -0.167 F 
ENDBRANCH  11  19
BRANCH  16  23
ATOM     23  S   UNL A   1      32.745  28.785  26.668  1.00  0.00     0.310 S 
ATOM     24  F   UNL A   1      33.219  29.991  25.752  1.00  0.00    -0.094 F 
ATOM     25  F   UNL A   1      34.179  28.804  27.318  1.00  0.00    -0.094 F 
ATOM     26  F   UNL A   1      32.237  29.841  27.689  1.00  0.00    -0.094 F 
ATOM     27  F   UNL A   1      31.357  28.857  25.917  1.00  0.00    -0.094 F 
ATOM     28  F   UNL A   1      33.279  27.798  25.555  1.00  0.00    -0.094 F 
ENDBRANCH  16  23
ENDBRANCH   7   9
ENDBRANCH   6   7
ENDBRANCH   5   6
ENDBRANCH   4   5
ENDBRANCH   3   4
ENDBRANCH   2   3
ENDBRANCH   1   2
BRANCH   1  29
ATOM     29  O   UNL A   1      41.380  21.702  25.731  1.00  0.00    -0.376 OA
BRANCH  29  30
ATOM     30  C   UNL A   1      42.685  22.020  26.192  1.00  0.00     0.202 C 
BRANCH  30  31
ATOM     31  C   UNL A   1      43.223  23.209  25.411  1.00  0.00     0.261 C 
BRANCH  31  32
ATOM     32  O   UNL A   1      43.351  24.325  26.279  1.00  0.00    -0.460 OA
BRANCH  32  33
ATOM     33  C   UNL A   1      42.645  25.525  26.000  1.00  0.00     0.338 C 
ATOM     34  O   UNL A   1      42.422  25.867  24.796  1.00  0.00    -0.246 OA
BRANCH  33  35
ATOM     35  C   UNL A   1      42.154  26.401  27.142  1.00  0.00     0.060 A 
ATOM     36  C   UNL A   1      42.859  27.562  27.416  1.00  0.00     0.016 A 
ATOM     37  C   UNL A   1      41.188  25.975  27.948  1.00  0.00     0.016 A 
ATOM     38  C   UNL A   1      42.666  28.052  28.729  1.00  0.00     0.010 A 
ATOM     39  C   UNL A   1      40.966  26.587  29.157  1.00  0.00     0.010 A 
ATOM     40  C   UNL A   1      41.668  27.703  29.520  1.00  0.00    -0.014 A 
BRANCH  40  41
ATOM     41  C   UNL A   1      41.318  28.499  30.767  1.00  0.00     0.031 A 
ATOM     42  C   UNL A   1      42.068  28.391  31.939  1.00  0.00     0.074 A 
ATOM     43  C   UNL A   1      40.304  29.424  30.579  1.00  0.00     0.049 A 
ATOM     44  N   UNL A   1      41.977  29.146  33.036  1.00  0.00    -0.248 NA
ATOM     45  C   UNL A   1      43.121  27.388  32.154  1.00  0.00     0.031 C 
ATOM     46  C   UNL A   1      39.549  29.544  29.396  1.00  0.00     0.029 A 
ATOM     47  N   UNL A   1      39.847  30.370  31.469  1.00  0.00    -0.354 N 
ATOM     48  C   UNL A   1      42.874  28.752  33.942  1.00  0.00     0.074 A 
ATOM     49  C   UNL A   1      43.619  27.611  33.389  1.00  0.00     0.031 C 
ATOM     50  C   UNL A   1      38.643  30.541  29.575  1.00  0.00     0.029 A 
ATOM     51  C   UNL A   1      38.816  31.060  30.872  1.00  0.00     0.049 A 
ATOM     52  H   UNL A   1      40.198  30.526  32.376  1.00  0.00     0.167 HD
ATOM     53  C   UNL A   1      43.101  29.299  35.206  1.00  0.00     0.031 A 
ATOM     54  C   UNL A   1      38.058  32.087  31.412  1.00  0.00     0.031 A 
ATOM     55  C   UNL A   1      42.372  30.354  35.728  1.00  0.00     0.049 A 
ATOM     56  C   UNL A   1      38.246  32.597  32.699  1.00  0.00     0.074 A 
ATOM     57  C   UNL A   1      42.593  30.922  36.997  1.00  0.00     0.029 A 
ATOM     58  N   UNL A   1      41.323  31.028  35.140  1.00  0.00    -0.354 N 
ATOM     59  N   UNL A   1      39.169  32.228  33.589  1.00  0.00    -0.248 NA
ATOM     60  C   UNL A   1      37.427  33.662  33.293  1.00  0.00     0.031 C 
ATOM     61  C   UNL A   1      41.686  31.921  37.177  1.00  0.00     0.029 A 
ATOM     62  C   UNL A   1      40.883  31.990  36.023  1.00  0.00     0.049 A 
ATOM     63  H   UNL A   1      40.955  30.854  34.244  1.00  0.00     0.167 HD
ATOM     64  C   UNL A   1      39.050  32.956  34.701  1.00  0.00     0.074 A 
ATOM     65  C   UNL A   1      37.923  33.884  34.529  1.00  0.00     0.031 C 
ATOM     66  C   UNL A   1      39.839  32.887  35.851  1.00  0.00     0.031 A 
BRANCH  53  67
ATOM     67  C   UNL A   1      44.213  28.705  36.055  1.00  0.00    -0.014 A 
ATOM     68  C   UNL A   1      45.455  29.311  35.955  1.00  0.00     0.010 A 
ATOM     69  C   UNL A   1      44.004  27.697  36.894  1.00  0.00     0.010 A 
ATOM     70  C   UNL A   1      46.498  28.585  36.580  1.00  0.00     0.020 A 
ATOM     71  C   UNL A   1      45.050  27.125  37.575  1.00  0.00     0.020 A 
ATOM     72  C   UNL A   1      46.315  27.634  37.478  1.00  0.00     0.054 A 
BRANCH  72  73
ATOM     73  S   UNL A   1      47.667  27.037  38.523  1.00  0.00     0.124 S 
ATOM     74  O   UNL A   1      48.091  28.143  39.493  1.00  0.00    -0.237 OA
ATOM     75  O   UNL A   1      47.197  25.815  39.316  1.00  0.00    -0.237 OA
ATOM     76  O   UNL A   1      48.996  26.600  37.539  1.00  0.00    -0.744 OA
ENDBRANCH  72  73
ENDBRANCH  53  67
BRANCH  54  77
ATOM     77  C   UNL A   1      36.957  32.691  30.556  1.00  0.00    -0.014 A 
ATOM     78  C   UNL A   1      37.198  33.770  29.720  1.00  0.00     0.010 A 
ATOM     79  C   UNL A   1      35.738  32.181  30.686  1.00  0.00     0.010 A 
ATOM     80  C   UNL A   1      36.025  34.429  29.282  1.00  0.00     0.020 A 
ATOM     81  C   UNL A   1      34.654  32.804  30.117  1.00  0.00     0.020 A 
ATOM     82  C   UNL A   1      34.812  33.909  29.328  1.00  0.00     0.054 A 
BRANCH  82  83
ATOM     83  S   UNL A   1      33.433  34.620  28.396  1.00  0.00     0.124 S 
ATOM     84  O   UNL A   1      32.533  35.416  29.345  1.00  0.00    -0.237 OA
ATOM     85  O   UNL A   1      33.977  35.550  27.309  1.00  0.00    -0.237 OA
ATOM     86  O   UNL A   1      32.527  33.363  27.671  1.00  0.00    -0.744 OA
ENDBRANCH  82  83
ENDBRANCH  54  77
BRANCH  66  87
ATOM     87  C   UNL A   1      39.535  33.853  36.984  1.00  0.00    -0.014 A 
ATOM     88  C   UNL A   1      40.236  35.048  36.993  1.00  0.00     0.010 A 
ATOM     89  C   UNL A   1      38.731  33.519  37.986  1.00  0.00     0.010 A 
ATOM     90  C   UNL A   1      40.245  35.698  38.250  1.00  0.00     0.020 A 
ATOM     91  C   UNL A   1      38.688  34.277  39.132  1.00  0.00     0.020 A 
ATOM     92  C   UNL A   1      39.401  35.440  39.233  1.00  0.00     0.054 A 
BRANCH  92  93
ATOM     93  S   UNL A   1      39.201  36.562  40.638  1.00  0.00     0.124 S 
ATOM     94  O   UNL A   1      38.453  35.843  41.762  1.00  0.00    -0.237 OA
ATOM     95  O   UNL A   1      40.579  37.000  41.141  1.00  0.00    -0.237 OA
ATOM     96  O   UNL A   1      38.310  37.936  40.148  1.00  0.00    -0.744 OA
ENDBRANCH  92  93
ENDBRANCH  66  87
ENDBRANCH  40  41
ENDBRANCH  33  35
ENDBRANCH  32  33
ENDBRANCH  31  32
ENDBRANCH  30  31
ENDBRANCH  29  30
ENDBRANCH   1  29
TORSDOF 22
ENDMDL
MODEL 3
REMARK VINA RESULT:      -9.9      5.770     10.105
REMARK SMILES O=C(OCCOCCOCCOC(=O)c1ccc(-c2c3nc(c(-c4ccc(S(=O)(=O)[O-])cc4)c4ccc([nH]4)c(-c4ccc(S(=O)(=O)[O-])cc4)c4nc(c(-c5ccc(S(=O)(=O)[O-])cc5)c5ccc2[nH]5)C=C4)C=C3)cc1)C1=Cc2cc(S(F)(F)(F)(F)F)ccc2O[C@@H]1C(F)(F)F
REMARK SMILES IDX 8 1 7 2 6 3 5 4 4 5 3 6 2 7 1 8 75 9 76 10 90 11 77 12 89 13
REMARK SMILES IDX 78 14 88 15 79 16 87 17 86 18 91 19 92 20 93 21 94 22 80 23
REMARK SMILES IDX 81 24 82 25 83 26 84 27 85 28 9 29 10 30 11 31 12 32 13 33
REMARK SMILES IDX 14 34 15 35 16 36 74 37 17 38 73 39 18 40 19 41 20 42 67 43
REMARK SMILES IDX 21 44 72 45 66 46 68 47 22 48 71 49 65 50 64 51 23 53 53 54
REMARK SMILES IDX 34 55 52 56 35 57 38 58 51 59 69 60 36 61 37 62 50 64 70 65
REMARK SMILES IDX 39 66 24 67 25 68 33 69 26 70 32 71 27 72 28 73 29 74 30 75
REMARK SMILES IDX 31 76 54 77 55 78 63 79 56 80 62 81 57 82 58 83 59 84 60 85
REMARK SMILES IDX 61 86 40 87 41 88 49 89 42 90 48 91 43 92 44 93 45 94 46 95
REMARK SMILES IDX 47 96
REMARK H PARENT 68 52 38 63
REMARK Flexibility Score: inf
ROOT
ATOM      1  C   UNL A   1      35.129  22.579  24.073  1.00  0.00     0.188 C 
ENDROOT
BRANCH   1   2
ATOM      2  C   UNL A   1      34.041  21.709  24.680  1.00  0.00     0.188 C 
BRANCH   2   3
ATOM      3  O   UNL A   1      32.998  21.527  23.733  1.00  0.00    -0.376 OA
BRANCH   3   4
ATOM      4  C   UNL A   1      32.838  22.714  22.971  1.00  0.00     0.202 C 
BRANCH   4   5
ATOM      5  C   UNL A   1      31.363  23.075  22.896  1.00  0.00     0.261 C 
BRANCH   5   6
ATOM      6  O   UNL A   1      31.146  24.319  23.545  1.00  0.00    -0.460 OA
BRANCH   6   7
ATOM      7  C   UNL A   1      31.642  25.518  22.967  1.00  0.00     0.338 C 
ATOM      8  O   UNL A   1      31.374  25.797  21.756  1.00  0.00    -0.246 OA
BRANCH   7   9
ATOM      9  C   UNL A   1      32.492  26.467  23.796  1.00  0.00     0.087 C 
ATOM     10  C   UNL A   1      31.992  27.674  24.175  1.00  0.00     0.027 C 
ATOM     11  C   UNL A   1      33.901  26.066  24.203  1.00  0.00     0.316 C 
ATOM     12  C   UNL A   1      30.582  28.074  23.769  1.00  0.00     0.019 A 
ATOM     13  O   UNL A   1      29.727  25.925  24.318  1.00  0.00    -0.475 OA
ATOM     14  C   UNL A   1      30.467  29.323  23.182  1.00  0.00     0.036 A 
ATOM     15  C   UNL A   1      29.540  27.256  23.860  1.00  0.00     0.128 A 
ATOM     16  C   UNL A   1      29.130  29.738  22.976  1.00  0.00     0.107 A 
ATOM     17  C   UNL A   1      28.282  27.686  23.512  1.00  0.00     0.048 A 
ATOM     18  C   UNL A   1      28.086  28.931  22.982  1.00  0.00     0.028 A 
BRANCH  11  19
ATOM     19  C   UNL A   1      34.005  26.047  25.719  1.00  0.00     0.430 C 
ATOM     20  F   UNL A   1      35.001  25.246  26.086  1.00  0.00    -0.167 F 
ATOM     21  F   UNL A   1      34.240  27.278  26.163  1.00  0.00    -0.167 F 
ATOM     22  F   UNL A   1      32.863  25.601  26.236  1.00  0.00    -0.167 F 
ENDBRANCH  11  19
BRANCH  16  23
ATOM     23  S   UNL A   1      28.831  31.500  22.688  1.00  0.00     0.310 S 
ATOM     24  F   UNL A   1      27.269  31.317  22.898  1.00  0.00    -0.094 F 
ATOM     25  F   UNL A   1      28.592  31.198  21.160  1.00  0.00    -0.094 F 
ATOM     26  F   UNL A   1      28.560  33.014  22.460  1.00  0.00    -0.094 F 
ATOM     27  F   UNL A   1      28.936  31.762  24.242  1.00  0.00    -0.094 F 
ATOM     28  F   UNL A   1      28.996  29.951  22.953  1.00  0.00    -0.094 F 
ENDBRANCH  16  23
ENDBRANCH   7   9
ENDBRANCH   6   7
ENDBRANCH   5   6
ENDBRANCH   4   5
ENDBRANCH   3   4
ENDBRANCH   2   3
ENDBRANCH   1   2
BRANCH   1  29
ATOM     29  O   UNL A   1      36.333  22.412  24.808  1.00  0.00    -0.376 OA
BRANCH  29  30
ATOM     30  C   UNL A   1      36.686  21.036  24.831  1.00  0.00     0.202 C 
BRANCH  30  31
ATOM     31  C   UNL A   1      38.093  20.883  25.385  1.00  0.00     0.261 C 
BRANCH  31  32
ATOM     32  O   UNL A   1      38.635  22.166  25.660  1.00  0.00    -0.460 OA
BRANCH  32  33
ATOM     33  C   UNL A   1      39.569  22.331  26.717  1.00  0.00     0.338 C 
ATOM     34  O   UNL A   1      40.083  21.311  27.276  1.00  0.00    -0.246 OA
BRANCH  33  35
ATOM     35  C   UNL A   1      39.955  23.726  27.180  1.00  0.00     0.060 A 
ATOM     36  C   UNL A   1      39.590  24.798  26.381  1.00  0.00     0.016 A 
ATOM     37  C   UNL A   1      40.762  23.888  28.223  1.00  0.00     0.016 A 
ATOM     38  C   UNL A   1      40.365  25.961  26.594  1.00  0.00     0.010 A 
ATOM     39  C   UNL A   1      41.380  25.094  28.448  1.00  0.00     0.010 A 
ATOM     40  C   UNL A   1      41.112  26.180  27.661  1.00  0.00    -0.014 A 
BRANCH  40  41
ATOM     41  C   UNL A   1      41.643  27.564  27.997  1.00  0.00     0.031 A 
ATOM     42  C   UNL A   1      40.807  28.571  28.482  1.00  0.00     0.074 A 
ATOM     43  C   UNL A   1      43.022  27.673  27.919  1.00  0.00     0.049 A 
ATOM     44  N   UNL A   1      41.165  29.759  28.971  1.00  0.00    -0.248 NA
ATOM     45  C   UNL A   1      39.342  28.471  28.534  1.00  0.00     0.031 C 
ATOM     46  C   UNL A   1      43.872  26.658  27.439  1.00  0.00     0.029 A 
ATOM     47  N   UNL A   1      43.807  28.746  28.277  1.00  0.00    -0.354 N 
ATOM     48  C   UNL A   1      40.085  30.444  29.355  1.00  0.00     0.074 A 
ATOM     49  C   UNL A   1      38.896  29.626  29.073  1.00  0.00     0.031 C 
ATOM     50  C   UNL A   1      45.150  27.117  27.497  1.00  0.00     0.029 A 
ATOM     51  C   UNL A   1      45.120  28.426  28.013  1.00  0.00     0.049 A 
ATOM     52  H   UNL A   1      43.484  29.596  28.657  1.00  0.00     0.167 HD
ATOM     53  C   UNL A   1      40.045  31.715  29.929  1.00  0.00     0.031 A 
ATOM     54  C   UNL A   1      46.241  29.217  28.205  1.00  0.00     0.031 A 
ATOM     55  C   UNL A   1      41.170  32.489  30.160  1.00  0.00     0.049 A 
ATOM     56  C   UNL A   1      46.196  30.513  28.726  1.00  0.00     0.074 A 
ATOM     57  C   UNL A   1      41.147  33.770  30.745  1.00  0.00     0.029 A 
ATOM     58  N   UNL A   1      42.482  32.179  29.873  1.00  0.00    -0.354 N 
ATOM     59  N   UNL A   1      45.120  31.181  29.145  1.00  0.00    -0.248 NA
ATOM     60  C   UNL A   1      47.374  31.373  28.902  1.00  0.00     0.031 C 
ATOM     61  C   UNL A   1      42.427  34.230  30.803  1.00  0.00     0.029 A 
ATOM     62  C   UNL A   1      43.268  33.244  30.253  1.00  0.00     0.049 A 
ATOM     63  H   UNL A   1      42.801  31.341  29.468  1.00  0.00     0.167 HD
ATOM     64  C   UNL A   1      45.474  32.386  29.595  1.00  0.00     0.074 A 
ATOM     65  C   UNL A   1      46.928  32.530  29.439  1.00  0.00     0.031 C 
ATOM     66  C   UNL A   1      44.644  33.370  30.135  1.00  0.00     0.031 A 
BRANCH  53  67
ATOM     67  C   UNL A   1      38.691  32.282  30.324  1.00  0.00    -0.014 A 
ATOM     68  C   UNL A   1      38.202  31.903  31.563  1.00  0.00     0.010 A 
ATOM     69  C   UNL A   1      38.029  33.139  29.555  1.00  0.00     0.010 A 
ATOM     70  C   UNL A   1      36.851  32.266  31.782  1.00  0.00     0.020 A 
ATOM     71  C   UNL A   1      36.766  33.557  29.899  1.00  0.00     0.020 A 
ATOM     72  C   UNL A   1      36.197  33.175  31.082  1.00  0.00     0.054 A 
BRANCH  72  73
ATOM     73  S   UNL A   1      34.631  33.876  31.658  1.00  0.00     0.124 S 
ATOM     74  O   UNL A   1      34.899  35.189  32.397  1.00  0.00    -0.237 OA
ATOM     75  O   UNL A   1      33.720  34.143  30.457  1.00  0.00    -0.237 OA
ATOM     76  O   UNL A   1      33.867  32.770  32.716  1.00  0.00    -0.744 OA
ENDBRANCH  72  73
ENDBRANCH  53  67
BRANCH  54  77
ATOM     77  C   UNL A   1      47.596  28.644  27.825  1.00  0.00    -0.014 A 
ATOM     78  C   UNL A   1      48.137  28.837  26.563  1.00  0.00     0.010 A 
ATOM     79  C   UNL A   1      48.216  27.900  28.733  1.00  0.00     0.010 A 
ATOM     80  C   UNL A   1      49.203  27.958  26.256  1.00  0.00     0.020 A 
ATOM     81  C   UNL A   1      49.333  27.173  28.398  1.00  0.00     0.020 A 
ATOM     82  C   UNL A   1      49.886  27.268  27.151  1.00  0.00     0.054 A 
BRANCH  82  83
ATOM     83  S   UNL A   1      51.472  26.493  26.750  1.00  0.00     0.124 S 
ATOM     84  O   UNL A   1      51.394  24.993  27.046  1.00  0.00    -0.237 OA
ATOM     85  O   UNL A   1      51.783  26.706  25.267  1.00  0.00    -0.237 OA
ATOM     86  O   UNL A   1      52.707  27.198  27.700  1.00  0.00    -0.744 OA
ENDBRANCH  82  83
ENDBRANCH  54  77
BRANCH  66  87
ATOM     87  C   UNL A   1      45.287  34.658  30.621  1.00  0.00    -0.014 A 
ATOM     88  C   UNL A   1      45.315  35.719  29.730  1.00  0.00     0.010 A 
ATOM     89  C   UNL A   1      45.901  34.729  31.796  1.00  0.00     0.010 A 
ATOM     90  C   UNL A   1      46.270  36.712  30.052  1.00  0.00     0.020 A 
ATOM     91  C   UNL A   1      46.713  35.796  32.098  1.00  0.00     0.020 A 
ATOM     92  C   UNL A   1      46.835  36.853  31.238  1.00  0.00     0.054 A 
BRANCH  92  93
ATOM     93  S   UNL A   1      47.723  38.360  31.700  1.00  0.00     0.124 S 
ATOM     94  O   UNL A   1      47.384  38.730  33.145  1.00  0.00    -0.237 OA
ATOM     95  O   UNL A   1      49.230  38.123  31.574  1.00  0.00    -0.237 OA
ATOM     96  O   UNL A   1      47.259  39.636  30.661  1.00  0.00    -0.744 OA
ENDBRANCH  92  93
ENDBRANCH  66  87
ENDBRANCH  40  41
ENDBRANCH  33  35
ENDBRANCH  32  33
ENDBRANCH  31  32
ENDBRANCH  30  31
ENDBRANCH  29  30
ENDBRANCH   1  29
TORSDOF 22
ENDMDL
