MODEL 1
REMARK VINA RESULT:     -10.2      0.000      0.000
REMARK SMILES N#Cc1ccc(C[N@H+]2CCCC[C@H]2C(=O)OCCOCCOCCOC(=O)c2ccc(-c3c4nc(c(-c5ccc(S(=O)(=O)[O-])cc5)c5ccc([nH]5)c(-c5ccc(S(=O)(=O)[O-])cc5)c5nc(c(-c6ccc(S(=O)(=O)[O-])cc6)c6ccc3[nH]6)C=C5)C=C4)cc2)c(F)c1
REMARK SMILES IDX 20 1 19 2 18 3 17 4 16 5 14 6 15 7 13 8 8 9 9 10 10 12 12 13
REMARK SMILES IDX 11 14 7 15 6 16 3 17 4 18 90 19 5 20 88 21 89 22 2 23 1 24
REMARK SMILES IDX 21 25 22 26 23 27 24 28 25 29 26 30 27 31 28 32 29 33 87 34
REMARK SMILES IDX 30 35 86 36 31 37 32 38 33 39 80 40 34 41 85 42 79 43 81 44
REMARK SMILES IDX 35 45 84 46 78 47 77 48 36 50 66 51 47 52 65 53 48 54 51 55
REMARK SMILES IDX 64 56 82 57 49 58 50 59 63 61 83 62 52 63 37 64 38 65 46 66
REMARK SMILES IDX 39 67 45 68 40 69 41 70 42 71 43 72 44 73 67 74 68 75 76 76
REMARK SMILES IDX 69 77 75 78 70 79 71 80 72 81 73 82 74 83 53 84 54 85 62 86
REMARK SMILES IDX 55 87 61 88 56 89 57 90 58 91 59 92 60 93
REMARK H PARENT 8 11 81 49 51 60
REMARK Flexibility Score: inf
ROOT
ATOM      1  C   UNL A   1      35.670  22.552  24.301  1.00  0.00     0.188 C 
ENDROOT
BRANCH   1   2
ATOM      2  O   UNL A   1      34.332  22.334  23.918  1.00  0.00    -0.376 OA
BRANCH   2   3
ATOM      3  C   UNL A   1      33.409  23.404  23.933  1.00  0.00     0.202 C 
BRANCH   3   4
ATOM      4  C   UNL A   1      33.068  24.356  25.131  1.00  0.00     0.261 C 
BRANCH   4   5
ATOM      5  O   UNL A   1      32.740  25.764  25.030  1.00  0.00    -0.459 OA
BRANCH   5   6
ATOM      6  C   UNL A   1      31.481  26.005  24.604  1.00  0.00     0.364 C 
ATOM      7  O   UNL A   1      30.558  25.546  25.251  1.00  0.00    -0.245 OA
BRANCH   6   8
ATOM      8  C   UNL A   1      31.313  26.829  23.302  1.00  0.00     0.295 C 
ATOM      9  N   UNL A   1      31.671  28.269  23.452  1.00  0.00    -0.319 N 
ATOM     10  C   UNL A   1      33.100  28.543  23.494  1.00  0.00     0.263 C 
ATOM     11  H   UNL A   1      31.361  28.602  22.539  1.00  0.00     0.349 HD
ATOM     12  C   UNL A   1      33.763  28.091  22.189  1.00  0.00     0.062 C 
ATOM     13  C   UNL A   1      32.018  26.245  22.050  1.00  0.00     0.078 C 
ATOM     14  C   UNL A   1      33.484  26.637  21.836  1.00  0.00     0.013 C 
BRANCH   9  15
ATOM     15  C   UNL A   1      30.808  29.167  24.258  1.00  0.00     0.302 C 
BRANCH  15  16
ATOM     16  C   UNL A   1      29.727  29.981  23.571  1.00  0.00     0.042 A 
ATOM     17  C   UNL A   1      28.259  31.784  21.978  1.00  0.00     0.055 A 
ATOM     18  C   UNL A   1      28.377  30.442  21.595  1.00  0.00     0.020 A 
ATOM     19  C   UNL A   1      28.742  32.192  23.223  1.00  0.00     0.059 A 
ATOM     20  C   UNL A   1      29.106  29.541  22.389  1.00  0.00     0.014 A 
ATOM     21  C   UNL A   1      29.449  31.285  24.017  1.00  0.00     0.133 A 
ATOM     22  F   UNL A   1      30.056  31.753  25.119  1.00  0.00    -0.206 F 
BRANCH  17  23
ATOM     23  C   UNL A   1      27.774  32.768  21.047  1.00  0.00     0.099 C 
ATOM     24  N   UNL A   1      27.379  33.603  20.351  1.00  0.00    -0.192 NA
ENDBRANCH  17  23
ENDBRANCH  15  16
ENDBRANCH   9  15
ENDBRANCH   6   8
ENDBRANCH   5   6
ENDBRANCH   4   5
ENDBRANCH   3   4
ENDBRANCH   2   3
ENDBRANCH   1   2
BRANCH   1  25
ATOM     25  C   UNL A   1      35.988  21.823  25.601  1.00  0.00     0.188 C 
BRANCH  25  26
ATOM     26  O   UNL A   1      37.335  21.659  26.001  1.00  0.00    -0.376 OA
BRANCH  26  27
ATOM     27  C   UNL A   1      38.241  22.692  25.653  1.00  0.00     0.202 C 
BRANCH  27  28
ATOM     28  C   UNL A   1      38.267  24.034  26.424  1.00  0.00     0.261 C 
BRANCH  28  29
ATOM     29  O   UNL A   1      39.441  24.370  27.197  1.00  0.00    -0.460 OA
BRANCH  29  30
ATOM     30  C   UNL A   1      40.051  25.549  26.904  1.00  0.00     0.338 C 
ATOM     31  O   UNL A   1      40.599  25.835  25.853  1.00  0.00    -0.246 OA
BRANCH  30  32
ATOM     32  C   UNL A   1      39.788  26.557  27.969  1.00  0.00     0.060 A 
ATOM     33  C   UNL A   1      40.348  27.838  27.843  1.00  0.00     0.016 A 
ATOM     34  C   UNL A   1      39.120  26.223  29.144  1.00  0.00     0.016 A 
ATOM     35  C   UNL A   1      40.245  28.785  28.862  1.00  0.00     0.010 A 
ATOM     36  C   UNL A   1      39.049  27.163  30.190  1.00  0.00     0.010 A 
ATOM     37  C   UNL A   1      39.632  28.443  30.066  1.00  0.00    -0.014 A 
BRANCH  37  38
ATOM     38  C   UNL A   1      39.790  29.334  31.248  1.00  0.00     0.031 A 
ATOM     39  C   UNL A   1      41.012  29.170  32.114  1.00  0.00     0.074 A 
ATOM     40  C   UNL A   1      38.915  30.319  31.528  1.00  0.00     0.049 A 
ATOM     41  N   UNL A   1      41.299  29.716  33.268  1.00  0.00    -0.248 NA
ATOM     42  C   UNL A   1      42.051  28.263  31.602  1.00  0.00     0.031 C 
ATOM     43  C   UNL A   1      37.768  30.699  30.703  1.00  0.00     0.029 A 
ATOM     44  N   UNL A   1      38.859  31.182  32.596  1.00  0.00    -0.354 N 
ATOM     45  C   UNL A   1      42.524  29.177  33.647  1.00  0.00     0.074 A 
ATOM     46  C   UNL A   1      42.916  28.253  32.603  1.00  0.00     0.031 C 
ATOM     47  C   UNL A   1      37.121  31.717  31.298  1.00  0.00     0.029 A 
ATOM     48  C   UNL A   1      37.762  32.012  32.578  1.00  0.00     0.049 A 
ATOM     49  H   UNL A   1      39.539  31.204  33.307  1.00  0.00     0.167 HD
ATOM     50  C   UNL A   1      43.251  29.418  34.765  1.00  0.00     0.031 A 
ATOM     51  C   UNL A   1      37.304  32.879  33.505  1.00  0.00     0.031 A 
ATOM     52  C   UNL A   1      42.850  30.334  35.801  1.00  0.00     0.049 A 
ATOM     53  C   UNL A   1      38.050  33.034  34.806  1.00  0.00     0.074 A 
ATOM     54  C   UNL A   1      43.506  30.642  36.981  1.00  0.00     0.029 A 
ATOM     55  N   UNL A   1      41.684  31.087  35.786  1.00  0.00    -0.354 N 
ATOM     56  N   UNL A   1      39.178  32.480  35.183  1.00  0.00    -0.248 NA
ATOM     57  C   UNL A   1      37.455  33.928  35.810  1.00  0.00     0.031 C 
ATOM     58  C   UNL A   1      42.697  31.518  37.714  1.00  0.00     0.029 A 
ATOM     59  C   UNL A   1      41.581  31.828  36.953  1.00  0.00     0.049 A 
ATOM     60  H   UNL A   1      41.026  31.094  35.053  1.00  0.00     0.167 HD
ATOM     61  C   UNL A   1      39.448  32.987  36.451  1.00  0.00     0.074 A 
ATOM     62  C   UNL A   1      38.367  33.899  36.772  1.00  0.00     0.031 C 
ATOM     63  C   UNL A   1      40.498  32.729  37.270  1.00  0.00     0.031 A 
BRANCH  50  64
ATOM     64  C   UNL A   1      44.505  28.600  34.960  1.00  0.00    -0.014 A 
ATOM     65  C   UNL A   1      45.756  29.020  34.469  1.00  0.00     0.010 A 
ATOM     66  C   UNL A   1      44.419  27.363  35.627  1.00  0.00     0.010 A 
ATOM     67  C   UNL A   1      46.872  28.182  34.566  1.00  0.00     0.020 A 
ATOM     68  C   UNL A   1      45.541  26.542  35.766  1.00  0.00     0.020 A 
ATOM     69  C   UNL A   1      46.753  26.943  35.205  1.00  0.00     0.054 A 
BRANCH  69  70
ATOM     70  S   UNL A   1      48.206  25.860  35.282  1.00  0.00     0.124 S 
ATOM     71  O   UNL A   1      49.244  26.780  35.739  1.00  0.00    -0.237 OA
ATOM     72  O   UNL A   1      47.795  24.845  36.249  1.00  0.00    -0.237 OA
ATOM     73  O   UNL A   1      48.357  25.385  33.909  1.00  0.00    -0.744 OA
ENDBRANCH  69  70
ENDBRANCH  50  64
BRANCH  51  74
ATOM     74  C   UNL A   1      36.060  33.659  33.247  1.00  0.00    -0.014 A 
ATOM     75  C   UNL A   1      36.135  35.004  32.848  1.00  0.00     0.010 A 
ATOM     76  C   UNL A   1      34.794  33.059  33.381  1.00  0.00     0.010 A 
ATOM     77  C   UNL A   1      34.972  35.732  32.579  1.00  0.00     0.020 A 
ATOM     78  C   UNL A   1      33.629  33.773  33.082  1.00  0.00     0.020 A 
ATOM     79  C   UNL A   1      33.727  35.107  32.683  1.00  0.00     0.054 A 
BRANCH  79  80
ATOM     80  S   UNL A   1      32.242  36.047  32.232  1.00  0.00     0.124 S 
ATOM     81  O   UNL A   1      32.424  36.239  30.797  1.00  0.00    -0.237 OA
ATOM     82  O   UNL A   1      31.170  35.133  32.619  1.00  0.00    -0.237 OA
ATOM     83  O   UNL A   1      32.341  37.257  33.044  1.00  0.00    -0.744 OA
ENDBRANCH  79  80
ENDBRANCH  51  74
BRANCH  63  84
ATOM     84  C   UNL A   1      40.569  33.475  38.580  1.00  0.00    -0.014 A 
ATOM     85  C   UNL A   1      41.217  34.718  38.690  1.00  0.00     0.010 A 
ATOM     86  C   UNL A   1      39.918  32.944  39.710  1.00  0.00     0.010 A 
ATOM     87  C   UNL A   1      41.241  35.399  39.912  1.00  0.00     0.020 A 
ATOM     88  C   UNL A   1      39.908  33.639  40.923  1.00  0.00     0.020 A 
ATOM     89  C   UNL A   1      40.582  34.856  41.020  1.00  0.00     0.054 A 
BRANCH  89  90
ATOM     90  S   UNL A   1      40.585  35.784  42.579  1.00  0.00     0.124 S 
ATOM     91  O   UNL A   1      40.580  34.713  43.571  1.00  0.00    -0.237 OA
ATOM     92  O   UNL A   1      41.826  36.552  42.489  1.00  0.00    -0.237 OA
ATOM     93  O   UNL A   1      39.362  36.580  42.514  1.00  0.00    -0.744 OA
ENDBRANCH  89  90
ENDBRANCH  63  84
ENDBRANCH  37  38
ENDBRANCH  30  32
ENDBRANCH  29  30
ENDBRANCH  28  29
ENDBRANCH  27  28
ENDBRANCH  26  27
ENDBRANCH  25  26
ENDBRANCH   1  25
TORSDOF 23
ENDMDL
MODEL 2
REMARK VINA RESULT:     -10.1      3.324      5.510
REMARK SMILES N#Cc1ccc(C[N@H+]2CCCC[C@H]2C(=O)OCCOCCOCCOC(=O)c2ccc(-c3c4nc(c(-c5ccc(S(=O)(=O)[O-])cc5)c5ccc([nH]5)c(-c5ccc(S(=O)(=O)[O-])cc5)c5nc(c(-c6ccc(S(=O)(=O)[O-])cc6)c6ccc3[nH]6)C=C5)C=C4)cc2)c(F)c1
REMARK SMILES IDX 20 1 19 2 18 3 17 4 16 5 14 6 15 7 13 8 8 9 9 10 10 12 12 13
REMARK SMILES IDX 11 14 7 15 6 16 3 17 4 18 90 19 5 20 88 21 89 22 2 23 1 24
REMARK SMILES IDX 21 25 22 26 23 27 24 28 25 29 26 30 27 31 28 32 29 33 87 34
REMARK SMILES IDX 30 35 86 36 31 37 32 38 33 39 80 40 34 41 85 42 79 43 81 44
REMARK SMILES IDX 35 45 84 46 78 47 77 48 36 50 66 51 47 52 65 53 48 54 51 55
REMARK SMILES IDX 64 56 82 57 49 58 50 59 63 61 83 62 52 63 37 64 38 65 46 66
REMARK SMILES IDX 39 67 45 68 40 69 41 70 42 71 43 72 44 73 67 74 68 75 76 76
REMARK SMILES IDX 69 77 75 78 70 79 71 80 72 81 73 82 74 83 53 84 54 85 62 86
REMARK SMILES IDX 55 87 61 88 56 89 57 90 58 91 59 92 60 93
REMARK H PARENT 8 11 81 49 51 60
REMARK Flexibility Score: inf
ROOT
ATOM      1  C   UNL A   1      35.947  23.166  23.164  1.00  0.00     0.188 C 
ENDROOT
BRANCH   1   2
ATOM      2  O   UNL A   1      35.214  23.953  24.073  1.00  0.00    -0.376 OA
BRANCH   2   3
ATOM      3  C   UNL A   1      34.360  24.974  23.597  1.00  0.00     0.202 C 
BRANCH   3   4
ATOM      4  C   UNL A   1      32.852  24.845  23.188  1.00  0.00     0.261 C 
BRANCH   4   5
ATOM      5  O   UNL A   1      31.870  23.987  23.822  1.00  0.00    -0.459 OA
BRANCH   5   6
ATOM      6  C   UNL A   1      32.102  22.667  23.648  1.00  0.00     0.364 C 
ATOM      7  O   UNL A   1      32.473  22.289  22.551  1.00  0.00    -0.245 OA
BRANCH   6   8
ATOM      8  C   UNL A   1      31.851  21.732  24.858  1.00  0.00     0.295 C 
ATOM      9  N   UNL A   1      33.086  21.398  25.625  1.00  0.00    -0.319 N 
ATOM     10  C   UNL A   1      33.574  22.462  26.491  1.00  0.00     0.263 C 
ATOM     11  H   UNL A   1      32.693  20.699  26.255  1.00  0.00     0.349 HD
ATOM     12  C   UNL A   1      32.518  22.810  27.546  1.00  0.00     0.062 C 
ATOM     13  C   UNL A   1      30.739  22.194  25.835  1.00  0.00     0.078 C 
ATOM     14  C   UNL A   1      31.158  23.152  26.956  1.00  0.00     0.013 C 
BRANCH   9  15
ATOM     15  C   UNL A   1      34.118  20.519  25.023  1.00  0.00     0.302 C 
BRANCH  15  16
ATOM     16  C   UNL A   1      33.795  19.060  24.759  1.00  0.00     0.042 A 
ATOM     17  C   UNL A   1      33.371  16.278  24.931  1.00  0.00     0.055 A 
ATOM     18  C   UNL A   1      32.286  17.161  25.002  1.00  0.00     0.020 A 
ATOM     19  C   UNL A   1      34.642  16.769  24.625  1.00  0.00     0.059 A 
ATOM     20  C   UNL A   1      32.495  18.547  24.914  1.00  0.00     0.014 A 
ATOM     21  C   UNL A   1      34.839  18.149  24.518  1.00  0.00     0.133 A 
ATOM     22  F   UNL A   1      36.099  18.598  24.406  1.00  0.00    -0.206 F 
BRANCH  17  23
ATOM     23  C   UNL A   1      33.214  14.898  25.307  1.00  0.00     0.099 C 
ATOM     24  N   UNL A   1      33.058  13.811  25.668  1.00  0.00    -0.192 NA
ENDBRANCH  17  23
ENDBRANCH  15  16
ENDBRANCH   9  15
ENDBRANCH   6   8
ENDBRANCH   5   6
ENDBRANCH   4   5
ENDBRANCH   3   4
ENDBRANCH   2   3
ENDBRANCH   1   2
BRANCH   1  25
ATOM     25  C   UNL A   1      37.090  22.446  23.869  1.00  0.00     0.188 C 
BRANCH  25  26
ATOM     26  O   UNL A   1      37.049  22.268  25.272  1.00  0.00    -0.376 OA
BRANCH  26  27
ATOM     27  C   UNL A   1      38.185  22.688  26.008  1.00  0.00     0.202 C 
BRANCH  27  28
ATOM     28  C   UNL A   1      38.592  24.180  26.080  1.00  0.00     0.261 C 
BRANCH  28  29
ATOM     29  O   UNL A   1      39.763  24.546  26.843  1.00  0.00    -0.460 OA
BRANCH  29  30
ATOM     30  C   UNL A   1      40.309  25.763  26.582  1.00  0.00     0.338 C 
ATOM     31  O   UNL A   1      40.822  26.113  25.533  1.00  0.00    -0.246 OA
BRANCH  30  32
ATOM     32  C   UNL A   1      40.016  26.719  27.687  1.00  0.00     0.060 A 
ATOM     33  C   UNL A   1      40.493  28.036  27.588  1.00  0.00     0.016 A 
ATOM     34  C   UNL A   1      39.405  26.308  28.869  1.00  0.00     0.016 A 
ATOM     35  C   UNL A   1      40.362  28.942  28.640  1.00  0.00     0.010 A 
ATOM     36  C   UNL A   1      39.308  27.208  29.947  1.00  0.00     0.010 A 
ATOM     37  C   UNL A   1      39.808  28.525  29.849  1.00  0.00    -0.014 A 
BRANCH  37  38
ATOM     38  C   UNL A   1      39.946  29.387  31.055  1.00  0.00     0.031 A 
ATOM     39  C   UNL A   1      41.160  29.209  31.930  1.00  0.00     0.074 A 
ATOM     40  C   UNL A   1      39.060  30.357  31.350  1.00  0.00     0.049 A 
ATOM     41  N   UNL A   1      41.430  29.728  33.101  1.00  0.00    -0.248 NA
ATOM     42  C   UNL A   1      42.211  28.323  31.407  1.00  0.00     0.031 C 
ATOM     43  C   UNL A   1      37.920  30.750  30.523  1.00  0.00     0.029 A 
ATOM     44  N   UNL A   1      38.986  31.192  32.440  1.00  0.00    -0.354 N 
ATOM     45  C   UNL A   1      42.655  29.188  33.479  1.00  0.00     0.074 A 
ATOM     46  C   UNL A   1      43.066  28.294  32.416  1.00  0.00     0.031 C 
ATOM     47  C   UNL A   1      37.259  31.748  31.137  1.00  0.00     0.029 A 
ATOM     48  C   UNL A   1      37.884  32.014  32.431  1.00  0.00     0.049 A 
ATOM     49  H   UNL A   1      39.658  31.201  33.158  1.00  0.00     0.167 HD
ATOM     50  C   UNL A   1      43.369  29.405  34.611  1.00  0.00     0.031 A 
ATOM     51  C   UNL A   1      37.409  32.854  33.375  1.00  0.00     0.031 A 
ATOM     52  C   UNL A   1      42.950  30.292  35.666  1.00  0.00     0.049 A 
ATOM     53  C   UNL A   1      38.139  32.981  34.688  1.00  0.00     0.074 A 
ATOM     54  C   UNL A   1      43.590  30.575  36.860  1.00  0.00     0.029 A 
ATOM     55  N   UNL A   1      41.778  31.036  35.657  1.00  0.00    -0.354 N 
ATOM     56  N   UNL A   1      39.268  32.426  35.062  1.00  0.00    -0.248 NA
ATOM     57  C   UNL A   1      37.527  33.845  35.708  1.00  0.00     0.031 C 
ATOM     58  C   UNL A   1      42.766  31.425  37.607  1.00  0.00     0.029 A 
ATOM     59  C   UNL A   1      41.656  31.746  36.841  1.00  0.00     0.049 A 
ATOM     60  H   UNL A   1      41.128  31.057  34.917  1.00  0.00     0.167 HD
ATOM     61  C   UNL A   1      39.520  32.902  36.346  1.00  0.00     0.074 A 
ATOM     62  C   UNL A   1      38.429  33.797  36.679  1.00  0.00     0.031 C 
ATOM     63  C   UNL A   1      40.564  32.631  37.170  1.00  0.00     0.031 A 
BRANCH  50  64
ATOM     64  C   UNL A   1      44.627  28.592  34.799  1.00  0.00    -0.014 A 
ATOM     65  C   UNL A   1      45.883  29.045  34.354  1.00  0.00     0.010 A 
ATOM     66  C   UNL A   1      44.539  27.327  35.410  1.00  0.00     0.010 A 
ATOM     67  C   UNL A   1      47.006  28.214  34.440  1.00  0.00     0.020 A 
ATOM     68  C   UNL A   1      45.666  26.512  35.538  1.00  0.00     0.020 A 
ATOM     69  C   UNL A   1      46.886  26.949  35.023  1.00  0.00     0.054 A 
BRANCH  69  70
ATOM     70  S   UNL A   1      48.348  25.877  35.085  1.00  0.00     0.124 S 
ATOM     71  O   UNL A   1      47.883  24.782  35.932  1.00  0.00    -0.237 OA
ATOM     72  O   UNL A   1      48.556  25.539  33.679  1.00  0.00    -0.237 OA
ATOM     73  O   UNL A   1      49.377  26.727  35.678  1.00  0.00    -0.744 OA
ENDBRANCH  69  70
ENDBRANCH  50  64
BRANCH  51  74
ATOM     74  C   UNL A   1      36.162  33.631  33.123  1.00  0.00    -0.014 A 
ATOM     75  C   UNL A   1      36.232  34.979  32.734  1.00  0.00     0.010 A 
ATOM     76  C   UNL A   1      34.898  33.025  33.253  1.00  0.00     0.010 A 
ATOM     77  C   UNL A   1      35.065  35.704  32.471  1.00  0.00     0.020 A 
ATOM     78  C   UNL A   1      33.730  33.737  32.961  1.00  0.00     0.020 A 
ATOM     79  C   UNL A   1      33.823  35.075  32.571  1.00  0.00     0.054 A 
BRANCH  79  80
ATOM     80  S   UNL A   1      32.334  36.011  32.127  1.00  0.00     0.124 S 
ATOM     81  O   UNL A   1      31.267  35.100  32.526  1.00  0.00    -0.237 OA
ATOM     82  O   UNL A   1      32.475  37.218  32.939  1.00  0.00    -0.237 OA
ATOM     83  O   UNL A   1      32.476  36.220  30.688  1.00  0.00    -0.744 OA
ENDBRANCH  79  80
ENDBRANCH  51  74
BRANCH  63  84
ATOM     84  C   UNL A   1      40.614  33.344  38.499  1.00  0.00    -0.014 A 
ATOM     85  C   UNL A   1      41.364  34.519  38.681  1.00  0.00     0.010 A 
ATOM     86  C   UNL A   1      39.843  32.855  39.572  1.00  0.00     0.010 A 
ATOM     87  C   UNL A   1      41.369  35.172  39.917  1.00  0.00     0.020 A 
ATOM     88  C   UNL A   1      39.815  33.526  40.798  1.00  0.00     0.020 A 
ATOM     89  C   UNL A   1      40.590  34.674  40.967  1.00  0.00     0.054 A 
BRANCH  89  90
ATOM     90  S   UNL A   1      40.574  35.569  42.545  1.00  0.00     0.124 S 
ATOM     91  O   UNL A   1      40.004  36.856  42.160  1.00  0.00    -0.237 OA
ATOM     92  O   UNL A   1      39.719  34.726  43.379  1.00  0.00    -0.237 OA
ATOM     93  O   UNL A   1      41.980  35.604  42.939  1.00  0.00    -0.744 OA
ENDBRANCH  89  90
ENDBRANCH  63  84
ENDBRANCH  37  38
ENDBRANCH  30  32
ENDBRANCH  29  30
ENDBRANCH  28  29
ENDBRANCH  27  28
ENDBRANCH  26  27
ENDBRANCH  25  26
ENDBRANCH   1  25
TORSDOF 23
ENDMDL
MODEL 3
REMARK VINA RESULT:      -9.7      5.101      6.111
REMARK SMILES N#Cc1ccc(C[N@H+]2CCCC[C@H]2C(=O)OCCOCCOCCOC(=O)c2ccc(-c3c4nc(c(-c5ccc(S(=O)(=O)[O-])cc5)c5ccc([nH]5)c(-c5ccc(S(=O)(=O)[O-])cc5)c5nc(c(-c6ccc(S(=O)(=O)[O-])cc6)c6ccc3[nH]6)C=C5)C=C4)cc2)c(F)c1
REMARK SMILES IDX 20 1 19 2 18 3 17 4 16 5 14 6 15 7 13 8 8 9 9 10 10 12 12 13
REMARK SMILES IDX 11 14 7 15 6 16 3 17 4 18 90 19 5 20 88 21 89 22 2 23 1 24
REMARK SMILES IDX 21 25 22 26 23 27 24 28 25 29 26 30 27 31 28 32 29 33 87 34
REMARK SMILES IDX 30 35 86 36 31 37 32 38 33 39 80 40 34 41 85 42 79 43 81 44
REMARK SMILES IDX 35 45 84 46 78 47 77 48 36 50 66 51 47 52 65 53 48 54 51 55
REMARK SMILES IDX 64 56 82 57 49 58 50 59 63 61 83 62 52 63 37 64 38 65 46 66
REMARK SMILES IDX 39 67 45 68 40 69 41 70 42 71 43 72 44 73 67 74 68 75 76 76
REMARK SMILES IDX 69 77 75 78 70 79 71 80 72 81 73 82 74 83 53 84 54 85 62 86
REMARK SMILES IDX 55 87 61 88 56 89 57 90 58 91 59 92 60 93
REMARK H PARENT 8 11 81 49 51 60
REMARK Flexibility Score: inf
ROOT
ATOM      1  C   UNL A   1      34.358  22.420  25.091  1.00  0.00     0.188 C 
ENDROOT
BRANCH   1   2
ATOM      2  O   UNL A   1      33.760  22.248  26.354  1.00  0.00    -0.376 OA
BRANCH   2   3
ATOM      3  C   UNL A   1      32.785  23.166  26.807  1.00  0.00     0.202 C 
BRANCH   3   4
ATOM      4  C   UNL A   1      31.247  23.155  26.502  1.00  0.00     0.261 C 
BRANCH   4   5
ATOM      5  O   UNL A   1      30.553  24.054  25.601  1.00  0.00    -0.459 OA
BRANCH   5   6
ATOM      6  C   UNL A   1      31.096  24.119  24.365  1.00  0.00     0.364 C 
ATOM      7  O   UNL A   1      31.198  23.086  23.729  1.00  0.00    -0.245 OA
BRANCH   6   8
ATOM      8  C   UNL A   1      31.570  25.507  23.865  1.00  0.00     0.295 C 
ATOM      9  N   UNL A   1      30.734  26.640  24.356  1.00  0.00    -0.319 N 
ATOM     10  C   UNL A   1      30.962  27.012  25.744  1.00  0.00     0.263 C 
ATOM     11  H   UNL A   1      31.152  27.390  23.805  1.00  0.00     0.349 HD
ATOM     12  C   UNL A   1      32.415  27.461  25.939  1.00  0.00     0.062 C 
ATOM     13  C   UNL A   1      33.070  25.823  24.107  1.00  0.00     0.078 C 
ATOM     14  C   UNL A   1      33.437  26.441  25.460  1.00  0.00     0.013 C 
BRANCH   9  15
ATOM     15  C   UNL A   1      29.351  26.812  23.851  1.00  0.00     0.302 C 
BRANCH  15  16
ATOM     16  C   UNL A   1      28.986  28.069  23.083  1.00  0.00     0.042 A 
ATOM     17  C   UNL A   1      28.421  30.708  22.266  1.00  0.00     0.055 A 
ATOM     18  C   UNL A   1      29.667  30.135  21.983  1.00  0.00     0.020 A 
ATOM     19  C   UNL A   1      27.408  29.920  22.818  1.00  0.00     0.059 A 
ATOM     20  C   UNL A   1      29.950  28.820  22.387  1.00  0.00     0.014 A 
ATOM     21  C   UNL A   1      27.691  28.605  23.200  1.00  0.00     0.133 A 
ATOM     22  F   UNL A   1      26.756  27.936  23.892  1.00  0.00    -0.206 F 
BRANCH  17  23
ATOM     23  C   UNL A   1      28.220  32.125  22.123  1.00  0.00     0.099 C 
ATOM     24  N   UNL A   1      28.084  33.259  21.943  1.00  0.00    -0.192 NA
ENDBRANCH  17  23
ENDBRANCH  15  16
ENDBRANCH   9  15
ENDBRANCH   6   8
ENDBRANCH   5   6
ENDBRANCH   4   5
ENDBRANCH   3   4
ENDBRANCH   2   3
ENDBRANCH   1   2
BRANCH   1  25
ATOM     25  C   UNL A   1      35.764  22.993  25.229  1.00  0.00     0.188 C 
BRANCH  25  26
ATOM     26  O   UNL A   1      36.794  22.534  24.375  1.00  0.00    -0.376 OA
BRANCH  26  27
ATOM     27  C   UNL A   1      37.274  21.219  24.593  1.00  0.00     0.202 C 
BRANCH  27  28
ATOM     28  C   UNL A   1      38.624  20.962  25.306  1.00  0.00     0.261 C 
BRANCH  28  29
ATOM     29  O   UNL A   1      39.011  21.827  26.398  1.00  0.00    -0.460 OA
BRANCH  29  30
ATOM     30  C   UNL A   1      40.336  22.104  26.520  1.00  0.00     0.338 C 
ATOM     31  O   UNL A   1      41.254  21.459  26.043  1.00  0.00    -0.246 OA
BRANCH  30  32
ATOM     32  C   UNL A   1      40.539  23.441  27.146  1.00  0.00     0.060 A 
ATOM     33  C   UNL A   1      40.024  24.576  26.500  1.00  0.00     0.016 A 
ATOM     34  C   UNL A   1      41.338  23.607  28.274  1.00  0.00     0.016 A 
ATOM     35  C   UNL A   1      40.287  25.864  26.967  1.00  0.00     0.010 A 
ATOM     36  C   UNL A   1      41.637  24.907  28.723  1.00  0.00     0.010 A 
ATOM     37  C   UNL A   1      41.134  26.046  28.059  1.00  0.00    -0.014 A 
BRANCH  37  38
ATOM     38  C   UNL A   1      41.655  27.408  28.363  1.00  0.00     0.031 A 
ATOM     39  C   UNL A   1      43.121  27.682  28.148  1.00  0.00     0.074 A 
ATOM     40  C   UNL A   1      40.850  28.412  28.760  1.00  0.00     0.049 A 
ATOM     41  N   UNL A   1      43.833  28.729  28.478  1.00  0.00    -0.248 NA
ATOM     42  C   UNL A   1      43.883  26.625  27.465  1.00  0.00     0.031 C 
ATOM     43  C   UNL A   1      39.393  28.345  28.868  1.00  0.00     0.029 A 
ATOM     44  N   UNL A   1      41.155  29.696  29.147  1.00  0.00    -0.354 N 
ATOM     45  C   UNL A   1      45.137  28.434  28.094  1.00  0.00     0.074 A 
ATOM     46  C   UNL A   1      45.114  27.106  27.517  1.00  0.00     0.031 C 
ATOM     47  C   UNL A   1      38.932  29.533  29.297  1.00  0.00     0.029 A 
ATOM     48  C   UNL A   1      40.062  30.421  29.563  1.00  0.00     0.049 A 
ATOM     49  H   UNL A   1      42.068  30.061  29.130  1.00  0.00     0.167 HD
ATOM     50  C   UNL A   1      46.253  29.192  28.220  1.00  0.00     0.031 A 
ATOM     51  C   UNL A   1      39.986  31.642  30.131  1.00  0.00     0.031 A 
ATOM     52  C   UNL A   1      46.267  30.511  28.800  1.00  0.00     0.049 A 
ATOM     53  C   UNL A   1      41.252  32.417  30.393  1.00  0.00     0.074 A 
ATOM     54  C   UNL A   1      47.345  31.359  28.987  1.00  0.00     0.029 A 
ATOM     55  N   UNL A   1      45.151  31.171  29.294  1.00  0.00    -0.354 N 
ATOM     56  N   UNL A   1      42.489  32.110  30.078  1.00  0.00    -0.248 NA
ATOM     57  C   UNL A   1      41.112  33.703  31.092  1.00  0.00     0.031 C 
ATOM     58  C   UNL A   1      46.893  32.495  29.668  1.00  0.00     0.029 A 
ATOM     59  C   UNL A   1      45.519  32.398  29.823  1.00  0.00     0.049 A 
ATOM     60  H   UNL A   1      44.231  30.819  29.272  1.00  0.00     0.167 HD
ATOM     61  C   UNL A   1      43.269  33.181  30.508  1.00  0.00     0.074 A 
ATOM     62  C   UNL A   1      42.362  34.146  31.096  1.00  0.00     0.031 C 
ATOM     63  C   UNL A   1      44.611  33.353  30.414  1.00  0.00     0.031 A 
BRANCH  50  64
ATOM     64  C   UNL A   1      47.562  28.565  27.805  1.00  0.00    -0.014 A 
ATOM     65  C   UNL A   1      48.064  28.676  26.495  1.00  0.00     0.010 A 
ATOM     66  C   UNL A   1      48.292  27.816  28.749  1.00  0.00     0.010 A 
ATOM     67  C   UNL A   1      49.219  27.984  26.117  1.00  0.00     0.020 A 
ATOM     68  C   UNL A   1      49.470  27.159  28.388  1.00  0.00     0.020 A 
ATOM     69  C   UNL A   1      49.909  27.221  27.065  1.00  0.00     0.054 A 
BRANCH  69  70
ATOM     70  S   UNL A   1      51.381  26.302  26.540  1.00  0.00     0.124 S 
ATOM     71  O   UNL A   1      51.125  24.977  27.100  1.00  0.00    -0.237 OA
ATOM     72  O   UNL A   1      51.310  26.392  25.083  1.00  0.00    -0.237 OA
ATOM     73  O   UNL A   1      52.486  27.034  27.154  1.00  0.00    -0.744 OA
ENDBRANCH  69  70
ENDBRANCH  50  64
BRANCH  51  74
ATOM     74  C   UNL A   1      38.660  32.205  30.514  1.00  0.00    -0.014 A 
ATOM     75  C   UNL A   1      38.101  33.267  29.781  1.00  0.00     0.010 A 
ATOM     76  C   UNL A   1      37.939  31.675  31.601  1.00  0.00     0.010 A 
ATOM     77  C   UNL A   1      36.845  33.780  30.120  1.00  0.00     0.020 A 
ATOM     78  C   UNL A   1      36.669  32.165  31.923  1.00  0.00     0.020 A 
ATOM     79  C   UNL A   1      36.131  33.216  31.179  1.00  0.00     0.054 A 
BRANCH  79  80
ATOM     80  S   UNL A   1      34.463  33.837  31.531  1.00  0.00     0.124 S 
ATOM     81  O   UNL A   1      33.852  33.848  30.206  1.00  0.00    -0.237 OA
ATOM     82  O   UNL A   1      33.949  32.832  32.459  1.00  0.00    -0.237 OA
ATOM     83  O   UNL A   1      34.704  35.152  32.121  1.00  0.00    -0.744 OA
ENDBRANCH  79  80
ENDBRANCH  51  74
BRANCH  63  84
ATOM     84  C   UNL A   1      45.190  34.654  30.914  1.00  0.00    -0.014 A 
ATOM     85  C   UNL A   1      45.332  35.772  30.074  1.00  0.00     0.010 A 
ATOM     86  C   UNL A   1      45.544  34.773  32.272  1.00  0.00     0.010 A 
ATOM     87  C   UNL A   1      45.846  36.973  30.573  1.00  0.00     0.020 A 
ATOM     88  C   UNL A   1      46.023  35.983  32.783  1.00  0.00     0.020 A 
ATOM     89  C   UNL A   1      46.184  37.072  31.927  1.00  0.00     0.054 A 
BRANCH  89  90
ATOM     90  S   UNL A   1      46.801  38.656  32.560  1.00  0.00     0.124 S 
ATOM     91  O   UNL A   1      47.619  39.131  31.448  1.00  0.00    -0.237 OA
ATOM     92  O   UNL A   1      45.568  39.404  32.799  1.00  0.00    -0.237 OA
ATOM     93  O   UNL A   1      47.541  38.285  33.764  1.00  0.00    -0.744 OA
ENDBRANCH  89  90
ENDBRANCH  63  84
ENDBRANCH  37  38
ENDBRANCH  30  32
ENDBRANCH  29  30
ENDBRANCH  28  29
ENDBRANCH  27  28
ENDBRANCH  26  27
ENDBRANCH  25  26
ENDBRANCH   1  25
TORSDOF 23
ENDMDL
