MODEL 1
REMARK VINA RESULT:      -9.6      0.000      0.000
REMARK SMILES O=C(OCCOCCOCCOC(=O)[C@@H]1[C@H](C(=O)Nc2ccccc2OC(F)F)[C@@H]2C=C[C@H]1C2)c1ccc(-c2c3nc(c(-c4ccc(S(=O)(=O)[O-])cc4)c4ccc([nH]4)c(-c4ccc(S(=O)(=O)[O-])cc4)c4nc(c(-c5ccc(S(=O)(=O)[O-])cc5)c5ccc2[nH]5)C=C4)C=C3)cc1
REMARK SMILES IDX 8 1 7 2 6 3 5 4 4 5 3 6 2 7 1 8 35 9 36 10 94 11 37 12 93 13
REMARK SMILES IDX 38 14 39 15 40 16 87 17 41 18 92 19 86 20 88 21 42 22 91 23
REMARK SMILES IDX 85 24 84 25 43 27 73 28 54 29 72 30 55 31 58 32 71 33 89 34
REMARK SMILES IDX 56 35 57 36 70 38 90 39 59 40 44 41 45 42 53 43 46 44 52 45
REMARK SMILES IDX 47 46 48 47 49 48 50 49 51 50 74 51 75 52 83 53 76 54 82 55
REMARK SMILES IDX 77 56 78 57 79 58 80 59 81 60 60 61 61 62 69 63 62 64 68 65
REMARK SMILES IDX 63 66 64 67 65 68 66 69 67 70 9 71 10 72 11 73 12 74 13 75
REMARK SMILES IDX 14 76 15 77 16 78 33 79 30 80 32 81 34 82 31 83 17 84 18 85
REMARK SMILES IDX 19 86 20 88 21 89 25 90 22 91 24 92 23 93 26 94 27 95 28 96
REMARK SMILES IDX 29 97
REMARK H PARENT 88 26 58 37 19 87
REMARK Flexibility Score: inf
ROOT
ATOM      1  C   UNL A   1      32.016  29.390  25.902  1.00  0.00     0.188 C 
ENDROOT
BRANCH   1   2
ATOM      2  C   UNL A   1      33.467  29.697  26.305  1.00  0.00     0.188 C 
BRANCH   2   3
ATOM      3  O   UNL A   1      33.522  30.380  27.536  1.00  0.00    -0.376 OA
BRANCH   3   4
ATOM      4  C   UNL A   1      34.434  31.432  27.744  1.00  0.00     0.202 C 
BRANCH   4   5
ATOM      5  C   UNL A   1      35.196  31.479  29.064  1.00  0.00     0.261 C 
BRANCH   5   6
ATOM      6  O   UNL A   1      36.540  30.939  29.168  1.00  0.00    -0.460 OA
BRANCH   6   7
ATOM      7  C   UNL A   1      37.104  29.791  29.600  1.00  0.00     0.338 C 
ATOM      8  O   UNL A   1      36.473  29.067  30.353  1.00  0.00    -0.246 OA
BRANCH   7   9
ATOM      9  C   UNL A   1      38.483  29.386  29.225  1.00  0.00     0.060 A 
ATOM     10  C   UNL A   1      39.481  29.092  30.151  1.00  0.00     0.016 A 
ATOM     11  C   UNL A   1      38.816  29.415  27.860  1.00  0.00     0.016 A 
ATOM     12  C   UNL A   1      40.758  28.705  29.716  1.00  0.00     0.010 A 
ATOM     13  C   UNL A   1      40.113  29.107  27.430  1.00  0.00     0.010 A 
ATOM     14  C   UNL A   1      41.094  28.727  28.353  1.00  0.00    -0.014 A 
BRANCH  14  15
ATOM     15  C   UNL A   1      42.514  28.567  27.932  1.00  0.00     0.031 A 
ATOM     16  C   UNL A   1      43.427  29.733  28.068  1.00  0.00     0.074 A 
ATOM     17  C   UNL A   1      43.020  27.433  27.414  1.00  0.00     0.049 A 
ATOM     18  N   UNL A   1      44.725  29.752  27.954  1.00  0.00    -0.248 NA
ATOM     19  C   UNL A   1      42.814  31.021  28.420  1.00  0.00     0.031 C 
ATOM     20  C   UNL A   1      42.265  26.213  27.278  1.00  0.00     0.029 A 
ATOM     21  N   UNL A   1      44.254  27.103  26.902  1.00  0.00    -0.354 N 
ATOM     22  C   UNL A   1      45.097  31.036  28.290  1.00  0.00     0.074 A 
ATOM     23  C   UNL A   1      43.887  31.779  28.580  1.00  0.00     0.031 C 
ATOM     24  C   UNL A   1      42.985  25.304  26.604  1.00  0.00     0.029 A 
ATOM     25  C   UNL A   1      44.325  25.815  26.413  1.00  0.00     0.049 A 
ATOM     26  H   UNL A   1      45.016  27.727  26.887  1.00  0.00     0.167 HD
ATOM     27  C   UNL A   1      46.343  31.547  28.353  1.00  0.00     0.031 A 
ATOM     28  C   UNL A   1      45.347  25.077  25.932  1.00  0.00     0.031 A 
ATOM     29  C   UNL A   1      47.530  30.860  27.932  1.00  0.00     0.049 A 
ATOM     30  C   UNL A   1      46.704  25.711  25.909  1.00  0.00     0.074 A 
ATOM     31  C   UNL A   1      48.827  31.338  27.903  1.00  0.00     0.029 A 
ATOM     32  N   UNL A   1      47.563  29.576  27.410  1.00  0.00    -0.354 N 
ATOM     33  N   UNL A   1      47.057  26.887  26.364  1.00  0.00    -0.248 NA
ATOM     34  C   UNL A   1      47.802  24.925  25.329  1.00  0.00     0.031 C 
ATOM     35  C   UNL A   1      49.633  30.370  27.296  1.00  0.00     0.029 A 
ATOM     36  C   UNL A   1      48.850  29.264  27.004  1.00  0.00     0.049 A 
ATOM     37  H   UNL A   1      46.786  28.975  27.338  1.00  0.00     0.167 HD
ATOM     38  C   UNL A   1      48.421  26.982  26.137  1.00  0.00     0.074 A 
ATOM     39  C   UNL A   1      48.836  25.728  25.538  1.00  0.00     0.031 C 
ATOM     40  C   UNL A   1      49.249  28.021  26.393  1.00  0.00     0.031 A 
BRANCH  27  41
ATOM     41  C   UNL A   1      46.442  32.953  28.845  1.00  0.00    -0.014 A 
ATOM     42  C   UNL A   1      46.587  33.217  30.219  1.00  0.00     0.010 A 
ATOM     43  C   UNL A   1      46.352  34.014  27.931  1.00  0.00     0.010 A 
ATOM     44  C   UNL A   1      46.623  34.533  30.674  1.00  0.00     0.020 A 
ATOM     45  C   UNL A   1      46.403  35.332  28.385  1.00  0.00     0.020 A 
ATOM     46  C   UNL A   1      46.528  35.582  29.754  1.00  0.00     0.054 A 
BRANCH  46  47
ATOM     47  S   UNL A   1      46.598  37.283  30.371  1.00  0.00     0.124 S 
ATOM     48  O   UNL A   1      45.965  38.022  29.283  1.00  0.00    -0.237 OA
ATOM     49  O   UNL A   1      45.828  37.203  31.609  1.00  0.00    -0.237 OA
ATOM     50  O   UNL A   1      48.028  37.529  30.543  1.00  0.00    -0.744 OA
ENDBRANCH  46  47
ENDBRANCH  27  41
BRANCH  28  51
ATOM     51  C   UNL A   1      45.155  23.657  25.500  1.00  0.00    -0.014 A 
ATOM     52  C   UNL A   1      45.386  22.591  26.391  1.00  0.00     0.010 A 
ATOM     53  C   UNL A   1      44.779  23.356  24.177  1.00  0.00     0.010 A 
ATOM     54  C   UNL A   1      45.306  21.262  25.955  1.00  0.00     0.020 A 
ATOM     55  C   UNL A   1      44.666  22.028  23.746  1.00  0.00     0.020 A 
ATOM     56  C   UNL A   1      44.961  20.989  24.628  1.00  0.00     0.054 A 
BRANCH  56  57
ATOM     57  S   UNL A   1      44.928  19.262  24.063  1.00  0.00     0.124 S 
ATOM     58  O   UNL A   1      46.304  18.841  24.314  1.00  0.00    -0.237 OA
ATOM     59  O   UNL A   1      43.920  18.657  24.928  1.00  0.00    -0.237 OA
ATOM     60  O   UNL A   1      44.560  19.367  22.652  1.00  0.00    -0.744 OA
ENDBRANCH  56  57
ENDBRANCH  28  51
BRANCH  40  61
ATOM     61  C   UNL A   1      50.691  27.850  26.015  1.00  0.00    -0.014 A 
ATOM     62  C   UNL A   1      51.617  27.313  26.927  1.00  0.00     0.010 A 
ATOM     63  C   UNL A   1      51.115  28.190  24.719  1.00  0.00     0.010 A 
ATOM     64  C   UNL A   1      52.953  27.147  26.558  1.00  0.00     0.020 A 
ATOM     65  C   UNL A   1      52.444  27.998  24.337  1.00  0.00     0.020 A 
ATOM     66  C   UNL A   1      53.357  27.491  25.264  1.00  0.00     0.054 A 
BRANCH  66  67
ATOM     67  S   UNL A   1      55.086  27.218  24.792  1.00  0.00     0.124 S 
ATOM     68  O   UNL A   1      55.390  28.433  24.041  1.00  0.00    -0.237 OA
ATOM     69  O   UNL A   1      55.756  27.091  26.084  1.00  0.00    -0.237 OA
ATOM     70  O   UNL A   1      55.036  25.991  24.000  1.00  0.00    -0.744 OA
ENDBRANCH  66  67
ENDBRANCH  40  61
ENDBRANCH  14  15
ENDBRANCH   7   9
ENDBRANCH   6   7
ENDBRANCH   5   6
ENDBRANCH   4   5
ENDBRANCH   3   4
ENDBRANCH   2   3
ENDBRANCH   1   2
BRANCH   1  71
ATOM     71  O   UNL A   1      31.603  28.026  25.981  1.00  0.00    -0.376 OA
BRANCH  71  72
ATOM     72  C   UNL A   1      31.214  27.406  24.755  1.00  0.00     0.202 C 
BRANCH  72  73
ATOM     73  C   UNL A   1      30.239  26.231  24.854  1.00  0.00     0.261 C 
BRANCH  73  74
ATOM     74  O   UNL A   1      30.164  25.350  23.706  1.00  0.00    -0.463 OA
BRANCH  74  75
ATOM     75  C   UNL A   1      31.176  24.438  23.722  1.00  0.00     0.310 C 
ATOM     76  O   UNL A   1      31.730  24.054  22.692  1.00  0.00    -0.252 OA
BRANCH  75  77
ATOM     77  C   UNL A   1      31.687  24.011  25.072  1.00  0.00     0.119 C 
ATOM     78  C   UNL A   1      33.174  24.093  25.519  1.00  0.00     0.100 C 
ATOM     79  C   UNL A   1      31.151  22.764  25.814  1.00  0.00     0.027 C 
ATOM     80  C   UNL A   1      33.298  22.896  26.522  1.00  0.00     0.025 C 
ATOM     81  C   UNL A   1      31.830  21.488  25.418  1.00  0.00    -0.027 C 
ATOM     82  C   UNL A   1      31.895  22.938  27.171  1.00  0.00     0.017 C 
ATOM     83  C   UNL A   1      33.075  21.549  25.900  1.00  0.00    -0.027 C 
BRANCH  78  84
ATOM     84  C   UNL A   1      34.445  24.707  24.878  1.00  0.00     0.229 C 
ATOM     85  O   UNL A   1      34.292  25.844  24.387  1.00  0.00    -0.274 OA
ATOM     86  N   UNL A   1      35.751  24.350  24.885  1.00  0.00    -0.323 N 
ATOM     87  H   UNL A   1      36.324  25.122  24.675  1.00  0.00     0.170 HD
BRANCH  86  88
ATOM     88  C   UNL A   1      36.526  23.206  25.100  1.00  0.00     0.084 A 
ATOM     89  C   UNL A   1      36.098  22.003  24.514  1.00  0.00     0.030 A 
ATOM     90  C   UNL A   1      37.631  23.150  25.931  1.00  0.00     0.149 A 
ATOM     91  C   UNL A   1      36.913  20.865  24.529  1.00  0.00     0.002 A 
ATOM     92  C   UNL A   1      38.487  22.044  25.909  1.00  0.00     0.049 A 
ATOM     93  C   UNL A   1      38.141  20.907  25.180  1.00  0.00     0.004 A 
BRANCH  90  94
ATOM     94  O   UNL A   1      37.821  24.045  26.939  1.00  0.00    -0.433 OA
BRANCH  94  95
ATOM     95  C   UNL A   1      39.171  24.550  27.008  1.00  0.00     0.542 C 
ATOM     96  F   UNL A   1      39.163  25.809  27.490  1.00  0.00    -0.167 F 
ATOM     97  F   UNL A   1      39.958  23.790  27.808  1.00  0.00    -0.167 F 
ENDBRANCH  94  95
ENDBRANCH  90  94
ENDBRANCH  86  88
ENDBRANCH  78  84
ENDBRANCH  75  77
ENDBRANCH  74  75
ENDBRANCH  73  74
ENDBRANCH  72  73
ENDBRANCH  71  72
ENDBRANCH   1  71
TORSDOF 24
ENDMDL
MODEL 2
REMARK VINA RESULT:      -9.0      2.199      9.052
REMARK SMILES O=C(OCCOCCOCCOC(=O)[C@@H]1[C@H](C(=O)Nc2ccccc2OC(F)F)[C@@H]2C=C[C@H]1C2)c1ccc(-c2c3nc(c(-c4ccc(S(=O)(=O)[O-])cc4)c4ccc([nH]4)c(-c4ccc(S(=O)(=O)[O-])cc4)c4nc(c(-c5ccc(S(=O)(=O)[O-])cc5)c5ccc2[nH]5)C=C4)C=C3)cc1
REMARK SMILES IDX 8 1 7 2 6 3 5 4 4 5 3 6 2 7 1 8 35 9 36 10 94 11 37 12 93 13
REMARK SMILES IDX 38 14 39 15 40 16 87 17 41 18 92 19 86 20 88 21 42 22 91 23
REMARK SMILES IDX 85 24 84 25 43 27 73 28 54 29 72 30 55 31 58 32 71 33 89 34
REMARK SMILES IDX 56 35 57 36 70 38 90 39 59 40 44 41 45 42 53 43 46 44 52 45
REMARK SMILES IDX 47 46 48 47 49 48 50 49 51 50 74 51 75 52 83 53 76 54 82 55
REMARK SMILES IDX 77 56 78 57 79 58 80 59 81 60 60 61 61 62 69 63 62 64 68 65
REMARK SMILES IDX 63 66 64 67 65 68 66 69 67 70 9 71 10 72 11 73 12 74 13 75
REMARK SMILES IDX 14 76 15 77 16 78 33 79 30 80 32 81 34 82 31 83 17 84 18 85
REMARK SMILES IDX 19 86 20 88 21 89 25 90 22 91 24 92 23 93 26 94 27 95 28 96
REMARK SMILES IDX 29 97
REMARK H PARENT 88 26 58 37 19 87
REMARK Flexibility Score: inf
ROOT
ATOM      1  C   UNL A   1      39.336  24.093  26.933  1.00  0.00     0.188 C 
ENDROOT
BRANCH   1   2
ATOM      2  C   UNL A   1      40.476  23.101  27.215  1.00  0.00     0.188 C 
BRANCH   2   3
ATOM      3  O   UNL A   1      40.013  21.771  27.197  1.00  0.00    -0.376 OA
BRANCH   3   4
ATOM      4  C   UNL A   1      40.293  20.918  26.113  1.00  0.00     0.202 C 
BRANCH   4   5
ATOM      5  C   UNL A   1      41.220  19.730  26.346  1.00  0.00     0.261 C 
BRANCH   5   6
ATOM      6  O   UNL A   1      42.260  19.397  25.388  1.00  0.00    -0.460 OA
BRANCH   6   7
ATOM      7  C   UNL A   1      43.440  19.925  25.000  1.00  0.00     0.338 C 
ATOM      8  O   UNL A   1      44.159  19.284  24.250  1.00  0.00    -0.246 OA
BRANCH   7   9
ATOM      9  C   UNL A   1      43.924  21.244  25.481  1.00  0.00     0.060 A 
ATOM     10  C   UNL A   1      44.041  21.582  26.827  1.00  0.00     0.016 A 
ATOM     11  C   UNL A   1      44.166  22.234  24.513  1.00  0.00     0.016 A 
ATOM     12  C   UNL A   1      44.517  22.848  27.200  1.00  0.00     0.010 A 
ATOM     13  C   UNL A   1      44.564  23.524  24.889  1.00  0.00     0.010 A 
ATOM     14  C   UNL A   1      44.766  23.839  26.237  1.00  0.00    -0.014 A 
BRANCH  14  15
ATOM     15  C   UNL A   1      45.019  25.244  26.661  1.00  0.00     0.031 A 
ATOM     16  C   UNL A   1      46.410  25.766  26.589  1.00  0.00     0.074 A 
ATOM     17  C   UNL A   1      44.064  26.070  27.129  1.00  0.00     0.049 A 
ATOM     18  N   UNL A   1      46.811  26.999  26.715  1.00  0.00    -0.248 NA
ATOM     19  C   UNL A   1      47.470  24.792  26.294  1.00  0.00     0.031 C 
ATOM     20  C   UNL A   1      42.669  25.716  27.200  1.00  0.00     0.029 A 
ATOM     21  N   UNL A   1      44.095  27.349  27.635  1.00  0.00    -0.354 N 
ATOM     22  C   UNL A   1      48.162  26.967  26.444  1.00  0.00     0.074 A 
ATOM     23  C   UNL A   1      48.521  25.589  26.180  1.00  0.00     0.031 C 
ATOM     24  C   UNL A   1      41.987  26.679  27.836  1.00  0.00     0.029 A 
ATOM     25  C   UNL A   1      42.865  27.806  28.063  1.00  0.00     0.049 A 
ATOM     26  H   UNL A   1      44.916  27.889  27.686  1.00  0.00     0.167 HD
ATOM     27  C   UNL A   1      49.025  28.003  26.415  1.00  0.00     0.031 A 
ATOM     28  C   UNL A   1      42.445  29.004  28.516  1.00  0.00     0.031 A 
ATOM     29  C   UNL A   1      48.706  29.344  26.814  1.00  0.00     0.049 A 
ATOM     30  C   UNL A   1      43.454  30.110  28.581  1.00  0.00     0.074 A 
ATOM     31  C   UNL A   1      49.548  30.438  26.877  1.00  0.00     0.029 A 
ATOM     32  N   UNL A   1      47.466  29.763  27.274  1.00  0.00    -0.354 N 
ATOM     33  N   UNL A   1      44.703  30.092  28.186  1.00  0.00    -0.248 NA
ATOM     34  C   UNL A   1      43.006  31.396  29.132  1.00  0.00     0.031 C 
ATOM     35  C   UNL A   1      48.837  31.500  27.443  1.00  0.00     0.029 A 
ATOM     36  C   UNL A   1      47.535  31.087  27.675  1.00  0.00     0.049 A 
ATOM     37  H   UNL A   1      46.658  29.202  27.310  1.00  0.00     0.167 HD
ATOM     38  C   UNL A   1      45.190  31.366  28.429  1.00  0.00     0.074 A 
ATOM     39  C   UNL A   1      44.091  32.141  28.970  1.00  0.00     0.031 C 
ATOM     40  C   UNL A   1      46.441  31.843  28.229  1.00  0.00     0.031 A 
BRANCH  27  41
ATOM     41  C   UNL A   1      50.418  27.673  25.992  1.00  0.00    -0.014 A 
ATOM     42  C   UNL A   1      51.388  27.323  26.949  1.00  0.00     0.010 A 
ATOM     43  C   UNL A   1      50.766  27.750  24.635  1.00  0.00     0.010 A 
ATOM     44  C   UNL A   1      52.698  27.070  26.551  1.00  0.00     0.020 A 
ATOM     45  C   UNL A   1      52.075  27.483  24.233  1.00  0.00     0.020 A 
ATOM     46  C   UNL A   1      53.033  27.155  25.195  1.00  0.00     0.054 A 
BRANCH  46  47
ATOM     47  S   UNL A   1      54.740  26.802  24.703  1.00  0.00     0.124 S 
ATOM     48  O   UNL A   1      54.830  27.492  23.419  1.00  0.00    -0.237 OA
ATOM     49  O   UNL A   1      55.513  27.394  25.791  1.00  0.00    -0.237 OA
ATOM     50  O   UNL A   1      54.784  25.343  24.632  1.00  0.00    -0.744 OA
ENDBRANCH  46  47
ENDBRANCH  27  41
BRANCH  28  51
ATOM     51  C   UNL A   1      41.014  29.249  28.879  1.00  0.00    -0.014 A 
ATOM     52  C   UNL A   1      40.025  29.374  27.882  1.00  0.00     0.010 A 
ATOM     53  C   UNL A   1      40.632  29.403  30.225  1.00  0.00     0.010 A 
ATOM     54  C   UNL A   1      38.706  29.705  28.219  1.00  0.00     0.020 A 
ATOM     55  C   UNL A   1      39.307  29.702  30.568  1.00  0.00     0.020 A 
ATOM     56  C   UNL A   1      38.359  29.882  29.561  1.00  0.00     0.054 A 
BRANCH  56  57
ATOM     57  S   UNL A   1      36.659  30.378  29.974  1.00  0.00     0.124 S 
ATOM     58  O   UNL A   1      36.862  31.729  30.492  1.00  0.00    -0.237 OA
ATOM     59  O   UNL A   1      35.975  30.296  28.687  1.00  0.00    -0.237 OA
ATOM     60  O   UNL A   1      36.243  29.390  30.968  1.00  0.00    -0.744 OA
ENDBRANCH  56  57
ENDBRANCH  28  51
BRANCH  40  61
ATOM     61  C   UNL A   1      46.691  33.273  28.611  1.00  0.00    -0.014 A 
ATOM     62  C   UNL A   1      46.392  34.320  27.721  1.00  0.00     0.010 A 
ATOM     63  C   UNL A   1      47.191  33.574  29.890  1.00  0.00     0.010 A 
ATOM     64  C   UNL A   1      46.617  35.646  28.094  1.00  0.00     0.020 A 
ATOM     65  C   UNL A   1      47.391  34.900  30.276  1.00  0.00     0.020 A 
ATOM     66  C   UNL A   1      47.115  35.927  29.370  1.00  0.00     0.054 A 
BRANCH  66  67
ATOM     67  S   UNL A   1      47.351  37.659  29.849  1.00  0.00     0.124 S 
ATOM     68  O   UNL A   1      47.814  38.258  28.601  1.00  0.00    -0.237 OA
ATOM     69  O   UNL A   1      46.014  38.058  30.282  1.00  0.00    -0.237 OA
ATOM     70  O   UNL A   1      48.349  37.588  30.914  1.00  0.00    -0.744 OA
ENDBRANCH  66  67
ENDBRANCH  40  61
ENDBRANCH  14  15
ENDBRANCH   7   9
ENDBRANCH   6   7
ENDBRANCH   5   6
ENDBRANCH   4   5
ENDBRANCH   3   4
ENDBRANCH   2   3
ENDBRANCH   1   2
BRANCH   1  71
ATOM     71  O   UNL A   1      38.007  23.622  27.156  1.00  0.00    -0.376 OA
BRANCH  71  72
ATOM     72  C   UNL A   1      37.244  23.292  25.995  1.00  0.00     0.202 C 
BRANCH  72  73
ATOM     73  C   UNL A   1      35.763  23.671  26.010  1.00  0.00     0.261 C 
BRANCH  73  74
ATOM     74  O   UNL A   1      34.943  23.053  27.033  1.00  0.00    -0.463 OA
BRANCH  74  75
ATOM     75  C   UNL A   1      33.796  22.547  26.500  1.00  0.00     0.310 C 
ATOM     76  O   UNL A   1      32.985  21.910  27.172  1.00  0.00    -0.252 OA
BRANCH  75  77
ATOM     77  C   UNL A   1      33.488  22.912  25.072  1.00  0.00     0.119 C 
ATOM     78  C   UNL A   1      32.137  23.507  24.586  1.00  0.00     0.100 C 
ATOM     79  C   UNL A   1      33.969  22.066  23.870  1.00  0.00     0.027 C 
ATOM     80  C   UNL A   1      32.031  22.966  23.119  1.00  0.00     0.025 C 
ATOM     81  C   UNL A   1      33.054  20.930  23.526  1.00  0.00    -0.027 C 
ATOM     82  C   UNL A   1      33.522  23.002  22.708  1.00  0.00     0.017 C 
ATOM     83  C   UNL A   1      31.941  21.472  23.022  1.00  0.00    -0.027 C 
BRANCH  78  84
ATOM     84  C   UNL A   1      30.869  24.012  25.323  1.00  0.00     0.229 C 
ATOM     85  O   UNL A   1      30.365  23.197  26.123  1.00  0.00    -0.274 OA
ATOM     86  N   UNL A   1      30.276  25.224  25.421  1.00  0.00    -0.323 N 
ATOM     87  H   UNL A   1      29.703  25.267  26.220  1.00  0.00     0.170 HD
BRANCH  86  88
ATOM     88  C   UNL A   1      30.235  26.434  24.721  1.00  0.00     0.084 A 
ATOM     89  C   UNL A   1      29.138  26.666  23.874  1.00  0.00     0.030 A 
ATOM     90  C   UNL A   1      31.246  27.378  24.724  1.00  0.00     0.149 A 
ATOM     91  C   UNL A   1      28.934  27.921  23.289  1.00  0.00     0.002 A 
ATOM     92  C   UNL A   1      31.033  28.656  24.196  1.00  0.00     0.049 A 
ATOM     93  C   UNL A   1      29.859  28.938  23.501  1.00  0.00     0.004 A 
BRANCH  90  94
ATOM     94  O   UNL A   1      32.533  27.057  25.035  1.00  0.00    -0.433 OA
BRANCH  94  95
ATOM     95  C   UNL A   1      33.369  26.860  23.876  1.00  0.00     0.542 C 
ATOM     96  F   UNL A   1      34.396  26.045  24.187  1.00  0.00    -0.167 F 
ATOM     97  F   UNL A   1      32.685  26.312  22.842  1.00  0.00    -0.167 F 
ENDBRANCH  94  95
ENDBRANCH  90  94
ENDBRANCH  86  88
ENDBRANCH  78  84
ENDBRANCH  75  77
ENDBRANCH  74  75
ENDBRANCH  73  74
ENDBRANCH  72  73
ENDBRANCH  71  72
ENDBRANCH   1  71
TORSDOF 24
ENDMDL
MODEL 3
REMARK VINA RESULT:      -8.7      2.201      3.127
REMARK SMILES O=C(OCCOCCOCCOC(=O)[C@@H]1[C@H](C(=O)Nc2ccccc2OC(F)F)[C@@H]2C=C[C@H]1C2)c1ccc(-c2c3nc(c(-c4ccc(S(=O)(=O)[O-])cc4)c4ccc([nH]4)c(-c4ccc(S(=O)(=O)[O-])cc4)c4nc(c(-c5ccc(S(=O)(=O)[O-])cc5)c5ccc2[nH]5)C=C4)C=C3)cc1
REMARK SMILES IDX 8 1 7 2 6 3 5 4 4 5 3 6 2 7 1 8 35 9 36 10 94 11 37 12 93 13
REMARK SMILES IDX 38 14 39 15 40 16 87 17 41 18 92 19 86 20 88 21 42 22 91 23
REMARK SMILES IDX 85 24 84 25 43 27 73 28 54 29 72 30 55 31 58 32 71 33 89 34
REMARK SMILES IDX 56 35 57 36 70 38 90 39 59 40 44 41 45 42 53 43 46 44 52 45
REMARK SMILES IDX 47 46 48 47 49 48 50 49 51 50 74 51 75 52 83 53 76 54 82 55
REMARK SMILES IDX 77 56 78 57 79 58 80 59 81 60 60 61 61 62 69 63 62 64 68 65
REMARK SMILES IDX 63 66 64 67 65 68 66 69 67 70 9 71 10 72 11 73 12 74 13 75
REMARK SMILES IDX 14 76 15 77 16 78 33 79 30 80 32 81 34 82 31 83 17 84 18 85
REMARK SMILES IDX 19 86 20 88 21 89 25 90 22 91 24 92 23 93 26 94 27 95 28 96
REMARK SMILES IDX 29 97
REMARK H PARENT 88 26 58 37 19 87
REMARK Flexibility Score: inf
ROOT
ATOM      1  C   UNL A   1      34.079  31.601  27.597  1.00  0.00     0.188 C 
ENDROOT
BRANCH   1   2
ATOM      2  C   UNL A   1      35.270  31.773  28.553  1.00  0.00     0.188 C 
BRANCH   2   3
ATOM      3  O   UNL A   1      34.841  32.129  29.846  1.00  0.00    -0.376 OA
BRANCH   3   4
ATOM      4  C   UNL A   1      34.917  33.460  30.297  1.00  0.00     0.202 C 
BRANCH   4   5
ATOM      5  C   UNL A   1      35.896  33.790  31.418  1.00  0.00     0.261 C 
BRANCH   5   6
ATOM      6  O   UNL A   1      37.108  33.012  31.602  1.00  0.00    -0.460 OA
BRANCH   6   7
ATOM      7  C   UNL A   1      37.416  31.721  31.849  1.00  0.00     0.338 C 
ATOM      8  O   UNL A   1      36.684  31.066  32.574  1.00  0.00    -0.246 OA
BRANCH   7   9
ATOM      9  C   UNL A   1      38.634  31.070  31.305  1.00  0.00     0.060 A 
ATOM     10  C   UNL A   1      39.807  30.890  32.035  1.00  0.00     0.016 A 
ATOM     11  C   UNL A   1      38.627  30.722  29.944  1.00  0.00     0.016 A 
ATOM     12  C   UNL A   1      40.913  30.254  31.452  1.00  0.00     0.010 A 
ATOM     13  C   UNL A   1      39.759  30.161  29.339  1.00  0.00     0.010 A 
ATOM     14  C   UNL A   1      40.909  29.900  30.093  1.00  0.00    -0.014 A 
BRANCH  14  15
ATOM     15  C   UNL A   1      42.172  29.468  29.431  1.00  0.00     0.031 A 
ATOM     16  C   UNL A   1      43.250  30.474  29.241  1.00  0.00     0.074 A 
ATOM     17  C   UNL A   1      42.391  28.221  28.972  1.00  0.00     0.049 A 
ATOM     18  N   UNL A   1      44.485  30.266  28.878  1.00  0.00    -0.248 NA
ATOM     19  C   UNL A   1      42.915  31.873  29.539  1.00  0.00     0.031 C 
ATOM     20  C   UNL A   1      41.457  27.136  29.139  1.00  0.00     0.029 A 
ATOM     21  N   UNL A   1      43.430  27.644  28.279  1.00  0.00    -0.354 N 
ATOM     22  C   UNL A   1      45.099  31.497  28.972  1.00  0.00     0.074 A 
ATOM     23  C   UNL A   1      44.096  32.454  29.393  1.00  0.00     0.031 C 
ATOM     24  C   UNL A   1      41.882  26.061  28.459  1.00  0.00     0.029 A 
ATOM     25  C   UNL A   1      43.211  26.323  27.952  1.00  0.00     0.049 A 
ATOM     26  H   UNL A   1      44.252  28.129  28.040  1.00  0.00     0.167 HD
ATOM     27  C   UNL A   1      46.391  31.798  28.730  1.00  0.00     0.031 A 
ATOM     28  C   UNL A   1      43.993  25.383  27.381  1.00  0.00     0.031 A 
ATOM     29  C   UNL A   1      47.352  30.887  28.178  1.00  0.00     0.049 A 
ATOM     30  C   UNL A   1      45.392  25.778  27.017  1.00  0.00     0.074 A 
ATOM     31  C   UNL A   1      48.669  31.138  27.841  1.00  0.00     0.029 A 
ATOM     32  N   UNL A   1      47.090  29.571  27.826  1.00  0.00    -0.354 N 
ATOM     33  N   UNL A   1      45.998  26.917  27.244  1.00  0.00    -0.248 NA
ATOM     34  C   UNL A   1      46.220  24.770  26.342  1.00  0.00     0.031 C 
ATOM     35  C   UNL A   1      49.183  29.997  27.217  1.00  0.00     0.029 A 
ATOM     36  C   UNL A   1      48.207  29.014  27.224  1.00  0.00     0.049 A 
ATOM     37  H   UNL A   1      46.238  29.103  27.981  1.00  0.00     0.167 HD
ATOM     38  C   UNL A   1      47.283  26.763  26.749  1.00  0.00     0.074 A 
ATOM     39  C   UNL A   1      47.379  25.406  26.245  1.00  0.00     0.031 C 
ATOM     40  C   UNL A   1      48.286  27.670  26.709  1.00  0.00     0.031 A 
BRANCH  27  41
ATOM     41  C   UNL A   1      46.791  33.208  29.012  1.00  0.00    -0.014 A 
ATOM     42  C   UNL A   1      46.711  34.185  28.004  1.00  0.00     0.010 A 
ATOM     43  C   UNL A   1      47.283  33.547  30.282  1.00  0.00     0.010 A 
ATOM     44  C   UNL A   1      47.138  35.486  28.260  1.00  0.00     0.020 A 
ATOM     45  C   UNL A   1      47.697  34.853  30.544  1.00  0.00     0.020 A 
ATOM     46  C   UNL A   1      47.630  35.810  29.529  1.00  0.00     0.054 A 
BRANCH  46  47
ATOM     47  S   UNL A   1      48.160  37.513  29.841  1.00  0.00     0.124 S 
ATOM     48  O   UNL A   1      47.207  37.941  30.862  1.00  0.00    -0.237 OA
ATOM     49  O   UNL A   1      49.536  37.339  30.298  1.00  0.00    -0.237 OA
ATOM     50  O   UNL A   1      48.016  38.163  28.541  1.00  0.00    -0.744 OA
ENDBRANCH  46  47
ENDBRANCH  27  41
BRANCH  28  51
ATOM     51  C   UNL A   1      43.513  23.980  27.176  1.00  0.00    -0.014 A 
ATOM     52  C   UNL A   1      43.058  23.548  25.914  1.00  0.00     0.010 A 
ATOM     53  C   UNL A   1      43.468  23.074  28.251  1.00  0.00     0.010 A 
ATOM     54  C   UNL A   1      42.514  22.267  25.749  1.00  0.00     0.020 A 
ATOM     55  C   UNL A   1      42.955  21.781  28.082  1.00  0.00     0.020 A 
ATOM     56  C   UNL A   1      42.452  21.397  26.840  1.00  0.00     0.054 A 
BRANCH  56  57
ATOM     57  S   UNL A   1      41.682  19.765  26.623  1.00  0.00     0.124 S 
ATOM     58  O   UNL A   1      40.276  20.063  26.886  1.00  0.00    -0.237 OA
ATOM     59  O   UNL A   1      42.003  19.435  25.238  1.00  0.00    -0.237 OA
ATOM     60  O   UNL A   1      42.338  18.935  27.632  1.00  0.00    -0.744 OA
ENDBRANCH  56  57
ENDBRANCH  28  51
BRANCH  40  61
ATOM     61  C   UNL A   1      49.577  27.226  26.085  1.00  0.00    -0.014 A 
ATOM     62  C   UNL A   1      50.384  26.259  26.710  1.00  0.00     0.010 A 
ATOM     63  C   UNL A   1      49.965  27.752  24.841  1.00  0.00     0.010 A 
ATOM     64  C   UNL A   1      51.577  25.846  26.113  1.00  0.00     0.020 A 
ATOM     65  C   UNL A   1      51.143  27.321  24.228  1.00  0.00     0.020 A 
ATOM     66  C   UNL A   1      51.947  26.381  24.875  1.00  0.00     0.054 A 
BRANCH  66  67
ATOM     67  S   UNL A   1      53.474  25.791  24.096  1.00  0.00     0.124 S 
ATOM     68  O   UNL A   1      53.135  25.858  22.677  1.00  0.00    -0.237 OA
ATOM     69  O   UNL A   1      54.465  26.761  24.553  1.00  0.00    -0.237 OA
ATOM     70  O   UNL A   1      53.636  24.442  24.635  1.00  0.00    -0.744 OA
ENDBRANCH  66  67
ENDBRANCH  40  61
ENDBRANCH  14  15
ENDBRANCH   7   9
ENDBRANCH   6   7
ENDBRANCH   5   6
ENDBRANCH   4   5
ENDBRANCH   3   4
ENDBRANCH   2   3
ENDBRANCH   1   2
BRANCH   1  71
ATOM     71  O   UNL A   1      33.365  30.367  27.678  1.00  0.00    -0.376 OA
BRANCH  71  72
ATOM     72  C   UNL A   1      32.179  30.265  26.890  1.00  0.00     0.202 C 
BRANCH  72  73
ATOM     73  C   UNL A   1      32.364  30.030  25.390  1.00  0.00     0.261 C 
BRANCH  73  74
ATOM     74  O   UNL A   1      31.190  29.625  24.644  1.00  0.00    -0.463 OA
BRANCH  74  75
ATOM     75  C   UNL A   1      31.360  28.389  24.097  1.00  0.00     0.310 C 
ATOM     76  O   UNL A   1      32.036  28.206  23.085  1.00  0.00    -0.252 OA
BRANCH  75  77
ATOM     77  C   UNL A   1      30.793  27.222  24.860  1.00  0.00     0.119 C 
ATOM     78  C   UNL A   1      31.646  26.120  25.550  1.00  0.00     0.100 C 
ATOM     79  C   UNL A   1      29.517  26.470  24.414  1.00  0.00     0.027 C 
ATOM     80  C   UNL A   1      30.718  24.861  25.462  1.00  0.00     0.025 C 
ATOM     81  C   UNL A   1      29.775  25.384  23.414  1.00  0.00    -0.027 C 
ATOM     82  C   UNL A   1      29.334  25.530  25.642  1.00  0.00     0.017 C 
ATOM     83  C   UNL A   1      30.424  24.412  24.061  1.00  0.00    -0.027 C 
BRANCH  78  84
ATOM     84  C   UNL A   1      33.168  25.950  25.793  1.00  0.00     0.229 C 
ATOM     85  O   UNL A   1      33.820  27.013  25.821  1.00  0.00    -0.274 OA
ATOM     86  N   UNL A   1      33.935  24.896  26.161  1.00  0.00    -0.323 N 
ATOM     87  H   UNL A   1      34.786  25.205  26.548  1.00  0.00     0.170 HD
BRANCH  86  88
ATOM     88  C   UNL A   1      33.875  23.500  26.152  1.00  0.00     0.084 A 
ATOM     89  C   UNL A   1      34.349  22.816  27.285  1.00  0.00     0.030 A 
ATOM     90  C   UNL A   1      33.476  22.736  25.070  1.00  0.00     0.149 A 
ATOM     91  C   UNL A   1      34.153  21.437  27.426  1.00  0.00     0.002 A 
ATOM     92  C   UNL A   1      33.217  21.369  25.215  1.00  0.00     0.049 A 
ATOM     93  C   UNL A   1      33.529  20.722  26.409  1.00  0.00     0.004 A 
BRANCH  90  94
ATOM     94  O   UNL A   1      33.520  23.214  23.796  1.00  0.00    -0.433 OA
BRANCH  94  95
ATOM     95  C   UNL A   1      34.795  23.789  23.444  1.00  0.00     0.542 C 
ATOM     96  F   UNL A   1      35.530  22.888  22.761  1.00  0.00    -0.167 F 
ATOM     97  F   UNL A   1      34.659  24.898  22.677  1.00  0.00    -0.167 F 
ENDBRANCH  94  95
ENDBRANCH  90  94
ENDBRANCH  86  88
ENDBRANCH  78  84
ENDBRANCH  75  77
ENDBRANCH  74  75
ENDBRANCH  73  74
ENDBRANCH  72  73
ENDBRANCH  71  72
ENDBRANCH   1  71
TORSDOF 24
ENDMDL
