MODEL 1
REMARK VINA RESULT:      -9.4      0.000      0.000
REMARK SMILES O=C(OCCOCCOCCOC(=O)c1cc(N2CC[NH2+]CC2)nc2ccccc12)c1ccc(-c2c3nc(c(-c4ccc(S(=O)(=O)[O-])cc4)c4ccc([nH]4)c(-c4ccc(S(=O)(=O)[O-])cc4)c4nc(c(-c5ccc(S(=O)(=O)[O-])cc5)c5ccc2[nH]5)C=C4)C=C3)cc1
REMARK SMILES IDX 7 1 6 2 5 3 4 4 3 5 2 6 1 7 31 8 32 9 90 10 33 11 89 12
REMARK SMILES IDX 34 13 35 14 36 15 83 16 37 17 88 18 82 19 84 20 38 21 87 22
REMARK SMILES IDX 81 23 80 24 39 26 69 27 50 28 68 29 51 30 54 31 67 32 85 33
REMARK SMILES IDX 52 34 53 35 66 37 86 38 55 39 40 40 41 41 49 42 42 43 48 44
REMARK SMILES IDX 43 45 44 46 45 47 46 48 47 49 70 50 71 51 79 52 72 53 78 54
REMARK SMILES IDX 73 55 74 56 75 57 76 58 77 59 56 60 57 61 65 62 58 63 64 64
REMARK SMILES IDX 59 65 60 66 61 67 62 68 63 69 8 70 9 71 10 72 11 73 12 74
REMARK SMILES IDX 13 75 14 76 15 77 16 78 30 79 17 80 25 81 29 82 24 83 26 84
REMARK SMILES IDX 28 85 27 86 18 87 19 88 23 89 20 90 22 91 21 92
REMARK H PARENT 84 25 54 36 21 93 21 94
REMARK Flexibility Score: inf
ROOT
ATOM      1  C   UNL A   1      34.645  32.440  29.500  1.00  0.00     0.188 C 
ENDROOT
BRANCH   1   2
ATOM      2  O   UNL A   1      34.570  33.684  30.211  1.00  0.00    -0.376 OA
BRANCH   2   3
ATOM      3  C   UNL A   1      35.778  34.037  30.884  1.00  0.00     0.202 C 
BRANCH   3   4
ATOM      4  C   UNL A   1      35.835  33.518  32.324  1.00  0.00     0.261 C 
BRANCH   4   5
ATOM      5  O   UNL A   1      36.938  32.612  32.498  1.00  0.00    -0.460 OA
BRANCH   5   6
ATOM      6  C   UNL A   1      37.010  31.328  32.061  1.00  0.00     0.338 C 
ATOM      7  O   UNL A   1      36.003  30.624  32.071  1.00  0.00    -0.246 OA
BRANCH   6   8
ATOM      8  C   UNL A   1      38.249  30.763  31.459  1.00  0.00     0.060 A 
ATOM      9  C   UNL A   1      39.189  30.005  32.160  1.00  0.00     0.016 A 
ATOM     10  C   UNL A   1      38.426  30.943  30.078  1.00  0.00     0.016 A 
ATOM     11  C   UNL A   1      40.354  29.564  31.533  1.00  0.00     0.010 A 
ATOM     12  C   UNL A   1      39.554  30.429  29.430  1.00  0.00     0.010 A 
ATOM     13  C   UNL A   1      40.553  29.778  30.165  1.00  0.00    -0.014 A 
BRANCH  13  14
ATOM     14  C   UNL A   1      41.843  29.394  29.537  1.00  0.00     0.031 A 
ATOM     15  C   UNL A   1      42.974  30.386  29.504  1.00  0.00     0.074 A 
ATOM     16  C   UNL A   1      42.028  28.147  29.065  1.00  0.00     0.049 A 
ATOM     17  N   UNL A   1      44.163  30.264  28.974  1.00  0.00    -0.248 NA
ATOM     18  C   UNL A   1      42.736  31.683  30.157  1.00  0.00     0.031 C 
ATOM     19  C   UNL A   1      41.030  27.075  29.083  1.00  0.00     0.029 A 
ATOM     20  N   UNL A   1      43.133  27.563  28.499  1.00  0.00    -0.354 N 
ATOM     21  C   UNL A   1      44.805  31.474  29.207  1.00  0.00     0.074 A 
ATOM     22  C   UNL A   1      43.869  32.324  29.910  1.00  0.00     0.031 C 
ATOM     23  C   UNL A   1      41.584  25.956  28.590  1.00  0.00     0.029 A 
ATOM     24  C   UNL A   1      42.947  26.243  28.165  1.00  0.00     0.049 A 
ATOM     25  H   UNL A   1      43.979  28.044  28.348  1.00  0.00     0.167 HD
ATOM     26  C   UNL A   1      46.063  31.848  28.871  1.00  0.00     0.031 A 
ATOM     27  C   UNL A   1      43.773  25.366  27.564  1.00  0.00     0.031 A 
ATOM     28  C   UNL A   1      46.995  31.009  28.171  1.00  0.00     0.049 A 
ATOM     29  C   UNL A   1      45.145  25.816  27.155  1.00  0.00     0.074 A 
ATOM     30  C   UNL A   1      48.274  31.310  27.737  1.00  0.00     0.029 A 
ATOM     31  N   UNL A   1      46.747  29.695  27.810  1.00  0.00    -0.354 N 
ATOM     32  N   UNL A   1      45.711  26.985  27.331  1.00  0.00    -0.248 NA
ATOM     33  C   UNL A   1      45.983  24.831  26.460  1.00  0.00     0.031 C 
ATOM     34  C   UNL A   1      48.793  30.179  27.094  1.00  0.00     0.029 A 
ATOM     35  C   UNL A   1      47.848  29.167  27.157  1.00  0.00     0.049 A 
ATOM     36  H   UNL A   1      45.911  29.207  27.991  1.00  0.00     0.167 HD
ATOM     37  C   UNL A   1      46.974  26.879  26.764  1.00  0.00     0.074 A 
ATOM     38  C   UNL A   1      47.097  25.524  26.262  1.00  0.00     0.031 C 
ATOM     39  C   UNL A   1      47.943  27.820  26.660  1.00  0.00     0.031 A 
BRANCH  26  40
ATOM     40  C   UNL A   1      46.467  33.250  29.232  1.00  0.00    -0.014 A 
ATOM     41  C   UNL A   1      47.120  33.523  30.447  1.00  0.00     0.010 A 
ATOM     42  C   UNL A   1      46.148  34.312  28.368  1.00  0.00     0.010 A 
ATOM     43  C   UNL A   1      47.396  34.842  30.818  1.00  0.00     0.020 A 
ATOM     44  C   UNL A   1      46.440  35.631  28.727  1.00  0.00     0.020 A 
ATOM     45  C   UNL A   1      47.038  35.888  29.962  1.00  0.00     0.054 A 
BRANCH  45  46
ATOM     46  S   UNL A   1      47.366  37.595  30.481  1.00  0.00     0.124 S 
ATOM     47  O   UNL A   1      48.714  37.811  29.960  1.00  0.00    -0.237 OA
ATOM     48  O   UNL A   1      46.309  38.348  29.811  1.00  0.00    -0.237 OA
ATOM     49  O   UNL A   1      47.261  37.540  31.936  1.00  0.00    -0.744 OA
ENDBRANCH  45  46
ENDBRANCH  26  40
BRANCH  27  50
ATOM     50  C   UNL A   1      43.311  23.984  27.274  1.00  0.00    -0.014 A 
ATOM     51  C   UNL A   1      43.302  23.007  28.283  1.00  0.00     0.010 A 
ATOM     52  C   UNL A   1      42.871  23.644  25.982  1.00  0.00     0.010 A 
ATOM     53  C   UNL A   1      42.863  21.709  28.005  1.00  0.00     0.020 A 
ATOM     54  C   UNL A   1      42.421  22.352  25.704  1.00  0.00     0.020 A 
ATOM     55  C   UNL A   1      42.424  21.390  26.716  1.00  0.00     0.054 A 
BRANCH  55  56
ATOM     56  S   UNL A   1      41.736  19.741  26.396  1.00  0.00     0.124 S 
ATOM     57  O   UNL A   1      42.126  19.008  27.594  1.00  0.00    -0.237 OA
ATOM     58  O   UNL A   1      40.307  20.014  26.252  1.00  0.00    -0.237 OA
ATOM     59  O   UNL A   1      42.404  19.340  25.160  1.00  0.00    -0.744 OA
ENDBRANCH  55  56
ENDBRANCH  27  50
BRANCH  39  60
ATOM     60  C   UNL A   1      49.218  27.409  25.988  1.00  0.00    -0.014 A 
ATOM     61  C   UNL A   1      49.313  27.378  24.586  1.00  0.00     0.010 A 
ATOM     62  C   UNL A   1      50.343  27.086  26.766  1.00  0.00     0.010 A 
ATOM     63  C   UNL A   1      50.511  27.009  23.971  1.00  0.00     0.020 A 
ATOM     64  C   UNL A   1      51.547  26.731  26.155  1.00  0.00     0.020 A 
ATOM     65  C   UNL A   1      51.619  26.684  24.760  1.00  0.00     0.054 A 
BRANCH  65  66
ATOM     66  S   UNL A   1      53.181  26.251  23.945  1.00  0.00     0.124 S 
ATOM     67  O   UNL A   1      54.116  27.184  24.569  1.00  0.00    -0.237 OA
ATOM     68  O   UNL A   1      53.359  24.847  24.307  1.00  0.00    -0.237 OA
ATOM     69  O   UNL A   1      52.907  26.492  22.530  1.00  0.00    -0.744 OA
ENDBRANCH  65  66
ENDBRANCH  39  60
ENDBRANCH  13  14
ENDBRANCH   6   8
ENDBRANCH   5   6
ENDBRANCH   4   5
ENDBRANCH   3   4
ENDBRANCH   2   3
ENDBRANCH   1   2
BRANCH   1  70
ATOM     70  C   UNL A   1      34.750  32.708  27.998  1.00  0.00     0.188 C 
BRANCH  70  71
ATOM     71  O   UNL A   1      33.731  32.061  27.228  1.00  0.00    -0.376 OA
BRANCH  71  72
ATOM     72  C   UNL A   1      33.441  30.705  27.564  1.00  0.00     0.202 C 
BRANCH  72  73
ATOM     73  C   UNL A   1      33.291  29.746  26.381  1.00  0.00     0.261 C 
BRANCH  73  74
ATOM     74  O   UNL A   1      33.673  28.385  26.654  1.00  0.00    -0.460 OA
BRANCH  74  75
ATOM     75  C   UNL A   1      32.622  27.556  26.864  1.00  0.00     0.339 C 
ATOM     76  O   UNL A   1      31.833  27.585  27.795  1.00  0.00    -0.246 OA
BRANCH  75  77
ATOM     77  C   UNL A   1      32.542  26.523  25.824  1.00  0.00     0.073 A 
ATOM     78  C   UNL A   1      33.381  25.417  25.949  1.00  0.00     0.063 A 
ATOM     79  C   UNL A   1      31.888  26.813  24.614  1.00  0.00     0.015 A 
ATOM     80  C   UNL A   1      33.625  24.639  24.829  1.00  0.00     0.130 A 
ATOM     81  C   UNL A   1      32.210  25.978  23.533  1.00  0.00     0.074 A 
ATOM     82  C   UNL A   1      30.983  27.889  24.429  1.00  0.00     0.011 A 
ATOM     83  N   UNL A   1      33.056  24.934  23.645  1.00  0.00    -0.231 NA
ATOM     84  C   UNL A   1      31.663  26.272  22.291  1.00  0.00     0.029 A 
ATOM     85  C   UNL A   1      30.430  28.144  23.179  1.00  0.00     0.001 A 
ATOM     86  C   UNL A   1      30.789  27.346  22.104  1.00  0.00     0.002 A 
BRANCH  80  87
ATOM     87  N   UNL A   1      34.551  23.618  24.888  1.00  0.00    -0.345 N 
ATOM     88  C   UNL A   1      34.934  22.907  23.667  1.00  0.00     0.179 C 
ATOM     89  C   UNL A   1      35.473  23.569  26.024  1.00  0.00     0.179 C 
ATOM     90  C   UNL A   1      36.434  23.116  23.341  1.00  0.00     0.282 C 
ATOM     91  C   UNL A   1      36.939  23.755  25.587  1.00  0.00     0.282 C 
ATOM     92  N   UNL A   1      37.333  22.847  24.486  1.00  0.00    -0.343 N 
ATOM     93  H   UNL A   1      38.300  23.024  24.217  1.00  0.00     0.346 HD
ATOM     94  H   UNL A   1      37.257  21.872  24.779  1.00  0.00     0.346 HD
ENDBRANCH  80  87
ENDBRANCH  75  77
ENDBRANCH  74  75
ENDBRANCH  73  74
ENDBRANCH  72  73
ENDBRANCH  71  72
ENDBRANCH  70  71
ENDBRANCH   1  70
TORSDOF 21
ENDMDL
MODEL 2
REMARK VINA RESULT:      -9.4      1.812      8.610
REMARK SMILES O=C(OCCOCCOCCOC(=O)c1cc(N2CC[NH2+]CC2)nc2ccccc12)c1ccc(-c2c3nc(c(-c4ccc(S(=O)(=O)[O-])cc4)c4ccc([nH]4)c(-c4ccc(S(=O)(=O)[O-])cc4)c4nc(c(-c5ccc(S(=O)(=O)[O-])cc5)c5ccc2[nH]5)C=C4)C=C3)cc1
REMARK SMILES IDX 7 1 6 2 5 3 4 4 3 5 2 6 1 7 31 8 32 9 90 10 33 11 89 12
REMARK SMILES IDX 34 13 35 14 36 15 83 16 37 17 88 18 82 19 84 20 38 21 87 22
REMARK SMILES IDX 81 23 80 24 39 26 69 27 50 28 68 29 51 30 54 31 67 32 85 33
REMARK SMILES IDX 52 34 53 35 66 37 86 38 55 39 40 40 41 41 49 42 42 43 48 44
REMARK SMILES IDX 43 45 44 46 45 47 46 48 47 49 70 50 71 51 79 52 72 53 78 54
REMARK SMILES IDX 73 55 74 56 75 57 76 58 77 59 56 60 57 61 65 62 58 63 64 64
REMARK SMILES IDX 59 65 60 66 61 67 62 68 63 69 8 70 9 71 10 72 11 73 12 74
REMARK SMILES IDX 13 75 14 76 15 77 16 78 30 79 17 80 25 81 29 82 24 83 26 84
REMARK SMILES IDX 28 85 27 86 18 87 19 88 23 89 20 90 22 91 21 92
REMARK H PARENT 84 25 54 36 21 93 21 94
REMARK Flexibility Score: inf
ROOT
ATOM      1  C   UNL A   1      34.203  31.887  27.942  1.00  0.00     0.188 C 
ENDROOT
BRANCH   1   2
ATOM      2  O   UNL A   1      35.170  32.943  28.018  1.00  0.00    -0.376 OA
BRANCH   2   3
ATOM      3  C   UNL A   1      35.699  33.147  29.328  1.00  0.00     0.202 C 
BRANCH   3   4
ATOM      4  C   UNL A   1      35.072  32.225  30.378  1.00  0.00     0.261 C 
BRANCH   4   5
ATOM      5  O   UNL A   1      36.000  31.204  30.784  1.00  0.00    -0.460 OA
BRANCH   5   6
ATOM      6  C   UNL A   1      37.184  31.391  31.424  1.00  0.00     0.338 C 
ATOM      7  O   UNL A   1      37.205  31.974  32.506  1.00  0.00    -0.246 OA
BRANCH   6   8
ATOM      8  C   UNL A   1      38.460  30.816  30.917  1.00  0.00     0.060 A 
ATOM      9  C   UNL A   1      39.479  30.323  31.735  1.00  0.00     0.016 A 
ATOM     10  C   UNL A   1      38.596  30.694  29.525  1.00  0.00     0.016 A 
ATOM     11  C   UNL A   1      40.670  29.856  31.179  1.00  0.00     0.010 A 
ATOM     12  C   UNL A   1      39.757  30.149  28.967  1.00  0.00     0.010 A 
ATOM     13  C   UNL A   1      40.825  29.772  29.792  1.00  0.00    -0.014 A 
BRANCH  13  14
ATOM     14  C   UNL A   1      42.135  29.371  29.217  1.00  0.00     0.031 A 
ATOM     15  C   UNL A   1      42.324  27.965  28.717  1.00  0.00     0.074 A 
ATOM     16  C   UNL A   1      43.123  30.275  29.075  1.00  0.00     0.049 A 
ATOM     17  N   UNL A   1      43.394  27.404  28.216  1.00  0.00    -0.248 NA
ATOM     18  C   UNL A   1      41.155  27.073  28.788  1.00  0.00     0.031 C 
ATOM     19  C   UNL A   1      43.050  31.683  29.471  1.00  0.00     0.029 A 
ATOM     20  N   UNL A   1      44.377  30.146  28.533  1.00  0.00    -0.354 N 
ATOM     21  C   UNL A   1      43.036  26.092  27.935  1.00  0.00     0.074 A 
ATOM     22  C   UNL A   1      41.656  25.933  28.338  1.00  0.00     0.031 C 
ATOM     23  C   UNL A   1      44.193  32.294  29.122  1.00  0.00     0.029 A 
ATOM     24  C   UNL A   1      45.100  31.315  28.537  1.00  0.00     0.049 A 
ATOM     25  H   UNL A   1      44.725  29.298  28.175  1.00  0.00     0.167 HD
ATOM     26  C   UNL A   1      43.784  25.104  27.387  1.00  0.00     0.031 A 
ATOM     27  C   UNL A   1      46.360  31.568  28.135  1.00  0.00     0.031 A 
ATOM     28  C   UNL A   1      45.155  25.257  26.987  1.00  0.00     0.049 A 
ATOM     29  C   UNL A   1      47.188  30.448  27.577  1.00  0.00     0.074 A 
ATOM     30  C   UNL A   1      46.017  24.306  26.471  1.00  0.00     0.029 A 
ATOM     31  N   UNL A   1      45.862  26.447  27.053  1.00  0.00    -0.354 N 
ATOM     32  N   UNL A   1      46.848  29.198  27.375  1.00  0.00    -0.248 NA
ATOM     33  C   UNL A   1      48.570  30.772  27.201  1.00  0.00     0.031 C 
ATOM     34  C   UNL A   1      47.256  24.919  26.242  1.00  0.00     0.029 A 
ATOM     35  C   UNL A   1      47.151  26.258  26.588  1.00  0.00     0.049 A 
ATOM     36  H   UNL A   1      45.500  27.302  27.382  1.00  0.00     0.167 HD
ATOM     37  C   UNL A   1      47.977  28.583  26.852  1.00  0.00     0.074 A 
ATOM     38  C   UNL A   1      49.001  29.604  26.744  1.00  0.00     0.031 C 
ATOM     39  C   UNL A   1      48.153  27.286  26.499  1.00  0.00     0.031 A 
BRANCH  26  40
ATOM     40  C   UNL A   1      43.122  23.764  27.236  1.00  0.00    -0.014 A 
ATOM     41  C   UNL A   1      43.137  22.828  28.286  1.00  0.00     0.010 A 
ATOM     42  C   UNL A   1      42.519  23.418  26.014  1.00  0.00     0.010 A 
ATOM     43  C   UNL A   1      42.611  21.548  28.097  1.00  0.00     0.020 A 
ATOM     44  C   UNL A   1      41.974  22.144  25.829  1.00  0.00     0.020 A 
ATOM     45  C   UNL A   1      42.048  21.209  26.863  1.00  0.00     0.054 A 
BRANCH  45  46
ATOM     46  S   UNL A   1      41.408  19.528  26.624  1.00  0.00     0.124 S 
ATOM     47  O   UNL A   1      40.892  19.214  27.954  1.00  0.00    -0.237 OA
ATOM     48  O   UNL A   1      40.396  19.710  25.587  1.00  0.00    -0.237 OA
ATOM     49  O   UNL A   1      42.585  18.766  26.215  1.00  0.00    -0.744 OA
ENDBRANCH  45  46
ENDBRANCH  26  40
BRANCH  27  50
ATOM     50  C   UNL A   1      46.930  32.932  28.284  1.00  0.00    -0.014 A 
ATOM     51  C   UNL A   1      46.814  33.873  27.248  1.00  0.00     0.010 A 
ATOM     52  C   UNL A   1      47.591  33.294  29.471  1.00  0.00     0.010 A 
ATOM     53  C   UNL A   1      47.350  35.156  27.395  1.00  0.00     0.020 A 
ATOM     54  C   UNL A   1      48.118  34.577  29.627  1.00  0.00     0.020 A 
ATOM     55  C   UNL A   1      47.999  35.500  28.585  1.00  0.00     0.054 A 
BRANCH  55  56
ATOM     56  S   UNL A   1      48.579  37.204  28.818  1.00  0.00     0.124 S 
ATOM     57  O   UNL A   1      48.106  37.507  30.163  1.00  0.00    -0.237 OA
ATOM     58  O   UNL A   1      50.027  37.073  28.665  1.00  0.00    -0.237 OA
ATOM     59  O   UNL A   1      47.918  37.927  27.734  1.00  0.00    -0.744 OA
ENDBRANCH  55  56
ENDBRANCH  27  50
BRANCH  39  60
ATOM     60  C   UNL A   1      49.500  26.910  25.956  1.00  0.00    -0.014 A 
ATOM     61  C   UNL A   1      49.814  27.126  24.604  1.00  0.00     0.010 A 
ATOM     62  C   UNL A   1      50.471  26.370  26.817  1.00  0.00     0.010 A 
ATOM     63  C   UNL A   1      51.078  26.787  24.114  1.00  0.00     0.020 A 
ATOM     64  C   UNL A   1      51.739  26.044  26.334  1.00  0.00     0.020 A 
ATOM     65  C   UNL A   1      52.030  26.244  24.982  1.00  0.00     0.054 A 
BRANCH  65  66
ATOM     66  S   UNL A   1      53.681  25.851  24.340  1.00  0.00     0.124 S 
ATOM     67  O   UNL A   1      53.915  24.523  24.901  1.00  0.00    -0.237 OA
ATOM     68  O   UNL A   1      53.487  25.898  22.892  1.00  0.00    -0.237 OA
ATOM     69  O   UNL A   1      54.521  26.917  24.883  1.00  0.00    -0.744 OA
ENDBRANCH  65  66
ENDBRANCH  39  60
ENDBRANCH  13  14
ENDBRANCH   6   8
ENDBRANCH   5   6
ENDBRANCH   4   5
ENDBRANCH   3   4
ENDBRANCH   2   3
ENDBRANCH   1   2
BRANCH   1  70
ATOM     70  C   UNL A   1      34.739  30.758  27.058  1.00  0.00     0.188 C 
BRANCH  70  71
ATOM     71  O   UNL A   1      34.777  29.486  27.714  1.00  0.00    -0.376 OA
BRANCH  71  72
ATOM     72  C   UNL A   1      34.353  28.360  26.948  1.00  0.00     0.202 C 
BRANCH  72  73
ATOM     73  C   UNL A   1      32.880  27.973  27.094  1.00  0.00     0.261 C 
BRANCH  73  74
ATOM     74  O   UNL A   1      32.523  26.714  26.496  1.00  0.00    -0.460 OA
BRANCH  74  75
ATOM     75  C   UNL A   1      31.259  26.681  26.009  1.00  0.00     0.339 C 
ATOM     76  O   UNL A   1      30.279  26.175  26.533  1.00  0.00    -0.246 OA
BRANCH  75  77
ATOM     77  C   UNL A   1      31.180  27.313  24.686  1.00  0.00     0.073 A 
ATOM     78  C   UNL A   1      30.274  28.360  24.526  1.00  0.00     0.063 A 
ATOM     79  C   UNL A   1      31.756  26.667  23.579  1.00  0.00     0.015 A 
ATOM     80  C   UNL A   1      29.886  28.711  23.243  1.00  0.00     0.130 A 
ATOM     81  C   UNL A   1      31.289  27.081  22.322  1.00  0.00     0.074 A 
ATOM     82  C   UNL A   1      32.721  25.631  23.666  1.00  0.00     0.011 A 
ATOM     83  N   UNL A   1      30.380  28.065  22.170  1.00  0.00    -0.231 NA
ATOM     84  C   UNL A   1      31.757  26.416  21.196  1.00  0.00     0.029 A 
ATOM     85  C   UNL A   1      33.191  25.000  22.520  1.00  0.00     0.001 A 
ATOM     86  C   UNL A   1      32.691  25.380  21.285  1.00  0.00     0.002 A 
BRANCH  80  87
ATOM     87  N   UNL A   1      28.895  29.652  23.057  1.00  0.00    -0.345 N 
ATOM     88  C   UNL A   1      28.971  30.941  23.748  1.00  0.00     0.179 C 
ATOM     89  C   UNL A   1      28.064  29.571  21.854  1.00  0.00     0.179 C 
ATOM     90  C   UNL A   1      29.105  32.111  22.742  1.00  0.00     0.282 C 
ATOM     91  C   UNL A   1      28.249  30.798  20.940  1.00  0.00     0.282 C 
ATOM     92  N   UNL A   1      28.096  32.082  21.660  1.00  0.00    -0.343 N 
ATOM     93  H   UNL A   1      28.251  32.861  21.020  1.00  0.00     0.346 HD
ATOM     94  H   UNL A   1      27.155  32.169  22.045  1.00  0.00     0.346 HD
ENDBRANCH  80  87
ENDBRANCH  75  77
ENDBRANCH  74  75
ENDBRANCH  73  74
ENDBRANCH  72  73
ENDBRANCH  71  72
ENDBRANCH  70  71
ENDBRANCH   1  70
TORSDOF 21
ENDMDL
MODEL 3
REMARK VINA RESULT:      -9.3      5.994     12.092
REMARK SMILES O=C(OCCOCCOCCOC(=O)c1cc(N2CC[NH2+]CC2)nc2ccccc12)c1ccc(-c2c3nc(c(-c4ccc(S(=O)(=O)[O-])cc4)c4ccc([nH]4)c(-c4ccc(S(=O)(=O)[O-])cc4)c4nc(c(-c5ccc(S(=O)(=O)[O-])cc5)c5ccc2[nH]5)C=C4)C=C3)cc1
REMARK SMILES IDX 7 1 6 2 5 3 4 4 3 5 2 6 1 7 31 8 32 9 90 10 33 11 89 12
REMARK SMILES IDX 34 13 35 14 36 15 83 16 37 17 88 18 82 19 84 20 38 21 87 22
REMARK SMILES IDX 81 23 80 24 39 26 69 27 50 28 68 29 51 30 54 31 67 32 85 33
REMARK SMILES IDX 52 34 53 35 66 37 86 38 55 39 40 40 41 41 49 42 42 43 48 44
REMARK SMILES IDX 43 45 44 46 45 47 46 48 47 49 70 50 71 51 79 52 72 53 78 54
REMARK SMILES IDX 73 55 74 56 75 57 76 58 77 59 56 60 57 61 65 62 58 63 64 64
REMARK SMILES IDX 59 65 60 66 61 67 62 68 63 69 8 70 9 71 10 72 11 73 12 74
REMARK SMILES IDX 13 75 14 76 15 77 16 78 30 79 17 80 25 81 29 82 24 83 26 84
REMARK SMILES IDX 28 85 27 86 18 87 19 88 23 89 20 90 22 91 21 92
REMARK H PARENT 84 25 54 36 21 93 21 94
REMARK Flexibility Score: inf
ROOT
ATOM      1  C   UNL A   1      41.928  21.721  26.174  1.00  0.00     0.188 C 
ENDROOT
BRANCH   1   2
ATOM      2  O   UNL A   1      42.920  22.688  25.801  1.00  0.00    -0.376 OA
BRANCH   2   3
ATOM      3  C   UNL A   1      42.675  23.994  26.322  1.00  0.00     0.202 C 
BRANCH   3   4
ATOM      4  C   UNL A   1      43.031  25.110  25.335  1.00  0.00     0.261 C 
BRANCH   4   5
ATOM      5  O   UNL A   1      42.382  26.341  25.699  1.00  0.00    -0.460 OA
BRANCH   5   6
ATOM      6  C   UNL A   1      41.186  26.473  26.330  1.00  0.00     0.338 C 
ATOM      7  O   UNL A   1      40.224  25.807  25.955  1.00  0.00    -0.246 OA
BRANCH   6   8
ATOM      8  C   UNL A   1      41.018  27.320  27.542  1.00  0.00     0.060 A 
ATOM      9  C   UNL A   1      41.330  28.679  27.602  1.00  0.00     0.016 A 
ATOM     10  C   UNL A   1      40.428  26.717  28.665  1.00  0.00     0.016 A 
ATOM     11  C   UNL A   1      41.199  29.386  28.797  1.00  0.00     0.010 A 
ATOM     12  C   UNL A   1      40.219  27.446  29.839  1.00  0.00     0.010 A 
ATOM     13  C   UNL A   1      40.650  28.776  29.930  1.00  0.00    -0.014 A 
BRANCH  13  14
ATOM     14  C   UNL A   1      40.613  29.509  31.220  1.00  0.00     0.031 A 
ATOM     15  C   UNL A   1      41.745  29.345  32.197  1.00  0.00     0.074 A 
ATOM     16  C   UNL A   1      39.614  30.372  31.487  1.00  0.00     0.049 A 
ATOM     17  N   UNL A   1      41.890  29.865  33.389  1.00  0.00    -0.248 NA
ATOM     18  C   UNL A   1      42.864  28.486  31.777  1.00  0.00     0.031 C 
ATOM     19  C   UNL A   1      38.484  30.662  30.603  1.00  0.00     0.029 A 
ATOM     20  N   UNL A   1      39.404  31.184  32.573  1.00  0.00    -0.354 N 
ATOM     21  C   UNL A   1      43.099  29.377  33.869  1.00  0.00     0.074 A 
ATOM     22  C   UNL A   1      43.641  28.507  32.849  1.00  0.00     0.031 C 
ATOM     23  C   UNL A   1      37.723  31.615  31.166  1.00  0.00     0.029 A 
ATOM     24  C   UNL A   1      38.272  31.957  32.471  1.00  0.00     0.049 A 
ATOM     25  H   UNL A   1      40.006  31.210  33.351  1.00  0.00     0.167 HD
ATOM     26  C   UNL A   1      43.710  29.632  35.051  1.00  0.00     0.031 A 
ATOM     27  C   UNL A   1      37.725  32.830  33.338  1.00  0.00     0.031 A 
ATOM     28  C   UNL A   1      43.175  30.494  36.067  1.00  0.00     0.049 A 
ATOM     29  C   UNL A   1      38.392  33.059  34.662  1.00  0.00     0.074 A 
ATOM     30  C   UNL A   1      43.688  30.778  37.320  1.00  0.00     0.029 A 
ATOM     31  N   UNL A   1      42.001  31.220  35.940  1.00  0.00    -0.354 N 
ATOM     32  N   UNL A   1      39.505  32.541  35.121  1.00  0.00    -0.248 NA
ATOM     33  C   UNL A   1      37.723  33.983  35.587  1.00  0.00     0.031 C 
ATOM     34  C   UNL A   1      42.811  31.664  37.960  1.00  0.00     0.029 A 
ATOM     35  C   UNL A   1      41.771  31.953  37.090  1.00  0.00     0.049 A 
ATOM     36  H   UNL A   1      41.417  31.216  35.147  1.00  0.00     0.167 HD
ATOM     37  C   UNL A   1      39.670  33.074  36.392  1.00  0.00     0.074 A 
ATOM     38  C   UNL A   1      38.556  33.973  36.620  1.00  0.00     0.031 C 
ATOM     39  C   UNL A   1      40.652  32.834  37.295  1.00  0.00     0.031 A 
BRANCH  26  40
ATOM     40  C   UNL A   1      45.010  28.922  35.303  1.00  0.00    -0.014 A 
ATOM     41  C   UNL A   1      45.030  27.606  35.799  1.00  0.00     0.010 A 
ATOM     42  C   UNL A   1      46.225  29.595  35.086  1.00  0.00     0.010 A 
ATOM     43  C   UNL A   1      46.243  26.996  36.128  1.00  0.00     0.020 A 
ATOM     44  C   UNL A   1      47.441  28.979  35.396  1.00  0.00     0.020 A 
ATOM     45  C   UNL A   1      47.440  27.694  35.940  1.00  0.00     0.054 A 
BRANCH  45  46
ATOM     46  S   UNL A   1      49.001  26.900  36.413  1.00  0.00     0.124 S 
ATOM     47  O   UNL A   1      48.666  25.484  36.283  1.00  0.00    -0.237 OA
ATOM     48  O   UNL A   1      49.941  27.414  35.421  1.00  0.00    -0.237 OA
ATOM     49  O   UNL A   1      49.225  27.365  37.779  1.00  0.00    -0.744 OA
ENDBRANCH  45  46
ENDBRANCH  26  40
BRANCH  27  50
ATOM     50  C   UNL A   1      36.454  33.520  32.999  1.00  0.00    -0.014 A 
ATOM     51  C   UNL A   1      36.443  34.895  32.711  1.00  0.00     0.010 A 
ATOM     52  C   UNL A   1      35.248  32.799  32.958  1.00  0.00     0.010 A 
ATOM     53  C   UNL A   1      35.244  35.539  32.389  1.00  0.00     0.020 A 
ATOM     54  C   UNL A   1      34.051  33.436  32.626  1.00  0.00     0.020 A 
ATOM     55  C   UNL A   1      34.055  34.805  32.349  1.00  0.00     0.054 A 
BRANCH  55  56
ATOM     56  S   UNL A   1      32.527  35.620  31.806  1.00  0.00     0.124 S 
ATOM     57  O   UNL A   1      31.522  34.976  32.644  1.00  0.00    -0.237 OA
ATOM     58  O   UNL A   1      32.794  37.028  32.098  1.00  0.00    -0.237 OA
ATOM     59  O   UNL A   1      32.470  35.297  30.383  1.00  0.00    -0.744 OA
ENDBRANCH  55  56
ENDBRANCH  27  50
BRANCH  39  60
ATOM     60  C   UNL A   1      40.563  33.565  38.602  1.00  0.00    -0.014 A 
ATOM     61  C   UNL A   1      40.191  32.890  39.777  1.00  0.00     0.010 A 
ATOM     62  C   UNL A   1      40.891  34.930  38.660  1.00  0.00     0.010 A 
ATOM     63  C   UNL A   1      40.129  33.578  40.992  1.00  0.00     0.020 A 
ATOM     64  C   UNL A   1      40.844  35.617  39.874  1.00  0.00     0.020 A 
ATOM     65  C   UNL A   1      40.452  34.937  41.031  1.00  0.00     0.054 A 
BRANCH  65  66
ATOM     66  S   UNL A   1      40.410  35.805  42.624  1.00  0.00     0.124 S 
ATOM     67  O   UNL A   1      40.751  34.737  43.559  1.00  0.00    -0.237 OA
ATOM     68  O   UNL A   1      41.425  36.843  42.456  1.00  0.00    -0.237 OA
ATOM     69  O   UNL A   1      39.036  36.296  42.709  1.00  0.00    -0.744 OA
ENDBRANCH  65  66
ENDBRANCH  39  60
ENDBRANCH  13  14
ENDBRANCH   6   8
ENDBRANCH   5   6
ENDBRANCH   4   5
ENDBRANCH   3   4
ENDBRANCH   2   3
ENDBRANCH   1   2
BRANCH   1  70
ATOM     70  C   UNL A   1      40.563  22.402  26.299  1.00  0.00     0.188 C 
BRANCH  70  71
ATOM     71  O   UNL A   1      39.459  21.505  26.133  1.00  0.00    -0.376 OA
BRANCH  71  72
ATOM     72  C   UNL A   1      38.200  22.094  25.815  1.00  0.00     0.202 C 
BRANCH  72  73
ATOM     73  C   UNL A   1      37.115  21.126  25.337  1.00  0.00     0.261 C 
BRANCH  73  74
ATOM     74  O   UNL A   1      36.505  21.473  24.082  1.00  0.00    -0.460 OA
BRANCH  74  75
ATOM     75  C   UNL A   1      35.510  22.387  24.192  1.00  0.00     0.339 C 
ATOM     76  O   UNL A   1      35.538  23.553  23.835  1.00  0.00    -0.246 OA
BRANCH  75  77
ATOM     77  C   UNL A   1      34.336  21.818  24.865  1.00  0.00     0.073 A 
ATOM     78  C   UNL A   1      34.062  20.469  24.650  1.00  0.00     0.063 A 
ATOM     79  C   UNL A   1      33.377  22.680  25.422  1.00  0.00     0.015 A 
ATOM     80  C   UNL A   1      32.789  19.997  24.927  1.00  0.00     0.130 A 
ATOM     81  C   UNL A   1      32.112  22.116  25.654  1.00  0.00     0.074 A 
ATOM     82  C   UNL A   1      33.602  24.049  25.716  1.00  0.00     0.011 A 
ATOM     83  N   UNL A   1      31.836  20.820  25.405  1.00  0.00    -0.231 NA
ATOM     84  C   UNL A   1      31.099  22.944  26.119  1.00  0.00     0.029 A 
ATOM     85  C   UNL A   1      32.575  24.849  26.206  1.00  0.00     0.001 A 
ATOM     86  C   UNL A   1      31.316  24.298  26.387  1.00  0.00     0.002 A 
BRANCH  80  87
ATOM     87  N   UNL A   1      32.449  18.701  24.602  1.00  0.00    -0.345 N 
ATOM     88  C   UNL A   1      32.504  18.257  23.208  1.00  0.00     0.179 C 
ATOM     89  C   UNL A   1      32.502  17.676  25.647  1.00  0.00     0.179 C 
ATOM     90  C   UNL A   1      33.558  17.137  23.016  1.00  0.00     0.282 C 
ATOM     91  C   UNL A   1      33.558  16.595  25.343  1.00  0.00     0.282 C 
ATOM     92  N   UNL A   1      33.424  16.025  23.983  1.00  0.00    -0.343 N 
ATOM     93  H   UNL A   1      34.156  15.334  23.821  1.00  0.00     0.346 HD
ATOM     94  H   UNL A   1      32.520  15.562  23.875  1.00  0.00     0.346 HD
ENDBRANCH  80  87
ENDBRANCH  75  77
ENDBRANCH  74  75
ENDBRANCH  73  74
ENDBRANCH  72  73
ENDBRANCH  71  72
ENDBRANCH  70  71
ENDBRANCH   1  70
TORSDOF 21
ENDMDL
