MODEL 1
REMARK VINA RESULT:     -10.7      0.000      0.000
REMARK SMILES C[C@@H](C(=O)OCCOCCOCCOC(=O)c1ccc(-c2c3nc(c(-c4ccc(S(=O)(=O)[O-])cc4)c4ccc([nH]4)c(-c4ccc(S(=O)(=O)[O-])cc4)c4nc(c(-c5ccc(S(=O)(=O)[O-])cc5)c5ccc2[nH]5)C=C4)C=C3)cc1)c1ccc(C[C@H]2CCCC2=O)c(-c2ccc(F)cc2)c1
REMARK SMILES IDX 9 1 8 2 7 3 6 4 5 5 3 6 4 7 2 8 1 9 77 10 78 11 96 12 79 13
REMARK SMILES IDX 88 14 80 15 89 16 90 17 95 18 91 19 94 20 92 21 93 22 81 23
REMARK SMILES IDX 82 24 83 25 86 26 84 27 85 28 87 29 10 30 11 31 12 32 13 33
REMARK SMILES IDX 14 34 15 35 16 36 17 37 18 38 76 39 19 40 75 41 20 42 21 43
REMARK SMILES IDX 22 44 69 45 23 46 74 47 68 48 70 49 24 50 73 51 67 52 66 53
REMARK SMILES IDX 25 55 55 56 36 57 54 58 37 59 40 60 53 61 71 62 38 63 39 64
REMARK SMILES IDX 52 66 72 67 41 68 26 69 27 70 35 71 28 72 34 73 29 74 30 75
REMARK SMILES IDX 31 76 32 77 33 78 56 79 57 80 65 81 58 82 64 83 59 84 60 85
REMARK SMILES IDX 61 86 62 87 63 88 42 89 43 90 51 91 44 92 50 93 45 94 46 95
REMARK SMILES IDX 47 96 48 97 49 98
REMARK H PARENT 70 54 40 65
REMARK Flexibility Score: inf
ROOT
ATOM      1  C   UNL A   1      31.401  27.874  27.357  1.00  0.00     0.188 C 
ENDROOT
BRANCH   1   2
ATOM      2  O   UNL A   1      31.627  26.666  26.672  1.00  0.00    -0.376 OA
BRANCH   2   3
ATOM      3  C   UNL A   1      30.904  26.420  25.476  1.00  0.00     0.202 C 
BRANCH   3   4
ATOM      4  C   UNL A   1      30.699  27.448  24.337  1.00  0.00     0.261 C 
BRANCH   4   5
ATOM      5  O   UNL A   1      31.297  27.163  23.058  1.00  0.00    -0.463 OA
BRANCH   5   6
ATOM      6  C   UNL A   1      32.651  26.975  23.062  1.00  0.00     0.313 C 
ATOM      7  O   UNL A   1      33.405  27.528  23.858  1.00  0.00    -0.252 OA
BRANCH   6   8
ATOM      8  C   UNL A   1      33.173  25.961  22.020  1.00  0.00     0.126 C 
ATOM      9  C   UNL A   1      32.416  25.885  20.692  1.00  0.00     0.025 C 
BRANCH   8  10
ATOM     10  C   UNL A   1      33.444  24.571  22.592  1.00  0.00    -0.033 A 
ATOM     11  C   UNL A   1      32.498  23.558  22.535  1.00  0.00     0.005 A 
ATOM     12  C   UNL A   1      34.662  24.262  23.215  1.00  0.00     0.013 A 
ATOM     13  C   UNL A   1      32.731  22.307  23.080  1.00  0.00     0.004 A 
ATOM     14  C   UNL A   1      34.880  23.032  23.896  1.00  0.00    -0.015 A 
ATOM     15  C   UNL A   1      33.856  22.061  23.867  1.00  0.00    -0.039 A 
BRANCH  14  16
ATOM     16  C   UNL A   1      36.135  22.870  24.655  1.00  0.00    -0.018 A 
ATOM     17  C   UNL A   1      36.666  23.898  25.453  1.00  0.00     0.012 A 
ATOM     18  C   UNL A   1      36.832  21.648  24.595  1.00  0.00     0.012 A 
ATOM     19  C   UNL A   1      37.874  23.721  26.137  1.00  0.00     0.040 A 
ATOM     20  C   UNL A   1      38.028  21.465  25.289  1.00  0.00     0.040 A 
ATOM     21  C   UNL A   1      38.542  22.507  26.047  1.00  0.00     0.123 A 
ATOM     22  F   UNL A   1      39.699  22.335  26.699  1.00  0.00    -0.207 F 
ENDBRANCH  14  16
BRANCH  15  23
ATOM     23  C   UNL A   1      33.800  20.801  24.711  1.00  0.00     0.047 C 
BRANCH  23  24
ATOM     24  C   UNL A   1      33.188  20.961  26.121  1.00  0.00     0.060 C 
ATOM     25  C   UNL A   1      34.201  21.365  27.205  1.00  0.00     0.012 C 
ATOM     26  C   UNL A   1      32.102  22.018  26.315  1.00  0.00     0.136 C 
ATOM     27  C   UNL A   1      33.872  22.806  27.584  1.00  0.00     0.009 C 
ATOM     28  C   UNL A   1      32.363  22.894  27.501  1.00  0.00     0.076 C 
ATOM     29  O   UNL A   1      31.102  22.161  25.622  1.00  0.00    -0.299 OA
ENDBRANCH  23  24
ENDBRANCH  15  23
ENDBRANCH   8  10
ENDBRANCH   6   8
ENDBRANCH   5   6
ENDBRANCH   4   5
ENDBRANCH   3   4
ENDBRANCH   2   3
ENDBRANCH   1   2
BRANCH   1  30
ATOM     30  C   UNL A   1      32.380  29.031  27.099  1.00  0.00     0.188 C 
BRANCH  30  31
ATOM     31  O   UNL A   1      33.750  28.907  27.424  1.00  0.00    -0.376 OA
BRANCH  31  32
ATOM     32  C   UNL A   1      34.582  30.044  27.278  1.00  0.00     0.202 C 
BRANCH  32  33
ATOM     33  C   UNL A   1      34.805  31.041  28.432  1.00  0.00     0.261 C 
BRANCH  33  34
ATOM     34  O   UNL A   1      36.133  31.147  28.967  1.00  0.00    -0.460 OA
BRANCH  34  35
ATOM     35  C   UNL A   1      36.517  30.136  29.783  1.00  0.00     0.338 C 
ATOM     36  O   UNL A   1      35.854  29.627  30.682  1.00  0.00    -0.246 OA
BRANCH  35  37
ATOM     37  C   UNL A   1      37.814  29.591  29.333  1.00  0.00     0.060 A 
ATOM     38  C   UNL A   1      38.683  29.023  30.278  1.00  0.00     0.016 A 
ATOM     39  C   UNL A   1      38.206  29.699  27.999  1.00  0.00     0.016 A 
ATOM     40  C   UNL A   1      39.954  28.586  29.895  1.00  0.00     0.010 A 
ATOM     41  C   UNL A   1      39.490  29.288  27.623  1.00  0.00     0.010 A 
ATOM     42  C   UNL A   1      40.383  28.758  28.572  1.00  0.00    -0.014 A 
BRANCH  42  43
ATOM     43  C   UNL A   1      41.808  28.535  28.214  1.00  0.00     0.031 A 
ATOM     44  C   UNL A   1      42.233  27.181  27.728  1.00  0.00     0.074 A 
ATOM     45  C   UNL A   1      42.730  29.503  28.353  1.00  0.00     0.049 A 
ATOM     46  N   UNL A   1      43.432  26.760  27.414  1.00  0.00    -0.248 NA
ATOM     47  C   UNL A   1      41.183  26.158  27.624  1.00  0.00     0.031 C 
ATOM     48  C   UNL A   1      42.461  30.832  28.878  1.00  0.00     0.029 A 
ATOM     49  N   UNL A   1      44.078  29.517  28.073  1.00  0.00    -0.354 N 
ATOM     50  C   UNL A   1      43.290  25.410  27.126  1.00  0.00     0.074 A 
ATOM     51  C   UNL A   1      41.889  25.085  27.296  1.00  0.00     0.031 C 
ATOM     52  C   UNL A   1      43.600  31.541  28.854  1.00  0.00     0.029 A 
ATOM     53  C   UNL A   1      44.680  30.729  28.317  1.00  0.00     0.049 A 
ATOM     54  H   UNL A   1      44.566  28.733  27.730  1.00  0.00     0.167 HD
ATOM     55  C   UNL A   1      44.247  24.517  26.778  1.00  0.00     0.031 A 
ATOM     56  C   UNL A   1      45.949  31.152  28.137  1.00  0.00     0.031 A 
ATOM     57  C   UNL A   1      45.644  24.836  26.634  1.00  0.00     0.049 A 
ATOM     58  C   UNL A   1      46.982  30.157  27.687  1.00  0.00     0.074 A 
ATOM     59  C   UNL A   1      46.681  23.994  26.271  1.00  0.00     0.029 A 
ATOM     60  N   UNL A   1      46.204  26.086  26.853  1.00  0.00    -0.354 N 
ATOM     61  N   UNL A   1      46.824  28.891  27.385  1.00  0.00    -0.248 NA
ATOM     62  C   UNL A   1      48.369  30.633  27.591  1.00  0.00     0.031 C 
ATOM     63  C   UNL A   1      47.876  24.720  26.325  1.00  0.00     0.029 A 
ATOM     64  C   UNL A   1      47.575  26.032  26.648  1.00  0.00     0.049 A 
ATOM     65  H   UNL A   1      45.703  26.892  27.113  1.00  0.00     0.167 HD
ATOM     66  C   UNL A   1      48.092  28.417  27.076  1.00  0.00     0.074 A 
ATOM     67  C   UNL A   1      48.998  29.542  27.175  1.00  0.00     0.031 C 
ATOM     68  C   UNL A   1      48.473  27.154  26.761  1.00  0.00     0.031 A 
BRANCH  55  69
ATOM     69  C   UNL A   1      43.815  23.089  26.585  1.00  0.00    -0.014 A 
ATOM     70  C   UNL A   1      44.241  22.339  25.475  1.00  0.00     0.010 A 
ATOM     71  C   UNL A   1      42.990  22.480  27.549  1.00  0.00     0.010 A 
ATOM     72  C   UNL A   1      43.820  21.017  25.313  1.00  0.00     0.020 A 
ATOM     73  C   UNL A   1      42.594  21.148  27.408  1.00  0.00     0.020 A 
ATOM     74  C   UNL A   1      43.000  20.430  26.282  1.00  0.00     0.054 A 
BRANCH  74  75
ATOM     75  S   UNL A   1      42.497  18.702  26.062  1.00  0.00     0.124 S 
ATOM     76  O   UNL A   1      43.375  18.270  24.977  1.00  0.00    -0.237 OA
ATOM     77  O   UNL A   1      42.782  18.119  27.371  1.00  0.00    -0.237 OA
ATOM     78  O   UNL A   1      41.081  18.793  25.718  1.00  0.00    -0.744 OA
ENDBRANCH  74  75
ENDBRANCH  55  69
BRANCH  56  79
ATOM     79  C   UNL A   1      46.323  32.580  28.375  1.00  0.00    -0.014 A 
ATOM     80  C   UNL A   1      46.220  33.522  27.333  1.00  0.00     0.010 A 
ATOM     81  C   UNL A   1      46.777  33.015  29.634  1.00  0.00     0.010 A 
ATOM     82  C   UNL A   1      46.571  34.860  27.542  1.00  0.00     0.020 A 
ATOM     83  C   UNL A   1      47.090  34.359  29.859  1.00  0.00     0.020 A 
ATOM     84  C   UNL A   1      46.996  35.272  28.808  1.00  0.00     0.054 A 
BRANCH  84  85
ATOM     85  S   UNL A   1      47.375  37.026  29.075  1.00  0.00     0.124 S 
ATOM     86  O   UNL A   1      46.064  37.574  29.405  1.00  0.00    -0.237 OA
ATOM     87  O   UNL A   1      48.336  36.971  30.176  1.00  0.00    -0.237 OA
ATOM     88  O   UNL A   1      47.933  37.455  27.796  1.00  0.00    -0.744 OA
ENDBRANCH  84  85
ENDBRANCH  56  79
BRANCH  68  89
ATOM     89  C   UNL A   1      49.935  26.923  26.485  1.00  0.00    -0.014 A 
ATOM     90  C   UNL A   1      50.809  26.482  27.495  1.00  0.00     0.010 A 
ATOM     91  C   UNL A   1      50.432  27.107  25.182  1.00  0.00     0.010 A 
ATOM     92  C   UNL A   1      52.161  26.265  27.215  1.00  0.00     0.020 A 
ATOM     93  C   UNL A   1      51.776  26.862  24.891  1.00  0.00     0.020 A 
ATOM     94  C   UNL A   1      52.635  26.456  25.914  1.00  0.00     0.054 A 
BRANCH  94  95
ATOM     95  S   UNL A   1      54.386  26.131  25.567  1.00  0.00     0.124 S 
ATOM     96  O   UNL A   1      54.995  27.431  25.836  1.00  0.00    -0.237 OA
ATOM     97  O   UNL A   1      54.710  25.075  26.522  1.00  0.00    -0.237 OA
ATOM     98  O   UNL A   1      54.391  25.720  24.164  1.00  0.00    -0.744 OA
ENDBRANCH  94  95
ENDBRANCH  68  89
ENDBRANCH  42  43
ENDBRANCH  35  37
ENDBRANCH  34  35
ENDBRANCH  33  34
ENDBRANCH  32  33
ENDBRANCH  31  32
ENDBRANCH  30  31
ENDBRANCH   1  30
TORSDOF 24
ENDMDL
MODEL 2
REMARK VINA RESULT:     -10.3      1.432      2.257
REMARK SMILES C[C@@H](C(=O)OCCOCCOCCOC(=O)c1ccc(-c2c3nc(c(-c4ccc(S(=O)(=O)[O-])cc4)c4ccc([nH]4)c(-c4ccc(S(=O)(=O)[O-])cc4)c4nc(c(-c5ccc(S(=O)(=O)[O-])cc5)c5ccc2[nH]5)C=C4)C=C3)cc1)c1ccc(C[C@H]2CCCC2=O)c(-c2ccc(F)cc2)c1
REMARK SMILES IDX 9 1 8 2 7 3 6 4 5 5 3 6 4 7 2 8 1 9 77 10 78 11 96 12 79 13
REMARK SMILES IDX 88 14 80 15 89 16 90 17 95 18 91 19 94 20 92 21 93 22 81 23
REMARK SMILES IDX 82 24 83 25 86 26 84 27 85 28 87 29 10 30 11 31 12 32 13 33
REMARK SMILES IDX 14 34 15 35 16 36 17 37 18 38 76 39 19 40 75 41 20 42 21 43
REMARK SMILES IDX 22 44 69 45 23 46 74 47 68 48 70 49 24 50 73 51 67 52 66 53
REMARK SMILES IDX 25 55 55 56 36 57 54 58 37 59 40 60 53 61 71 62 38 63 39 64
REMARK SMILES IDX 52 66 72 67 41 68 26 69 27 70 35 71 28 72 34 73 29 74 30 75
REMARK SMILES IDX 31 76 32 77 33 78 56 79 57 80 65 81 58 82 64 83 59 84 60 85
REMARK SMILES IDX 61 86 62 87 63 88 42 89 43 90 51 91 44 92 50 93 45 94 46 95
REMARK SMILES IDX 47 96 48 97 49 98
REMARK H PARENT 70 54 40 65
REMARK Flexibility Score: inf
ROOT
ATOM      1  C   UNL A   1      32.302  28.462  24.148  1.00  0.00     0.188 C 
ENDROOT
BRANCH   1   2
ATOM      2  O   UNL A   1      32.234  28.376  22.746  1.00  0.00    -0.376 OA
BRANCH   2   3
ATOM      3  C   UNL A   1      31.889  27.131  22.158  1.00  0.00     0.202 C 
BRANCH   3   4
ATOM      4  C   UNL A   1      32.151  25.746  22.800  1.00  0.00     0.261 C 
BRANCH   4   5
ATOM      5  O   UNL A   1      31.014  24.995  23.265  1.00  0.00    -0.463 OA
BRANCH   5   6
ATOM      6  C   UNL A   1      30.516  25.360  24.486  1.00  0.00     0.313 C 
ATOM      7  O   UNL A   1      29.515  26.057  24.623  1.00  0.00    -0.252 OA
BRANCH   6   8
ATOM      8  C   UNL A   1      31.274  24.780  25.700  1.00  0.00     0.126 C 
ATOM      9  C   UNL A   1      32.176  25.746  26.474  1.00  0.00     0.025 C 
BRANCH   8  10
ATOM     10  C   UNL A   1      31.983  23.458  25.413  1.00  0.00    -0.033 A 
ATOM     11  C   UNL A   1      31.279  22.281  25.202  1.00  0.00     0.005 A 
ATOM     12  C   UNL A   1      33.382  23.374  25.364  1.00  0.00     0.013 A 
ATOM     13  C   UNL A   1      31.921  21.076  24.971  1.00  0.00     0.004 A 
ATOM     14  C   UNL A   1      34.068  22.132  25.260  1.00  0.00    -0.015 A 
ATOM     15  C   UNL A   1      33.303  20.955  25.118  1.00  0.00    -0.039 A 
BRANCH  14  16
ATOM     16  C   UNL A   1      35.538  22.138  25.381  1.00  0.00    -0.018 A 
ATOM     17  C   UNL A   1      36.333  21.080  24.907  1.00  0.00     0.012 A 
ATOM     18  C   UNL A   1      36.184  23.236  25.981  1.00  0.00     0.012 A 
ATOM     19  C   UNL A   1      37.724  21.104  25.063  1.00  0.00     0.040 A 
ATOM     20  C   UNL A   1      37.570  23.268  26.124  1.00  0.00     0.040 A 
ATOM     21  C   UNL A   1      38.327  22.197  25.670  1.00  0.00     0.123 A 
ATOM     22  F   UNL A   1      39.658  22.222  25.823  1.00  0.00    -0.207 F 
ENDBRANCH  14  16
BRANCH  15  23
ATOM     23  C   UNL A   1      33.826  19.535  25.225  1.00  0.00     0.047 C 
BRANCH  23  24
ATOM     24  C   UNL A   1      32.967  18.446  24.543  1.00  0.00     0.060 C 
ATOM     25  C   UNL A   1      33.344  18.171  23.078  1.00  0.00     0.012 C 
ATOM     26  C   UNL A   1      32.998  17.036  25.131  1.00  0.00     0.136 C 
ATOM     27  C   UNL A   1      33.991  16.789  23.053  1.00  0.00     0.009 C 
ATOM     28  C   UNL A   1      33.232  15.988  24.089  1.00  0.00     0.076 C 
ATOM     29  O   UNL A   1      32.835  16.742  26.309  1.00  0.00    -0.299 OA
ENDBRANCH  23  24
ENDBRANCH  15  23
ENDBRANCH   8  10
ENDBRANCH   6   8
ENDBRANCH   5   6
ENDBRANCH   4   5
ENDBRANCH   3   4
ENDBRANCH   2   3
ENDBRANCH   1   2
BRANCH   1  30
ATOM     30  C   UNL A   1      33.530  29.154  24.760  1.00  0.00     0.188 C 
BRANCH  30  31
ATOM     31  O   UNL A   1      33.914  28.900  26.096  1.00  0.00    -0.376 OA
BRANCH  31  32
ATOM     32  C   UNL A   1      33.830  29.959  27.034  1.00  0.00     0.202 C 
BRANCH  32  33
ATOM     33  C   UNL A   1      35.004  30.310  27.968  1.00  0.00     0.261 C 
BRANCH  33  34
ATOM     34  O   UNL A   1      35.872  29.239  28.371  1.00  0.00    -0.460 OA
BRANCH  34  35
ATOM     35  C   UNL A   1      36.626  29.480  29.471  1.00  0.00     0.338 C 
ATOM     36  O   UNL A   1      36.231  29.536  30.633  1.00  0.00    -0.246 OA
BRANCH  35  37
ATOM     37  C   UNL A   1      38.057  29.503  29.106  1.00  0.00     0.060 A 
ATOM     38  C   UNL A   1      38.419  29.462  27.751  1.00  0.00     0.016 A 
ATOM     39  C   UNL A   1      39.042  29.498  30.094  1.00  0.00     0.016 A 
ATOM     40  C   UNL A   1      39.765  29.388  27.382  1.00  0.00     0.010 A 
ATOM     41  C   UNL A   1      40.388  29.393  29.724  1.00  0.00     0.010 A 
ATOM     42  C   UNL A   1      40.757  29.307  28.369  1.00  0.00    -0.014 A 
BRANCH  42  43
ATOM     43  C   UNL A   1      42.157  28.974  27.996  1.00  0.00     0.031 A 
ATOM     44  C   UNL A   1      42.482  27.576  27.561  1.00  0.00     0.074 A 
ATOM     45  C   UNL A   1      43.143  29.884  28.076  1.00  0.00     0.049 A 
ATOM     46  N   UNL A   1      43.643  27.063  27.244  1.00  0.00    -0.248 NA
ATOM     47  C   UNL A   1      41.364  26.622  27.519  1.00  0.00     0.031 C 
ATOM     48  C   UNL A   1      42.972  31.249  28.548  1.00  0.00     0.029 A 
ATOM     49  N   UNL A   1      44.483  29.796  27.772  1.00  0.00    -0.354 N 
ATOM     50  C   UNL A   1      43.407  25.715  27.017  1.00  0.00     0.074 A 
ATOM     51  C   UNL A   1      41.991  25.492  27.226  1.00  0.00     0.031 C 
ATOM     52  C   UNL A   1      44.156  31.879  28.474  1.00  0.00     0.029 A 
ATOM     53  C   UNL A   1      45.169  30.975  27.954  1.00  0.00     0.049 A 
ATOM     54  H   UNL A   1      44.911  28.968  27.455  1.00  0.00     0.167 HD
ATOM     55  C   UNL A   1      44.295  24.746  26.692  1.00  0.00     0.031 A 
ATOM     56  C   UNL A   1      46.458  31.304  27.733  1.00  0.00     0.031 A 
ATOM     57  C   UNL A   1      45.707  24.965  26.509  1.00  0.00     0.049 A 
ATOM     58  C   UNL A   1      47.414  30.224  27.309  1.00  0.00     0.074 A 
ATOM     59  C   UNL A   1      46.679  24.041  26.165  1.00  0.00     0.029 A 
ATOM     60  N   UNL A   1      46.353  26.183  26.664  1.00  0.00    -0.354 N 
ATOM     61  N   UNL A   1      47.167  28.960  27.064  1.00  0.00    -0.248 NA
ATOM     62  C   UNL A   1      48.827  30.602  27.167  1.00  0.00     0.031 C 
ATOM     63  C   UNL A   1      47.919  24.687  26.166  1.00  0.00     0.029 A 
ATOM     64  C   UNL A   1      47.712  26.030  26.438  1.00  0.00     0.049 A 
ATOM     65  H   UNL A   1      45.912  27.031  26.898  1.00  0.00     0.167 HD
ATOM     66  C   UNL A   1      48.394  28.390  26.753  1.00  0.00     0.074 A 
ATOM     67  C   UNL A   1      49.374  29.455  26.788  1.00  0.00     0.031 C 
ATOM     68  C   UNL A   1      48.685  27.093  26.487  1.00  0.00     0.031 A 
BRANCH  55  69
ATOM     69  C   UNL A   1      43.766  23.343  26.567  1.00  0.00    -0.014 A 
ATOM     70  C   UNL A   1      43.963  22.588  25.399  1.00  0.00     0.010 A 
ATOM     71  C   UNL A   1      43.085  22.764  27.654  1.00  0.00     0.010 A 
ATOM     72  C   UNL A   1      43.455  21.289  25.305  1.00  0.00     0.020 A 
ATOM     73  C   UNL A   1      42.605  21.454  27.576  1.00  0.00     0.020 A 
ATOM     74  C   UNL A   1      42.780  20.731  26.395  1.00  0.00     0.054 A 
BRANCH  74  75
ATOM     75  S   UNL A   1      42.162  19.033  26.255  1.00  0.00     0.124 S 
ATOM     76  O   UNL A   1      43.035  18.479  25.223  1.00  0.00    -0.237 OA
ATOM     77  O   UNL A   1      42.370  18.506  27.602  1.00  0.00    -0.237 OA
ATOM     78  O   UNL A   1      40.765  19.202  25.864  1.00  0.00    -0.744 OA
ENDBRANCH  74  75
ENDBRANCH  55  69
BRANCH  56  79
ATOM     79  C   UNL A   1      46.930  32.713  27.902  1.00  0.00    -0.014 A 
ATOM     80  C   UNL A   1      46.893  33.608  26.815  1.00  0.00     0.010 A 
ATOM     81  C   UNL A   1      47.413  33.176  29.140  1.00  0.00     0.010 A 
ATOM     82  C   UNL A   1      47.337  34.927  26.961  1.00  0.00     0.020 A 
ATOM     83  C   UNL A   1      47.819  34.505  29.301  1.00  0.00     0.020 A 
ATOM     84  C   UNL A   1      47.789  35.370  28.206  1.00  0.00     0.054 A 
BRANCH  84  85
ATOM     85  S   UNL A   1      48.289  37.104  28.389  1.00  0.00     0.124 S 
ATOM     86  O   UNL A   1      47.051  37.812  28.081  1.00  0.00    -0.237 OA
ATOM     87  O   UNL A   1      48.720  37.156  29.785  1.00  0.00    -0.237 OA
ATOM     88  O   UNL A   1      49.362  37.256  27.411  1.00  0.00    -0.744 OA
ENDBRANCH  84  85
ENDBRANCH  56  79
BRANCH  68  89
ATOM     89  C   UNL A   1      50.122  26.753  26.195  1.00  0.00    -0.014 A 
ATOM     90  C   UNL A   1      51.005  26.368  27.220  1.00  0.00     0.010 A 
ATOM     91  C   UNL A   1      50.585  26.776  24.867  1.00  0.00     0.010 A 
ATOM     92  C   UNL A   1      52.334  26.048  26.926  1.00  0.00     0.020 A 
ATOM     93  C   UNL A   1      51.903  26.428  24.565  1.00  0.00     0.020 A 
ATOM     94  C   UNL A   1      52.774  26.080  25.600  1.00  0.00     0.054 A 
BRANCH  94  95
ATOM     95  S   UNL A   1      54.492  25.623  25.239  1.00  0.00     0.124 S 
ATOM     96  O   UNL A   1      54.689  26.205  23.914  1.00  0.00    -0.237 OA
ATOM     97  O   UNL A   1      55.228  26.267  26.324  1.00  0.00    -0.237 OA
ATOM     98  O   UNL A   1      54.479  24.162  25.281  1.00  0.00    -0.744 OA
ENDBRANCH  94  95
ENDBRANCH  68  89
ENDBRANCH  42  43
ENDBRANCH  35  37
ENDBRANCH  34  35
ENDBRANCH  33  34
ENDBRANCH  32  33
ENDBRANCH  31  32
ENDBRANCH  30  31
ENDBRANCH   1  30
TORSDOF 24
ENDMDL
MODEL 3
REMARK VINA RESULT:      -9.6      1.712      3.124
REMARK SMILES C[C@@H](C(=O)OCCOCCOCCOC(=O)c1ccc(-c2c3nc(c(-c4ccc(S(=O)(=O)[O-])cc4)c4ccc([nH]4)c(-c4ccc(S(=O)(=O)[O-])cc4)c4nc(c(-c5ccc(S(=O)(=O)[O-])cc5)c5ccc2[nH]5)C=C4)C=C3)cc1)c1ccc(C[C@H]2CCCC2=O)c(-c2ccc(F)cc2)c1
REMARK SMILES IDX 9 1 8 2 7 3 6 4 5 5 3 6 4 7 2 8 1 9 77 10 78 11 96 12 79 13
REMARK SMILES IDX 88 14 80 15 89 16 90 17 95 18 91 19 94 20 92 21 93 22 81 23
REMARK SMILES IDX 82 24 83 25 86 26 84 27 85 28 87 29 10 30 11 31 12 32 13 33
REMARK SMILES IDX 14 34 15 35 16 36 17 37 18 38 76 39 19 40 75 41 20 42 21 43
REMARK SMILES IDX 22 44 69 45 23 46 74 47 68 48 70 49 24 50 73 51 67 52 66 53
REMARK SMILES IDX 25 55 55 56 36 57 54 58 37 59 40 60 53 61 71 62 38 63 39 64
REMARK SMILES IDX 52 66 72 67 41 68 26 69 27 70 35 71 28 72 34 73 29 74 30 75
REMARK SMILES IDX 31 76 32 77 33 78 56 79 57 80 65 81 58 82 64 83 59 84 60 85
REMARK SMILES IDX 61 86 62 87 63 88 42 89 43 90 51 91 44 92 50 93 45 94 46 95
REMARK SMILES IDX 47 96 48 97 49 98
REMARK H PARENT 70 54 40 65
REMARK Flexibility Score: inf
ROOT
ATOM      1  C   UNL A   1      34.667  33.741  29.223  1.00  0.00     0.188 C 
ENDROOT
BRANCH   1   2
ATOM      2  O   UNL A   1      33.496  33.231  28.633  1.00  0.00    -0.376 OA
BRANCH   2   3
ATOM      3  C   UNL A   1      33.595  32.072  27.821  1.00  0.00     0.202 C 
BRANCH   3   4
ATOM      4  C   UNL A   1      32.448  31.497  26.953  1.00  0.00     0.261 C 
BRANCH   4   5
ATOM      5  O   UNL A   1      32.706  30.290  26.212  1.00  0.00    -0.463 OA
BRANCH   5   6
ATOM      6  C   UNL A   1      32.551  29.120  26.904  1.00  0.00     0.313 C 
ATOM      7  O   UNL A   1      31.525  28.831  27.514  1.00  0.00    -0.252 OA
BRANCH   6   8
ATOM      8  C   UNL A   1      33.747  28.147  26.819  1.00  0.00     0.126 C 
ATOM      9  C   UNL A   1      35.145  28.759  26.949  1.00  0.00     0.025 C 
BRANCH   8  10
ATOM     10  C   UNL A   1      33.668  27.171  25.647  1.00  0.00    -0.033 A 
ATOM     11  C   UNL A   1      32.796  27.369  24.587  1.00  0.00     0.005 A 
ATOM     12  C   UNL A   1      34.469  26.021  25.599  1.00  0.00     0.013 A 
ATOM     13  C   UNL A   1      32.703  26.470  23.539  1.00  0.00     0.004 A 
ATOM     14  C   UNL A   1      34.303  25.017  24.606  1.00  0.00    -0.015 A 
ATOM     15  C   UNL A   1      33.350  25.235  23.587  1.00  0.00    -0.039 A 
BRANCH  14  16
ATOM     16  C   UNL A   1      35.083  23.772  24.737  1.00  0.00    -0.018 A 
ATOM     17  C   UNL A   1      35.998  23.353  23.756  1.00  0.00     0.012 A 
ATOM     18  C   UNL A   1      34.922  22.966  25.882  1.00  0.00     0.012 A 
ATOM     19  C   UNL A   1      36.701  22.152  23.899  1.00  0.00     0.040 A 
ATOM     20  C   UNL A   1      35.633  21.777  26.032  1.00  0.00     0.040 A 
ATOM     21  C   UNL A   1      36.510  21.376  25.035  1.00  0.00     0.123 A 
ATOM     22  F   UNL A   1      37.180  20.224  25.173  1.00  0.00    -0.207 F 
ENDBRANCH  14  16
BRANCH  15  23
ATOM     23  C   UNL A   1      32.864  24.203  22.587  1.00  0.00     0.047 C 
BRANCH  23  24
ATOM     24  C   UNL A   1      31.788  23.220  23.100  1.00  0.00     0.060 C 
ATOM     25  C   UNL A   1      32.111  21.740  22.839  1.00  0.00     0.012 C 
ATOM     26  C   UNL A   1      31.490  23.203  24.598  1.00  0.00     0.136 C 
ATOM     27  C   UNL A   1      32.425  21.123  24.198  1.00  0.00     0.009 C 
ATOM     28  C   UNL A   1      31.491  21.818  25.165  1.00  0.00     0.076 C 
ATOM     29  O   UNL A   1      31.249  24.180  25.297  1.00  0.00    -0.299 OA
ENDBRANCH  23  24
ENDBRANCH  15  23
ENDBRANCH   8  10
ENDBRANCH   6   8
ENDBRANCH   5   6
ENDBRANCH   4   5
ENDBRANCH   3   4
ENDBRANCH   2   3
ENDBRANCH   1   2
BRANCH   1  30
ATOM     30  C   UNL A   1      34.579  34.216  30.682  1.00  0.00     0.188 C 
BRANCH  30  31
ATOM     31  O   UNL A   1      35.524  33.786  31.641  1.00  0.00    -0.376 OA
BRANCH  31  32
ATOM     32  C   UNL A   1      35.116  32.838  32.612  1.00  0.00     0.202 C 
BRANCH  32  33
ATOM     33  C   UNL A   1      35.890  31.526  32.840  1.00  0.00     0.261 C 
BRANCH  33  34
ATOM     34  O   UNL A   1      37.170  31.393  32.202  1.00  0.00    -0.460 OA
BRANCH  34  35
ATOM     35  C   UNL A   1      37.395  30.209  31.582  1.00  0.00     0.338 C 
ATOM     36  O   UNL A   1      36.559  29.348  31.322  1.00  0.00    -0.246 OA
BRANCH  35  37
ATOM     37  C   UNL A   1      38.787  30.152  31.094  1.00  0.00     0.060 A 
ATOM     38  C   UNL A   1      39.061  30.500  29.762  1.00  0.00     0.016 A 
ATOM     39  C   UNL A   1      39.812  29.693  31.922  1.00  0.00     0.016 A 
ATOM     40  C   UNL A   1      40.355  30.365  29.250  1.00  0.00     0.010 A 
ATOM     41  C   UNL A   1      41.100  29.530  31.398  1.00  0.00     0.010 A 
ATOM     42  C   UNL A   1      41.373  29.835  30.052  1.00  0.00    -0.014 A 
BRANCH  42  43
ATOM     43  C   UNL A   1      42.676  29.451  29.449  1.00  0.00     0.031 A 
ATOM     44  C   UNL A   1      42.811  28.105  28.801  1.00  0.00     0.074 A 
ATOM     45  C   UNL A   1      43.746  30.264  29.505  1.00  0.00     0.049 A 
ATOM     46  N   UNL A   1      43.869  27.554  28.264  1.00  0.00    -0.248 NA
ATOM     47  C   UNL A   1      41.612  27.254  28.796  1.00  0.00     0.031 C 
ATOM     48  C   UNL A   1      43.766  31.559  30.165  1.00  0.00     0.029 A 
ATOM     49  N   UNL A   1      45.022  30.116  29.010  1.00  0.00    -0.354 N 
ATOM     50  C   UNL A   1      43.480  26.272  27.904  1.00  0.00     0.074 A 
ATOM     51  C   UNL A   1      42.088  26.130  28.278  1.00  0.00     0.031 C 
ATOM     52  C   UNL A   1      44.984  32.102  30.006  1.00  0.00     0.029 A 
ATOM     53  C   UNL A   1      45.833  31.203  29.241  1.00  0.00     0.049 A 
ATOM     54  H   UNL A   1      45.326  29.309  28.534  1.00  0.00     0.167 HD
ATOM     55  C   UNL A   1      44.225  25.292  27.339  1.00  0.00     0.031 A 
ATOM     56  C   UNL A   1      47.109  31.461  28.887  1.00  0.00     0.031 A 
ATOM     57  C   UNL A   1      45.616  25.426  26.992  1.00  0.00     0.049 A 
ATOM     58  C   UNL A   1      47.897  30.380  28.201  1.00  0.00     0.074 A 
ATOM     59  C   UNL A   1      46.445  24.486  26.401  1.00  0.00     0.029 A 
ATOM     60  N   UNL A   1      46.388  26.558  27.207  1.00  0.00    -0.354 N 
ATOM     61  N   UNL A   1      47.503  29.184  27.836  1.00  0.00    -0.248 NA
ATOM     62  C   UNL A   1      49.310  30.665  27.913  1.00  0.00     0.031 C 
ATOM     63  C   UNL A   1      47.731  25.030  26.312  1.00  0.00     0.029 A 
ATOM     64  C   UNL A   1      47.687  26.334  26.777  1.00  0.00     0.049 A 
ATOM     65  H   UNL A   1      46.062  27.397  27.605  1.00  0.00     0.167 HD
ATOM     66  C   UNL A   1      48.622  28.570  27.288  1.00  0.00     0.074 A 
ATOM     67  C   UNL A   1      49.694  29.543  27.320  1.00  0.00     0.031 C 
ATOM     68  C   UNL A   1      48.753  27.303  26.823  1.00  0.00     0.031 A 
BRANCH  55  69
ATOM     69  C   UNL A   1      43.555  23.963  27.114  1.00  0.00    -0.014 A 
ATOM     70  C   UNL A   1      43.351  23.058  28.170  1.00  0.00     0.010 A 
ATOM     71  C   UNL A   1      43.098  23.631  25.825  1.00  0.00     0.010 A 
ATOM     72  C   UNL A   1      42.734  21.828  27.934  1.00  0.00     0.020 A 
ATOM     73  C   UNL A   1      42.451  22.414  25.592  1.00  0.00     0.020 A 
ATOM     74  C   UNL A   1      42.287  21.514  26.646  1.00  0.00     0.054 A 
BRANCH  74  75
ATOM     75  S   UNL A   1      41.461  19.924  26.378  1.00  0.00     0.124 S 
ATOM     76  O   UNL A   1      41.502  19.334  27.714  1.00  0.00    -0.237 OA
ATOM     77  O   UNL A   1      40.137  20.328  25.911  1.00  0.00    -0.237 OA
ATOM     78  O   UNL A   1      42.295  19.261  25.380  1.00  0.00    -0.744 OA
ENDBRANCH  74  75
ENDBRANCH  55  69
BRANCH  56  79
ATOM     79  C   UNL A   1      47.729  32.793  29.165  1.00  0.00    -0.014 A 
ATOM     80  C   UNL A   1      47.309  33.932  28.451  1.00  0.00     0.010 A 
ATOM     81  C   UNL A   1      48.732  32.941  30.140  1.00  0.00     0.010 A 
ATOM     82  C   UNL A   1      47.885  35.183  28.699  1.00  0.00     0.020 A 
ATOM     83  C   UNL A   1      49.281  34.196  30.420  1.00  0.00     0.020 A 
ATOM     84  C   UNL A   1      48.862  35.308  29.689  1.00  0.00     0.054 A 
BRANCH  84  85
ATOM     85  S   UNL A   1      49.541  36.952  30.045  1.00  0.00     0.124 S 
ATOM     86  O   UNL A   1      49.039  37.205  31.391  1.00  0.00    -0.237 OA
ATOM     87  O   UNL A   1      50.981  36.723  29.937  1.00  0.00    -0.237 OA
ATOM     88  O   UNL A   1      48.974  37.793  28.994  1.00  0.00    -0.744 OA
ENDBRANCH  84  85
ENDBRANCH  56  79
BRANCH  68  89
ATOM     89  C   UNL A   1      50.103  26.898  26.294  1.00  0.00    -0.014 A 
ATOM     90  C   UNL A   1      50.465  27.131  24.955  1.00  0.00     0.010 A 
ATOM     91  C   UNL A   1      51.042  26.315  27.165  1.00  0.00     0.010 A 
ATOM     92  C   UNL A   1      51.726  26.754  24.488  1.00  0.00     0.020 A 
ATOM     93  C   UNL A   1      52.315  25.965  26.709  1.00  0.00     0.020 A 
ATOM     94  C   UNL A   1      52.644  26.174  25.368  1.00  0.00     0.054 A 
BRANCH  94  95
ATOM     95  S   UNL A   1      54.289  25.730  24.747  1.00  0.00     0.124 S 
ATOM     96  O   UNL A   1      54.316  24.285  24.965  1.00  0.00    -0.237 OA
ATOM     97  O   UNL A   1      54.229  26.154  23.351  1.00  0.00    -0.237 OA
ATOM     98  O   UNL A   1      55.199  26.502  25.590  1.00  0.00    -0.744 OA
ENDBRANCH  94  95
ENDBRANCH  68  89
ENDBRANCH  42  43
ENDBRANCH  35  37
ENDBRANCH  34  35
ENDBRANCH  33  34
ENDBRANCH  32  33
ENDBRANCH  31  32
ENDBRANCH  30  31
ENDBRANCH   1  30
TORSDOF 24
ENDMDL
