MODEL 1
REMARK VINA RESULT:     -12.1      0.000      0.000
REMARK SMILES Cc1cc(S(=O)(=O)Nc2ccc(Cl)cc2F)ccc1OCC(=O)OCCOCCOCCOC(=O)c1ccc(-c2c3nc(c(-c4ccc(S(=O)(=O)[O-])cc4)c4ccc([nH]4)c(-c4ccc(S(=O)(=O)[O-])cc4)c4nc(c(-c5ccc(S(=O)(=O)[O-])cc5)c5ccc2[nH]5)C=C4)C=C3)cc1
REMARK SMILES IDX 28 1 27 2 26 3 25 4 24 5 22 6 23 7 21 8 20 9 19 10 1 11 2 12
REMARK SMILES IDX 3 13 4 14 18 15 17 16 5 17 6 18 7 19 8 20 9 22 10 23 15 24
REMARK SMILES IDX 11 25 14 26 16 27 12 28 13 29 29 30 30 31 31 32 32 33 33 34
REMARK SMILES IDX 34 35 35 36 36 37 37 38 95 39 38 40 94 41 39 42 40 43 41 44
REMARK SMILES IDX 88 45 42 46 93 47 87 48 89 49 43 50 92 51 86 52 85 53 44 55
REMARK SMILES IDX 74 56 55 57 73 58 56 59 59 60 72 61 90 62 57 63 58 64 71 66
REMARK SMILES IDX 91 67 60 68 45 69 46 70 54 71 47 72 53 73 48 74 49 75 50 76
REMARK SMILES IDX 51 77 52 78 75 79 76 80 84 81 77 82 83 83 78 84 79 85 80 86
REMARK SMILES IDX 81 87 82 88 61 89 62 90 70 91 63 92 69 93 64 94 65 95 66 96
REMARK SMILES IDX 67 97 68 98
REMARK H PARENT 8 21 89 54 59 65
REMARK Flexibility Score: inf
ROOT
ATOM      1  C   UNL A   1      30.940  24.174  26.107  1.00  0.00     0.188 C 
ENDROOT
BRANCH   1   2
ATOM      2  O   UNL A   1      30.796  22.737  26.132  1.00  0.00    -0.376 OA
BRANCH   2   3
ATOM      3  C   UNL A   1      31.334  21.782  25.174  1.00  0.00     0.202 C 
BRANCH   3   4
ATOM      4  C   UNL A   1      32.944  21.264  24.925  1.00  0.00     0.261 C 
BRANCH   4   5
ATOM      5  O   UNL A   1      34.176  21.881  23.924  1.00  0.00    -0.461 OA
BRANCH   5   6
ATOM      6  C   UNL A   1      35.254  22.961  23.727  1.00  0.00     0.344 C 
ATOM      7  O   UNL A   1      35.999  23.303  22.792  1.00  0.00    -0.248 OA
BRANCH   6   8
ATOM      8  C   UNL A   1      35.415  23.835  24.860  1.00  0.00     0.351 C 
BRANCH   8   9
ATOM      9  O   UNL A   1      36.792  23.938  24.608  1.00  0.00    -0.482 OA
BRANCH   9  10
ATOM     10  C   UNL A   1      37.408  22.928  25.393  1.00  0.00     0.123 A 
ATOM     11  C   UNL A   1      37.616  19.553  25.138  1.00  0.00     0.048 C 
ATOM     12  C   UNL A   1      38.098  21.024  25.185  1.00  0.00    -0.008 A 
ATOM     13  C   UNL A   1      39.795  20.749  25.859  1.00  0.00     0.029 A 
ATOM     14  C   UNL A   1      40.710  22.136  26.470  1.00  0.00     0.088 A 
ATOM     15  C   UNL A   1      38.470  24.135  26.170  1.00  0.00     0.048 A 
ATOM     16  C   UNL A   1      40.007  23.692  26.628  1.00  0.00     0.026 A 
BRANCH  14  17
ATOM     17  S   UNL A   1      42.539  22.133  26.206  1.00  0.00     0.262 S 
ATOM     18  O   UNL A   1      43.111  21.160  27.107  1.00  0.00    -0.201 OA
ATOM     19  O   UNL A   1      42.813  22.082  24.783  1.00  0.00    -0.201 OA
BRANCH  17  20
ATOM     20  N   UNL A   1      43.335  23.613  26.585  1.00  0.00    -0.277 N 
ATOM     21  H   UNL A   1      43.600  24.206  25.846  1.00  0.00     0.180 HD
BRANCH  20  22
ATOM     22  C   UNL A   1      43.629  24.020  27.936  1.00  0.00     0.085 A 
ATOM     23  C   UNL A   1      44.743  23.577  28.663  1.00  0.00     0.031 A 
ATOM     24  C   UNL A   1      42.781  24.982  28.508  1.00  0.00     0.148 A 
ATOM     25  C   UNL A   1      45.041  24.172  29.904  1.00  0.00     0.023 A 
ATOM     26  C   UNL A   1      43.101  25.607  29.711  1.00  0.00     0.062 A 
ATOM     27  F   UNL A   1      41.757  25.468  27.790  1.00  0.00    -0.205 F 
ATOM     28  C   UNL A   1      44.242  25.209  30.398  1.00  0.00     0.044 A 
ATOM     29  Cl  UNL A   1      44.704  26.050  31.826  1.00  0.00    -0.084 Cl
ENDBRANCH  20  22
ENDBRANCH  17  20
ENDBRANCH  14  17
ENDBRANCH   9  10
ENDBRANCH   8   9
ENDBRANCH   6   8
ENDBRANCH   5   6
ENDBRANCH   4   5
ENDBRANCH   3   4
ENDBRANCH   2   3
ENDBRANCH   1   2
BRANCH   1  30
ATOM     30  C   UNL A   1      29.773  25.166  25.955  1.00  0.00     0.188 C 
BRANCH  30  31
ATOM     31  O   UNL A   1      30.271  26.447  25.640  1.00  0.00    -0.376 OA
BRANCH  31  32
ATOM     32  C   UNL A   1      31.455  26.924  26.260  1.00  0.00     0.202 C 
BRANCH  32  33
ATOM     33  C   UNL A   1      32.831  26.709  25.566  1.00  0.00     0.261 C 
BRANCH  33  34
ATOM     34  O   UNL A   1      33.795  27.807  25.739  1.00  0.00    -0.460 OA
BRANCH  34  35
ATOM     35  C   UNL A   1      33.289  29.075  25.476  1.00  0.00     0.338 C 
ATOM     36  O   UNL A   1      33.161  29.445  24.316  1.00  0.00    -0.246 OA
BRANCH  35  37
ATOM     37  C   UNL A   1      33.447  30.067  26.834  1.00  0.00     0.060 A 
ATOM     38  C   UNL A   1      33.568  32.023  27.418  1.00  0.00     0.016 A 
ATOM     39  C   UNL A   1      34.875  29.090  27.166  1.00  0.00     0.016 A 
ATOM     40  C   UNL A   1      35.171  32.519  28.264  1.00  0.00     0.010 A 
ATOM     41  C   UNL A   1      36.252  29.801  27.807  1.00  0.00     0.010 A 
ATOM     42  C   UNL A   1      36.517  31.346  28.478  1.00  0.00    -0.014 A 
BRANCH  42  43
ATOM     43  C   UNL A   1      38.071  31.165  29.368  1.00  0.00     0.031 A 
ATOM     44  C   UNL A   1      39.515  30.070  29.084  1.00  0.00     0.074 A 
ATOM     45  C   UNL A   1      38.428  32.304  30.034  1.00  0.00     0.049 A 
ATOM     46  N   UNL A   1      40.304  29.514  29.988  1.00  0.00    -0.248 NA
ATOM     47  C   UNL A   1      40.089  29.395  27.722  1.00  0.00     0.031 C 
ATOM     48  C   UNL A   1      39.770  32.825  30.338  1.00  0.00     0.029 A 
ATOM     49  N   UNL A   1      37.604  33.284  30.594  1.00  0.00    -0.354 N 
ATOM     50  C   UNL A   1      41.283  28.778  29.226  1.00  0.00     0.074 A 
ATOM     51  C   UNL A   1      40.603  28.245  28.127  1.00  0.00     0.031 C 
ATOM     52  C   UNL A   1      39.681  33.858  31.202  1.00  0.00     0.029 A 
ATOM     53  C   UNL A   1      38.299  33.917  31.638  1.00  0.00     0.049 A 
ATOM     54  H   UNL A   1      36.687  33.495  30.305  1.00  0.00     0.167 HD
ATOM     55  C   UNL A   1      42.605  29.167  29.073  1.00  0.00     0.031 A 
ATOM     56  C   UNL A   1      37.859  33.702  32.910  1.00  0.00     0.031 A 
ATOM     57  C   UNL A   1      42.878  30.181  30.056  1.00  0.00     0.049 A 
ATOM     58  C   UNL A   1      38.836  32.762  33.607  1.00  0.00     0.074 A 
ATOM     59  C   UNL A   1      43.241  31.508  30.058  1.00  0.00     0.029 A 
ATOM     60  N   UNL A   1      42.397  29.900  31.311  1.00  0.00    -0.354 N 
ATOM     61  N   UNL A   1      39.680  31.996  32.957  1.00  0.00    -0.248 NA
ATOM     62  C   UNL A   1      39.085  32.729  35.044  1.00  0.00     0.031 C 
ATOM     63  C   UNL A   1      42.850  32.037  31.339  1.00  0.00     0.029 A 
ATOM     64  C   UNL A   1      42.272  31.018  32.083  1.00  0.00     0.049 A 
ATOM     65  H   UNL A   1      42.166  28.993  31.619  1.00  0.00     0.167 HD
ATOM     66  C   UNL A   1      40.612  31.488  33.806  1.00  0.00     0.074 A 
ATOM     67  C   UNL A   1      40.167  31.928  35.114  1.00  0.00     0.031 C 
ATOM     68  C   UNL A   1      41.723  30.796  33.413  1.00  0.00     0.031 A 
BRANCH  55  69
ATOM     69  C   UNL A   1      43.584  28.810  27.897  1.00  0.00    -0.014 A 
ATOM     70  C   UNL A   1      44.931  29.219  27.999  1.00  0.00     0.010 A 
ATOM     71  C   UNL A   1      43.289  28.123  26.683  1.00  0.00     0.010 A 
ATOM     72  C   UNL A   1      45.906  28.926  27.014  1.00  0.00     0.020 A 
ATOM     73  C   UNL A   1      44.255  27.802  25.696  1.00  0.00     0.020 A 
ATOM     74  C   UNL A   1      45.569  28.196  25.876  1.00  0.00     0.054 A 
BRANCH  74  75
ATOM     75  S   UNL A   1      46.855  27.753  24.669  1.00  0.00     0.124 S 
ATOM     76  O   UNL A   1      48.086  28.094  25.376  1.00  0.00    -0.237 OA
ATOM     77  O   UNL A   1      46.620  26.326  24.465  1.00  0.00    -0.237 OA
ATOM     78  O   UNL A   1      46.558  28.597  23.511  1.00  0.00    -0.744 OA
ENDBRANCH  74  75
ENDBRANCH  55  69
BRANCH  56  79
ATOM     79  C   UNL A   1      36.359  33.847  32.971  1.00  0.00    -0.014 A 
ATOM     80  C   UNL A   1      35.872  34.922  33.769  1.00  0.00     0.010 A 
ATOM     81  C   UNL A   1      35.503  33.364  31.963  1.00  0.00     0.010 A 
ATOM     82  C   UNL A   1      34.651  35.561  33.496  1.00  0.00     0.020 A 
ATOM     83  C   UNL A   1      34.260  33.993  31.698  1.00  0.00     0.020 A 
ATOM     84  C   UNL A   1      33.855  35.105  32.448  1.00  0.00     0.054 A 
BRANCH  84  85
ATOM     85  S   UNL A   1      32.393  36.105  31.983  1.00  0.00     0.124 S 
ATOM     86  O   UNL A   1      31.296  35.348  32.578  1.00  0.00    -0.237 OA
ATOM     87  O   UNL A   1      32.675  37.392  32.617  1.00  0.00    -0.237 OA
ATOM     88  O   UNL A   1      32.425  36.117  30.523  1.00  0.00    -0.744 OA
ENDBRANCH  84  85
ENDBRANCH  56  79
BRANCH  68  89
ATOM     89  C   UNL A   1      42.338  29.689  34.253  1.00  0.00    -0.014 A 
ATOM     90  C   UNL A   1      43.631  29.767  34.782  1.00  0.00     0.010 A 
ATOM     91  C   UNL A   1      41.533  28.608  34.705  1.00  0.00     0.010 A 
ATOM     92  C   UNL A   1      44.138  28.755  35.600  1.00  0.00     0.020 A 
ATOM     93  C   UNL A   1      41.988  27.656  35.612  1.00  0.00     0.020 A 
ATOM     94  C   UNL A   1      43.317  27.701  35.996  1.00  0.00     0.054 A 
BRANCH  94  95
ATOM     95  S   UNL A   1      44.013  26.360  36.976  1.00  0.00     0.124 S 
ATOM     96  O   UNL A   1      43.352  26.572  38.262  1.00  0.00    -0.237 OA
ATOM     97  O   UNL A   1      43.593  25.169  36.243  1.00  0.00    -0.237 OA
ATOM     98  O   UNL A   1      45.449  26.625  36.959  1.00  0.00    -0.744 OA
ENDBRANCH  94  95
ENDBRANCH  68  89
ENDBRANCH  42  43
ENDBRANCH  35  37
ENDBRANCH  34  35
ENDBRANCH  33  34
ENDBRANCH  32  33
ENDBRANCH  31  32
ENDBRANCH  30  31
ENDBRANCH   1  30
TORSDOF 25
ENDMDL
MODEL 2
REMARK VINA RESULT:     -10.8      6.485     11.148
REMARK SMILES Cc1cc(S(=O)(=O)Nc2ccc(Cl)cc2F)ccc1OCC(=O)OCCOCCOCCOC(=O)c1ccc(-c2c3nc(c(-c4ccc(S(=O)(=O)[O-])cc4)c4ccc([nH]4)c(-c4ccc(S(=O)(=O)[O-])cc4)c4nc(c(-c5ccc(S(=O)(=O)[O-])cc5)c5ccc2[nH]5)C=C4)C=C3)cc1
REMARK SMILES IDX 28 1 27 2 26 3 25 4 24 5 22 6 23 7 21 8 20 9 19 10 1 11 2 12
REMARK SMILES IDX 3 13 4 14 18 15 17 16 5 17 6 18 7 19 8 20 9 22 10 23 15 24
REMARK SMILES IDX 11 25 14 26 16 27 12 28 13 29 29 30 30 31 31 32 32 33 33 34
REMARK SMILES IDX 34 35 35 36 36 37 37 38 95 39 38 40 94 41 39 42 40 43 41 44
REMARK SMILES IDX 88 45 42 46 93 47 87 48 89 49 43 50 92 51 86 52 85 53 44 55
REMARK SMILES IDX 74 56 55 57 73 58 56 59 59 60 72 61 90 62 57 63 58 64 71 66
REMARK SMILES IDX 91 67 60 68 45 69 46 70 54 71 47 72 53 73 48 74 49 75 50 76
REMARK SMILES IDX 51 77 52 78 75 79 76 80 84 81 77 82 83 83 78 84 79 85 80 86
REMARK SMILES IDX 81 87 82 88 61 89 62 90 70 91 63 92 69 93 64 94 65 95 66 96
REMARK SMILES IDX 67 97 68 98
REMARK H PARENT 8 21 89 54 59 65
REMARK Flexibility Score: inf
ROOT
ATOM      1  C   UNL A   1      39.215  29.944  32.414  1.00  0.00     0.188 C 
ENDROOT
BRANCH   1   2
ATOM      2  O   UNL A   1      39.124  30.001  30.974  1.00  0.00    -0.376 OA
BRANCH   2   3
ATOM      3  C   UNL A   1      39.448  31.130  30.116  1.00  0.00     0.202 C 
BRANCH   3   4
ATOM      4  C   UNL A   1      38.441  32.369  29.503  1.00  0.00     0.261 C 
BRANCH   4   5
ATOM      5  O   UNL A   1      36.851  32.319  28.894  1.00  0.00    -0.461 OA
BRANCH   5   6
ATOM      6  C   UNL A   1      35.361  32.596  29.160  1.00  0.00     0.344 C 
ATOM      7  O   UNL A   1      34.683  32.882  30.162  1.00  0.00    -0.248 OA
BRANCH   6   8
ATOM      8  C   UNL A   1      34.547  32.586  27.973  1.00  0.00     0.351 C 
BRANCH   8   9
ATOM      9  O   UNL A   1      34.808  31.220  27.782  1.00  0.00    -0.482 OA
BRANCH   9  10
ATOM     10  C   UNL A   1      33.559  30.626  27.460  1.00  0.00     0.123 A 
ATOM     11  C   UNL A   1      30.728  31.764  25.981  1.00  0.00     0.048 C 
ATOM     12  C   UNL A   1      32.005  30.912  26.175  1.00  0.00    -0.008 A 
ATOM     13  C   UNL A   1      31.478  29.394  25.264  1.00  0.00     0.029 A 
ATOM     14  C   UNL A   1      32.422  27.908  25.457  1.00  0.00     0.088 A 
ATOM     15  C   UNL A   1      34.268  28.992  27.583  1.00  0.00     0.048 A 
ATOM     16  C   UNL A   1      33.694  27.780  26.599  1.00  0.00     0.026 A 
BRANCH  14  17
ATOM     17  S   UNL A   1      32.588  26.808  23.981  1.00  0.00     0.262 S 
ATOM     18  O   UNL A   1      33.721  27.268  23.215  1.00  0.00    -0.201 OA
ATOM     19  O   UNL A   1      32.487  25.425  24.407  1.00  0.00    -0.201 OA
BRANCH  17  20
ATOM     20  N   UNL A   1      31.261  26.852  22.884  1.00  0.00    -0.277 N 
ATOM     21  H   UNL A   1      31.052  26.042  22.366  1.00  0.00     0.180 HD
BRANCH  20  22
ATOM     22  C   UNL A   1      30.444  28.024  22.692  1.00  0.00     0.085 A 
ATOM     23  C   UNL A   1      30.870  29.174  22.013  1.00  0.00     0.031 A 
ATOM     24  C   UNL A   1      29.117  27.955  23.147  1.00  0.00     0.148 A 
ATOM     25  C   UNL A   1      29.940  30.190  21.719  1.00  0.00     0.023 A 
ATOM     26  C   UNL A   1      28.184  28.933  22.813  1.00  0.00     0.062 A 
ATOM     27  F   UNL A   1      28.679  26.828  23.729  1.00  0.00    -0.205 F 
ATOM     28  C   UNL A   1      28.598  30.043  22.086  1.00  0.00     0.044 A 
ATOM     29  Cl  UNL A   1      27.432  31.201  21.575  1.00  0.00    -0.084 Cl
ENDBRANCH  20  22
ENDBRANCH  17  20
ENDBRANCH  14  17
ENDBRANCH   9  10
ENDBRANCH   8   9
ENDBRANCH   6   8
ENDBRANCH   5   6
ENDBRANCH   4   5
ENDBRANCH   3   4
ENDBRANCH   2   3
ENDBRANCH   1   2
BRANCH   1  30
ATOM     30  C   UNL A   1      38.008  29.831  33.362  1.00  0.00     0.188 C 
BRANCH  30  31
ATOM     31  O   UNL A   1      37.860  31.026  34.096  1.00  0.00    -0.376 OA
BRANCH  31  32
ATOM     32  C   UNL A   1      38.702  31.289  35.207  1.00  0.00     0.202 C 
BRANCH  32  33
ATOM     33  C   UNL A   1      38.720  32.709  35.844  1.00  0.00     0.261 C 
BRANCH  33  34
ATOM     34  O   UNL A   1      37.793  33.676  35.237  1.00  0.00    -0.460 OA
BRANCH  34  35
ATOM     35  C   UNL A   1      38.338  34.442  34.211  1.00  0.00     0.338 C 
ATOM     36  O   UNL A   1      37.686  34.637  33.193  1.00  0.00    -0.246 OA
BRANCH  35  37
ATOM     37  C   UNL A   1      40.019  34.510  34.355  1.00  0.00     0.060 A 
ATOM     38  C   UNL A   1      41.567  35.773  34.794  1.00  0.00     0.016 A 
ATOM     39  C   UNL A   1      40.012  33.866  32.716  1.00  0.00     0.016 A 
ATOM     40  C   UNL A   1      42.801  36.057  33.406  1.00  0.00     0.010 A 
ATOM     41  C   UNL A   1      41.154  34.385  31.601  1.00  0.00     0.010 A 
ATOM     42  C   UNL A   1      42.579  35.303  31.789  1.00  0.00    -0.014 A 
BRANCH  42  43
ATOM     43  C   UNL A   1      43.480  35.011  30.259  1.00  0.00     0.031 A 
ATOM     44  C   UNL A   1      44.277  33.502  29.586  1.00  0.00     0.074 A 
ATOM     45  C   UNL A   1      43.112  35.871  29.262  1.00  0.00     0.049 A 
ATOM     46  N   UNL A   1      45.378  33.421  28.856  1.00  0.00    -0.248 NA
ATOM     47  C   UNL A   1      43.952  31.928  29.823  1.00  0.00     0.031 C 
ATOM     48  C   UNL A   1      43.081  35.655  27.808  1.00  0.00     0.029 A 
ATOM     49  N   UNL A   1      42.655  37.187  29.369  1.00  0.00    -0.354 N 
ATOM     50  C   UNL A   1      45.540  32.014  28.582  1.00  0.00     0.074 A 
ATOM     51  C   UNL A   1      45.134  31.341  29.738  1.00  0.00     0.031 C 
ATOM     52  C   UNL A   1      42.869  36.825  27.170  1.00  0.00     0.029 A 
ATOM     53  C   UNL A   1      42.951  37.867  28.176  1.00  0.00     0.049 A 
ATOM     54  H   UNL A   1      42.200  37.574  30.151  1.00  0.00     0.167 HD
ATOM     55  C   UNL A   1      45.304  31.428  27.347  1.00  0.00     0.031 A 
ATOM     56  C   UNL A   1      43.896  38.848  28.227  1.00  0.00     0.031 A 
ATOM     57  C   UNL A   1      45.227  32.483  26.372  1.00  0.00     0.049 A 
ATOM     58  C   UNL A   1      45.168  38.329  27.567  1.00  0.00     0.074 A 
ATOM     59  C   UNL A   1      44.282  32.986  25.507  1.00  0.00     0.029 A 
ATOM     60  N   UNL A   1      46.205  33.439  26.492  1.00  0.00    -0.354 N 
ATOM     61  N   UNL A   1      45.409  37.053  27.383  1.00  0.00    -0.248 NA
ATOM     62  C   UNL A   1      46.166  39.161  26.903  1.00  0.00     0.031 C 
ATOM     63  C   UNL A   1      44.685  34.334  25.202  1.00  0.00     0.029 A 
ATOM     64  C   UNL A   1      45.866  34.610  25.878  1.00  0.00     0.049 A 
ATOM     65  H   UNL A   1      47.055  33.297  26.967  1.00  0.00     0.167 HD
ATOM     66  C   UNL A   1      46.455  36.884  26.530  1.00  0.00     0.074 A 
ATOM     67  C   UNL A   1      46.935  38.233  26.300  1.00  0.00     0.031 C 
ATOM     68  C   UNL A   1      46.841  35.683  26.006  1.00  0.00     0.031 A 
BRANCH  55  69
ATOM     69  C   UNL A   1      44.911  29.937  27.048  1.00  0.00    -0.014 A 
ATOM     70  C   UNL A   1      45.941  29.022  26.740  1.00  0.00     0.010 A 
ATOM     71  C   UNL A   1      43.609  29.357  27.020  1.00  0.00     0.010 A 
ATOM     72  C   UNL A   1      45.706  27.649  26.482  1.00  0.00     0.020 A 
ATOM     73  C   UNL A   1      43.356  27.982  26.785  1.00  0.00     0.020 A 
ATOM     74  C   UNL A   1      44.414  27.128  26.529  1.00  0.00     0.054 A 
BRANCH  74  75
ATOM     75  S   UNL A   1      44.145  25.346  26.286  1.00  0.00     0.124 S 
ATOM     76  O   UNL A   1      45.484  24.794  26.473  1.00  0.00    -0.237 OA
ATOM     77  O   UNL A   1      43.180  25.025  27.333  1.00  0.00    -0.237 OA
ATOM     78  O   UNL A   1      43.628  25.251  24.921  1.00  0.00    -0.744 OA
ENDBRANCH  74  75
ENDBRANCH  55  69
BRANCH  56  79
ATOM     79  C   UNL A   1      43.652  39.741  29.418  1.00  0.00    -0.014 A 
ATOM     80  C   UNL A   1      44.818  40.255  30.056  1.00  0.00     0.010 A 
ATOM     81  C   UNL A   1      42.456  40.460  29.602  1.00  0.00     0.010 A 
ATOM     82  C   UNL A   1      44.815  41.485  30.736  1.00  0.00     0.020 A 
ATOM     83  C   UNL A   1      42.445  41.691  30.307  1.00  0.00     0.020 A 
ATOM     84  C   UNL A   1      43.630  42.209  30.844  1.00  0.00     0.054 A 
BRANCH  84  85
ATOM     85  S   UNL A   1      43.721  43.904  31.533  1.00  0.00     0.124 S 
ATOM     86  O   UNL A   1      42.338  44.153  31.928  1.00  0.00    -0.237 OA
ATOM     87  O   UNL A   1      44.663  43.747  32.639  1.00  0.00    -0.237 OA
ATOM     88  O   UNL A   1      44.208  44.711  30.417  1.00  0.00    -0.744 OA
ENDBRANCH  84  85
ENDBRANCH  56  79
BRANCH  68  89
ATOM     89  C   UNL A   1      48.289  35.362  25.676  1.00  0.00    -0.014 A 
ATOM     90  C   UNL A   1      48.883  34.131  25.982  1.00  0.00     0.010 A 
ATOM     91  C   UNL A   1      49.043  36.241  24.852  1.00  0.00     0.010 A 
ATOM     92  C   UNL A   1      50.198  33.853  25.608  1.00  0.00     0.020 A 
ATOM     93  C   UNL A   1      50.312  35.925  24.376  1.00  0.00     0.020 A 
ATOM     94  C   UNL A   1      50.907  34.758  24.821  1.00  0.00     0.054 A 
BRANCH  94  95
ATOM     95  S   UNL A   1      52.631  34.422  24.425  1.00  0.00     0.124 S 
ATOM     96  O   UNL A   1      53.116  33.878  25.692  1.00  0.00    -0.237 OA
ATOM     97  O   UNL A   1      52.532  33.465  23.326  1.00  0.00    -0.237 OA
ATOM     98  O   UNL A   1      53.166  35.731  24.060  1.00  0.00    -0.744 OA
ENDBRANCH  94  95
ENDBRANCH  68  89
ENDBRANCH  42  43
ENDBRANCH  35  37
ENDBRANCH  34  35
ENDBRANCH  33  34
ENDBRANCH  32  33
ENDBRANCH  31  32
ENDBRANCH  30  31
ENDBRANCH   1  30
TORSDOF 25
ENDMDL
MODEL 3
REMARK VINA RESULT:     -10.8      5.962     10.330
REMARK SMILES Cc1cc(S(=O)(=O)Nc2ccc(Cl)cc2F)ccc1OCC(=O)OCCOCCOCCOC(=O)c1ccc(-c2c3nc(c(-c4ccc(S(=O)(=O)[O-])cc4)c4ccc([nH]4)c(-c4ccc(S(=O)(=O)[O-])cc4)c4nc(c(-c5ccc(S(=O)(=O)[O-])cc5)c5ccc2[nH]5)C=C4)C=C3)cc1
REMARK SMILES IDX 28 1 27 2 26 3 25 4 24 5 22 6 23 7 21 8 20 9 19 10 1 11 2 12
REMARK SMILES IDX 3 13 4 14 18 15 17 16 5 17 6 18 7 19 8 20 9 22 10 23 15 24
REMARK SMILES IDX 11 25 14 26 16 27 12 28 13 29 29 30 30 31 31 32 32 33 33 34
REMARK SMILES IDX 34 35 35 36 36 37 37 38 95 39 38 40 94 41 39 42 40 43 41 44
REMARK SMILES IDX 88 45 42 46 93 47 87 48 89 49 43 50 92 51 86 52 85 53 44 55
REMARK SMILES IDX 74 56 55 57 73 58 56 59 59 60 72 61 90 62 57 63 58 64 71 66
REMARK SMILES IDX 91 67 60 68 45 69 46 70 54 71 47 72 53 73 48 74 49 75 50 76
REMARK SMILES IDX 51 77 52 78 75 79 76 80 84 81 77 82 83 83 78 84 79 85 80 86
REMARK SMILES IDX 81 87 82 88 61 89 62 90 70 91 63 92 69 93 64 94 65 95 66 96
REMARK SMILES IDX 67 97 68 98
REMARK H PARENT 8 21 89 54 59 65
REMARK Flexibility Score: inf
ROOT
ATOM      1  C   UNL A   1      39.315  30.053  32.259  1.00  0.00     0.188 C 
ENDROOT
BRANCH   1   2
ATOM      2  O   UNL A   1      38.615  30.069  30.997  1.00  0.00    -0.376 OA
BRANCH   2   3
ATOM      3  C   UNL A   1      38.502  31.181  30.066  1.00  0.00     0.202 C 
BRANCH   3   4
ATOM      4  C   UNL A   1      37.553  31.341  28.653  1.00  0.00     0.261 C 
BRANCH   4   5
ATOM      5  O   UNL A   1      36.040  32.082  28.400  1.00  0.00    -0.461 OA
BRANCH   5   6
ATOM      6  C   UNL A   1      34.636  32.366  28.962  1.00  0.00     0.344 C 
ATOM      7  O   UNL A   1      34.182  32.716  30.065  1.00  0.00    -0.248 OA
BRANCH   6   8
ATOM      8  C   UNL A   1      33.586  32.267  27.981  1.00  0.00     0.351 C 
BRANCH   8   9
ATOM      9  O   UNL A   1      33.974  30.954  27.672  1.00  0.00    -0.482 OA
BRANCH   9  10
ATOM     10  C   UNL A   1      32.824  30.329  27.121  1.00  0.00     0.123 A 
ATOM     11  C   UNL A   1      30.307  31.388  25.112  1.00  0.00     0.048 C 
ATOM     12  C   UNL A   1      31.541  30.568  25.558  1.00  0.00    -0.008 A 
ATOM     13  C   UNL A   1      31.234  29.032  24.580  1.00  0.00     0.029 A 
ATOM     14  C   UNL A   1      32.155  27.570  24.968  1.00  0.00     0.088 A 
ATOM     15  C   UNL A   1      33.532  28.713  27.397  1.00  0.00     0.048 A 
ATOM     16  C   UNL A   1      33.186  27.480  26.335  1.00  0.00     0.026 A 
BRANCH  14  17
ATOM     17  S   UNL A   1      32.627  26.464  23.565  1.00  0.00     0.262 S 
ATOM     18  O   UNL A   1      31.576  26.536  22.577  1.00  0.00    -0.201 OA
ATOM     19  O   UNL A   1      34.008  26.718  23.203  1.00  0.00    -0.201 OA
BRANCH  17  20
ATOM     20  N   UNL A   1      32.751  24.792  23.962  1.00  0.00    -0.277 N 
ATOM     21  H   UNL A   1      31.926  24.257  24.006  1.00  0.00     0.180 HD
BRANCH  20  22
ATOM     22  C   UNL A   1      34.009  24.144  24.233  1.00  0.00     0.085 A 
ATOM     23  C   UNL A   1      34.961  24.629  25.142  1.00  0.00     0.031 A 
ATOM     24  C   UNL A   1      34.237  22.911  23.602  1.00  0.00     0.148 A 
ATOM     25  C   UNL A   1      36.073  23.830  25.472  1.00  0.00     0.023 A 
ATOM     26  C   UNL A   1      35.308  22.098  23.964  1.00  0.00     0.062 A 
ATOM     27  F   UNL A   1      33.297  22.403  22.790  1.00  0.00    -0.205 F 
ATOM     28  C   UNL A   1      36.215  22.556  24.912  1.00  0.00     0.044 A 
ATOM     29  Cl  UNL A   1      37.478  21.516  25.446  1.00  0.00    -0.084 Cl
ENDBRANCH  20  22
ENDBRANCH  17  20
ENDBRANCH  14  17
ENDBRANCH   9  10
ENDBRANCH   8   9
ENDBRANCH   6   8
ENDBRANCH   5   6
ENDBRANCH   4   5
ENDBRANCH   3   4
ENDBRANCH   2   3
ENDBRANCH   1   2
BRANCH   1  30
ATOM     30  C   UNL A   1      38.643  29.856  33.629  1.00  0.00     0.188 C 
BRANCH  30  31
ATOM     31  O   UNL A   1      38.014  31.052  34.032  1.00  0.00    -0.376 OA
BRANCH  31  32
ATOM     32  C   UNL A   1      38.098  31.482  35.382  1.00  0.00     0.202 C 
BRANCH  32  33
ATOM     33  C   UNL A   1      38.273  32.995  35.701  1.00  0.00     0.261 C 
BRANCH  33  34
ATOM     34  O   UNL A   1      37.433  33.902  34.905  1.00  0.00    -0.460 OA
BRANCH  34  35
ATOM     35  C   UNL A   1      38.089  34.535  33.855  1.00  0.00     0.338 C 
ATOM     36  O   UNL A   1      37.483  34.768  32.817  1.00  0.00    -0.246 OA
BRANCH  35  37
ATOM     37  C   UNL A   1      39.762  34.379  34.026  1.00  0.00     0.060 A 
ATOM     38  C   UNL A   1      41.442  35.392  34.607  1.00  0.00     0.016 A 
ATOM     39  C   UNL A   1      39.717  33.901  32.331  1.00  0.00     0.016 A 
ATOM     40  C   UNL A   1      42.736  35.651  33.269  1.00  0.00     0.010 A 
ATOM     41  C   UNL A   1      40.941  34.378  31.287  1.00  0.00     0.010 A 
ATOM     42  C   UNL A   1      42.462  35.090  31.583  1.00  0.00    -0.014 A 
BRANCH  42  43
ATOM     43  C   UNL A   1      43.359  34.836  30.043  1.00  0.00     0.031 A 
ATOM     44  C   UNL A   1      44.158  33.346  29.332  1.00  0.00     0.074 A 
ATOM     45  C   UNL A   1      42.984  35.717  29.068  1.00  0.00     0.049 A 
ATOM     46  N   UNL A   1      45.257  33.285  28.596  1.00  0.00    -0.248 NA
ATOM     47  C   UNL A   1      43.840  31.766  29.535  1.00  0.00     0.031 C 
ATOM     48  C   UNL A   1      42.948  35.535  27.609  1.00  0.00     0.029 A 
ATOM     49  N   UNL A   1      42.522  37.029  29.206  1.00  0.00    -0.354 N 
ATOM     50  C   UNL A   1      45.422  31.885  28.290  1.00  0.00     0.074 A 
ATOM     51  C   UNL A   1      45.023  31.185  29.432  1.00  0.00     0.031 C 
ATOM     52  C   UNL A   1      42.729  36.719  26.999  1.00  0.00     0.029 A 
ATOM     53  C   UNL A   1      42.811  37.737  28.028  1.00  0.00     0.049 A 
ATOM     54  H   UNL A   1      42.069  37.397  29.999  1.00  0.00     0.167 HD
ATOM     55  C   UNL A   1      45.183  31.327  27.043  1.00  0.00     0.031 A 
ATOM     56  C   UNL A   1      43.753  38.720  28.098  1.00  0.00     0.031 A 
ATOM     57  C   UNL A   1      45.099  32.404  26.092  1.00  0.00     0.049 A 
ATOM     58  C   UNL A   1      45.024  38.221  27.421  1.00  0.00     0.074 A 
ATOM     59  C   UNL A   1      44.149  32.923  25.242  1.00  0.00     0.029 A 
ATOM     60  N   UNL A   1      46.074  33.360  26.230  1.00  0.00    -0.354 N 
ATOM     61  N   UNL A   1      45.269  36.950  27.207  1.00  0.00    -0.248 NA
ATOM     62  C   UNL A   1      46.017  39.071  26.773  1.00  0.00     0.031 C 
ATOM     63  C   UNL A   1      44.546  34.280  24.967  1.00  0.00     0.029 A 
ATOM     64  C   UNL A   1      45.728  34.544  25.645  1.00  0.00     0.049 A 
ATOM     65  H   UNL A   1      46.927  33.210  26.699  1.00  0.00     0.167 HD
ATOM     66  C   UNL A   1      46.312  36.805  26.346  1.00  0.00     0.074 A 
ATOM     67  C   UNL A   1      46.786  38.160  26.145  1.00  0.00     0.031 C 
ATOM     68  C   UNL A   1      46.700  35.617  25.793  1.00  0.00     0.031 A 
BRANCH  55  69
ATOM     69  C   UNL A   1      44.795  29.842  26.711  1.00  0.00    -0.014 A 
ATOM     70  C   UNL A   1      45.803  28.975  26.238  1.00  0.00     0.010 A 
ATOM     71  C   UNL A   1      43.512  29.225  26.801  1.00  0.00     0.010 A 
ATOM     72  C   UNL A   1      45.573  27.610  25.935  1.00  0.00     0.020 A 
ATOM     73  C   UNL A   1      43.267  27.857  26.524  1.00  0.00     0.020 A 
ATOM     74  C   UNL A   1      44.309  27.049  26.103  1.00  0.00     0.054 A 
BRANCH  74  75
ATOM     75  S   UNL A   1      44.056  25.274  25.796  1.00  0.00     0.124 S 
ATOM     76  O   UNL A   1      45.102  24.968  24.824  1.00  0.00    -0.237 OA
ATOM     77  O   UNL A   1      44.241  24.694  27.124  1.00  0.00    -0.237 OA
ATOM     78  O   UNL A   1      42.692  25.197  25.275  1.00  0.00    -0.744 OA
ENDBRANCH  74  75
ENDBRANCH  55  69
BRANCH  56  79
ATOM     79  C   UNL A   1      43.511  39.584  29.310  1.00  0.00    -0.014 A 
ATOM     80  C   UNL A   1      44.658  39.872  30.105  1.00  0.00     0.010 A 
ATOM     81  C   UNL A   1      42.428  40.479  29.407  1.00  0.00     0.010 A 
ATOM     82  C   UNL A   1      44.766  41.053  30.859  1.00  0.00     0.020 A 
ATOM     83  C   UNL A   1      42.526  41.661  30.184  1.00  0.00     0.020 A 
ATOM     84  C   UNL A   1      43.704  41.954  30.882  1.00  0.00     0.054 A 
BRANCH  84  85
ATOM     85  S   UNL A   1      43.975  43.579  31.684  1.00  0.00     0.124 S 
ATOM     86  O   UNL A   1      42.613  44.080  31.840  1.00  0.00    -0.237 OA
ATOM     87  O   UNL A   1      44.646  43.209  32.929  1.00  0.00    -0.237 OA
ATOM     88  O   UNL A   1      44.806  44.308  30.730  1.00  0.00    -0.744 OA
ENDBRANCH  84  85
ENDBRANCH  56  79
BRANCH  68  89
ATOM     89  C   UNL A   1      48.148  35.309  25.451  1.00  0.00    -0.014 A 
ATOM     90  C   UNL A   1      48.991  36.228  24.816  1.00  0.00     0.010 A 
ATOM     91  C   UNL A   1      48.763  34.129  25.954  1.00  0.00     0.010 A 
ATOM     92  C   UNL A   1      50.332  35.929  24.573  1.00  0.00     0.020 A 
ATOM     93  C   UNL A   1      50.123  33.872  25.820  1.00  0.00     0.020 A 
ATOM     94  C   UNL A   1      50.884  34.747  25.064  1.00  0.00     0.054 A 
BRANCH  94  95
ATOM     95  S   UNL A   1      52.591  34.336  24.665  1.00  0.00     0.124 S 
ATOM     96  O   UNL A   1      52.785  33.120  25.451  1.00  0.00    -0.237 OA
ATOM     97  O   UNL A   1      52.550  34.149  23.217  1.00  0.00    -0.237 OA
ATOM     98  O   UNL A   1      53.345  35.501  25.118  1.00  0.00    -0.744 OA
ENDBRANCH  94  95
ENDBRANCH  68  89
ENDBRANCH  42  43
ENDBRANCH  35  37
ENDBRANCH  34  35
ENDBRANCH  33  34
ENDBRANCH  32  33
ENDBRANCH  31  32
ENDBRANCH  30  31
ENDBRANCH   1  30
TORSDOF 25
ENDMDL
