MODEL 1
REMARK VINA RESULT:     -11.5      0.000      0.000
REMARK SMILES Cc1cccc(CNC(=O)N[C@@H](CC2=c3ccccc3=NC2)C(=O)OCCOCCOCCOC(=O)c2ccc(-c3c4nc(c(-c5ccc(S(=O)(=O)[O-])cc5)c5ccc([nH]5)c(-c5ccc(S(=O)(=O)[O-])cc5)c5nc(c(-c6ccc(S(=O)(=O)[O-])cc6)c6ccc3[nH]6)C=C5)C=C4)cc2)c1
REMARK SMILES IDX 29 1 28 2 27 3 26 4 25 5 23 6 24 7 12 8 11 9 8 10 9 11 10 13
REMARK SMILES IDX 7 15 6 16 1 17 2 18 3 19 97 20 4 21 5 22 13 23 14 24 15 25
REMARK SMILES IDX 22 26 16 27 20 28 21 29 17 30 19 31 18 32 30 33 31 34 32 35
REMARK SMILES IDX 33 36 34 37 35 38 36 39 37 40 38 41 96 42 39 43 95 44 40 45
REMARK SMILES IDX 41 46 42 47 89 48 43 49 94 50 88 51 90 52 44 53 93 54 87 55
REMARK SMILES IDX 86 56 45 58 75 59 56 60 74 61 57 62 60 63 73 64 91 65 58 66
REMARK SMILES IDX 59 67 72 69 92 70 61 71 46 72 47 73 55 74 48 75 54 76 49 77
REMARK SMILES IDX 50 78 51 79 52 80 53 81 76 82 77 83 85 84 78 85 84 86 79 87
REMARK SMILES IDX 80 88 81 89 82 90 83 91 62 92 63 93 71 94 64 95 70 96 65 97
REMARK SMILES IDX 66 98 67 99 68 100 69 101
REMARK H PARENT 8 12 11 14 90 57 60 68
REMARK Flexibility Score: inf
ROOT
ATOM      1  C   UNL A   1      40.777  20.531  26.102  1.00  0.00     0.188 C 
ENDROOT
BRANCH   1   2
ATOM      2  O   UNL A   1      40.190  21.792  26.403  1.00  0.00    -0.376 OA
BRANCH   2   3
ATOM      3  C   UNL A   1      38.816  21.803  26.041  1.00  0.00     0.202 C 
BRANCH   3   4
ATOM      4  C   UNL A   1      38.136  23.177  26.142  1.00  0.00     0.261 C 
BRANCH   4   5
ATOM      5  O   UNL A   1      36.535  23.285  25.780  1.00  0.00    -0.462 OA
BRANCH   5   6
ATOM      6  C   UNL A   1      35.279  22.699  25.500  1.00  0.00     0.329 C 
ATOM      7  O   UNL A   1      34.986  21.776  26.268  1.00  0.00    -0.250 OA
BRANCH   6   8
ATOM      8  C   UNL A   1      34.017  23.086  24.421  1.00  0.00     0.198 C 
BRANCH   8   9
ATOM      9  N   UNL A   1      32.665  22.987  25.097  1.00  0.00    -0.324 N 
ATOM     10  N   UNL A   1      32.112  20.742  25.605  1.00  0.00    -0.334 N 
ATOM     11  C   UNL A   1      31.874  22.052  25.640  1.00  0.00     0.315 C 
ATOM     12  H   UNL A   1      32.028  20.267  26.464  1.00  0.00     0.165 HD
ATOM     13  O   UNL A   1      30.939  22.454  26.342  1.00  0.00    -0.249 OA
ATOM     14  H   UNL A   1      32.242  23.875  25.154  1.00  0.00     0.166 HD
BRANCH  10  15
ATOM     15  C   UNL A   1      32.475  19.931  24.476  1.00  0.00     0.153 C 
BRANCH  15  16
ATOM     16  C   UNL A   1      33.241  18.667  24.779  1.00  0.00    -0.028 A 
ATOM     17  C   UNL A   1      32.206  15.148  25.798  1.00  0.00     0.044 C 
ATOM     18  C   UNL A   1      33.068  16.313  25.422  1.00  0.00    -0.051 A 
ATOM     19  C   UNL A   1      34.400  16.120  25.048  1.00  0.00     0.003 A 
ATOM     20  C   UNL A   1      32.504  17.588  25.295  1.00  0.00     0.009 A 
ATOM     21  C   UNL A   1      35.161  17.193  24.584  1.00  0.00     0.001 A 
ATOM     22  C   UNL A   1      34.589  18.462  24.456  1.00  0.00     0.005 A 
ENDBRANCH  15  16
ENDBRANCH  10  15
ENDBRANCH   8   9
BRANCH   8  23
ATOM     23  C   UNL A   1      33.932  24.164  23.109  1.00  0.00     0.070 C 
BRANCH  23  24
ATOM     24  C   UNL A   1      33.480  25.833  23.089  1.00  0.00    -0.037 C 
ATOM     25  C   UNL A   1      33.284  27.307  24.029  1.00  0.00     0.001 A 
ATOM     26  C   UNL A   1      31.811  25.582  22.030  1.00  0.00     0.174 C 
ATOM     27  C   UNL A   1      33.672  27.960  25.360  1.00  0.00     0.010 A 
ATOM     28  C   UNL A   1      31.604  28.128  23.739  1.00  0.00     0.065 A 
ATOM     29  N   UNL A   1      30.743  27.337  22.842  1.00  0.00    -0.280 NA
ATOM     30  C   UNL A   1      33.048  28.974  25.978  1.00  0.00     0.001 A 
ATOM     31  C   UNL A   1      31.220  29.357  24.419  1.00  0.00     0.028 A 
ATOM     32  C   UNL A   1      31.941  29.728  25.474  1.00  0.00     0.002 A 
ENDBRANCH  23  24
ENDBRANCH   8  23
ENDBRANCH   6   8
ENDBRANCH   5   6
ENDBRANCH   4   5
ENDBRANCH   3   4
ENDBRANCH   2   3
ENDBRANCH   1   2
BRANCH   1  33
ATOM     33  C   UNL A   1      42.301  20.529  26.178  1.00  0.00     0.188 C 
BRANCH  33  34
ATOM     34  O   UNL A   1      42.939  19.543  25.387  1.00  0.00    -0.376 OA
BRANCH  34  35
ATOM     35  C   UNL A   1      44.334  19.456  25.265  1.00  0.00     0.202 C 
BRANCH  35  36
ATOM     36  C   UNL A   1      44.680  20.092  23.933  1.00  0.00     0.261 C 
BRANCH  36  37
ATOM     37  O   UNL A   1      45.647  21.156  24.150  1.00  0.00    -0.460 OA
BRANCH  37  38
ATOM     38  C   UNL A   1      45.105  22.397  24.328  1.00  0.00     0.338 C 
ATOM     39  O   UNL A   1      44.126  22.813  23.727  1.00  0.00    -0.246 OA
BRANCH  38  40
ATOM     40  C   UNL A   1      45.992  23.224  25.211  1.00  0.00     0.060 A 
ATOM     41  C   UNL A   1      45.897  23.036  26.573  1.00  0.00     0.016 A 
ATOM     42  C   UNL A   1      46.659  24.367  24.757  1.00  0.00     0.016 A 
ATOM     43  C   UNL A   1      46.261  24.086  27.435  1.00  0.00     0.010 A 
ATOM     44  C   UNL A   1      46.982  25.423  25.644  1.00  0.00     0.010 A 
ATOM     45  C   UNL A   1      46.663  25.375  27.011  1.00  0.00    -0.014 A 
BRANCH  45  46
ATOM     46  C   UNL A   1      46.742  26.778  27.779  1.00  0.00     0.031 A 
ATOM     47  C   UNL A   1      44.908  27.298  27.770  1.00  0.00     0.074 A 
ATOM     48  C   UNL A   1      47.981  27.654  28.438  1.00  0.00     0.049 A 
ATOM     49  N   UNL A   1      44.254  28.785  28.654  1.00  0.00    -0.248 NA
ATOM     50  C   UNL A   1      43.416  27.014  26.474  1.00  0.00     0.031 C 
ATOM     51  C   UNL A   1      48.031  28.823  29.580  1.00  0.00     0.029 A 
ATOM     52  N   UNL A   1      49.425  27.811  28.303  1.00  0.00    -0.354 N 
ATOM     53  C   UNL A   1      42.745  29.319  28.126  1.00  0.00     0.074 A 
ATOM     54  C   UNL A   1      42.309  28.133  26.771  1.00  0.00     0.031 C 
ATOM     55  C   UNL A   1      49.230  29.195  30.021  1.00  0.00     0.029 A 
ATOM     56  C   UNL A   1      50.093  28.832  28.975  1.00  0.00     0.049 A 
ATOM     57  H   UNL A   1      49.932  27.190  27.733  1.00  0.00     0.167 HD
ATOM     58  C   UNL A   1      42.431  30.322  29.005  1.00  0.00     0.031 A 
ATOM     59  C   UNL A   1      50.908  29.734  28.365  1.00  0.00     0.031 A 
ATOM     60  C   UNL A   1      43.743  31.062  29.494  1.00  0.00     0.049 A 
ATOM     61  C   UNL A   1      50.119  31.071  28.249  1.00  0.00     0.074 A 
ATOM     62  C   UNL A   1      44.472  30.994  30.684  1.00  0.00     0.029 A 
ATOM     63  N   UNL A   1      44.658  31.714  28.601  1.00  0.00    -0.354 N 
ATOM     64  N   UNL A   1      48.826  31.171  28.508  1.00  0.00    -0.248 NA
ATOM     65  C   UNL A   1      50.677  32.383  27.960  1.00  0.00     0.031 C 
ATOM     66  C   UNL A   1      45.798  31.523  30.486  1.00  0.00     0.029 A 
ATOM     67  C   UNL A   1      45.946  31.959  29.175  1.00  0.00     0.049 A 
ATOM     68  H   UNL A   1      44.423  31.969  27.680  1.00  0.00     0.167 HD
ATOM     69  C   UNL A   1      48.347  32.439  28.393  1.00  0.00     0.074 A 
ATOM     70  C   UNL A   1      49.587  33.173  28.089  1.00  0.00     0.031 C 
ATOM     71  C   UNL A   1      47.017  32.813  28.528  1.00  0.00     0.031 A 
BRANCH  58  72
ATOM     72  C   UNL A   1      41.262  30.026  29.935  1.00  0.00    -0.014 A 
ATOM     73  C   UNL A   1      39.967  29.822  29.411  1.00  0.00     0.010 A 
ATOM     74  C   UNL A   1      41.362  30.094  31.342  1.00  0.00     0.010 A 
ATOM     75  C   UNL A   1      38.838  29.681  30.238  1.00  0.00     0.020 A 
ATOM     76  C   UNL A   1      40.243  29.942  32.180  1.00  0.00     0.020 A 
ATOM     77  C   UNL A   1      38.987  29.723  31.623  1.00  0.00     0.054 A 
BRANCH  77  78
ATOM     78  S   UNL A   1      37.540  29.419  32.678  1.00  0.00     0.124 S 
ATOM     79  O   UNL A   1      36.423  29.758  31.799  1.00  0.00    -0.237 OA
ATOM     80  O   UNL A   1      37.678  28.001  33.000  1.00  0.00    -0.237 OA
ATOM     81  O   UNL A   1      37.735  30.327  33.808  1.00  0.00    -0.744 OA
ENDBRANCH  77  78
ENDBRANCH  58  72
BRANCH  59  82
ATOM     82  C   UNL A   1      51.975  29.044  27.552  1.00  0.00    -0.014 A 
ATOM     83  C   UNL A   1      52.893  28.228  28.284  1.00  0.00     0.010 A 
ATOM     84  C   UNL A   1      51.879  28.783  26.183  1.00  0.00     0.010 A 
ATOM     85  C   UNL A   1      53.516  27.089  27.729  1.00  0.00     0.020 A 
ATOM     86  C   UNL A   1      52.518  27.643  25.622  1.00  0.00     0.020 A 
ATOM     87  C   UNL A   1      53.268  26.759  26.403  1.00  0.00     0.054 A 
BRANCH  87  88
ATOM     88  S   UNL A   1      53.754  25.116  25.737  1.00  0.00     0.124 S 
ATOM     89  O   UNL A   1      52.518  24.345  25.807  1.00  0.00    -0.237 OA
ATOM     90  O   UNL A   1      54.212  25.417  24.380  1.00  0.00    -0.237 OA
ATOM     91  O   UNL A   1      54.822  24.688  26.636  1.00  0.00    -0.744 OA
ENDBRANCH  87  88
ENDBRANCH  59  82
BRANCH  71  92
ATOM     92  C   UNL A   1      46.616  34.223  28.183  1.00  0.00    -0.014 A 
ATOM     93  C   UNL A   1      46.617  35.278  29.110  1.00  0.00     0.010 A 
ATOM     94  C   UNL A   1      46.311  34.529  26.840  1.00  0.00     0.010 A 
ATOM     95  C   UNL A   1      46.239  36.566  28.731  1.00  0.00     0.020 A 
ATOM     96  C   UNL A   1      46.009  35.827  26.438  1.00  0.00     0.020 A 
ATOM     97  C   UNL A   1      45.941  36.831  27.396  1.00  0.00     0.054 A 
BRANCH  97  98
ATOM     98  S   UNL A   1      45.531  38.517  26.902  1.00  0.00     0.124 S 
ATOM     99  O   UNL A   1      45.924  39.276  28.087  1.00  0.00    -0.237 OA
ATOM    100  O   UNL A   1      46.368  38.720  25.720  1.00  0.00    -0.237 OA
ATOM    101  O   UNL A   1      44.097  38.456  26.638  1.00  0.00    -0.744 OA
ENDBRANCH  97  98
ENDBRANCH  71  92
ENDBRANCH  45  46
ENDBRANCH  38  40
ENDBRANCH  37  38
ENDBRANCH  36  37
ENDBRANCH  35  36
ENDBRANCH  34  35
ENDBRANCH  33  34
ENDBRANCH   1  33
TORSDOF 25
ENDMDL
MODEL 2
REMARK VINA RESULT:     -10.1      4.715      6.784
REMARK SMILES Cc1cccc(CNC(=O)N[C@@H](CC2=c3ccccc3=NC2)C(=O)OCCOCCOCCOC(=O)c2ccc(-c3c4nc(c(-c5ccc(S(=O)(=O)[O-])cc5)c5ccc([nH]5)c(-c5ccc(S(=O)(=O)[O-])cc5)c5nc(c(-c6ccc(S(=O)(=O)[O-])cc6)c6ccc3[nH]6)C=C5)C=C4)cc2)c1
REMARK SMILES IDX 29 1 28 2 27 3 26 4 25 5 23 6 24 7 12 8 11 9 8 10 9 11 10 13
REMARK SMILES IDX 7 15 6 16 1 17 2 18 3 19 97 20 4 21 5 22 13 23 14 24 15 25
REMARK SMILES IDX 22 26 16 27 20 28 21 29 17 30 19 31 18 32 30 33 31 34 32 35
REMARK SMILES IDX 33 36 34 37 35 38 36 39 37 40 38 41 96 42 39 43 95 44 40 45
REMARK SMILES IDX 41 46 42 47 89 48 43 49 94 50 88 51 90 52 44 53 93 54 87 55
REMARK SMILES IDX 86 56 45 58 75 59 56 60 74 61 57 62 60 63 73 64 91 65 58 66
REMARK SMILES IDX 59 67 72 69 92 70 61 71 46 72 47 73 55 74 48 75 54 76 49 77
REMARK SMILES IDX 50 78 51 79 52 80 53 81 76 82 77 83 85 84 78 85 84 86 79 87
REMARK SMILES IDX 80 88 81 89 82 90 83 91 62 92 63 93 71 94 64 95 70 96 65 97
REMARK SMILES IDX 66 98 67 99 68 100 69 101
REMARK H PARENT 8 12 11 14 90 57 60 68
REMARK Flexibility Score: inf
ROOT
ATOM      1  C   UNL A   1      41.675  20.584  26.098  1.00  0.00     0.188 C 
ENDROOT
BRANCH   1   2
ATOM      2  O   UNL A   1      40.953  21.808  26.032  1.00  0.00    -0.376 OA
BRANCH   2   3
ATOM      3  C   UNL A   1      39.554  21.563  25.996  1.00  0.00     0.202 C 
BRANCH   3   4
ATOM      4  C   UNL A   1      38.685  22.819  25.828  1.00  0.00     0.261 C 
BRANCH   4   5
ATOM      5  O   UNL A   1      37.058  22.675  26.023  1.00  0.00    -0.462 OA
BRANCH   5   6
ATOM      6  C   UNL A   1      35.796  22.174  25.631  1.00  0.00     0.329 C 
ATOM      7  O   UNL A   1      35.512  21.093  26.157  1.00  0.00    -0.250 OA
BRANCH   6   8
ATOM      8  C   UNL A   1      34.519  22.810  24.698  1.00  0.00     0.198 C 
BRANCH   8   9
ATOM      9  N   UNL A   1      33.236  22.885  25.499  1.00  0.00    -0.324 N 
ATOM     10  N   UNL A   1      32.370  20.728  25.955  1.00  0.00    -0.334 N 
ATOM     11  C   UNL A   1      32.355  22.055  26.074  1.00  0.00     0.315 C 
ATOM     12  H   UNL A   1      32.288  20.221  26.794  1.00  0.00     0.165 HD
ATOM     13  O   UNL A   1      31.566  22.556  26.884  1.00  0.00    -0.249 OA
ATOM     14  H   UNL A   1      32.970  23.823  25.639  1.00  0.00     0.166 HD
BRANCH  10  15
ATOM     15  C   UNL A   1      32.492  19.942  24.758  1.00  0.00     0.153 C 
BRANCH  15  16
ATOM     16  C   UNL A   1      33.220  18.628  24.894  1.00  0.00    -0.028 A 
ATOM     17  C   UNL A   1      32.134  15.111  25.865  1.00  0.00     0.044 C 
ATOM     18  C   UNL A   1      33.003  16.252  25.436  1.00  0.00    -0.051 A 
ATOM     19  C   UNL A   1      34.263  16.017  24.879  1.00  0.00     0.003 A 
ATOM     20  C   UNL A   1      32.499  17.557  25.449  1.00  0.00     0.009 A 
ATOM     21  C   UNL A   1      35.014  17.077  24.372  1.00  0.00     0.001 A 
ATOM     22  C   UNL A   1      34.502  18.376  24.384  1.00  0.00     0.005 A 
ENDBRANCH  15  16
ENDBRANCH  10  15
ENDBRANCH   8   9
BRANCH   8  23
ATOM     23  C   UNL A   1      34.486  23.958  23.444  1.00  0.00     0.070 C 
BRANCH  23  24
ATOM     24  C   UNL A   1      33.954  25.603  23.477  1.00  0.00    -0.037 C 
ATOM     25  C   UNL A   1      33.519  26.980  24.483  1.00  0.00     0.001 A 
ATOM     26  C   UNL A   1      32.507  25.378  22.126  1.00  0.00     0.174 C 
ATOM     27  C   UNL A   1      33.636  27.529  25.909  1.00  0.00     0.010 A 
ATOM     28  C   UNL A   1      31.870  27.754  23.968  1.00  0.00     0.065 A 
ATOM     29  N   UNL A   1      31.221  27.012  22.874  1.00  0.00    -0.280 NA
ATOM     30  C   UNL A   1      32.861  28.459  26.486  1.00  0.00     0.001 A 
ATOM     31  C   UNL A   1      31.309  28.903  24.666  1.00  0.00     0.028 A 
ATOM     32  C   UNL A   1      31.817  29.209  25.857  1.00  0.00     0.002 A 
ENDBRANCH  23  24
ENDBRANCH   8  23
ENDBRANCH   6   8
ENDBRANCH   5   6
ENDBRANCH   4   5
ENDBRANCH   3   4
ENDBRANCH   2   3
ENDBRANCH   1   2
BRANCH   1  33
ATOM     33  C   UNL A   1      43.186  20.754  25.974  1.00  0.00     0.188 C 
BRANCH  33  34
ATOM     34  O   UNL A   1      43.779  20.068  24.887  1.00  0.00    -0.376 OA
BRANCH  34  35
ATOM     35  C   UNL A   1      44.787  20.636  24.093  1.00  0.00     0.202 C 
BRANCH  35  36
ATOM     36  C   UNL A   1      44.280  22.003  23.682  1.00  0.00     0.261 C 
BRANCH  36  37
ATOM     37  O   UNL A   1      45.179  23.021  24.201  1.00  0.00    -0.460 OA
BRANCH  37  38
ATOM     38  C   UNL A   1      44.596  23.924  25.045  1.00  0.00     0.338 C 
ATOM     39  O   UNL A   1      43.406  24.195  25.048  1.00  0.00    -0.246 OA
BRANCH  38  40
ATOM     40  C   UNL A   1      45.651  24.662  25.817  1.00  0.00     0.060 A 
ATOM     41  C   UNL A   1      46.575  23.913  26.517  1.00  0.00     0.016 A 
ATOM     42  C   UNL A   1      45.558  26.024  26.115  1.00  0.00     0.016 A 
ATOM     43  C   UNL A   1      47.209  24.485  27.634  1.00  0.00     0.010 A 
ATOM     44  C   UNL A   1      46.181  26.563  27.268  1.00  0.00     0.010 A 
ATOM     45  C   UNL A   1      46.925  25.769  28.155  1.00  0.00    -0.014 A 
BRANCH  45  46
ATOM     46  C   UNL A   1      47.226  26.437  29.579  1.00  0.00     0.031 A 
ATOM     47  C   UNL A   1      46.145  25.357  30.720  1.00  0.00     0.074 A 
ATOM     48  C   UNL A   1      48.168  27.704  30.073  1.00  0.00     0.049 A 
ATOM     49  N   UNL A   1      46.144  25.487  32.565  1.00  0.00    -0.248 NA
ATOM     50  C   UNL A   1      44.397  24.428  30.464  1.00  0.00     0.031 C 
ATOM     51  C   UNL A   1      48.822  28.106  31.517  1.00  0.00     0.029 A 
ATOM     52  N   UNL A   1      48.754  28.927  29.537  1.00  0.00    -0.354 N 
ATOM     53  C   UNL A   1      44.801  24.809  33.325  1.00  0.00     0.074 A 
ATOM     54  C   UNL A   1      43.781  24.164  31.919  1.00  0.00     0.031 C 
ATOM     55  C   UNL A   1      49.697  29.108  31.533  1.00  0.00     0.029 A 
ATOM     56  C   UNL A   1      49.377  29.844  30.381  1.00  0.00     0.049 A 
ATOM     57  H   UNL A   1      48.709  29.107  28.571  1.00  0.00     0.167 HD
ATOM     58  C   UNL A   1      45.097  24.912  34.659  1.00  0.00     0.031 A 
ATOM     59  C   UNL A   1      49.057  31.165  30.433  1.00  0.00     0.031 A 
ATOM     60  C   UNL A   1      45.974  26.203  34.933  1.00  0.00     0.049 A 
ATOM     61  C   UNL A   1      48.208  31.388  31.719  1.00  0.00     0.074 A 
ATOM     62  C   UNL A   1      47.338  26.377  35.178  1.00  0.00     0.029 A 
ATOM     63  N   UNL A   1      45.539  27.532  34.613  1.00  0.00    -0.354 N 
ATOM     64  N   UNL A   1      47.734  30.394  32.452  1.00  0.00    -0.248 NA
ATOM     65  C   UNL A   1      47.912  32.664  32.351  1.00  0.00     0.031 C 
ATOM     66  C   UNL A   1      47.715  27.748  34.944  1.00  0.00     0.029 A 
ATOM     67  C   UNL A   1      46.603  28.489  34.562  1.00  0.00     0.049 A 
ATOM     68  H   UNL A   1      44.598  27.766  34.444  1.00  0.00     0.167 HD
ATOM     69  C   UNL A   1      47.063  30.811  33.560  1.00  0.00     0.074 A 
ATOM     70  C   UNL A   1      47.254  32.268  33.464  1.00  0.00     0.031 C 
ATOM     71  C   UNL A   1      46.396  29.985  34.455  1.00  0.00     0.031 A 
BRANCH  58  72
ATOM     72  C   UNL A   1      45.339  23.589  35.373  1.00  0.00    -0.014 A 
ATOM     73  C   UNL A   1      45.442  23.547  36.780  1.00  0.00     0.010 A 
ATOM     74  C   UNL A   1      45.629  22.388  34.689  1.00  0.00     0.010 A 
ATOM     75  C   UNL A   1      45.799  22.374  37.469  1.00  0.00     0.020 A 
ATOM     76  C   UNL A   1      45.974  21.205  35.367  1.00  0.00     0.020 A 
ATOM     77  C   UNL A   1      46.045  21.201  36.757  1.00  0.00     0.054 A 
BRANCH  77  78
ATOM     78  S   UNL A   1      46.386  19.668  37.668  1.00  0.00     0.124 S 
ATOM     79  O   UNL A   1      45.931  19.987  39.020  1.00  0.00    -0.237 OA
ATOM     80  O   UNL A   1      45.576  18.688  36.949  1.00  0.00    -0.237 OA
ATOM     81  O   UNL A   1      47.831  19.492  37.528  1.00  0.00    -0.744 OA
ENDBRANCH  77  78
ENDBRANCH  58  72
BRANCH  59  82
ATOM     82  C   UNL A   1      49.117  31.796  29.065  1.00  0.00    -0.014 A 
ATOM     83  C   UNL A   1      48.174  31.310  28.106  1.00  0.00     0.010 A 
ATOM     84  C   UNL A   1      49.673  33.049  28.798  1.00  0.00     0.010 A 
ATOM     85  C   UNL A   1      47.659  32.113  27.064  1.00  0.00     0.020 A 
ATOM     86  C   UNL A   1      49.164  33.851  27.740  1.00  0.00     0.020 A 
ATOM     87  C   UNL A   1      48.113  33.418  26.926  1.00  0.00     0.054 A 
BRANCH  87  88
ATOM     88  S   UNL A   1      47.235  34.606  25.833  1.00  0.00     0.124 S 
ATOM     89  O   UNL A   1      46.952  35.731  26.717  1.00  0.00    -0.237 OA
ATOM     90  O   UNL A   1      48.210  34.887  24.777  1.00  0.00    -0.237 OA
ATOM     91  O   UNL A   1      46.073  33.850  25.373  1.00  0.00    -0.744 OA
ENDBRANCH  87  88
ENDBRANCH  59  82
BRANCH  71  92
ATOM     92  C   UNL A   1      45.538  30.610  35.524  1.00  0.00    -0.014 A 
ATOM     93  C   UNL A   1      46.000  30.893  36.820  1.00  0.00     0.010 A 
ATOM     94  C   UNL A   1      44.231  31.020  35.188  1.00  0.00     0.010 A 
ATOM     95  C   UNL A   1      45.159  31.477  37.769  1.00  0.00     0.020 A 
ATOM     96  C   UNL A   1      43.413  31.674  36.105  1.00  0.00     0.020 A 
ATOM     97  C   UNL A   1      43.872  31.866  37.402  1.00  0.00     0.054 A 
BRANCH  97  98
ATOM     98  S   UNL A   1      42.822  32.693  38.614  1.00  0.00     0.124 S 
ATOM     99  O   UNL A   1      42.510  31.598  39.530  1.00  0.00    -0.237 OA
ATOM    100  O   UNL A   1      43.702  33.729  39.150  1.00  0.00    -0.237 OA
ATOM    101  O   UNL A   1      41.704  33.186  37.815  1.00  0.00    -0.744 OA
ENDBRANCH  97  98
ENDBRANCH  71  92
ENDBRANCH  45  46
ENDBRANCH  38  40
ENDBRANCH  37  38
ENDBRANCH  36  37
ENDBRANCH  35  36
ENDBRANCH  34  35
ENDBRANCH  33  34
ENDBRANCH   1  33
TORSDOF 25
ENDMDL
MODEL 3
REMARK VINA RESULT:     -10.0      5.442      8.316
REMARK SMILES Cc1cccc(CNC(=O)N[C@@H](CC2=c3ccccc3=NC2)C(=O)OCCOCCOCCOC(=O)c2ccc(-c3c4nc(c(-c5ccc(S(=O)(=O)[O-])cc5)c5ccc([nH]5)c(-c5ccc(S(=O)(=O)[O-])cc5)c5nc(c(-c6ccc(S(=O)(=O)[O-])cc6)c6ccc3[nH]6)C=C5)C=C4)cc2)c1
REMARK SMILES IDX 29 1 28 2 27 3 26 4 25 5 23 6 24 7 12 8 11 9 8 10 9 11 10 13
REMARK SMILES IDX 7 15 6 16 1 17 2 18 3 19 97 20 4 21 5 22 13 23 14 24 15 25
REMARK SMILES IDX 22 26 16 27 20 28 21 29 17 30 19 31 18 32 30 33 31 34 32 35
REMARK SMILES IDX 33 36 34 37 35 38 36 39 37 40 38 41 96 42 39 43 95 44 40 45
REMARK SMILES IDX 41 46 42 47 89 48 43 49 94 50 88 51 90 52 44 53 93 54 87 55
REMARK SMILES IDX 86 56 45 58 75 59 56 60 74 61 57 62 60 63 73 64 91 65 58 66
REMARK SMILES IDX 59 67 72 69 92 70 61 71 46 72 47 73 55 74 48 75 54 76 49 77
REMARK SMILES IDX 50 78 51 79 52 80 53 81 76 82 77 83 85 84 78 85 84 86 79 87
REMARK SMILES IDX 80 88 81 89 82 90 83 91 62 92 63 93 71 94 64 95 70 96 65 97
REMARK SMILES IDX 66 98 67 99 68 100 69 101
REMARK H PARENT 8 12 11 14 90 57 60 68
REMARK Flexibility Score: inf
ROOT
ATOM      1  C   UNL A   1      40.221  25.626  27.560  1.00  0.00     0.188 C 
ENDROOT
BRANCH   1   2
ATOM      2  O   UNL A   1      40.555  24.641  28.532  1.00  0.00    -0.376 OA
BRANCH   2   3
ATOM      3  C   UNL A   1      40.873  23.407  27.904  1.00  0.00     0.202 C 
BRANCH   3   4
ATOM      4  C   UNL A   1      40.292  23.236  26.492  1.00  0.00     0.261 C 
BRANCH   4   5
ATOM      5  O   UNL A   1      39.013  22.220  26.291  1.00  0.00    -0.462 OA
BRANCH   5   6
ATOM      6  C   UNL A   1      37.750  21.901  25.741  1.00  0.00     0.329 C 
ATOM      7  O   UNL A   1      37.680  20.744  25.312  1.00  0.00    -0.250 OA
BRANCH   6   8
ATOM      8  C   UNL A   1      36.258  22.722  25.671  1.00  0.00     0.198 C 
BRANCH   8   9
ATOM      9  N   UNL A   1      35.217  22.047  26.540  1.00  0.00    -0.324 N 
ATOM     10  N   UNL A   1      33.821  20.619  25.266  1.00  0.00    -0.334 N 
ATOM     11  C   UNL A   1      34.234  21.143  26.419  1.00  0.00     0.315 C 
ATOM     12  H   UNL A   1      33.731  19.638  25.248  1.00  0.00     0.165 HD
ATOM     13  O   UNL A   1      33.788  20.665  27.468  1.00  0.00    -0.249 OA
ATOM     14  H   UNL A   1      35.280  22.368  27.469  1.00  0.00     0.166 HD
BRANCH  10  15
ATOM     15  C   UNL A   1      33.490  21.299  24.045  1.00  0.00     0.153 C 
BRANCH  15  16
ATOM     16  C   UNL A   1      32.299  22.223  24.096  1.00  0.00    -0.028 A 
ATOM     17  C   UNL A   1      29.938  23.315  26.875  1.00  0.00     0.044 C 
ATOM     18  C   UNL A   1      30.571  23.203  25.523  1.00  0.00    -0.051 A 
ATOM     19  C   UNL A   1      30.290  24.142  24.527  1.00  0.00     0.003 A 
ATOM     20  C   UNL A   1      31.564  22.245  25.293  1.00  0.00     0.009 A 
ATOM     21  C   UNL A   1      30.974  24.101  23.312  1.00  0.00     0.001 A 
ATOM     22  C   UNL A   1      31.967  23.144  23.092  1.00  0.00     0.005 A 
ENDBRANCH  15  16
ENDBRANCH  10  15
ENDBRANCH   8   9
BRANCH   8  23
ATOM     23  C   UNL A   1      35.872  24.366  25.477  1.00  0.00     0.070 C 
BRANCH  23  24
ATOM     24  C   UNL A   1      34.464  25.086  24.776  1.00  0.00    -0.037 C 
ATOM     25  C   UNL A   1      33.836  26.354  23.729  1.00  0.00     0.001 A 
ATOM     26  C   UNL A   1      33.394  25.123  26.456  1.00  0.00     0.174 C 
ATOM     27  C   UNL A   1      34.256  27.360  22.653  1.00  0.00     0.010 A 
ATOM     28  C   UNL A   1      32.408  27.304  24.528  1.00  0.00     0.065 A 
ATOM     29  N   UNL A   1      32.141  26.859  25.907  1.00  0.00    -0.280 NA
ATOM     30  C   UNL A   1      33.613  28.483  22.298  1.00  0.00     0.001 A 
ATOM     31  C   UNL A   1      31.738  28.403  23.847  1.00  0.00     0.028 A 
ATOM     32  C   UNL A   1      32.342  28.928  22.783  1.00  0.00     0.002 A 
ENDBRANCH  23  24
ENDBRANCH   8  23
ENDBRANCH   6   8
ENDBRANCH   5   6
ENDBRANCH   4   5
ENDBRANCH   3   4
ENDBRANCH   2   3
ENDBRANCH   1   2
BRANCH   1  33
ATOM     33  C   UNL A   1      39.487  26.833  28.136  1.00  0.00     0.188 C 
BRANCH  33  34
ATOM     34  O   UNL A   1      39.951  28.090  27.678  1.00  0.00    -0.376 OA
BRANCH  34  35
ATOM     35  C   UNL A   1      39.084  29.143  27.349  1.00  0.00     0.202 C 
BRANCH  35  36
ATOM     36  C   UNL A   1      37.815  28.908  28.143  1.00  0.00     0.261 C 
BRANCH  36  37
ATOM     37  O   UNL A   1      37.779  29.827  29.269  1.00  0.00    -0.460 OA
BRANCH  37  38
ATOM     38  C   UNL A   1      38.000  29.250  30.488  1.00  0.00     0.338 C 
ATOM     39  O   UNL A   1      37.159  28.629  31.118  1.00  0.00    -0.246 OA
BRANCH  38  40
ATOM     40  C   UNL A   1      39.348  29.654  31.011  1.00  0.00     0.060 A 
ATOM     41  C   UNL A   1      39.598  29.463  32.354  1.00  0.00     0.016 A 
ATOM     42  C   UNL A   1      40.219  30.483  30.299  1.00  0.00     0.016 A 
ATOM     43  C   UNL A   1      40.559  30.270  32.990  1.00  0.00     0.010 A 
ATOM     44  C   UNL A   1      41.153  31.310  30.971  1.00  0.00     0.010 A 
ATOM     45  C   UNL A   1      41.259  31.332  32.371  1.00  0.00    -0.014 A 
BRANCH  45  46
ATOM     46  C   UNL A   1      42.069  32.575  32.974  1.00  0.00     0.031 A 
ATOM     47  C   UNL A   1      40.759  33.329  34.136  1.00  0.00     0.074 A 
ATOM     48  C   UNL A   1      43.597  33.165  32.744  1.00  0.00     0.049 A 
ATOM     49  N   UNL A   1      41.093  34.735  35.291  1.00  0.00    -0.248 NA
ATOM     50  C   UNL A   1      38.768  33.452  34.051  1.00  0.00     0.031 C 
ATOM     51  C   UNL A   1      44.565  34.125  33.648  1.00  0.00     0.029 A 
ATOM     52  N   UNL A   1      44.655  33.148  31.741  1.00  0.00    -0.354 N 
ATOM     53  C   UNL A   1      39.721  35.540  35.847  1.00  0.00     0.074 A 
ATOM     54  C   UNL A   1      38.324  34.648  35.019  1.00  0.00     0.031 C 
ATOM     55  C   UNL A   1      45.828  34.261  33.254  1.00  0.00     0.029 A 
ATOM     56  C   UNL A   1      45.783  33.953  31.885  1.00  0.00     0.049 A 
ATOM     57  H   UNL A   1      44.573  32.561  30.956  1.00  0.00     0.167 HD
ATOM     58  C   UNL A   1      40.215  36.427  36.766  1.00  0.00     0.031 A 
ATOM     59  C   UNL A   1      46.219  34.822  30.934  1.00  0.00     0.031 A 
ATOM     60  C   UNL A   1      41.669  36.900  36.353  1.00  0.00     0.049 A 
ATOM     61  C   UNL A   1      45.812  36.255  31.390  1.00  0.00     0.074 A 
ATOM     62  C   UNL A   1      42.939  36.551  36.820  1.00  0.00     0.029 A 
ATOM     63  N   UNL A   1      41.961  37.556  35.110  1.00  0.00    -0.354 N 
ATOM     64  N   UNL A   1      44.996  36.484  32.406  1.00  0.00    -0.248 NA
ATOM     65  C   UNL A   1      46.327  37.510  30.866  1.00  0.00     0.031 C 
ATOM     66  C   UNL A   1      43.944  36.924  35.857  1.00  0.00     0.029 A 
ATOM     67  C   UNL A   1      43.348  37.534  34.760  1.00  0.00     0.049 A 
ATOM     68  H   UNL A   1      41.272  37.980  34.550  1.00  0.00     0.167 HD
ATOM     69  C   UNL A   1      44.814  37.807  32.665  1.00  0.00     0.074 A 
ATOM     70  C   UNL A   1      45.728  38.408  31.680  1.00  0.00     0.031 C 
ATOM     71  C   UNL A   1      43.949  38.329  33.618  1.00  0.00     0.031 A 
BRANCH  58  72
ATOM     72  C   UNL A   1      39.824  36.148  38.211  1.00  0.00    -0.014 A 
ATOM     73  C   UNL A   1      40.384  36.906  39.262  1.00  0.00     0.010 A 
ATOM     74  C   UNL A   1      39.027  35.046  38.592  1.00  0.00     0.010 A 
ATOM     75  C   UNL A   1      40.156  36.594  40.614  1.00  0.00     0.020 A 
ATOM     76  C   UNL A   1      38.780  34.732  39.941  1.00  0.00     0.020 A 
ATOM     77  C   UNL A   1      39.337  35.517  40.946  1.00  0.00     0.054 A 
BRANCH  77  78
ATOM     78  S   UNL A   1      38.955  35.202  42.694  1.00  0.00     0.124 S 
ATOM     79  O   UNL A   1      37.494  35.176  42.705  1.00  0.00    -0.237 OA
ATOM     80  O   UNL A   1      39.607  33.916  42.931  1.00  0.00    -0.237 OA
ATOM     81  O   UNL A   1      39.558  36.335  43.393  1.00  0.00    -0.744 OA
ENDBRANCH  77  78
ENDBRANCH  58  72
BRANCH  59  82
ATOM     82  C   UNL A   1      46.405  34.132  29.606  1.00  0.00    -0.014 A 
ATOM     83  C   UNL A   1      47.186  32.934  29.626  1.00  0.00     0.010 A 
ATOM     84  C   UNL A   1      45.561  34.297  28.506  1.00  0.00     0.010 A 
ATOM     85  C   UNL A   1      46.981  31.872  28.717  1.00  0.00     0.020 A 
ATOM     86  C   UNL A   1      45.366  33.232  27.584  1.00  0.00     0.020 A 
ATOM     87  C   UNL A   1      46.013  32.002  27.730  1.00  0.00     0.054 A 
BRANCH  87  88
ATOM     88  S   UNL A   1      45.460  30.541  26.760  1.00  0.00     0.124 S 
ATOM     89  O   UNL A   1      46.319  30.575  25.582  1.00  0.00    -0.237 OA
ATOM     90  O   UNL A   1      45.705  29.416  27.664  1.00  0.00    -0.237 OA
ATOM     91  O   UNL A   1      44.044  30.807  26.524  1.00  0.00    -0.744 OA
ENDBRANCH  87  88
ENDBRANCH  59  82
BRANCH  71  92
ATOM     92  C   UNL A   1      43.714  39.816  33.655  1.00  0.00    -0.014 A 
ATOM     93  C   UNL A   1      44.182  40.649  34.685  1.00  0.00     0.010 A 
ATOM     94  C   UNL A   1      43.074  40.427  32.557  1.00  0.00     0.010 A 
ATOM     95  C   UNL A   1      43.937  42.022  34.664  1.00  0.00     0.020 A 
ATOM     96  C   UNL A   1      42.895  41.805  32.490  1.00  0.00     0.020 A 
ATOM     97  C   UNL A   1      43.298  42.590  33.563  1.00  0.00     0.054 A 
BRANCH  97  98
ATOM     98  S   UNL A   1      43.059  44.378  33.509  1.00  0.00     0.124 S 
ATOM     99  O   UNL A   1      44.289  44.860  34.132  1.00  0.00    -0.237 OA
ATOM    100  O   UNL A   1      42.934  44.643  32.077  1.00  0.00    -0.237 OA
ATOM    101  O   UNL A   1      41.837  44.581  34.282  1.00  0.00    -0.744 OA
ENDBRANCH  97  98
ENDBRANCH  71  92
ENDBRANCH  45  46
ENDBRANCH  38  40
ENDBRANCH  37  38
ENDBRANCH  36  37
ENDBRANCH  35  36
ENDBRANCH  34  35
ENDBRANCH  33  34
ENDBRANCH   1  33
TORSDOF 25
ENDMDL
