MODEL 1
REMARK VINA RESULT:      -9.6      0.000      0.000
REMARK SMILES Nc1nn(-c2ccc(Cl)cc2)nc1C(=O)OCCOCCOCCOC(=O)c1ccc(-c2c3nc(c(-c4ccc(S(=O)(=O)[O-])cc4)c4ccc([nH]4)c(-c4ccc(S(=O)(=O)[O-])cc4)c4nc(c(-c5ccc(S(=O)(=O)[O-])cc5)c5ccc2[nH]5)C=C4)C=C3)cc1
REMARK SMILES IDX 21 1 20 2 19 3 18 4 17 5 16 6 14 7 15 8 13 9 2 10 3 11 4 12
REMARK SMILES IDX 12 13 1 14 5 17 6 18 11 19 7 20 10 21 8 22 9 23 22 24 23 25
REMARK SMILES IDX 24 26 25 27 26 28 27 29 28 30 29 31 87 32 30 33 86 34 31 35
REMARK SMILES IDX 32 36 33 37 80 38 34 39 85 40 79 41 81 42 35 43 84 44 78 45
REMARK SMILES IDX 77 46 36 48 66 49 47 50 65 51 48 52 51 53 64 54 82 55 49 56
REMARK SMILES IDX 50 57 63 59 83 60 52 61 37 62 38 63 46 64 39 65 45 66 40 67
REMARK SMILES IDX 41 68 42 69 43 70 44 71 67 72 68 73 76 74 69 75 75 76 70 77
REMARK SMILES IDX 71 78 72 79 73 80 74 81 53 82 54 83 62 84 55 85 61 86 56 87
REMARK SMILES IDX 57 88 58 89 59 90 60 91
REMARK H PARENT 1 15 1 16 81 47 51 58
REMARK Flexibility Score: inf
ROOT
ATOM      1  C   UNL A   1      43.253  44.014  31.120  1.00  0.00     0.188 C 
ENDROOT
BRANCH   1   2
ATOM      2  C   UNL A   1      44.726  43.735  31.486  1.00  0.00     0.188 C 
BRANCH   2   3
ATOM      3  O   UNL A   1      45.466  42.716  30.824  1.00  0.00    -0.376 OA
BRANCH   3   4
ATOM      4  C   UNL A   1      46.640  43.018  30.086  1.00  0.00     0.202 C 
BRANCH   4   5
ATOM      5  C   UNL A   1      46.574  43.612  28.664  1.00  0.00     0.261 C 
BRANCH   5   6
ATOM      6  O   UNL A   1      45.270  43.671  28.070  1.00  0.00    -0.458 OA
BRANCH   6   7
ATOM      7  C   UNL A   1      45.208  44.254  26.838  1.00  0.00     0.362 C 
ATOM      8  O   UNL A   1      45.686  45.357  26.576  1.00  0.00    -0.244 OA
BRANCH   7   9
ATOM      9  C   UNL A   1      44.614  43.385  25.829  1.00  0.00     0.214 A 
ATOM     10  C   UNL A   1      44.335  41.992  25.855  1.00  0.00     0.181 A 
ATOM     11  N   UNL A   1      43.683  41.648  24.745  1.00  0.00    -0.130 NA
ATOM     12  N   UNL A   1      43.781  42.771  24.004  1.00  0.00    -0.149 N 
ATOM     13  N   UNL A   1      44.322  43.851  24.600  1.00  0.00    -0.139 NA
BRANCH  10  14
ATOM     14  N   UNL A   1      44.664  41.112  26.810  1.00  0.00    -0.380 N 
ATOM     15  H   UNL A   1      43.981  40.795  27.443  1.00  0.00     0.158 HD
ATOM     16  H   UNL A   1      45.589  40.782  26.877  1.00  0.00     0.158 HD
ENDBRANCH  10  14
BRANCH  12  17
ATOM     17  C   UNL A   1      43.266  42.869  22.701  1.00  0.00     0.086 A 
ATOM     18  C   UNL A   1      44.142  43.055  21.622  1.00  0.00     0.032 A 
ATOM     19  C   UNL A   1      41.881  42.875  22.518  1.00  0.00     0.032 A 
ATOM     20  C   UNL A   1      43.619  43.234  20.341  1.00  0.00     0.023 A 
ATOM     21  C   UNL A   1      41.367  43.116  21.243  1.00  0.00     0.023 A 
ATOM     22  C   UNL A   1      42.236  43.286  20.160  1.00  0.00     0.041 A 
ATOM     23  Cl  UNL A   1      41.588  43.581  18.594  1.00  0.00    -0.084 Cl
ENDBRANCH  12  17
ENDBRANCH   7   9
ENDBRANCH   6   7
ENDBRANCH   5   6
ENDBRANCH   4   5
ENDBRANCH   3   4
ENDBRANCH   2   3
ENDBRANCH   1   2
BRANCH   1  24
ATOM     24  O   UNL A   1      42.328  43.169  31.772  1.00  0.00    -0.376 OA
BRANCH  24  25
ATOM     25  C   UNL A   1      41.931  41.964  31.139  1.00  0.00     0.202 C 
BRANCH  25  26
ATOM     26  C   UNL A   1      42.662  40.637  31.365  1.00  0.00     0.261 C 
BRANCH  26  27
ATOM     27  O   UNL A   1      43.008  40.291  32.696  1.00  0.00    -0.460 OA
BRANCH  27  28
ATOM     28  C   UNL A   1      44.116  39.529  32.798  1.00  0.00     0.338 C 
ATOM     29  O   UNL A   1      45.236  39.824  32.415  1.00  0.00    -0.246 OA
BRANCH  28  30
ATOM     30  C   UNL A   1      43.745  38.215  33.333  1.00  0.00     0.060 A 
ATOM     31  C   UNL A   1      43.669  37.152  32.432  1.00  0.00     0.016 A 
ATOM     32  C   UNL A   1      43.237  38.118  34.638  1.00  0.00     0.016 A 
ATOM     33  C   UNL A   1      42.944  36.037  32.797  1.00  0.00     0.010 A 
ATOM     34  C   UNL A   1      42.502  37.006  34.995  1.00  0.00     0.010 A 
ATOM     35  C   UNL A   1      42.309  36.007  34.046  1.00  0.00    -0.014 A 
BRANCH  35  36
ATOM     36  C   UNL A   1      41.501  34.842  34.350  1.00  0.00     0.031 A 
ATOM     37  C   UNL A   1      41.918  33.625  33.625  1.00  0.00     0.074 A 
ATOM     38  C   UNL A   1      40.498  34.834  35.246  1.00  0.00     0.049 A 
ATOM     39  N   UNL A   1      41.301  33.039  32.655  1.00  0.00    -0.248 NA
ATOM     40  C   UNL A   1      43.256  33.090  33.912  1.00  0.00     0.031 C 
ATOM     41  C   UNL A   1      40.155  35.857  36.235  1.00  0.00     0.029 A 
ATOM     42  N   UNL A   1      39.620  33.831  35.517  1.00  0.00    -0.354 N 
ATOM     43  C   UNL A   1      42.068  31.923  32.349  1.00  0.00     0.074 A 
ATOM     44  C   UNL A   1      43.334  32.106  33.016  1.00  0.00     0.031 C 
ATOM     45  C   UNL A   1      39.293  35.328  37.134  1.00  0.00     0.029 A 
ATOM     46  C   UNL A   1      38.924  33.988  36.706  1.00  0.00     0.049 A 
ATOM     47  H   UNL A   1      39.490  33.058  34.920  1.00  0.00     0.167 HD
ATOM     48  C   UNL A   1      41.517  30.816  31.784  1.00  0.00     0.031 A 
ATOM     49  C   UNL A   1      38.160  33.050  37.319  1.00  0.00     0.031 A 
ATOM     50  C   UNL A   1      40.233  31.093  31.195  1.00  0.00     0.049 A 
ATOM     51  C   UNL A   1      37.779  32.046  36.294  1.00  0.00     0.074 A 
ATOM     52  C   UNL A   1      39.777  31.968  30.228  1.00  0.00     0.029 A 
ATOM     53  N   UNL A   1      39.117  30.672  31.879  1.00  0.00    -0.354 N 
ATOM     54  N   UNL A   1      36.968  32.295  35.304  1.00  0.00    -0.248 NA
ATOM     55  C   UNL A   1      38.619  30.871  36.129  1.00  0.00     0.031 C 
ATOM     56  C   UNL A   1      38.491  32.383  30.676  1.00  0.00     0.029 A 
ATOM     57  C   UNL A   1      38.208  31.698  31.860  1.00  0.00     0.049 A 
ATOM     58  H   UNL A   1      38.993  29.794  32.306  1.00  0.00     0.167 HD
ATOM     59  C   UNL A   1      37.483  31.580  34.232  1.00  0.00     0.074 A 
ATOM     60  C   UNL A   1      38.436  30.645  34.826  1.00  0.00     0.031 C 
ATOM     61  C   UNL A   1      37.294  31.995  32.944  1.00  0.00     0.031 A 
BRANCH  48  62
ATOM     62  C   UNL A   1      41.958  29.417  32.143  1.00  0.00    -0.014 A 
ATOM     63  C   UNL A   1      41.679  28.924  33.434  1.00  0.00     0.010 A 
ATOM     64  C   UNL A   1      42.875  28.679  31.363  1.00  0.00     0.010 A 
ATOM     65  C   UNL A   1      42.345  27.800  33.940  1.00  0.00     0.020 A 
ATOM     66  C   UNL A   1      43.506  27.531  31.840  1.00  0.00     0.020 A 
ATOM     67  C   UNL A   1      43.265  27.122  33.142  1.00  0.00     0.054 A 
BRANCH  67  68
ATOM     68  S   UNL A   1      44.199  25.738  33.836  1.00  0.00     0.124 S 
ATOM     69  O   UNL A   1      43.240  25.179  34.785  1.00  0.00    -0.237 OA
ATOM     70  O   UNL A   1      44.472  24.926  32.654  1.00  0.00    -0.237 OA
ATOM     71  O   UNL A   1      45.369  26.380  34.430  1.00  0.00    -0.744 OA
ENDBRANCH  67  68
ENDBRANCH  48  62
BRANCH  49  72
ATOM     72  C   UNL A   1      38.012  32.798  38.776  1.00  0.00    -0.014 A 
ATOM     73  C   UNL A   1      36.876  32.134  39.278  1.00  0.00     0.010 A 
ATOM     74  C   UNL A   1      39.115  32.949  39.640  1.00  0.00     0.010 A 
ATOM     75  C   UNL A   1      36.876  31.573  40.565  1.00  0.00     0.020 A 
ATOM     76  C   UNL A   1      39.117  32.405  40.929  1.00  0.00     0.020 A 
ATOM     77  C   UNL A   1      38.007  31.693  41.375  1.00  0.00     0.054 A 
BRANCH  77  78
ATOM     78  S   UNL A   1      38.076  30.797  42.955  1.00  0.00     0.124 S 
ATOM     79  O   UNL A   1      39.185  31.456  43.637  1.00  0.00    -0.237 OA
ATOM     80  O   UNL A   1      36.751  31.040  43.518  1.00  0.00    -0.237 OA
ATOM     81  O   UNL A   1      38.329  29.413  42.554  1.00  0.00    -0.744 OA
ENDBRANCH  77  78
ENDBRANCH  49  72
BRANCH  61  82
ATOM     82  C   UNL A   1      36.222  33.022  32.655  1.00  0.00    -0.014 A 
ATOM     83  C   UNL A   1      34.877  32.706  32.384  1.00  0.00     0.010 A 
ATOM     84  C   UNL A   1      36.572  34.375  32.811  1.00  0.00     0.010 A 
ATOM     85  C   UNL A   1      33.916  33.721  32.250  1.00  0.00     0.020 A 
ATOM     86  C   UNL A   1      35.618  35.389  32.701  1.00  0.00     0.020 A 
ATOM     87  C   UNL A   1      34.294  35.058  32.412  1.00  0.00     0.054 A 
BRANCH  87  88
ATOM     88  S   UNL A   1      33.038  36.363  32.296  1.00  0.00     0.124 S 
ATOM     89  O   UNL A   1      33.454  37.099  31.105  1.00  0.00    -0.237 OA
ATOM     90  O   UNL A   1      31.795  35.606  32.168  1.00  0.00    -0.237 OA
ATOM     91  O   UNL A   1      33.179  37.095  33.555  1.00  0.00    -0.744 OA
ENDBRANCH  87  88
ENDBRANCH  61  82
ENDBRANCH  35  36
ENDBRANCH  28  30
ENDBRANCH  27  28
ENDBRANCH  26  27
ENDBRANCH  25  26
ENDBRANCH  24  25
ENDBRANCH   1  24
TORSDOF 22
ENDMDL
MODEL 2
REMARK VINA RESULT:      -9.5      2.404      3.400
REMARK SMILES Nc1nn(-c2ccc(Cl)cc2)nc1C(=O)OCCOCCOCCOC(=O)c1ccc(-c2c3nc(c(-c4ccc(S(=O)(=O)[O-])cc4)c4ccc([nH]4)c(-c4ccc(S(=O)(=O)[O-])cc4)c4nc(c(-c5ccc(S(=O)(=O)[O-])cc5)c5ccc2[nH]5)C=C4)C=C3)cc1
REMARK SMILES IDX 21 1 20 2 19 3 18 4 17 5 16 6 14 7 15 8 13 9 2 10 3 11 4 12
REMARK SMILES IDX 12 13 1 14 5 17 6 18 11 19 7 20 10 21 8 22 9 23 22 24 23 25
REMARK SMILES IDX 24 26 25 27 26 28 27 29 28 30 29 31 87 32 30 33 86 34 31 35
REMARK SMILES IDX 32 36 33 37 80 38 34 39 85 40 79 41 81 42 35 43 84 44 78 45
REMARK SMILES IDX 77 46 36 48 66 49 47 50 65 51 48 52 51 53 64 54 82 55 49 56
REMARK SMILES IDX 50 57 63 59 83 60 52 61 37 62 38 63 46 64 39 65 45 66 40 67
REMARK SMILES IDX 41 68 42 69 43 70 44 71 67 72 68 73 76 74 69 75 75 76 70 77
REMARK SMILES IDX 71 78 72 79 73 80 74 81 53 82 54 83 62 84 55 85 61 86 56 87
REMARK SMILES IDX 57 88 58 89 59 90 60 91
REMARK H PARENT 1 15 1 16 81 47 51 58
REMARK Flexibility Score: inf
ROOT
ATOM      1  C   UNL A   1      43.529  43.773  33.974  1.00  0.00     0.188 C 
ENDROOT
BRANCH   1   2
ATOM      2  C   UNL A   1      43.969  45.018  33.175  1.00  0.00     0.188 C 
BRANCH   2   3
ATOM      3  O   UNL A   1      43.678  45.141  31.788  1.00  0.00    -0.376 OA
BRANCH   3   4
ATOM      4  C   UNL A   1      44.496  44.524  30.805  1.00  0.00     0.202 C 
BRANCH   4   5
ATOM      5  C   UNL A   1      43.935  43.472  29.827  1.00  0.00     0.261 C 
BRANCH   5   6
ATOM      6  O   UNL A   1      44.907  42.720  29.089  1.00  0.00    -0.458 OA
BRANCH   6   7
ATOM      7  C   UNL A   1      44.705  42.652  27.742  1.00  0.00     0.362 C 
ATOM      8  O   UNL A   1      45.090  43.508  26.946  1.00  0.00    -0.244 OA
BRANCH   7   9
ATOM      9  C   UNL A   1      44.084  41.401  27.324  1.00  0.00     0.214 A 
ATOM     10  C   UNL A   1      43.283  41.097  26.192  1.00  0.00     0.181 A 
ATOM     11  N   UNL A   1      43.030  39.790  26.161  1.00  0.00    -0.130 NA
ATOM     12  N   UNL A   1      43.489  39.390  27.365  1.00  0.00    -0.149 N 
ATOM     13  N   UNL A   1      44.138  40.306  28.107  1.00  0.00    -0.139 NA
BRANCH  10  14
ATOM     14  N   UNL A   1      42.813  41.952  25.273  1.00  0.00    -0.380 N 
ATOM     15  H   UNL A   1      42.307  42.748  25.554  1.00  0.00     0.158 HD
ATOM     16  H   UNL A   1      42.974  41.784  24.316  1.00  0.00     0.158 HD
ENDBRANCH  10  14
BRANCH  12  17
ATOM     17  C   UNL A   1      43.393  38.061  27.811  1.00  0.00     0.086 A 
ATOM     18  C   UNL A   1      44.528  37.238  27.786  1.00  0.00     0.032 A 
ATOM     19  C   UNL A   1      42.143  37.558  28.180  1.00  0.00     0.032 A 
ATOM     20  C   UNL A   1      44.407  35.897  28.152  1.00  0.00     0.023 A 
ATOM     21  C   UNL A   1      42.021  36.201  28.486  1.00  0.00     0.023 A 
ATOM     22  C   UNL A   1      43.152  35.380  28.478  1.00  0.00     0.041 A 
ATOM     23  Cl  UNL A   1      42.988  33.709  28.857  1.00  0.00    -0.084 Cl
ENDBRANCH  12  17
ENDBRANCH   7   9
ENDBRANCH   6   7
ENDBRANCH   5   6
ENDBRANCH   4   5
ENDBRANCH   3   4
ENDBRANCH   2   3
ENDBRANCH   1   2
BRANCH   1  24
ATOM     24  O   UNL A   1      42.269  43.261  33.592  1.00  0.00    -0.376 OA
BRANCH  24  25
ATOM     25  C   UNL A   1      42.207  42.017  32.916  1.00  0.00     0.202 C 
BRANCH  25  26
ATOM     26  C   UNL A   1      43.461  41.230  32.524  1.00  0.00     0.261 C 
BRANCH  26  27
ATOM     27  O   UNL A   1      43.285  40.015  31.815  1.00  0.00    -0.460 OA
BRANCH  27  28
ATOM     28  C   UNL A   1      44.349  39.187  31.866  1.00  0.00     0.338 C 
ATOM     29  O   UNL A   1      45.443  39.382  31.364  1.00  0.00    -0.246 OA
BRANCH  28  30
ATOM     30  C   UNL A   1      43.949  37.936  32.517  1.00  0.00     0.060 A 
ATOM     31  C   UNL A   1      43.785  36.812  31.707  1.00  0.00     0.016 A 
ATOM     32  C   UNL A   1      43.501  37.961  33.848  1.00  0.00     0.016 A 
ATOM     33  C   UNL A   1      43.033  35.762  32.189  1.00  0.00     0.010 A 
ATOM     34  C   UNL A   1      42.738  36.914  34.322  1.00  0.00     0.010 A 
ATOM     35  C   UNL A   1      42.458  35.855  33.464  1.00  0.00    -0.014 A 
BRANCH  35  36
ATOM     36  C   UNL A   1      41.618  34.755  33.894  1.00  0.00     0.031 A 
ATOM     37  C   UNL A   1      41.993  33.455  33.301  1.00  0.00     0.074 A 
ATOM     38  C   UNL A   1      40.622  34.873  34.790  1.00  0.00     0.049 A 
ATOM     39  N   UNL A   1      41.350  32.790  32.400  1.00  0.00    -0.248 NA
ATOM     40  C   UNL A   1      43.316  32.913  33.636  1.00  0.00     0.031 C 
ATOM     41  C   UNL A   1      40.318  36.005  35.666  1.00  0.00     0.029 A 
ATOM     42  N   UNL A   1      39.716  33.931  35.170  1.00  0.00    -0.354 N 
ATOM     43  C   UNL A   1      42.081  31.624  32.211  1.00  0.00     0.074 A 
ATOM     44  C   UNL A   1      43.357  31.838  32.850  1.00  0.00     0.031 C 
ATOM     45  C   UNL A   1      39.447  35.601  36.620  1.00  0.00     0.029 A 
ATOM     46  C   UNL A   1      39.034  34.236  36.339  1.00  0.00     0.049 A 
ATOM     47  H   UNL A   1      39.558  33.104  34.659  1.00  0.00     0.167 HD
ATOM     48  C   UNL A   1      41.492  30.481  31.770  1.00  0.00     0.031 A 
ATOM     49  C   UNL A   1      38.248  33.391  37.052  1.00  0.00     0.031 A 
ATOM     50  C   UNL A   1      40.213  30.733  31.160  1.00  0.00     0.049 A 
ATOM     51  C   UNL A   1      37.828  32.296  36.140  1.00  0.00     0.074 A 
ATOM     52  C   UNL A   1      39.776  31.514  30.108  1.00  0.00     0.029 A 
ATOM     53  N   UNL A   1      39.090  30.422  31.890  1.00  0.00    -0.354 N 
ATOM     54  N   UNL A   1      37.017  32.464  35.133  1.00  0.00    -0.248 NA
ATOM     55  C   UNL A   1      38.632  31.086  36.097  1.00  0.00     0.031 C 
ATOM     56  C   UNL A   1      38.507  32.015  30.516  1.00  0.00     0.029 A 
ATOM     57  C   UNL A   1      38.212  31.468  31.766  1.00  0.00     0.049 A 
ATOM     58  H   UNL A   1      38.943  29.598  32.409  1.00  0.00     0.167 HD
ATOM     59  C   UNL A   1      37.503  31.624  34.141  1.00  0.00     0.074 A 
ATOM     60  C   UNL A   1      38.431  30.728  34.826  1.00  0.00     0.031 C 
ATOM     61  C   UNL A   1      37.316  31.906  32.817  1.00  0.00     0.031 A 
BRANCH  48  62
ATOM     62  C   UNL A   1      41.894  29.115  32.274  1.00  0.00    -0.014 A 
ATOM     63  C   UNL A   1      41.443  28.696  33.541  1.00  0.00     0.010 A 
ATOM     64  C   UNL A   1      42.918  28.349  31.676  1.00  0.00     0.010 A 
ATOM     65  C   UNL A   1      42.044  27.618  34.205  1.00  0.00     0.020 A 
ATOM     66  C   UNL A   1      43.488  27.244  32.306  1.00  0.00     0.020 A 
ATOM     67  C   UNL A   1      43.074  26.910  33.585  1.00  0.00     0.054 A 
BRANCH  67  68
ATOM     68  S   UNL A   1      43.916  25.589  34.487  1.00  0.00     0.124 S 
ATOM     69  O   UNL A   1      44.885  25.125  33.500  1.00  0.00    -0.237 OA
ATOM     70  O   UNL A   1      44.468  26.302  35.635  1.00  0.00    -0.237 OA
ATOM     71  O   UNL A   1      42.840  24.651  34.801  1.00  0.00    -0.744 OA
ENDBRANCH  67  68
ENDBRANCH  48  62
BRANCH  49  72
ATOM     72  C   UNL A   1      38.103  33.300  38.527  1.00  0.00    -0.014 A 
ATOM     73  C   UNL A   1      38.819  34.169  39.374  1.00  0.00     0.010 A 
ATOM     74  C   UNL A   1      37.046  32.560  39.094  1.00  0.00     0.010 A 
ATOM     75  C   UNL A   1      38.439  34.349  40.714  1.00  0.00     0.020 A 
ATOM     76  C   UNL A   1      36.671  32.724  40.432  1.00  0.00     0.020 A 
ATOM     77  C   UNL A   1      37.351  33.641  41.229  1.00  0.00     0.054 A 
BRANCH  77  78
ATOM     78  S   UNL A   1      36.741  34.025  42.897  1.00  0.00     0.124 S 
ATOM     79  O   UNL A   1      37.252  32.904  43.680  1.00  0.00    -0.237 OA
ATOM     80  O   UNL A   1      37.355  35.321  43.171  1.00  0.00    -0.237 OA
ATOM     81  O   UNL A   1      35.288  34.055  42.733  1.00  0.00    -0.744 OA
ENDBRANCH  77  78
ENDBRANCH  49  72
BRANCH  61  82
ATOM     82  C   UNL A   1      36.274  32.929  32.425  1.00  0.00    -0.014 A 
ATOM     83  C   UNL A   1      34.991  32.605  31.939  1.00  0.00     0.010 A 
ATOM     84  C   UNL A   1      36.562  34.277  32.703  1.00  0.00     0.010 A 
ATOM     85  C   UNL A   1      34.036  33.609  31.718  1.00  0.00     0.020 A 
ATOM     86  C   UNL A   1      35.609  35.279  32.505  1.00  0.00     0.020 A 
ATOM     87  C   UNL A   1      34.352  34.942  32.004  1.00  0.00     0.054 A 
BRANCH  87  88
ATOM     88  S   UNL A   1      33.094  36.229  31.770  1.00  0.00     0.124 S 
ATOM     89  O   UNL A   1      32.691  36.030  30.381  1.00  0.00    -0.237 OA
ATOM     90  O   UNL A   1      32.088  35.887  32.773  1.00  0.00    -0.237 OA
ATOM     91  O   UNL A   1      33.817  37.473  32.032  1.00  0.00    -0.744 OA
ENDBRANCH  87  88
ENDBRANCH  61  82
ENDBRANCH  35  36
ENDBRANCH  28  30
ENDBRANCH  27  28
ENDBRANCH  26  27
ENDBRANCH  25  26
ENDBRANCH  24  25
ENDBRANCH   1  24
TORSDOF 22
ENDMDL
MODEL 3
REMARK VINA RESULT:      -9.5      2.408      3.466
REMARK SMILES Nc1nn(-c2ccc(Cl)cc2)nc1C(=O)OCCOCCOCCOC(=O)c1ccc(-c2c3nc(c(-c4ccc(S(=O)(=O)[O-])cc4)c4ccc([nH]4)c(-c4ccc(S(=O)(=O)[O-])cc4)c4nc(c(-c5ccc(S(=O)(=O)[O-])cc5)c5ccc2[nH]5)C=C4)C=C3)cc1
REMARK SMILES IDX 21 1 20 2 19 3 18 4 17 5 16 6 14 7 15 8 13 9 2 10 3 11 4 12
REMARK SMILES IDX 12 13 1 14 5 17 6 18 11 19 7 20 10 21 8 22 9 23 22 24 23 25
REMARK SMILES IDX 24 26 25 27 26 28 27 29 28 30 29 31 87 32 30 33 86 34 31 35
REMARK SMILES IDX 32 36 33 37 80 38 34 39 85 40 79 41 81 42 35 43 84 44 78 45
REMARK SMILES IDX 77 46 36 48 66 49 47 50 65 51 48 52 51 53 64 54 82 55 49 56
REMARK SMILES IDX 50 57 63 59 83 60 52 61 37 62 38 63 46 64 39 65 45 66 40 67
REMARK SMILES IDX 41 68 42 69 43 70 44 71 67 72 68 73 76 74 69 75 75 76 70 77
REMARK SMILES IDX 71 78 72 79 73 80 74 81 53 82 54 83 62 84 55 85 61 86 56 87
REMARK SMILES IDX 57 88 58 89 59 90 60 91
REMARK H PARENT 1 15 1 16 81 47 51 58
REMARK Flexibility Score: inf
ROOT
ATOM      1  C   UNL A   1      44.108  40.631  27.223  1.00  0.00     0.188 C 
ENDROOT
BRANCH   1   2
ATOM      2  C   UNL A   1      43.824  41.762  26.213  1.00  0.00     0.188 C 
BRANCH   2   3
ATOM      3  O   UNL A   1      42.811  41.624  25.224  1.00  0.00    -0.376 OA
BRANCH   3   4
ATOM      4  C   UNL A   1      42.825  42.406  24.038  1.00  0.00     0.202 C 
BRANCH   4   5
ATOM      5  C   UNL A   1      41.856  42.128  22.872  1.00  0.00     0.261 C 
BRANCH   5   6
ATOM      6  O   UNL A   1      42.464  41.868  21.599  1.00  0.00    -0.458 OA
BRANCH   6   7
ATOM      7  C   UNL A   1      42.246  42.810  20.637  1.00  0.00     0.362 C 
ATOM      8  O   UNL A   1      41.141  43.288  20.383  1.00  0.00    -0.244 OA
BRANCH   7   9
ATOM      9  C   UNL A   1      43.477  43.278  20.013  1.00  0.00     0.214 A 
ATOM     10  C   UNL A   1      43.717  43.800  18.714  1.00  0.00     0.181 A 
ATOM     11  N   UNL A   1      44.983  44.205  18.623  1.00  0.00    -0.130 NA
ATOM     12  N   UNL A   1      45.512  43.725  19.767  1.00  0.00    -0.149 N 
ATOM     13  N   UNL A   1      44.660  43.165  20.647  1.00  0.00    -0.139 NA
BRANCH  10  14
ATOM     14  N   UNL A   1      42.850  43.882  17.695  1.00  0.00    -0.380 N 
ATOM     15  H   UNL A   1      42.864  43.205  16.982  1.00  0.00     0.158 HD
ATOM     16  H   UNL A   1      42.199  44.620  17.662  1.00  0.00     0.158 HD
ENDBRANCH  10  14
BRANCH  12  17
ATOM     17  C   UNL A   1      46.870  43.872  20.096  1.00  0.00     0.086 A 
ATOM     18  C   UNL A   1      47.773  44.328  19.125  1.00  0.00     0.032 A 
ATOM     19  C   UNL A   1      47.309  43.468  21.359  1.00  0.00     0.032 A 
ATOM     20  C   UNL A   1      49.132  44.394  19.434  1.00  0.00     0.023 A 
ATOM     21  C   UNL A   1      48.677  43.480  21.637  1.00  0.00     0.023 A 
ATOM     22  C   UNL A   1      49.580  43.949  20.679  1.00  0.00     0.041 A 
ATOM     23  Cl  UNL A   1      51.264  43.958  21.035  1.00  0.00    -0.084 Cl
ENDBRANCH  12  17
ENDBRANCH   7   9
ENDBRANCH   6   7
ENDBRANCH   5   6
ENDBRANCH   4   5
ENDBRANCH   3   4
ENDBRANCH   2   3
ENDBRANCH   1   2
BRANCH   1  24
ATOM     24  O   UNL A   1      44.855  41.041  28.350  1.00  0.00    -0.376 OA
BRANCH  24  25
ATOM     25  C   UNL A   1      44.170  41.504  29.500  1.00  0.00     0.202 C 
BRANCH  25  26
ATOM     26  C   UNL A   1      43.432  40.559  30.454  1.00  0.00     0.261 C 
BRANCH  26  27
ATOM     27  O   UNL A   1      44.158  39.467  30.996  1.00  0.00    -0.460 OA
BRANCH  27  28
ATOM     28  C   UNL A   1      44.294  39.506  32.337  1.00  0.00     0.338 C 
ATOM     29  O   UNL A   1      44.771  40.418  32.991  1.00  0.00    -0.246 OA
BRANCH  28  30
ATOM     30  C   UNL A   1      43.891  38.211  32.895  1.00  0.00     0.060 A 
ATOM     31  C   UNL A   1      43.751  37.144  32.007  1.00  0.00     0.016 A 
ATOM     32  C   UNL A   1      43.419  38.143  34.216  1.00  0.00     0.016 A 
ATOM     33  C   UNL A   1      42.998  36.059  32.403  1.00  0.00     0.010 A 
ATOM     34  C   UNL A   1      42.655  37.062  34.603  1.00  0.00     0.010 A 
ATOM     35  C   UNL A   1      42.398  36.062  33.670  1.00  0.00    -0.014 A 
BRANCH  35  36
ATOM     36  C   UNL A   1      41.559  34.930  34.009  1.00  0.00     0.031 A 
ATOM     37  C   UNL A   1      41.949  33.678  33.330  1.00  0.00     0.074 A 
ATOM     38  C   UNL A   1      40.550  34.979  34.897  1.00  0.00     0.049 A 
ATOM     39  N   UNL A   1      41.323  33.075  32.376  1.00  0.00    -0.248 NA
ATOM     40  C   UNL A   1      43.270  33.119  33.645  1.00  0.00     0.031 C 
ATOM     41  C   UNL A   1      40.227  36.045  35.846  1.00  0.00     0.029 A 
ATOM     42  N   UNL A   1      39.644  34.009  35.195  1.00  0.00    -0.354 N 
ATOM     43  C   UNL A   1      42.063  31.929  32.115  1.00  0.00     0.074 A 
ATOM     44  C   UNL A   1      43.329  32.103  32.785  1.00  0.00     0.031 C 
ATOM     45  C   UNL A   1      39.345  35.570  36.757  1.00  0.00     0.029 A 
ATOM     46  C   UNL A   1      38.944  34.226  36.373  1.00  0.00     0.049 A 
ATOM     47  H   UNL A   1      39.498  33.219  34.624  1.00  0.00     0.167 HD
ATOM     48  C   UNL A   1      41.488  30.817  31.585  1.00  0.00     0.031 A 
ATOM     49  C   UNL A   1      38.152  33.329  37.012  1.00  0.00     0.031 A 
ATOM     50  C   UNL A   1      40.215  31.106  30.976  1.00  0.00     0.049 A 
ATOM     51  C   UNL A   1      37.751  32.300  36.020  1.00  0.00     0.074 A 
ATOM     52  C   UNL A   1      39.789  31.958  29.975  1.00  0.00     0.029 A 
ATOM     53  N   UNL A   1      39.084  30.739  31.666  1.00  0.00    -0.354 N 
ATOM     54  N   UNL A   1      36.954  32.535  35.016  1.00  0.00    -0.248 NA
ATOM     55  C   UNL A   1      38.563  31.099  35.902  1.00  0.00     0.031 C 
ATOM     56  C   UNL A   1      38.511  32.422  30.399  1.00  0.00     0.029 A 
ATOM     57  C   UNL A   1      38.202  31.786  31.604  1.00  0.00     0.049 A 
ATOM     58  H   UNL A   1      38.934  29.879  32.122  1.00  0.00     0.167 HD
ATOM     59  C   UNL A   1      37.459  31.770  33.973  1.00  0.00     0.074 A 
ATOM     60  C   UNL A   1      38.382  30.832  34.606  1.00  0.00     0.031 C 
ATOM     61  C   UNL A   1      37.289  32.144  32.670  1.00  0.00     0.031 A 
BRANCH  48  62
ATOM     62  C   UNL A   1      41.890  29.421  31.996  1.00  0.00    -0.014 A 
ATOM     63  C   UNL A   1      41.383  28.892  33.199  1.00  0.00     0.010 A 
ATOM     64  C   UNL A   1      42.958  28.723  31.393  1.00  0.00     0.010 A 
ATOM     65  C   UNL A   1      41.970  27.772  33.803  1.00  0.00     0.020 A 
ATOM     66  C   UNL A   1      43.517  27.579  31.960  1.00  0.00     0.020 A 
ATOM     67  C   UNL A   1      43.044  27.134  33.184  1.00  0.00     0.054 A 
BRANCH  67  68
ATOM     68  S   UNL A   1      43.864  25.756  34.018  1.00  0.00     0.124 S 
ATOM     69  O   UNL A   1      45.064  26.400  34.545  1.00  0.00    -0.237 OA
ATOM     70  O   UNL A   1      42.869  25.359  35.009  1.00  0.00    -0.237 OA
ATOM     71  O   UNL A   1      44.088  24.791  32.945  1.00  0.00    -0.744 OA
ENDBRANCH  67  68
ENDBRANCH  48  62
BRANCH  49  72
ATOM     72  C   UNL A   1      37.987  33.133  38.476  1.00  0.00    -0.014 A 
ATOM     73  C   UNL A   1      36.757  32.702  39.008  1.00  0.00     0.010 A 
ATOM     74  C   UNL A   1      39.115  33.087  39.319  1.00  0.00     0.010 A 
ATOM     75  C   UNL A   1      36.676  32.171  40.306  1.00  0.00     0.020 A 
ATOM     76  C   UNL A   1      39.040  32.573  40.618  1.00  0.00     0.020 A 
ATOM     77  C   UNL A   1      37.825  32.089  41.095  1.00  0.00     0.054 A 
BRANCH  77  78
ATOM     78  S   UNL A   1      37.755  31.220  42.690  1.00  0.00     0.124 S 
ATOM     79  O   UNL A   1      36.343  31.330  43.042  1.00  0.00    -0.237 OA
ATOM     80  O   UNL A   1      38.220  29.880  42.344  1.00  0.00    -0.237 OA
ATOM     81  O   UNL A   1      38.667  31.987  43.539  1.00  0.00    -0.744 OA
ENDBRANCH  77  78
ENDBRANCH  49  72
BRANCH  61  82
ATOM     82  C   UNL A   1      36.246  33.188  32.337  1.00  0.00    -0.014 A 
ATOM     83  C   UNL A   1      35.122  32.950  31.522  1.00  0.00     0.010 A 
ATOM     84  C   UNL A   1      36.339  34.423  33.003  1.00  0.00     0.010 A 
ATOM     85  C   UNL A   1      34.133  33.933  31.363  1.00  0.00     0.020 A 
ATOM     86  C   UNL A   1      35.348  35.398  32.866  1.00  0.00     0.020 A 
ATOM     87  C   UNL A   1      34.252  35.152  32.039  1.00  0.00     0.054 A 
BRANCH  87  88
ATOM     88  S   UNL A   1      32.943  36.398  31.876  1.00  0.00     0.124 S 
ATOM     89  O   UNL A   1      32.854  36.577  30.429  1.00  0.00    -0.237 OA
ATOM     90  O   UNL A   1      31.795  35.746  32.501  1.00  0.00    -0.237 OA
ATOM     91  O   UNL A   1      33.465  37.550  32.610  1.00  0.00    -0.744 OA
ENDBRANCH  87  88
ENDBRANCH  61  82
ENDBRANCH  35  36
ENDBRANCH  28  30
ENDBRANCH  27  28
ENDBRANCH  26  27
ENDBRANCH  25  26
ENDBRANCH  24  25
ENDBRANCH   1  24
TORSDOF 22
ENDMDL
