MODEL 1
REMARK VINA RESULT:      -8.9      0.000      0.000
REMARK SMILES C[C@@H]1CC[C@@H](C(=O)OCCOCCOCCOC(=O)c2ccc(-c3c4nc(c(-c5ccc(S(=O)(=O)[O-])cc5)c5ccc([nH]5)c(-c5ccc(S(=O)(=O)[O-])cc5)c5nc(c(-c6ccc(S(=O)(=O)[O-])cc6)c6ccc3[nH]6)C=C5)C=C4)cc2)[C@H](SCC[NH+](C)C)C1
REMARK SMILES IDX 12 1 11 2 10 3 9 4 8 5 6 6 7 7 5 8 1 9 2 10 3 11 87 12 4 13
REMARK SMILES IDX 80 14 81 15 82 16 83 17 84 18 85 19 86 20 13 22 14 23 15 24
REMARK SMILES IDX 16 25 17 26 18 27 19 28 20 29 21 30 79 31 22 32 78 33 23 34
REMARK SMILES IDX 24 35 25 36 72 37 26 38 77 39 71 40 73 41 27 42 76 43 70 44
REMARK SMILES IDX 69 45 28 47 58 48 39 49 57 50 40 51 43 52 56 53 74 54 41 55
REMARK SMILES IDX 42 56 55 58 75 59 44 60 29 61 30 62 38 63 31 64 37 65 32 66
REMARK SMILES IDX 33 67 34 68 35 69 36 70 59 71 60 72 68 73 61 74 67 75 62 76
REMARK SMILES IDX 63 77 64 78 65 79 66 80 45 81 46 82 54 83 47 84 53 85 48 86
REMARK SMILES IDX 49 87 50 88 51 89 52 90
REMARK H PARENT 84 21 73 46 43 57
REMARK Flexibility Score: inf
ROOT
ATOM      1  C   UNL A   1      37.396  21.566  24.611  1.00  0.00     0.188 C 
ENDROOT
BRANCH   1   2
ATOM      2  O   UNL A   1      36.129  21.398  25.206  1.00  0.00    -0.376 OA
BRANCH   2   3
ATOM      3  C   UNL A   1      35.245  22.511  25.027  1.00  0.00     0.202 C 
BRANCH   3   4
ATOM      4  C   UNL A   1      34.136  22.436  23.930  1.00  0.00     0.261 C 
BRANCH   4   5
ATOM      5  O   UNL A   1      33.258  23.600  23.859  1.00  0.00    -0.463 OA
BRANCH   5   6
ATOM      6  C   UNL A   1      32.457  23.869  24.956  1.00  0.00     0.310 C 
ATOM      7  O   UNL A   1      31.786  23.012  25.514  1.00  0.00    -0.252 OA
BRANCH   6   8
ATOM      8  C   UNL A   1      32.532  25.381  25.399  1.00  0.00     0.112 C 
ATOM      9  C   UNL A   1      29.459  27.663  23.306  1.00  0.00     0.007 C 
ATOM     10  C   UNL A   1      30.218  26.387  23.706  1.00  0.00    -0.013 C 
ATOM     11  C   UNL A   1      30.003  25.924  25.156  1.00  0.00     0.004 C 
ATOM     12  C   UNL A   1      31.659  26.379  23.194  1.00  0.00     0.018 C 
ATOM     13  C   UNL A   1      31.212  25.670  26.076  1.00  0.00     0.017 C 
ATOM     14  C   UNL A   1      32.796  26.388  24.239  1.00  0.00     0.061 C 
BRANCH  14  15
ATOM     15  S   UNL A   1      33.592  28.170  24.250  1.00  0.00    -0.152 SA
BRANCH  15  16
ATOM     16  C   UNL A   1      32.812  29.507  25.325  1.00  0.00     0.131 C 
BRANCH  16  17
ATOM     17  C   UNL A   1      32.675  29.332  26.909  1.00  0.00     0.272 C 
BRANCH  17  18
ATOM     18  N   UNL A   1      33.785  29.840  27.744  1.00  0.00    -0.339 N 
ATOM     19  C   UNL A   1      35.100  29.263  27.468  1.00  0.00     0.332 C 
ATOM     20  C   UNL A   1      33.861  31.249  27.542  1.00  0.00     0.332 C 
ATOM     21  H   UNL A   1      33.567  29.573  28.705  1.00  0.00     0.347 HD
ENDBRANCH  17  18
ENDBRANCH  16  17
ENDBRANCH  15  16
ENDBRANCH  14  15
ENDBRANCH   6   8
ENDBRANCH   5   6
ENDBRANCH   4   5
ENDBRANCH   3   4
ENDBRANCH   2   3
ENDBRANCH   1   2
BRANCH   1  22
ATOM     22  C   UNL A   1      38.565  20.862  25.282  1.00  0.00     0.188 C 
BRANCH  22  23
ATOM     23  O   UNL A   1      39.306  21.539  26.273  1.00  0.00    -0.376 OA
BRANCH  23  24
ATOM     24  C   UNL A   1      39.099  22.942  26.416  1.00  0.00     0.202 C 
BRANCH  24  25
ATOM     25  C   UNL A   1      39.845  23.832  27.458  1.00  0.00     0.261 C 
BRANCH  25  26
ATOM     26  O   UNL A   1      41.035  24.544  27.067  1.00  0.00    -0.460 OA
BRANCH  26  27
ATOM     27  C   UNL A   1      40.871  25.809  26.617  1.00  0.00     0.338 C 
ATOM     28  O   UNL A   1      40.778  26.132  25.437  1.00  0.00    -0.246 OA
BRANCH  27  29
ATOM     29  C   UNL A   1      40.581  26.734  27.761  1.00  0.00     0.060 A 
ATOM     30  C   UNL A   1      41.259  27.962  27.792  1.00  0.00     0.016 A 
ATOM     31  C   UNL A   1      39.646  26.459  28.768  1.00  0.00     0.016 A 
ATOM     32  C   UNL A   1      41.051  28.880  28.834  1.00  0.00     0.010 A 
ATOM     33  C   UNL A   1      39.454  27.373  29.827  1.00  0.00     0.010 A 
ATOM     34  C   UNL A   1      40.176  28.581  29.886  1.00  0.00    -0.014 A 
BRANCH  34  35
ATOM     35  C   UNL A   1      40.181  29.418  31.129  1.00  0.00     0.031 A 
ATOM     36  C   UNL A   1      41.306  29.222  32.119  1.00  0.00     0.074 A 
ATOM     37  C   UNL A   1      39.251  30.358  31.394  1.00  0.00     0.049 A 
ATOM     38  N   UNL A   1      41.498  29.787  33.285  1.00  0.00    -0.248 NA
ATOM     39  C   UNL A   1      42.351  28.262  31.735  1.00  0.00     0.031 C 
ATOM     40  C   UNL A   1      38.145  30.731  30.518  1.00  0.00     0.029 A 
ATOM     41  N   UNL A   1      39.096  31.179  32.492  1.00  0.00    -0.354 N 
ATOM     42  C   UNL A   1      42.680  29.245  33.780  1.00  0.00     0.074 A 
ATOM     43  C   UNL A   1      43.150  28.297  32.791  1.00  0.00     0.031 C 
ATOM     44  C   UNL A   1      37.428  31.706  31.109  1.00  0.00     0.029 A 
ATOM     45  C   UNL A   1      37.994  32.001  32.427  1.00  0.00     0.049 A 
ATOM     46  H   UNL A   1      39.720  31.178  33.254  1.00  0.00     0.167 HD
ATOM     47  C   UNL A   1      43.319  29.497  34.948  1.00  0.00     0.031 A 
ATOM     48  C   UNL A   1      37.479  32.871  33.327  1.00  0.00     0.031 A 
ATOM     49  C   UNL A   1      42.851  30.406  35.961  1.00  0.00     0.049 A 
ATOM     50  C   UNL A   1      38.147  33.055  34.674  1.00  0.00     0.074 A 
ATOM     51  C   UNL A   1      43.429  30.695  37.187  1.00  0.00     0.029 A 
ATOM     52  N   UNL A   1      41.694  31.163  35.881  1.00  0.00    -0.354 N 
ATOM     53  N   UNL A   1      39.258  32.524  35.127  1.00  0.00    -0.248 NA
ATOM     54  C   UNL A   1      37.483  33.953  35.634  1.00  0.00     0.031 C 
ATOM     55  C   UNL A   1      42.588  31.576  37.875  1.00  0.00     0.029 A 
ATOM     56  C   UNL A   1      41.526  31.896  37.047  1.00  0.00     0.049 A 
ATOM     57  H   UNL A   1      41.081  31.179  35.111  1.00  0.00     0.167 HD
ATOM     58  C   UNL A   1      39.437  33.047  36.408  1.00  0.00     0.074 A 
ATOM     59  C   UNL A   1      38.332  33.947  36.652  1.00  0.00     0.031 C 
ATOM     60  C   UNL A   1      40.431  32.800  37.298  1.00  0.00     0.031 A 
BRANCH  47  61
ATOM     61  C   UNL A   1      44.582  28.723  35.223  1.00  0.00    -0.014 A 
ATOM     62  C   UNL A   1      45.842  29.219  34.845  1.00  0.00     0.010 A 
ATOM     63  C   UNL A   1      44.506  27.491  35.899  1.00  0.00     0.010 A 
ATOM     64  C   UNL A   1      46.998  28.476  35.098  1.00  0.00     0.020 A 
ATOM     65  C   UNL A   1      45.662  26.760  36.183  1.00  0.00     0.020 A 
ATOM     66  C   UNL A   1      46.900  27.250  35.763  1.00  0.00     0.054 A 
BRANCH  66  67
ATOM     67  S   UNL A   1      48.417  26.312  36.086  1.00  0.00     0.124 S 
ATOM     68  O   UNL A   1      47.986  24.941  35.821  1.00  0.00    -0.237 OA
ATOM     69  O   UNL A   1      49.353  26.875  35.115  1.00  0.00    -0.237 OA
ATOM     70  O   UNL A   1      48.721  26.608  37.483  1.00  0.00    -0.744 OA
ENDBRANCH  66  67
ENDBRANCH  47  61
BRANCH  48  71
ATOM     71  C   UNL A   1      36.230  33.632  33.019  1.00  0.00    -0.014 A 
ATOM     72  C   UNL A   1      36.258  35.030  32.855  1.00  0.00     0.010 A 
ATOM     73  C   UNL A   1      34.993  32.967  32.938  1.00  0.00     0.010 A 
ATOM     74  C   UNL A   1      35.076  35.746  32.632  1.00  0.00     0.020 A 
ATOM     75  C   UNL A   1      33.814  33.674  32.681  1.00  0.00     0.020 A 
ATOM     76  C   UNL A   1      33.861  35.062  32.541  1.00  0.00     0.054 A 
BRANCH  76  77
ATOM     77  S   UNL A   1      32.347  36.003  32.196  1.00  0.00     0.124 S 
ATOM     78  O   UNL A   1      31.309  35.095  32.670  1.00  0.00    -0.237 OA
ATOM     79  O   UNL A   1      32.543  37.212  32.992  1.00  0.00    -0.237 OA
ATOM     80  O   UNL A   1      32.392  36.204  30.750  1.00  0.00    -0.744 OA
ENDBRANCH  76  77
ENDBRANCH  48  71
BRANCH  60  81
ATOM     81  C   UNL A   1      40.414  33.540  38.615  1.00  0.00    -0.014 A 
ATOM     82  C   UNL A   1      41.057  34.781  38.775  1.00  0.00     0.010 A 
ATOM     83  C   UNL A   1      39.679  33.015  39.696  1.00  0.00     0.010 A 
ATOM     84  C   UNL A   1      40.988  35.467  39.993  1.00  0.00     0.020 A 
ATOM     85  C   UNL A   1      39.582  33.711  40.905  1.00  0.00     0.020 A 
ATOM     86  C   UNL A   1      40.248  34.928  41.050  1.00  0.00     0.054 A 
BRANCH  86  87
ATOM     87  S   UNL A   1      40.134  35.860  42.604  1.00  0.00     0.124 S 
ATOM     88  O   UNL A   1      38.824  36.496  42.484  1.00  0.00    -0.237 OA
ATOM     89  O   UNL A   1      40.230  34.809  43.615  1.00  0.00    -0.237 OA
ATOM     90  O   UNL A   1      41.275  36.771  42.550  1.00  0.00    -0.744 OA
ENDBRANCH  86  87
ENDBRANCH  60  81
ENDBRANCH  34  35
ENDBRANCH  27  29
ENDBRANCH  26  27
ENDBRANCH  25  26
ENDBRANCH  24  25
ENDBRANCH  23  24
ENDBRANCH  22  23
ENDBRANCH   1  22
TORSDOF 24
ENDMDL
MODEL 2
REMARK VINA RESULT:      -8.8      7.221     12.135
REMARK SMILES C[C@@H]1CC[C@@H](C(=O)OCCOCCOCCOC(=O)c2ccc(-c3c4nc(c(-c5ccc(S(=O)(=O)[O-])cc5)c5ccc([nH]5)c(-c5ccc(S(=O)(=O)[O-])cc5)c5nc(c(-c6ccc(S(=O)(=O)[O-])cc6)c6ccc3[nH]6)C=C5)C=C4)cc2)[C@H](SCC[NH+](C)C)C1
REMARK SMILES IDX 12 1 11 2 10 3 9 4 8 5 6 6 7 7 5 8 1 9 2 10 3 11 87 12 4 13
REMARK SMILES IDX 80 14 81 15 82 16 83 17 84 18 85 19 86 20 13 22 14 23 15 24
REMARK SMILES IDX 16 25 17 26 18 27 19 28 20 29 21 30 79 31 22 32 78 33 23 34
REMARK SMILES IDX 24 35 25 36 72 37 26 38 77 39 71 40 73 41 27 42 76 43 70 44
REMARK SMILES IDX 69 45 28 47 58 48 39 49 57 50 40 51 43 52 56 53 74 54 41 55
REMARK SMILES IDX 42 56 55 58 75 59 44 60 29 61 30 62 38 63 31 64 37 65 32 66
REMARK SMILES IDX 33 67 34 68 35 69 36 70 59 71 60 72 68 73 61 74 67 75 62 76
REMARK SMILES IDX 63 77 64 78 65 79 66 80 45 81 46 82 54 83 47 84 53 85 48 86
REMARK SMILES IDX 49 87 50 88 51 89 52 90
REMARK H PARENT 84 21 73 46 43 57
REMARK Flexibility Score: inf
ROOT
ATOM      1  C   UNL A   1      32.539  29.234  24.514  1.00  0.00     0.188 C 
ENDROOT
BRANCH   1   2
ATOM      2  O   UNL A   1      31.422  28.926  23.711  1.00  0.00    -0.376 OA
BRANCH   2   3
ATOM      3  C   UNL A   1      31.177  27.523  23.561  1.00  0.00     0.202 C 
BRANCH   3   4
ATOM      4  C   UNL A   1      29.774  26.949  23.936  1.00  0.00     0.261 C 
BRANCH   4   5
ATOM      5  O   UNL A   1      29.726  26.207  25.192  1.00  0.00    -0.463 OA
BRANCH   5   6
ATOM      6  C   UNL A   1      30.920  25.720  25.698  1.00  0.00     0.310 C 
ATOM      7  O   UNL A   1      31.408  26.119  26.746  1.00  0.00    -0.252 OA
BRANCH   6   8
ATOM      8  C   UNL A   1      31.545  24.597  24.785  1.00  0.00     0.112 C 
ATOM      9  C   UNL A   1      34.142  22.046  27.189  1.00  0.00     0.007 C 
ATOM     10  C   UNL A   1      33.141  23.190  26.954  1.00  0.00    -0.013 C 
ATOM     11  C   UNL A   1      31.712  22.747  26.601  1.00  0.00     0.004 C 
ATOM     12  C   UNL A   1      33.732  24.321  26.111  1.00  0.00     0.018 C 
ATOM     13  C   UNL A   1      31.022  23.290  25.336  1.00  0.00     0.017 C 
ATOM     14  C   UNL A   1      33.103  24.595  24.728  1.00  0.00     0.061 C 
BRANCH  14  15
ATOM     15  S   UNL A   1      34.330  23.933  23.363  1.00  0.00    -0.152 SA
BRANCH  15  16
ATOM     16  C   UNL A   1      35.404  22.434  23.756  1.00  0.00     0.131 C 
BRANCH  16  17
ATOM     17  C   UNL A   1      36.895  22.597  24.313  1.00  0.00     0.272 C 
BRANCH  17  18
ATOM     18  N   UNL A   1      37.324  21.664  25.377  1.00  0.00    -0.339 N 
ATOM     19  C   UNL A   1      37.470  20.266  24.971  1.00  0.00     0.332 C 
ATOM     20  C   UNL A   1      38.581  22.122  25.867  1.00  0.00     0.332 C 
ATOM     21  H   UNL A   1      36.582  21.667  26.078  1.00  0.00     0.347 HD
ENDBRANCH  17  18
ENDBRANCH  16  17
ENDBRANCH  15  16
ENDBRANCH  14  15
ENDBRANCH   6   8
ENDBRANCH   5   6
ENDBRANCH   4   5
ENDBRANCH   3   4
ENDBRANCH   2   3
ENDBRANCH   1   2
BRANCH   1  22
ATOM     22  C   UNL A   1      32.272  30.029  25.783  1.00  0.00     0.188 C 
BRANCH  22  23
ATOM     23  O   UNL A   1      32.254  29.366  27.027  1.00  0.00    -0.376 OA
BRANCH  23  24
ATOM     24  C   UNL A   1      33.490  28.866  27.532  1.00  0.00     0.202 C 
BRANCH  24  25
ATOM     25  C   UNL A   1      34.758  29.746  27.762  1.00  0.00     0.261 C 
BRANCH  25  26
ATOM     26  O   UNL A   1      36.029  29.116  28.013  1.00  0.00    -0.460 OA
BRANCH  26  27
ATOM     27  C   UNL A   1      36.704  29.518  29.114  1.00  0.00     0.338 C 
ATOM     28  O   UNL A   1      36.207  29.688  30.223  1.00  0.00    -0.246 OA
BRANCH  27  29
ATOM     29  C   UNL A   1      38.181  29.497  28.856  1.00  0.00     0.060 A 
ATOM     30  C   UNL A   1      38.605  29.451  27.519  1.00  0.00     0.016 A 
ATOM     31  C   UNL A   1      39.150  29.563  29.866  1.00  0.00     0.016 A 
ATOM     32  C   UNL A   1      39.971  29.420  27.193  1.00  0.00     0.010 A 
ATOM     33  C   UNL A   1      40.522  29.509  29.537  1.00  0.00     0.010 A 
ATOM     34  C   UNL A   1      40.947  29.408  28.198  1.00  0.00    -0.014 A 
BRANCH  34  35
ATOM     35  C   UNL A   1      42.369  29.078  27.861  1.00  0.00     0.031 A 
ATOM     36  C   UNL A   1      42.717  27.640  27.556  1.00  0.00     0.074 A 
ATOM     37  C   UNL A   1      43.348  30.003  27.786  1.00  0.00     0.049 A 
ATOM     38  N   UNL A   1      43.881  27.102  27.290  1.00  0.00    -0.248 NA
ATOM     39  C   UNL A   1      41.597  26.687  27.546  1.00  0.00     0.031 C 
ATOM     40  C   UNL A   1      43.175  31.440  27.974  1.00  0.00     0.029 A 
ATOM     41  N   UNL A   1      44.695  29.862  27.525  1.00  0.00    -0.354 N 
ATOM     42  C   UNL A   1      43.638  25.746  27.092  1.00  0.00     0.074 A 
ATOM     43  C   UNL A   1      42.216  25.546  27.282  1.00  0.00     0.031 C 
ATOM     44  C   UNL A   1      44.367  32.047  27.820  1.00  0.00     0.029 A 
ATOM     45  C   UNL A   1      45.402  31.043  27.566  1.00  0.00     0.049 A 
ATOM     46  H   UNL A   1      45.114  28.993  27.326  1.00  0.00     0.167 HD
ATOM     47  C   UNL A   1      44.507  24.751  26.790  1.00  0.00     0.031 A 
ATOM     48  C   UNL A   1      46.726  31.291  27.440  1.00  0.00     0.031 A 
ATOM     49  C   UNL A   1      45.928  24.920  26.634  1.00  0.00     0.049 A 
ATOM     50  C   UNL A   1      47.695  30.149  27.215  1.00  0.00     0.074 A 
ATOM     51  C   UNL A   1      46.880  23.954  26.354  1.00  0.00     0.029 A 
ATOM     52  N   UNL A   1      46.606  26.122  26.754  1.00  0.00    -0.354 N 
ATOM     53  N   UNL A   1      47.446  28.873  27.042  1.00  0.00    -0.248 NA
ATOM     54  C   UNL A   1      49.128  30.485  27.174  1.00  0.00     0.031 C 
ATOM     55  C   UNL A   1      48.142  24.559  26.371  1.00  0.00     0.029 A 
ATOM     56  C   UNL A   1      47.967  25.916  26.582  1.00  0.00     0.049 A 
ATOM     57  H   UNL A   1      46.185  26.993  26.934  1.00  0.00     0.167 HD
ATOM     58  C   UNL A   1      48.685  28.264  26.844  1.00  0.00     0.074 A 
ATOM     59  C   UNL A   1      49.681  29.311  26.901  1.00  0.00     0.031 C 
ATOM     60  C   UNL A   1      48.967  26.954  26.633  1.00  0.00     0.031 A 
BRANCH  47  61
ATOM     61  C   UNL A   1      43.944  23.359  26.664  1.00  0.00    -0.014 A 
ATOM     62  C   UNL A   1      43.106  22.816  27.655  1.00  0.00     0.010 A 
ATOM     63  C   UNL A   1      44.236  22.595  25.519  1.00  0.00     0.010 A 
ATOM     64  C   UNL A   1      42.608  21.517  27.522  1.00  0.00     0.020 A 
ATOM     65  C   UNL A   1      43.713  21.309  25.368  1.00  0.00     0.020 A 
ATOM     66  C   UNL A   1      42.917  20.771  26.380  1.00  0.00     0.054 A 
BRANCH  66  67
ATOM     67  S   UNL A   1      42.249  19.092  26.232  1.00  0.00     0.124 S 
ATOM     68  O   UNL A   1      40.865  19.352  25.844  1.00  0.00    -0.237 OA
ATOM     69  O   UNL A   1      43.093  18.505  25.194  1.00  0.00    -0.237 OA
ATOM     70  O   UNL A   1      42.425  18.527  27.567  1.00  0.00    -0.744 OA
ENDBRANCH  66  67
ENDBRANCH  47  61
BRANCH  48  71
ATOM     71  C   UNL A   1      47.252  32.685  27.560  1.00  0.00    -0.014 A 
ATOM     72  C   UNL A   1      47.538  33.243  28.820  1.00  0.00     0.010 A 
ATOM     73  C   UNL A   1      47.421  33.483  26.414  1.00  0.00     0.010 A 
ATOM     74  C   UNL A   1      47.967  34.571  28.932  1.00  0.00     0.020 A 
ATOM     75  C   UNL A   1      47.883  34.799  26.517  1.00  0.00     0.020 A 
ATOM     76  C   UNL A   1      48.142  35.340  27.778  1.00  0.00     0.054 A 
BRANCH  76  77
ATOM     77  S   UNL A   1      48.752  37.041  27.942  1.00  0.00     0.124 S 
ATOM     78  O   UNL A   1      47.721  37.803  27.245  1.00  0.00    -0.237 OA
ATOM     79  O   UNL A   1      48.800  37.219  29.390  1.00  0.00    -0.237 OA
ATOM     80  O   UNL A   1      50.056  37.002  27.282  1.00  0.00    -0.744 OA
ENDBRANCH  76  77
ENDBRANCH  48  71
BRANCH  60  81
ATOM     81  C   UNL A   1      50.407  26.559  26.400  1.00  0.00    -0.014 A 
ATOM     82  C   UNL A   1      50.982  26.580  25.116  1.00  0.00     0.010 A 
ATOM     83  C   UNL A   1      51.222  26.228  27.501  1.00  0.00     0.010 A 
ATOM     84  C   UNL A   1      52.330  26.252  24.936  1.00  0.00     0.020 A 
ATOM     85  C   UNL A   1      52.577  25.929  27.328  1.00  0.00     0.020 A 
ATOM     86  C   UNL A   1      53.121  25.931  26.044  1.00  0.00     0.054 A 
BRANCH  86  87
ATOM     87  S   UNL A   1      54.879  25.557  25.788  1.00  0.00     0.124 S 
ATOM     88  O   UNL A   1      54.830  24.183  25.294  1.00  0.00    -0.237 OA
ATOM     89  O   UNL A   1      55.281  26.562  24.806  1.00  0.00    -0.237 OA
ATOM     90  O   UNL A   1      55.467  25.720  27.115  1.00  0.00    -0.744 OA
ENDBRANCH  86  87
ENDBRANCH  60  81
ENDBRANCH  34  35
ENDBRANCH  27  29
ENDBRANCH  26  27
ENDBRANCH  25  26
ENDBRANCH  24  25
ENDBRANCH  23  24
ENDBRANCH  22  23
ENDBRANCH   1  22
TORSDOF 24
ENDMDL
MODEL 3
REMARK VINA RESULT:      -8.8      6.303     12.590
REMARK SMILES C[C@@H]1CC[C@@H](C(=O)OCCOCCOCCOC(=O)c2ccc(-c3c4nc(c(-c5ccc(S(=O)(=O)[O-])cc5)c5ccc([nH]5)c(-c5ccc(S(=O)(=O)[O-])cc5)c5nc(c(-c6ccc(S(=O)(=O)[O-])cc6)c6ccc3[nH]6)C=C5)C=C4)cc2)[C@H](SCC[NH+](C)C)C1
REMARK SMILES IDX 12 1 11 2 10 3 9 4 8 5 6 6 7 7 5 8 1 9 2 10 3 11 87 12 4 13
REMARK SMILES IDX 80 14 81 15 82 16 83 17 84 18 85 19 86 20 13 22 14 23 15 24
REMARK SMILES IDX 16 25 17 26 18 27 19 28 20 29 21 30 79 31 22 32 78 33 23 34
REMARK SMILES IDX 24 35 25 36 72 37 26 38 77 39 71 40 73 41 27 42 76 43 70 44
REMARK SMILES IDX 69 45 28 47 58 48 39 49 57 50 40 51 43 52 56 53 74 54 41 55
REMARK SMILES IDX 42 56 55 58 75 59 44 60 29 61 30 62 38 63 31 64 37 65 32 66
REMARK SMILES IDX 33 67 34 68 35 69 36 70 59 71 60 72 68 73 61 74 67 75 62 76
REMARK SMILES IDX 63 77 64 78 65 79 66 80 45 81 46 82 54 83 47 84 53 85 48 86
REMARK SMILES IDX 49 87 50 88 51 89 52 90
REMARK H PARENT 84 21 73 46 43 57
REMARK Flexibility Score: inf
ROOT
ATOM      1  C   UNL A   1      34.232  32.719  28.626  1.00  0.00     0.188 C 
ENDROOT
BRANCH   1   2
ATOM      2  O   UNL A   1      34.861  32.021  27.574  1.00  0.00    -0.376 OA
BRANCH   2   3
ATOM      3  C   UNL A   1      34.688  30.601  27.628  1.00  0.00     0.202 C 
BRANCH   3   4
ATOM      4  C   UNL A   1      33.675  29.918  26.654  1.00  0.00     0.261 C 
BRANCH   4   5
ATOM      5  O   UNL A   1      34.110  28.635  26.111  1.00  0.00    -0.463 OA
BRANCH   5   6
ATOM      6  C   UNL A   1      33.667  28.288  24.846  1.00  0.00     0.310 C 
ATOM      7  O   UNL A   1      33.582  29.093  23.929  1.00  0.00    -0.252 OA
BRANCH   6   8
ATOM      8  C   UNL A   1      33.314  26.755  24.732  1.00  0.00     0.112 C 
ATOM      9  C   UNL A   1      29.031  26.295  24.042  1.00  0.00     0.007 C 
ATOM     10  C   UNL A   1      30.336  27.088  24.231  1.00  0.00    -0.013 C 
ATOM     11  C   UNL A   1      31.334  26.993  23.067  1.00  0.00     0.004 C 
ATOM     12  C   UNL A   1      30.913  26.935  25.639  1.00  0.00     0.018 C 
ATOM     13  C   UNL A   1      32.791  26.564  23.326  1.00  0.00     0.017 C 
ATOM     14  C   UNL A   1      32.286  26.242  25.785  1.00  0.00     0.061 C 
BRANCH  14  15
ATOM     15  S   UNL A   1      31.987  24.457  26.514  1.00  0.00    -0.152 SA
BRANCH  15  16
ATOM     16  C   UNL A   1      32.454  22.958  25.472  1.00  0.00     0.131 C 
BRANCH  16  17
ATOM     17  C   UNL A   1      33.668  23.010  24.431  1.00  0.00     0.272 C 
BRANCH  17  18
ATOM     18  N   UNL A   1      35.014  22.681  24.948  1.00  0.00    -0.339 N 
ATOM     19  C   UNL A   1      35.707  23.764  25.646  1.00  0.00     0.332 C 
ATOM     20  C   UNL A   1      34.871  21.586  25.849  1.00  0.00     0.332 C 
ATOM     21  H   UNL A   1      35.591  22.471  24.133  1.00  0.00     0.347 HD
ENDBRANCH  17  18
ENDBRANCH  16  17
ENDBRANCH  15  16
ENDBRANCH  14  15
ENDBRANCH   6   8
ENDBRANCH   5   6
ENDBRANCH   4   5
ENDBRANCH   3   4
ENDBRANCH   2   3
ENDBRANCH   1   2
BRANCH   1  22
ATOM     22  C   UNL A   1      35.085  33.722  29.388  1.00  0.00     0.188 C 
BRANCH  22  23
ATOM     23  O   UNL A   1      34.861  33.919  30.766  1.00  0.00    -0.376 OA
BRANCH  23  24
ATOM     24  C   UNL A   1      36.000  34.067  31.611  1.00  0.00     0.202 C 
BRANCH  24  25
ATOM     25  C   UNL A   1      37.267  33.161  31.532  1.00  0.00     0.261 C 
BRANCH  25  26
ATOM     26  O   UNL A   1      37.227  31.827  32.075  1.00  0.00    -0.460 OA
BRANCH  26  27
ATOM     27  C   UNL A   1      36.827  30.840  31.241  1.00  0.00     0.338 C 
ATOM     28  O   UNL A   1      35.665  30.618  30.916  1.00  0.00    -0.246 OA
BRANCH  27  29
ATOM     29  C   UNL A   1      38.014  30.203  30.582  1.00  0.00     0.060 A 
ATOM     30  C   UNL A   1      38.884  29.457  31.392  1.00  0.00     0.016 A 
ATOM     31  C   UNL A   1      38.275  30.278  29.208  1.00  0.00     0.016 A 
ATOM     32  C   UNL A   1      40.023  28.837  30.853  1.00  0.00     0.010 A 
ATOM     33  C   UNL A   1      39.433  29.673  28.672  1.00  0.00     0.010 A 
ATOM     34  C   UNL A   1      40.335  28.970  29.494  1.00  0.00    -0.014 A 
BRANCH  34  35
ATOM     35  C   UNL A   1      41.686  28.566  28.990  1.00  0.00     0.031 A 
ATOM     36  C   UNL A   1      42.776  29.612  28.942  1.00  0.00     0.074 A 
ATOM     37  C   UNL A   1      41.989  27.309  28.605  1.00  0.00     0.049 A 
ATOM     38  N   UNL A   1      44.004  29.518  28.499  1.00  0.00    -0.248 NA
ATOM     39  C   UNL A   1      42.427  30.939  29.471  1.00  0.00     0.031 C 
ATOM     40  C   UNL A   1      41.087  26.163  28.656  1.00  0.00     0.029 A 
ATOM     41  N   UNL A   1      43.159  26.787  28.093  1.00  0.00    -0.354 N 
ATOM     42  C   UNL A   1      44.574  30.774  28.685  1.00  0.00     0.074 A 
ATOM     43  C   UNL A   1      43.549  31.614  29.269  1.00  0.00     0.031 C 
ATOM     44  C   UNL A   1      41.734  25.075  28.198  1.00  0.00     0.029 A 
ATOM     45  C   UNL A   1      43.086  25.449  27.776  1.00  0.00     0.049 A 
ATOM     46  H   UNL A   1      43.975  27.325  27.965  1.00  0.00     0.167 HD
ATOM     47  C   UNL A   1      45.826  31.203  28.393  1.00  0.00     0.031 A 
ATOM     48  C   UNL A   1      43.986  24.623  27.194  1.00  0.00     0.031 A 
ATOM     49  C   UNL A   1      46.848  30.397  27.778  1.00  0.00     0.049 A 
ATOM     50  C   UNL A   1      45.340  25.151  26.772  1.00  0.00     0.074 A 
ATOM     51  C   UNL A   1      48.135  30.768  27.425  1.00  0.00     0.029 A 
ATOM     52  N   UNL A   1      46.704  29.069  27.412  1.00  0.00    -0.354 N 
ATOM     53  N   UNL A   1      45.855  26.345  26.947  1.00  0.00    -0.248 NA
ATOM     54  C   UNL A   1      46.234  24.216  26.067  1.00  0.00     0.031 C 
ATOM     55  C   UNL A   1      48.747  29.684  26.786  1.00  0.00     0.029 A 
ATOM     56  C   UNL A   1      47.869  28.615  26.812  1.00  0.00     0.049 A 
ATOM     57  H   UNL A   1      45.896  28.527  27.558  1.00  0.00     0.167 HD
ATOM     58  C   UNL A   1      47.138  26.292  26.400  1.00  0.00     0.074 A 
ATOM     59  C   UNL A   1      47.328  24.947  25.905  1.00  0.00     0.031 C 
ATOM     60  C   UNL A   1      48.071  27.274  26.319  1.00  0.00     0.031 A 
BRANCH  47  61
ATOM     61  C   UNL A   1      46.145  32.646  28.686  1.00  0.00    -0.014 A 
ATOM     62  C   UNL A   1      46.698  33.037  29.918  1.00  0.00     0.010 A 
ATOM     63  C   UNL A   1      45.914  33.620  27.697  1.00  0.00     0.010 A 
ATOM     64  C   UNL A   1      46.973  34.384  30.171  1.00  0.00     0.020 A 
ATOM     65  C   UNL A   1      46.218  34.963  27.935  1.00  0.00     0.020 A 
ATOM     66  C   UNL A   1      46.728  35.338  29.179  1.00  0.00     0.054 A 
BRANCH  66  67
ATOM     67  S   UNL A   1      47.102  37.077  29.533  1.00  0.00     0.124 S 
ATOM     68  O   UNL A   1      48.266  36.962  30.408  1.00  0.00    -0.237 OA
ATOM     69  O   UNL A   1      47.366  37.623  28.204  1.00  0.00    -0.237 OA
ATOM     70  O   UNL A   1      45.887  37.571  30.176  1.00  0.00    -0.744 OA
ENDBRANCH  66  67
ENDBRANCH  47  61
BRANCH  48  71
ATOM     71  C   UNL A   1      43.641  23.193  26.926  1.00  0.00    -0.014 A 
ATOM     72  C   UNL A   1      44.051  22.562  25.736  1.00  0.00     0.010 A 
ATOM     73  C   UNL A   1      42.855  22.467  27.840  1.00  0.00     0.010 A 
ATOM     74  C   UNL A   1      43.669  21.244  25.460  1.00  0.00     0.020 A 
ATOM     75  C   UNL A   1      42.500  21.138  27.584  1.00  0.00     0.020 A 
ATOM     76  C   UNL A   1      42.901  20.538  26.389  1.00  0.00     0.054 A 
BRANCH  76  77
ATOM     77  S   UNL A   1      42.464  18.812  26.036  1.00  0.00     0.124 S 
ATOM     78  O   UNL A   1      41.041  18.913  25.730  1.00  0.00    -0.237 OA
ATOM     79  O   UNL A   1      43.334  18.493  24.908  1.00  0.00    -0.237 OA
ATOM     80  O   UNL A   1      42.789  18.116  27.280  1.00  0.00    -0.744 OA
ENDBRANCH  76  77
ENDBRANCH  48  71
BRANCH  60  81
ATOM     81  C   UNL A   1      49.414  26.939  25.713  1.00  0.00    -0.014 A 
ATOM     82  C   UNL A   1      49.762  27.347  24.413  1.00  0.00     0.010 A 
ATOM     83  C   UNL A   1      50.374  26.262  26.490  1.00  0.00     0.010 A 
ATOM     84  C   UNL A   1      51.029  27.061  23.893  1.00  0.00     0.020 A 
ATOM     85  C   UNL A   1      51.653  26.001  25.985  1.00  0.00     0.020 A 
ATOM     86  C   UNL A   1      51.968  26.391  24.684  1.00  0.00     0.054 A 
BRANCH  86  87
ATOM     87  S   UNL A   1      53.621  26.075  24.003  1.00  0.00     0.124 S 
ATOM     88  O   UNL A   1      54.337  27.298  24.360  1.00  0.00    -0.237 OA
ATOM     89  O   UNL A   1      54.038  24.873  24.721  1.00  0.00    -0.237 OA
ATOM     90  O   UNL A   1      53.381  25.890  22.574  1.00  0.00    -0.744 OA
ENDBRANCH  86  87
ENDBRANCH  60  81
ENDBRANCH  34  35
ENDBRANCH  27  29
ENDBRANCH  26  27
ENDBRANCH  25  26
ENDBRANCH  24  25
ENDBRANCH  23  24
ENDBRANCH  22  23
ENDBRANCH   1  22
TORSDOF 24
ENDMDL
