MODEL 1
REMARK VINA RESULT:     -10.6      0.000      0.000
REMARK SMILES CCOC(=O)c1ccc(NC(=O)[C@@H]2[C@H]3c4ccccc4[C@H](c4ccccc43)[C@@H]2C(=O)OCCOCCOCCOC(=O)c2ccc(-c3c4nc(c(-c5ccc(S(=O)(=O)[O-])cc5)c5ccc([nH]5)c(-c5ccc(S(=O)(=O)[O-])cc5)c5nc(c(-c6ccc(S(=O)(=O)[O-])cc6)c6ccc3[nH]6)C=C5)C=C4)cc2)cc1
REMARK SMILES IDX 35 1 34 2 33 3 32 4 31 5 29 6 30 7 28 8 13 9 14 10 27 11
REMARK SMILES IDX 15 12 21 13 26 14 22 15 20 16 16 17 25 18 23 19 19 20 17 21
REMARK SMILES IDX 24 22 18 23 11 24 10 25 12 27 9 28 6 29 7 30 104 31 8 32
REMARK SMILES IDX 103 33 4 34 5 35 3 36 2 37 1 38 36 39 37 40 38 41 39 42
REMARK SMILES IDX 40 43 41 44 42 45 43 46 44 47 102 48 45 49 101 50 46 51
REMARK SMILES IDX 47 52 48 53 95 54 49 55 100 56 94 57 96 58 50 59 99 60 93 61
REMARK SMILES IDX 92 62 51 64 81 65 62 66 80 67 63 68 66 69 79 70 97 71 64 72
REMARK SMILES IDX 65 73 78 75 98 76 67 77 52 78 53 79 61 80 54 81 60 82 55 83
REMARK SMILES IDX 56 84 57 85 58 86 59 87 82 88 83 89 91 90 84 91 90 92 85 93
REMARK SMILES IDX 86 94 87 95 88 96 89 97 68 98 69 99 77 100 70 101 76 102
REMARK SMILES IDX 71 103 72 104 73 105 74 106 75 107
REMARK H PARENT 10 26 96 63 66 74
REMARK Flexibility Score: inf
ROOT
ATOM      1  C   UNL A   1      33.892  31.005  27.370  1.00  0.00     0.188 C 
ENDROOT
BRANCH   1   2
ATOM      2  O   UNL A   1      32.714  30.218  27.316  1.00  0.00    -0.376 OA
BRANCH   2   3
ATOM      3  C   UNL A   1      32.883  28.824  27.141  1.00  0.00     0.202 C 
BRANCH   3   4
ATOM      4  C   UNL A   1      31.574  28.057  27.034  1.00  0.00     0.261 C 
BRANCH   4   5
ATOM      5  O   UNL A   1      31.654  26.617  27.120  1.00  0.00    -0.463 OA
BRANCH   5   6
ATOM      6  C   UNL A   1      31.230  25.814  26.096  1.00  0.00     0.310 C 
ATOM      7  O   UNL A   1      30.070  25.632  25.766  1.00  0.00    -0.252 OA
BRANCH   6   8
ATOM      8  C   UNL A   1      32.387  24.965  25.646  1.00  0.00     0.124 C 
ATOM      9  C   UNL A   1      32.389  23.452  25.430  1.00  0.00     0.106 C 
ATOM     10  C   UNL A   1      33.433  23.280  24.225  1.00  0.00     0.063 C 
ATOM     11  C   UNL A   1      34.778  23.356  24.926  1.00  0.00    -0.036 A 
ATOM     12  C   UNL A   1      33.418  24.545  23.249  1.00  0.00    -0.036 A 
ATOM     13  C   UNL A   1      33.830  25.598  25.418  1.00  0.00     0.065 C 
ATOM     14  C   UNL A   1      35.743  22.358  24.928  1.00  0.00     0.004 A 
ATOM     15  C   UNL A   1      34.995  24.608  25.555  1.00  0.00    -0.036 A 
ATOM     16  C   UNL A   1      33.749  25.787  23.912  1.00  0.00    -0.036 A 
ATOM     17  C   UNL A   1      32.923  24.626  21.962  1.00  0.00     0.004 A 
ATOM     18  C   UNL A   1      36.977  22.633  25.510  1.00  0.00     0.000 A 
ATOM     19  C   UNL A   1      36.261  24.899  26.035  1.00  0.00     0.004 A 
ATOM     20  C   UNL A   1      33.661  27.039  23.324  1.00  0.00     0.004 A 
ATOM     21  C   UNL A   1      32.808  25.902  21.365  1.00  0.00     0.000 A 
ATOM     22  C   UNL A   1      37.242  23.902  26.036  1.00  0.00     0.000 A 
ATOM     23  C   UNL A   1      33.184  27.088  22.029  1.00  0.00     0.000 A 
BRANCH   9  24
ATOM     24  C   UNL A   1      32.620  22.419  26.578  1.00  0.00     0.229 C 
ATOM     25  N   UNL A   1      32.822  21.068  26.497  1.00  0.00    -0.326 N 
ATOM     26  H   UNL A   1      32.717  20.610  27.361  1.00  0.00     0.169 HD
ATOM     27  O   UNL A   1      32.454  22.842  27.738  1.00  0.00    -0.274 OA
BRANCH  25  28
ATOM     28  C   UNL A   1      33.145  20.198  25.450  1.00  0.00     0.041 A 
ATOM     29  C   UNL A   1      33.721  17.947  23.936  1.00  0.00     0.060 A 
ATOM     30  C   UNL A   1      32.459  18.543  23.851  1.00  0.00     0.018 A 
ATOM     31  C   UNL A   1      34.769  18.651  24.538  1.00  0.00     0.018 A 
ATOM     32  C   UNL A   1      32.185  19.685  24.598  1.00  0.00     0.027 A 
ATOM     33  C   UNL A   1      34.479  19.797  25.290  1.00  0.00     0.027 A 
BRANCH  29  34
ATOM     34  C   UNL A   1      33.880  16.477  23.738  1.00  0.00     0.338 C 
ATOM     35  O   UNL A   1      34.960  15.913  23.673  1.00  0.00    -0.246 OA
BRANCH  34  36
ATOM     36  O   UNL A   1      32.664  15.909  23.974  1.00  0.00    -0.462 OA
BRANCH  36  37
ATOM     37  C   UNL A   1      32.535  15.064  25.128  1.00  0.00     0.230 C 
ATOM     38  C   UNL A   1      32.511  15.924  26.378  1.00  0.00     0.049 C 
ENDBRANCH  36  37
ENDBRANCH  34  36
ENDBRANCH  29  34
ENDBRANCH  25  28
ENDBRANCH   9  24
ENDBRANCH   6   8
ENDBRANCH   5   6
ENDBRANCH   4   5
ENDBRANCH   3   4
ENDBRANCH   2   3
ENDBRANCH   1   2
BRANCH   1  39
ATOM     39  C   UNL A   1      33.717  32.360  28.088  1.00  0.00     0.188 C 
BRANCH  39  40
ATOM     40  O   UNL A   1      34.837  33.226  28.247  1.00  0.00    -0.376 OA
BRANCH  40  41
ATOM     41  C   UNL A   1      34.615  34.601  28.510  1.00  0.00     0.202 C 
BRANCH  41  42
ATOM     42  C   UNL A   1      33.160  35.057  28.702  1.00  0.00     0.261 C 
BRANCH  42  43
ATOM     43  O   UNL A   1      32.565  34.716  29.973  1.00  0.00    -0.460 OA
BRANCH  43  44
ATOM     44  C   UNL A   1      33.025  35.397  31.055  1.00  0.00     0.338 C 
ATOM     45  O   UNL A   1      32.507  36.385  31.547  1.00  0.00    -0.246 OA
BRANCH  44  46
ATOM     46  C   UNL A   1      34.166  34.686  31.713  1.00  0.00     0.060 A 
ATOM     47  C   UNL A   1      35.274  35.456  32.091  1.00  0.00     0.016 A 
ATOM     48  C   UNL A   1      34.195  33.305  31.935  1.00  0.00     0.016 A 
ATOM     49  C   UNL A   1      36.415  34.848  32.637  1.00  0.00     0.010 A 
ATOM     50  C   UNL A   1      35.351  32.694  32.468  1.00  0.00     0.010 A 
ATOM     51  C   UNL A   1      36.485  33.454  32.803  1.00  0.00    -0.014 A 
BRANCH  51  52
ATOM     52  C   UNL A   1      37.809  32.824  33.122  1.00  0.00     0.031 A 
ATOM     53  C   UNL A   1      38.337  32.944  34.530  1.00  0.00     0.074 A 
ATOM     54  C   UNL A   1      38.571  32.169  32.222  1.00  0.00     0.049 A 
ATOM     55  N   UNL A   1      39.389  32.389  35.077  1.00  0.00    -0.248 NA
ATOM     56  C   UNL A   1      37.596  33.847  35.423  1.00  0.00     0.031 C 
ATOM     57  C   UNL A   1      38.280  32.037  30.800  1.00  0.00     0.029 A 
ATOM     58  N   UNL A   1      39.743  31.452  32.385  1.00  0.00    -0.354 N 
ATOM     59  C   UNL A   1      39.475  32.924  36.357  1.00  0.00     0.074 A 
ATOM     60  C   UNL A   1      38.336  33.806  36.519  1.00  0.00     0.031 C 
ATOM     61  C   UNL A   1      39.190  31.213  30.248  1.00  0.00     0.029 A 
ATOM     62  C   UNL A   1      40.114  30.732  31.268  1.00  0.00     0.049 A 
ATOM     63  H   UNL A   1      40.265  31.457  33.220  1.00  0.00     0.167 HD
ATOM     64  C   UNL A   1      40.438  32.755  37.296  1.00  0.00     0.031 A 
ATOM     65  C   UNL A   1      41.043  29.761  31.106  1.00  0.00     0.031 A 
ATOM     66  C   UNL A   1      41.616  31.945  37.142  1.00  0.00     0.049 A 
ATOM     67  C   UNL A   1      42.010  29.466  32.220  1.00  0.00     0.074 A 
ATOM     68  C   UNL A   1      42.664  31.769  38.030  1.00  0.00     0.029 A 
ATOM     69  N   UNL A   1      41.916  31.191  36.021  1.00  0.00    -0.354 N 
ATOM     70  N   UNL A   1      42.051  29.954  33.434  1.00  0.00    -0.248 NA
ATOM     71  C   UNL A   1      43.094  28.514  31.913  1.00  0.00     0.031 C 
ATOM     72  C   UNL A   1      43.621  30.943  37.428  1.00  0.00     0.029 A 
ATOM     73  C   UNL A   1      43.141  30.562  36.187  1.00  0.00     0.049 A 
ATOM     74  H   UNL A   1      41.345  31.112  35.223  1.00  0.00     0.167 HD
ATOM     75  C   UNL A   1      43.187  29.403  34.015  1.00  0.00     0.074 A 
ATOM     76  C   UNL A   1      43.757  28.481  33.059  1.00  0.00     0.031 C 
ATOM     77  C   UNL A   1      43.737  29.681  35.221  1.00  0.00     0.031 A 
BRANCH  64  78
ATOM     78  C   UNL A   1      40.299  33.585  38.542  1.00  0.00    -0.014 A 
ATOM     79  C   UNL A   1      39.648  33.091  39.686  1.00  0.00     0.010 A 
ATOM     80  C   UNL A   1      40.778  34.908  38.535  1.00  0.00     0.010 A 
ATOM     81  C   UNL A   1      39.417  33.932  40.777  1.00  0.00     0.020 A 
ATOM     82  C   UNL A   1      40.574  35.741  39.634  1.00  0.00     0.020 A 
ATOM     83  C   UNL A   1      39.866  35.256  40.737  1.00  0.00     0.054 A 
BRANCH  83  84
ATOM     84  S   UNL A   1      39.508  36.347  42.138  1.00  0.00     0.124 S 
ATOM     85  O   UNL A   1      40.771  36.316  42.871  1.00  0.00    -0.237 OA
ATOM     86  O   UNL A   1      39.189  37.615  41.489  1.00  0.00    -0.237 OA
ATOM     87  O   UNL A   1      38.385  35.693  42.806  1.00  0.00    -0.744 OA
ENDBRANCH  83  84
ENDBRANCH  64  78
BRANCH  65  88
ATOM     88  C   UNL A   1      41.088  28.883  29.896  1.00  0.00    -0.014 A 
ATOM     89  C   UNL A   1      41.967  29.238  28.846  1.00  0.00     0.010 A 
ATOM     90  C   UNL A   1      40.270  27.756  29.732  1.00  0.00     0.010 A 
ATOM     91  C   UNL A   1      42.065  28.461  27.688  1.00  0.00     0.020 A 
ATOM     92  C   UNL A   1      40.381  26.961  28.581  1.00  0.00     0.020 A 
ATOM     93  C   UNL A   1      41.290  27.309  27.575  1.00  0.00     0.054 A 
BRANCH  93  94
ATOM     94  S   UNL A   1      41.599  26.177  26.189  1.00  0.00     0.124 S 
ATOM     95  O   UNL A   1      42.827  25.507  26.602  1.00  0.00    -0.237 OA
ATOM     96  O   UNL A   1      40.395  25.349  26.176  1.00  0.00    -0.237 OA
ATOM     97  O   UNL A   1      41.724  27.081  25.047  1.00  0.00    -0.744 OA
ENDBRANCH  93  94
ENDBRANCH  65  88
BRANCH  77  98
ATOM     98  C   UNL A   1      45.057  29.034  35.533  1.00  0.00    -0.014 A 
ATOM     99  C   UNL A   1      46.228  29.445  34.865  1.00  0.00     0.010 A 
ATOM    100  C   UNL A   1      45.142  28.019  36.500  1.00  0.00     0.010 A 
ATOM    101  C   UNL A   1      47.451  28.825  35.129  1.00  0.00     0.020 A 
ATOM    102  C   UNL A   1      46.370  27.412  36.785  1.00  0.00     0.020 A 
ATOM    103  C   UNL A   1      47.513  27.809  36.086  1.00  0.00     0.054 A 
BRANCH 103 104
ATOM    104  S   UNL A   1      49.119  27.040  36.435  1.00  0.00     0.124 S 
ATOM    105  O   UNL A   1      49.752  28.036  37.296  1.00  0.00    -0.237 OA
ATOM    106  O   UNL A   1      48.742  25.790  37.091  1.00  0.00    -0.237 OA
ATOM    107  O   UNL A   1      49.722  26.884  35.113  1.00  0.00    -0.744 OA
ENDBRANCH 103 104
ENDBRANCH  77  98
ENDBRANCH  51  52
ENDBRANCH  44  46
ENDBRANCH  43  44
ENDBRANCH  42  43
ENDBRANCH  41  42
ENDBRANCH  40  41
ENDBRANCH  39  40
ENDBRANCH   1  39
TORSDOF 25
ENDMDL
MODEL 2
REMARK VINA RESULT:      -9.7      7.946     13.535
REMARK SMILES CCOC(=O)c1ccc(NC(=O)[C@@H]2[C@H]3c4ccccc4[C@H](c4ccccc43)[C@@H]2C(=O)OCCOCCOCCOC(=O)c2ccc(-c3c4nc(c(-c5ccc(S(=O)(=O)[O-])cc5)c5ccc([nH]5)c(-c5ccc(S(=O)(=O)[O-])cc5)c5nc(c(-c6ccc(S(=O)(=O)[O-])cc6)c6ccc3[nH]6)C=C5)C=C4)cc2)cc1
REMARK SMILES IDX 35 1 34 2 33 3 32 4 31 5 29 6 30 7 28 8 13 9 14 10 27 11
REMARK SMILES IDX 15 12 21 13 26 14 22 15 20 16 16 17 25 18 23 19 19 20 17 21
REMARK SMILES IDX 24 22 18 23 11 24 10 25 12 27 9 28 6 29 7 30 104 31 8 32
REMARK SMILES IDX 103 33 4 34 5 35 3 36 2 37 1 38 36 39 37 40 38 41 39 42
REMARK SMILES IDX 40 43 41 44 42 45 43 46 44 47 102 48 45 49 101 50 46 51
REMARK SMILES IDX 47 52 48 53 95 54 49 55 100 56 94 57 96 58 50 59 99 60 93 61
REMARK SMILES IDX 92 62 51 64 81 65 62 66 80 67 63 68 66 69 79 70 97 71 64 72
REMARK SMILES IDX 65 73 78 75 98 76 67 77 52 78 53 79 61 80 54 81 60 82 55 83
REMARK SMILES IDX 56 84 57 85 58 86 59 87 82 88 83 89 91 90 84 91 90 92 85 93
REMARK SMILES IDX 86 94 87 95 88 96 89 97 68 98 69 99 77 100 70 101 76 102
REMARK SMILES IDX 71 103 72 104 73 105 74 106 75 107
REMARK H PARENT 10 26 96 63 66 74
REMARK Flexibility Score: inf
ROOT
ATOM      1  C   UNL A   1      35.674  32.685  29.171  1.00  0.00     0.188 C 
ENDROOT
BRANCH   1   2
ATOM      2  O   UNL A   1      35.825  32.049  27.911  1.00  0.00    -0.376 OA
BRANCH   2   3
ATOM      3  C   UNL A   1      36.026  30.648  27.921  1.00  0.00     0.202 C 
BRANCH   3   4
ATOM      4  C   UNL A   1      37.486  30.238  27.820  1.00  0.00     0.261 C 
BRANCH   4   5
ATOM      5  O   UNL A   1      38.255  30.259  29.042  1.00  0.00    -0.463 OA
BRANCH   5   6
ATOM      6  C   UNL A   1      38.522  29.112  29.739  1.00  0.00     0.310 C 
ATOM      7  O   UNL A   1      37.694  28.308  30.136  1.00  0.00    -0.252 OA
BRANCH   6   8
ATOM      8  C   UNL A   1      39.953  29.156  30.199  1.00  0.00     0.124 C 
ATOM      9  C   UNL A   1      40.601  28.287  31.276  1.00  0.00     0.106 C 
ATOM     10  C   UNL A   1      42.104  28.139  30.737  1.00  0.00     0.063 C 
ATOM     11  C   UNL A   1      42.748  29.447  31.162  1.00  0.00    -0.036 A 
ATOM     12  C   UNL A   1      42.162  28.163  29.141  1.00  0.00    -0.036 A 
ATOM     13  C   UNL A   1      40.967  30.242  29.626  1.00  0.00     0.065 C 
ATOM     14  C   UNL A   1      43.846  29.569  32.004  1.00  0.00     0.004 A 
ATOM     15  C   UNL A   1      42.144  30.575  30.553  1.00  0.00    -0.036 A 
ATOM     16  C   UNL A   1      41.631  29.380  28.565  1.00  0.00    -0.036 A 
ATOM     17  C   UNL A   1      42.429  27.118  28.278  1.00  0.00     0.004 A 
ATOM     18  C   UNL A   1      44.397  30.833  32.193  1.00  0.00     0.000 A 
ATOM     19  C   UNL A   1      42.768  31.806  30.669  1.00  0.00     0.004 A 
ATOM     20  C   UNL A   1      41.432  29.585  27.208  1.00  0.00     0.004 A 
ATOM     21  C   UNL A   1      42.205  27.313  26.897  1.00  0.00     0.000 A 
ATOM     22  C   UNL A   1      43.878  31.939  31.510  1.00  0.00     0.000 A 
ATOM     23  C   UNL A   1      41.728  28.530  26.368  1.00  0.00     0.000 A 
BRANCH   9  24
ATOM     24  C   UNL A   1      40.539  28.615  32.802  1.00  0.00     0.229 C 
ATOM     25  N   UNL A   1      39.962  29.684  33.433  1.00  0.00    -0.326 N 
ATOM     26  H   UNL A   1      40.250  29.781  34.368  1.00  0.00     0.169 HD
ATOM     27  O   UNL A   1      41.229  27.894  33.546  1.00  0.00    -0.274 OA
BRANCH  25  28
ATOM     28  C   UNL A   1      39.052  30.669  33.034  1.00  0.00     0.041 A 
ATOM     29  C   UNL A   1      37.191  32.724  33.007  1.00  0.00     0.060 A 
ATOM     30  C   UNL A   1      38.530  32.990  32.706  1.00  0.00     0.018 A 
ATOM     31  C   UNL A   1      36.744  31.399  33.019  1.00  0.00     0.018 A 
ATOM     32  C   UNL A   1      39.454  31.949  32.701  1.00  0.00     0.027 A 
ATOM     33  C   UNL A   1      37.685  30.361  33.018  1.00  0.00     0.027 A 
BRANCH  29  34
ATOM     34  C   UNL A   1      36.340  33.763  33.658  1.00  0.00     0.338 C 
ATOM     35  O   UNL A   1      36.542  34.202  34.779  1.00  0.00    -0.246 OA
BRANCH  34  36
ATOM     36  O   UNL A   1      35.567  34.314  32.681  1.00  0.00    -0.462 OA
BRANCH  36  37
ATOM     37  C   UNL A   1      34.708  35.406  33.047  1.00  0.00     0.230 C 
ATOM     38  C   UNL A   1      33.832  35.772  31.864  1.00  0.00     0.049 C 
ENDBRANCH  36  37
ENDBRANCH  34  36
ENDBRANCH  29  34
ENDBRANCH  25  28
ENDBRANCH   9  24
ENDBRANCH   6   8
ENDBRANCH   5   6
ENDBRANCH   4   5
ENDBRANCH   3   4
ENDBRANCH   2   3
ENDBRANCH   1   2
BRANCH   1  39
ATOM     39  C   UNL A   1      36.644  33.862  29.406  1.00  0.00     0.188 C 
BRANCH  39  40
ATOM     40  O   UNL A   1      38.048  33.657  29.280  1.00  0.00    -0.376 OA
BRANCH  40  41
ATOM     41  C   UNL A   1      38.924  34.760  29.437  1.00  0.00     0.202 C 
BRANCH  41  42
ATOM     42  C   UNL A   1      40.360  34.602  28.913  1.00  0.00     0.261 C 
BRANCH  42  43
ATOM     43  O   UNL A   1      41.157  35.805  28.910  1.00  0.00    -0.460 OA
BRANCH  43  44
ATOM     44  C   UNL A   1      41.790  36.105  27.745  1.00  0.00     0.338 C 
ATOM     45  O   UNL A   1      41.635  37.123  27.092  1.00  0.00    -0.246 OA
BRANCH  44  46
ATOM     46  C   UNL A   1      42.864  35.112  27.426  1.00  0.00     0.060 A 
ATOM     47  C   UNL A   1      43.561  34.547  28.502  1.00  0.00     0.016 A 
ATOM     48  C   UNL A   1      43.224  34.752  26.122  1.00  0.00     0.016 A 
ATOM     49  C   UNL A   1      44.635  33.672  28.278  1.00  0.00     0.010 A 
ATOM     50  C   UNL A   1      44.317  33.885  25.900  1.00  0.00     0.010 A 
ATOM     51  C   UNL A   1      45.052  33.354  26.974  1.00  0.00    -0.014 A 
BRANCH  51  52
ATOM     52  C   UNL A   1      46.363  32.649  26.780  1.00  0.00     0.031 A 
ATOM     53  C   UNL A   1      46.351  31.149  26.618  1.00  0.00     0.074 A 
ATOM     54  C   UNL A   1      47.559  33.272  26.759  1.00  0.00     0.049 A 
ATOM     55  N   UNL A   1      47.331  30.334  26.322  1.00  0.00    -0.248 NA
ATOM     56  C   UNL A   1      45.064  30.483  26.867  1.00  0.00     0.031 C 
ATOM     57  C   UNL A   1      47.782  34.691  26.997  1.00  0.00     0.029 A 
ATOM     58  N   UNL A   1      48.825  32.782  26.485  1.00  0.00    -0.354 N 
ATOM     59  C   UNL A   1      46.798  29.054  26.412  1.00  0.00     0.074 A 
ATOM     60  C   UNL A   1      45.394  29.208  26.738  1.00  0.00     0.031 C 
ATOM     61  C   UNL A   1      49.079  34.970  26.767  1.00  0.00     0.029 A 
ATOM     62  C   UNL A   1      49.781  33.767  26.339  1.00  0.00     0.049 A 
ATOM     63  H   UNL A   1      49.024  31.821  26.403  1.00  0.00     0.167 HD
ATOM     64  C   UNL A   1      47.419  27.854  26.299  1.00  0.00     0.031 A 
ATOM     65  C   UNL A   1      51.046  33.710  25.861  1.00  0.00     0.031 A 
ATOM     66  C   UNL A   1      48.822  27.665  26.047  1.00  0.00     0.049 A 
ATOM     67  C   UNL A   1      51.676  32.373  25.582  1.00  0.00     0.074 A 
ATOM     68  C   UNL A   1      49.533  26.479  25.973  1.00  0.00     0.029 A 
ATOM     69  N   UNL A   1      49.734  28.687  25.847  1.00  0.00    -0.354 N 
ATOM     70  N   UNL A   1      51.144  31.179  25.636  1.00  0.00    -0.248 NA
ATOM     71  C   UNL A   1      53.106  32.384  25.221  1.00  0.00     0.031 C 
ATOM     72  C   UNL A   1      50.885  26.784  25.773  1.00  0.00     0.029 A 
ATOM     73  C   UNL A   1      51.003  28.159  25.669  1.00  0.00     0.049 A 
ATOM     74  H   UNL A   1      49.515  29.646  25.834  1.00  0.00     0.167 HD
ATOM     75  C   UNL A   1      52.183  30.298  25.361  1.00  0.00     0.074 A 
ATOM     76  C   UNL A   1      53.352  31.093  25.055  1.00  0.00     0.031 C 
ATOM     77  C   UNL A   1      52.179  28.945  25.411  1.00  0.00     0.031 A 
BRANCH  64  78
ATOM     78  C   UNL A   1      46.573  26.644  26.581  1.00  0.00    -0.014 A 
ATOM     79  C   UNL A   1      45.828  26.014  25.567  1.00  0.00     0.010 A 
ATOM     80  C   UNL A   1      46.481  26.171  27.902  1.00  0.00     0.010 A 
ATOM     81  C   UNL A   1      44.950  24.976  25.888  1.00  0.00     0.020 A 
ATOM     82  C   UNL A   1      45.626  25.116  28.220  1.00  0.00     0.020 A 
ATOM     83  C   UNL A   1      44.841  24.547  27.215  1.00  0.00     0.054 A 
BRANCH  83  84
ATOM     84  S   UNL A   1      43.655  23.238  27.618  1.00  0.00     0.124 S 
ATOM     85  O   UNL A   1      42.390  23.848  27.216  1.00  0.00    -0.237 OA
ATOM     86  O   UNL A   1      44.106  22.125  26.788  1.00  0.00    -0.237 OA
ATOM     87  O   UNL A   1      43.826  23.049  29.057  1.00  0.00    -0.744 OA
ENDBRANCH  83  84
ENDBRANCH  64  78
BRANCH  65  88
ATOM     88  C   UNL A   1      51.823  34.935  25.492  1.00  0.00    -0.014 A 
ATOM     89  C   UNL A   1      52.621  35.544  26.488  1.00  0.00     0.010 A 
ATOM     90  C   UNL A   1      51.761  35.532  24.226  1.00  0.00     0.010 A 
ATOM     91  C   UNL A   1      53.377  36.687  26.214  1.00  0.00     0.020 A 
ATOM     92  C   UNL A   1      52.536  36.667  23.938  1.00  0.00     0.020 A 
ATOM     93  C   UNL A   1      53.351  37.226  24.929  1.00  0.00     0.054 A 
BRANCH  93  94
ATOM     94  S   UNL A   1      54.518  38.554  24.513  1.00  0.00     0.124 S 
ATOM     95  O   UNL A   1      55.787  38.013  24.986  1.00  0.00    -0.237 OA
ATOM     96  O   UNL A   1      54.374  38.664  23.062  1.00  0.00    -0.237 OA
ATOM     97  O   UNL A   1      53.997  39.697  25.260  1.00  0.00    -0.744 OA
ENDBRANCH  93  94
ENDBRANCH  65  88
BRANCH  77  98
ATOM     98  C   UNL A   1      53.496  28.251  25.203  1.00  0.00    -0.014 A 
ATOM     99  C   UNL A   1      54.409  28.121  26.268  1.00  0.00     0.010 A 
ATOM    100  C   UNL A   1      53.829  27.716  23.947  1.00  0.00     0.010 A 
ATOM    101  C   UNL A   1      55.647  27.505  26.071  1.00  0.00     0.020 A 
ATOM    102  C   UNL A   1      55.057  27.077  23.752  1.00  0.00     0.020 A 
ATOM    103  C   UNL A   1      55.964  26.990  24.812  1.00  0.00     0.054 A 
BRANCH 103 104
ATOM    104  S   UNL A   1      57.565  26.165  24.588  1.00  0.00     0.124 S 
ATOM    105  O   UNL A   1      57.167  24.772  24.405  1.00  0.00    -0.237 OA
ATOM    106  O   UNL A   1      58.104  26.826  23.401  1.00  0.00    -0.237 OA
ATOM    107  O   UNL A   1      58.278  26.452  25.831  1.00  0.00    -0.744 OA
ENDBRANCH 103 104
ENDBRANCH  77  98
ENDBRANCH  51  52
ENDBRANCH  44  46
ENDBRANCH  43  44
ENDBRANCH  42  43
ENDBRANCH  41  42
ENDBRANCH  40  41
ENDBRANCH  39  40
ENDBRANCH   1  39
TORSDOF 25
ENDMDL
MODEL 3
REMARK VINA RESULT:      -9.4      5.932      8.653
REMARK SMILES CCOC(=O)c1ccc(NC(=O)[C@@H]2[C@H]3c4ccccc4[C@H](c4ccccc43)[C@@H]2C(=O)OCCOCCOCCOC(=O)c2ccc(-c3c4nc(c(-c5ccc(S(=O)(=O)[O-])cc5)c5ccc([nH]5)c(-c5ccc(S(=O)(=O)[O-])cc5)c5nc(c(-c6ccc(S(=O)(=O)[O-])cc6)c6ccc3[nH]6)C=C5)C=C4)cc2)cc1
REMARK SMILES IDX 35 1 34 2 33 3 32 4 31 5 29 6 30 7 28 8 13 9 14 10 27 11
REMARK SMILES IDX 15 12 21 13 26 14 22 15 20 16 16 17 25 18 23 19 19 20 17 21
REMARK SMILES IDX 24 22 18 23 11 24 10 25 12 27 9 28 6 29 7 30 104 31 8 32
REMARK SMILES IDX 103 33 4 34 5 35 3 36 2 37 1 38 36 39 37 40 38 41 39 42
REMARK SMILES IDX 40 43 41 44 42 45 43 46 44 47 102 48 45 49 101 50 46 51
REMARK SMILES IDX 47 52 48 53 95 54 49 55 100 56 94 57 96 58 50 59 99 60 93 61
REMARK SMILES IDX 92 62 51 64 81 65 62 66 80 67 63 68 66 69 79 70 97 71 64 72
REMARK SMILES IDX 65 73 78 75 98 76 67 77 52 78 53 79 61 80 54 81 60 82 55 83
REMARK SMILES IDX 56 84 57 85 58 86 59 87 82 88 83 89 91 90 84 91 90 92 85 93
REMARK SMILES IDX 86 94 87 95 88 96 89 97 68 98 69 99 77 100 70 101 76 102
REMARK SMILES IDX 71 103 72 104 73 105 74 106 75 107
REMARK H PARENT 10 26 96 63 66 74
REMARK Flexibility Score: inf
ROOT
ATOM      1  C   UNL A   1      34.558  31.174  27.734  1.00  0.00     0.188 C 
ENDROOT
BRANCH   1   2
ATOM      2  O   UNL A   1      33.217  31.392  27.324  1.00  0.00    -0.376 OA
BRANCH   2   3
ATOM      3  C   UNL A   1      32.377  30.256  27.252  1.00  0.00     0.202 C 
BRANCH   3   4
ATOM      4  C   UNL A   1      33.118  28.936  27.389  1.00  0.00     0.261 C 
BRANCH   4   5
ATOM      5  O   UNL A   1      32.632  27.830  26.597  1.00  0.00    -0.463 OA
BRANCH   5   6
ATOM      6  C   UNL A   1      33.421  26.747  26.318  1.00  0.00     0.310 C 
ATOM      7  O   UNL A   1      34.615  26.656  26.551  1.00  0.00    -0.252 OA
BRANCH   6   8
ATOM      8  C   UNL A   1      32.657  25.821  25.414  1.00  0.00     0.124 C 
ATOM      9  C   UNL A   1      31.276  25.218  25.668  1.00  0.00     0.106 C 
ATOM     10  C   UNL A   1      30.669  25.118  24.187  1.00  0.00     0.063 C 
ATOM     11  C   UNL A   1      31.311  23.854  23.641  1.00  0.00    -0.036 A 
ATOM     12  C   UNL A   1      31.219  26.286  23.245  1.00  0.00    -0.036 A 
ATOM     13  C   UNL A   1      33.297  25.284  24.058  1.00  0.00     0.065 C 
ATOM     14  C   UNL A   1      30.626  22.728  23.202  1.00  0.00     0.004 A 
ATOM     15  C   UNL A   1      32.722  23.951  23.560  1.00  0.00    -0.036 A 
ATOM     16  C   UNL A   1      32.659  26.282  23.106  1.00  0.00    -0.036 A 
ATOM     17  C   UNL A   1      30.539  27.386  22.760  1.00  0.00     0.004 A 
ATOM     18  C   UNL A   1      31.355  21.702  22.608  1.00  0.00     0.000 A 
ATOM     19  C   UNL A   1      33.416  22.968  22.873  1.00  0.00     0.004 A 
ATOM     20  C   UNL A   1      33.389  27.273  22.469  1.00  0.00     0.004 A 
ATOM     21  C   UNL A   1      31.280  28.411  22.132  1.00  0.00     0.000 A 
ATOM     22  C   UNL A   1      32.736  21.832  22.422  1.00  0.00     0.000 A 
ATOM     23  C   UNL A   1      32.680  28.350  21.975  1.00  0.00     0.000 A 
BRANCH   9  24
ATOM     24  C   UNL A   1      31.043  23.918  26.502  1.00  0.00     0.229 C 
ATOM     25  N   UNL A   1      31.893  22.869  26.722  1.00  0.00    -0.326 N 
ATOM     26  H   UNL A   1      31.441  22.076  27.087  1.00  0.00     0.169 HD
ATOM     27  O   UNL A   1      29.881  23.728  26.907  1.00  0.00    -0.274 OA
BRANCH  25  28
ATOM     28  C   UNL A   1      33.267  22.680  26.537  1.00  0.00     0.041 A 
ATOM     29  C   UNL A   1      35.814  22.518  25.452  1.00  0.00     0.060 A 
ATOM     30  C   UNL A   1      35.462  23.611  26.249  1.00  0.00     0.018 A 
ATOM     31  C   UNL A   1      35.001  21.381  25.455  1.00  0.00     0.018 A 
ATOM     32  C   UNL A   1      34.189  23.675  26.808  1.00  0.00     0.027 A 
ATOM     33  C   UNL A   1      33.720  21.459  26.017  1.00  0.00     0.027 A 
BRANCH  29  34
ATOM     34  C   UNL A   1      36.807  22.673  24.349  1.00  0.00     0.338 C 
ATOM     35  O   UNL A   1      36.715  23.508  23.464  1.00  0.00    -0.246 OA
BRANCH  34  36
ATOM     36  O   UNL A   1      37.918  21.972  24.711  1.00  0.00    -0.462 OA
BRANCH  36  37
ATOM     37  C   UNL A   1      38.634  22.413  25.876  1.00  0.00     0.230 C 
ATOM     38  C   UNL A   1      39.659  21.363  26.261  1.00  0.00     0.049 C 
ENDBRANCH  36  37
ENDBRANCH  34  36
ENDBRANCH  29  34
ENDBRANCH  25  28
ENDBRANCH   9  24
ENDBRANCH   6   8
ENDBRANCH   5   6
ENDBRANCH   4   5
ENDBRANCH   3   4
ENDBRANCH   2   3
ENDBRANCH   1   2
BRANCH   1  39
ATOM     39  C   UNL A   1      35.226  32.400  28.393  1.00  0.00     0.188 C 
BRANCH  39  40
ATOM     40  O   UNL A   1      36.058  32.221  29.535  1.00  0.00    -0.376 OA
BRANCH  40  41
ATOM     41  C   UNL A   1      35.792  31.148  30.422  1.00  0.00     0.202 C 
BRANCH  41  42
ATOM     42  C   UNL A   1      36.507  31.162  31.782  1.00  0.00     0.261 C 
BRANCH  42  43
ATOM     43  O   UNL A   1      37.874  30.698  31.770  1.00  0.00    -0.460 OA
BRANCH  43  44
ATOM     44  C   UNL A   1      38.052  29.351  31.711  1.00  0.00     0.338 C 
ATOM     45  O   UNL A   1      37.316  28.514  32.205  1.00  0.00    -0.246 OA
BRANCH  44  46
ATOM     46  C   UNL A   1      39.176  28.980  30.796  1.00  0.00     0.060 A 
ATOM     47  C   UNL A   1      40.207  28.192  31.325  1.00  0.00     0.016 A 
ATOM     48  C   UNL A   1      39.266  29.405  29.465  1.00  0.00     0.016 A 
ATOM     49  C   UNL A   1      41.334  27.874  30.553  1.00  0.00     0.010 A 
ATOM     50  C   UNL A   1      40.411  29.099  28.696  1.00  0.00     0.010 A 
ATOM     51  C   UNL A   1      41.470  28.350  29.237  1.00  0.00    -0.014 A 
BRANCH  51  52
ATOM     52  C   UNL A   1      42.799  28.226  28.551  1.00  0.00     0.031 A 
ATOM     53  C   UNL A   1      43.859  29.256  28.855  1.00  0.00     0.074 A 
ATOM     54  C   UNL A   1      43.103  27.259  27.662  1.00  0.00     0.049 A 
ATOM     55  N   UNL A   1      45.114  29.297  28.484  1.00  0.00    -0.248 NA
ATOM     56  C   UNL A   1      43.425  30.414  29.651  1.00  0.00     0.031 C 
ATOM     57  C   UNL A   1      42.184  26.242  27.167  1.00  0.00     0.029 A 
ATOM     58  N   UNL A   1      44.299  26.953  27.038  1.00  0.00    -0.354 N 
ATOM     59  C   UNL A   1      45.604  30.514  28.944  1.00  0.00     0.074 A 
ATOM     60  C   UNL A   1      44.522  31.153  29.667  1.00  0.00     0.031 C 
ATOM     61  C   UNL A   1      42.872  25.377  26.398  1.00  0.00     0.029 A 
ATOM     62  C   UNL A   1      44.280  25.751  26.360  1.00  0.00     0.049 A 
ATOM     63  H   UNL A   1      45.090  27.538  27.073  1.00  0.00     0.167 HD
ATOM     64  C   UNL A   1      46.816  31.085  28.738  1.00  0.00     0.031 A 
ATOM     65  C   UNL A   1      45.285  25.016  25.828  1.00  0.00     0.031 A 
ATOM     66  C   UNL A   1      47.885  30.511  27.967  1.00  0.00     0.049 A 
ATOM     67  C   UNL A   1      46.670  25.597  25.751  1.00  0.00     0.074 A 
ATOM     68  C   UNL A   1      49.123  31.055  27.669  1.00  0.00     0.029 A 
ATOM     69  N   UNL A   1      47.839  29.271  27.353  1.00  0.00    -0.354 N 
ATOM     70  N   UNL A   1      47.121  26.731  26.225  1.00  0.00    -0.248 NA
ATOM     71  C   UNL A   1      47.673  24.806  25.014  1.00  0.00     0.031 C 
ATOM     72  C   UNL A   1      49.811  30.164  26.837  1.00  0.00     0.029 A 
ATOM     73  C   UNL A   1      49.020  29.042  26.663  1.00  0.00     0.049 A 
ATOM     74  H   UNL A   1      47.082  28.644  27.399  1.00  0.00     0.167 HD
ATOM     75  C   UNL A   1      48.443  26.806  25.806  1.00  0.00     0.074 A 
ATOM     76  C   UNL A   1      48.749  25.572  25.117  1.00  0.00     0.031 C 
ATOM     77  C   UNL A   1      49.313  27.837  25.936  1.00  0.00     0.031 A 
BRANCH  64  78
ATOM     78  C   UNL A   1      46.987  32.481  29.270  1.00  0.00    -0.014 A 
ATOM     79  C   UNL A   1      47.233  33.569  28.414  1.00  0.00     0.010 A 
ATOM     80  C   UNL A   1      46.958  32.687  30.661  1.00  0.00     0.010 A 
ATOM     81  C   UNL A   1      47.520  34.827  28.949  1.00  0.00     0.020 A 
ATOM     82  C   UNL A   1      47.216  33.948  31.197  1.00  0.00     0.020 A 
ATOM     83  C   UNL A   1      47.526  35.004  30.336  1.00  0.00     0.054 A 
BRANCH  83  84
ATOM     84  S   UNL A   1      47.956  36.630  31.011  1.00  0.00     0.124 S 
ATOM     85  O   UNL A   1      49.415  36.563  31.042  1.00  0.00    -0.237 OA
ATOM     86  O   UNL A   1      47.391  37.548  30.027  1.00  0.00    -0.237 OA
ATOM     87  O   UNL A   1      47.305  36.644  32.319  1.00  0.00    -0.744 OA
ENDBRANCH  83  84
ENDBRANCH  64  78
BRANCH  65  88
ATOM     88  C   UNL A   1      45.104  23.592  25.404  1.00  0.00    -0.014 A 
ATOM     89  C   UNL A   1      45.725  22.582  26.175  1.00  0.00     0.010 A 
ATOM     90  C   UNL A   1      44.392  23.216  24.257  1.00  0.00     0.010 A 
ATOM     91  C   UNL A   1      45.595  21.231  25.841  1.00  0.00     0.020 A 
ATOM     92  C   UNL A   1      44.239  21.860  23.930  1.00  0.00     0.020 A 
ATOM     93  C   UNL A   1      44.828  20.877  24.734  1.00  0.00     0.054 A 
BRANCH  93  94
ATOM     94  S   UNL A   1      44.460  19.121  24.449  1.00  0.00     0.124 S 
ATOM     95  O   UNL A   1      43.039  19.045  24.769  1.00  0.00    -0.237 OA
ATOM     96  O   UNL A   1      44.805  18.944  23.040  1.00  0.00    -0.237 OA
ATOM     97  O   UNL A   1      45.356  18.440  25.382  1.00  0.00    -0.744 OA
ENDBRANCH  93  94
ENDBRANCH  65  88
BRANCH  77  98
ATOM     98  C   UNL A   1      50.645  27.695  25.254  1.00  0.00    -0.014 A 
ATOM     99  C   UNL A   1      51.756  27.189  25.958  1.00  0.00     0.010 A 
ATOM    100  C   UNL A   1      50.796  28.056  23.905  1.00  0.00     0.010 A 
ATOM    101  C   UNL A   1      53.002  27.086  25.337  1.00  0.00     0.020 A 
ATOM    102  C   UNL A   1      52.037  27.930  23.272  1.00  0.00     0.020 A 
ATOM    103  C   UNL A   1      53.136  27.461  23.998  1.00  0.00     0.054 A 
BRANCH 103 104
ATOM    104  S   UNL A   1      54.757  27.286  23.203  1.00  0.00     0.124 S 
ATOM    105  O   UNL A   1      55.482  26.464  24.169  1.00  0.00    -0.237 OA
ATOM    106  O   UNL A   1      54.428  26.630  21.940  1.00  0.00    -0.237 OA
ATOM    107  O   UNL A   1      55.230  28.664  23.077  1.00  0.00    -0.744 OA
ENDBRANCH 103 104
ENDBRANCH  77  98
ENDBRANCH  51  52
ENDBRANCH  44  46
ENDBRANCH  43  44
ENDBRANCH  42  43
ENDBRANCH  41  42
ENDBRANCH  40  41
ENDBRANCH  39  40
ENDBRANCH   1  39
TORSDOF 25
ENDMDL
