MODEL 1
REMARK VINA RESULT:      -9.2      0.000      0.000
REMARK SMILES NC(=O)c1cccc(NC2(CC(=O)OCCOCCOCCOC(=O)c3ccc(-c4c5nc(c(-c6ccc(S(=O)(=O)[O-])cc6)c6ccc([nH]6)c(-c6ccc(S(=O)(=O)[O-])cc6)c6nc(c(-c7ccc(S(=O)(=O)[O-])cc7)c7ccc4[nH]7)C=C6)C=C5)cc3)CCC2)n1
REMARK SMILES IDX 18 1 17 2 16 3 15 4 14 5 12 6 13 7 11 8 10 9 86 10 88 11
REMARK SMILES IDX 87 12 9 13 8 15 4 16 5 17 89 18 6 19 7 20 2 21 1 22 3 25
REMARK SMILES IDX 19 26 20 27 21 28 22 29 23 30 24 31 25 32 26 33 27 34 85 35
REMARK SMILES IDX 28 36 84 37 29 38 30 39 31 40 78 41 32 42 83 43 77 44 79 45
REMARK SMILES IDX 33 46 82 47 76 48 75 49 34 51 64 52 45 53 63 54 46 55 49 56
REMARK SMILES IDX 62 57 80 58 47 59 48 60 61 62 81 63 50 64 35 65 36 66 44 67
REMARK SMILES IDX 37 68 43 69 38 70 39 71 40 72 41 73 42 74 65 75 66 76 74 77
REMARK SMILES IDX 67 78 73 79 68 80 69 81 70 82 71 83 72 84 51 85 52 86 60 87
REMARK SMILES IDX 53 88 59 89 54 90 55 91 56 92 57 93 58 94
REMARK H PARENT 9 14 1 23 1 24 79 50 49 61
REMARK Flexibility Score: inf
ROOT
ATOM      1  C   UNL A   1      34.337  32.502  28.476  1.00  0.00     0.188 C 
ENDROOT
BRANCH   1   2
ATOM      2  O   UNL A   1      35.014  31.584  27.620  1.00  0.00    -0.376 OA
BRANCH   2   3
ATOM      3  C   UNL A   1      35.382  30.312  28.122  1.00  0.00     0.202 C 
BRANCH   3   4
ATOM      4  C   UNL A   1      34.706  29.097  27.481  1.00  0.00     0.261 C 
BRANCH   4   5
ATOM      5  O   UNL A   1      34.223  29.303  26.134  1.00  0.00    -0.463 OA
BRANCH   5   6
ATOM      6  C   UNL A   1      32.895  29.131  25.948  1.00  0.00     0.308 C 
ATOM      7  O   UNL A   1      32.136  30.043  25.629  1.00  0.00    -0.252 OA
BRANCH   6   8
ATOM      8  C   UNL A   1      32.334  27.756  26.222  1.00  0.00     0.151 C 
BRANCH   8   9
ATOM      9  C   UNL A   1      32.443  26.528  25.286  1.00  0.00     0.049 C 
ATOM     10  C   UNL A   1      33.139  25.357  26.066  1.00  0.00     0.029 C 
ATOM     11  C   UNL A   1      33.612  26.434  24.260  1.00  0.00     0.029 C 
ATOM     12  C   UNL A   1      34.442  25.696  25.323  1.00  0.00     0.005 C 
BRANCH   9  13
ATOM     13  N   UNL A   1      31.143  26.087  24.781  1.00  0.00    -0.364 N 
ATOM     14  H   UNL A   1      30.930  25.138  24.934  1.00  0.00     0.162 HD
BRANCH  13  15
ATOM     15  C   UNL A   1      30.140  26.839  24.096  1.00  0.00     0.127 A 
ATOM     16  C   UNL A   1      29.399  28.622  22.800  1.00  0.00     0.130 A 
ATOM     17  C   UNL A   1      28.058  28.308  22.979  1.00  0.00     0.034 A 
ATOM     18  N   UNL A   1      30.427  27.938  23.380  1.00  0.00    -0.226 NA
ATOM     19  C   UNL A   1      27.762  27.183  23.720  1.00  0.00     0.006 A 
ATOM     20  C   UNL A   1      28.816  26.426  24.230  1.00  0.00     0.047 A 
BRANCH  16  21
ATOM     21  C   UNL A   1      29.781  29.713  21.845  1.00  0.00     0.267 C 
ATOM     22  N   UNL A   1      31.115  30.023  21.738  1.00  0.00    -0.364 N 
ATOM     23  H   UNL A   1      31.406  30.733  21.122  1.00  0.00     0.160 HD
ATOM     24  H   UNL A   1      31.778  29.537  22.279  1.00  0.00     0.160 HD
ATOM     25  O   UNL A   1      28.956  30.336  21.184  1.00  0.00    -0.268 OA
ENDBRANCH  16  21
ENDBRANCH  13  15
ENDBRANCH   9  13
ENDBRANCH   8   9
ENDBRANCH   6   8
ENDBRANCH   5   6
ENDBRANCH   4   5
ENDBRANCH   3   4
ENDBRANCH   2   3
ENDBRANCH   1   2
BRANCH   1  26
ATOM     26  C   UNL A   1      33.876  33.866  27.922  1.00  0.00     0.188 C 
BRANCH  26  27
ATOM     27  O   UNL A   1      33.038  34.537  28.846  1.00  0.00    -0.376 OA
BRANCH  27  28
ATOM     28  C   UNL A   1      33.102  35.945  28.846  1.00  0.00     0.202 C 
BRANCH  28  29
ATOM     29  C   UNL A   1      32.629  36.627  30.136  1.00  0.00     0.261 C 
BRANCH  29  30
ATOM     30  O   UNL A   1      32.206  35.740  31.189  1.00  0.00    -0.460 OA
BRANCH  30  31
ATOM     31  C   UNL A   1      32.922  35.773  32.332  1.00  0.00     0.338 C 
ATOM     32  O   UNL A   1      32.663  36.408  33.339  1.00  0.00    -0.246 OA
BRANCH  31  33
ATOM     33  C   UNL A   1      34.096  34.877  32.240  1.00  0.00     0.060 A 
ATOM     34  C   UNL A   1      33.946  33.515  32.489  1.00  0.00     0.016 A 
ATOM     35  C   UNL A   1      35.375  35.418  32.136  1.00  0.00     0.016 A 
ATOM     36  C   UNL A   1      35.053  32.724  32.799  1.00  0.00     0.010 A 
ATOM     37  C   UNL A   1      36.494  34.601  32.358  1.00  0.00     0.010 A 
ATOM     38  C   UNL A   1      36.345  33.263  32.766  1.00  0.00    -0.014 A 
BRANCH  38  39
ATOM     39  C   UNL A   1      37.514  32.469  33.251  1.00  0.00     0.031 A 
ATOM     40  C   UNL A   1      38.130  32.785  34.597  1.00  0.00     0.074 A 
ATOM     41  C   UNL A   1      38.017  31.454  32.521  1.00  0.00     0.049 A 
ATOM     42  N   UNL A   1      39.244  32.345  35.122  1.00  0.00    -0.248 NA
ATOM     43  C   UNL A   1      37.397  33.726  35.462  1.00  0.00     0.031 C 
ATOM     44  C   UNL A   1      37.487  30.982  31.238  1.00  0.00     0.029 A 
ATOM     45  N   UNL A   1      39.095  30.633  32.752  1.00  0.00    -0.354 N 
ATOM     46  C   UNL A   1      39.380  33.000  36.343  1.00  0.00     0.074 A 
ATOM     47  C   UNL A   1      38.229  33.864  36.486  1.00  0.00     0.031 C 
ATOM     48  C   UNL A   1      38.236  29.956  30.803  1.00  0.00     0.029 A 
ATOM     49  C   UNL A   1      39.346  29.751  31.725  1.00  0.00     0.049 A 
ATOM     50  H   UNL A   1      39.636  30.672  33.574  1.00  0.00     0.167 HD
ATOM     51  C   UNL A   1      40.377  32.900  37.255  1.00  0.00     0.031 A 
ATOM     52  C   UNL A   1      40.381  28.914  31.514  1.00  0.00     0.031 A 
ATOM     53  C   UNL A   1      41.500  32.005  37.133  1.00  0.00     0.049 A 
ATOM     54  C   UNL A   1      41.495  28.851  32.523  1.00  0.00     0.074 A 
ATOM     55  C   UNL A   1      42.547  31.815  38.020  1.00  0.00     0.029 A 
ATOM     56  N   UNL A   1      41.719  31.146  36.068  1.00  0.00    -0.354 N 
ATOM     57  N   UNL A   1      41.624  29.507  33.651  1.00  0.00    -0.248 NA
ATOM     58  C   UNL A   1      42.606  27.935  32.226  1.00  0.00     0.031 C 
ATOM     59  C   UNL A   1      43.428  30.883  37.465  1.00  0.00     0.029 A 
ATOM     60  C   UNL A   1      42.897  30.442  36.264  1.00  0.00     0.049 A 
ATOM     61  H   UNL A   1      41.126  31.050  35.288  1.00  0.00     0.167 HD
ATOM     62  C   UNL A   1      42.820  29.065  34.208  1.00  0.00     0.074 A 
ATOM     63  C   UNL A   1      43.359  28.067  33.307  1.00  0.00     0.031 C 
ATOM     64  C   UNL A   1      43.423  29.452  35.360  1.00  0.00     0.031 A 
BRANCH  51  65
ATOM     65  C   UNL A   1      40.340  33.811  38.454  1.00  0.00    -0.014 A 
ATOM     66  C   UNL A   1      40.853  35.119  38.409  1.00  0.00     0.010 A 
ATOM     67  C   UNL A   1      39.692  33.372  39.626  1.00  0.00     0.010 A 
ATOM     68  C   UNL A   1      40.733  35.964  39.519  1.00  0.00     0.020 A 
ATOM     69  C   UNL A   1      39.546  34.221  40.726  1.00  0.00     0.020 A 
ATOM     70  C   UNL A   1      40.076  35.511  40.668  1.00  0.00     0.054 A 
BRANCH  70  71
ATOM     71  S   UNL A   1      39.880  36.649  42.068  1.00  0.00     0.124 S 
ATOM     72  O   UNL A   1      41.233  36.686  42.617  1.00  0.00    -0.237 OA
ATOM     73  O   UNL A   1      39.432  37.878  41.419  1.00  0.00    -0.237 OA
ATOM     74  O   UNL A   1      38.884  35.994  42.911  1.00  0.00    -0.744 OA
ENDBRANCH  70  71
ENDBRANCH  51  65
BRANCH  52  75
ATOM     75  C   UNL A   1      40.456  28.121  30.253  1.00  0.00    -0.014 A 
ATOM     76  C   UNL A   1      39.657  26.980  30.065  1.00  0.00     0.010 A 
ATOM     77  C   UNL A   1      41.359  28.496  29.240  1.00  0.00     0.010 A 
ATOM     78  C   UNL A   1      39.784  26.211  28.904  1.00  0.00     0.020 A 
ATOM     79  C   UNL A   1      41.461  27.752  28.063  1.00  0.00     0.020 A 
ATOM     80  C   UNL A   1      40.688  26.602  27.911  1.00  0.00     0.054 A 
BRANCH  80  81
ATOM     81  S   UNL A   1      40.823  25.603  26.403  1.00  0.00     0.124 S 
ATOM     82  O   UNL A   1      39.472  25.063  26.276  1.00  0.00    -0.237 OA
ATOM     83  O   UNL A   1      41.207  26.593  25.400  1.00  0.00    -0.237 OA
ATOM     84  O   UNL A   1      41.859  24.627  26.733  1.00  0.00    -0.744 OA
ENDBRANCH  80  81
ENDBRANCH  52  75
BRANCH  64  85
ATOM     85  C   UNL A   1      44.707  28.759  35.732  1.00  0.00    -0.014 A 
ATOM     86  C   UNL A   1      44.709  27.578  36.496  1.00  0.00     0.010 A 
ATOM     87  C   UNL A   1      45.933  29.300  35.304  1.00  0.00     0.010 A 
ATOM     88  C   UNL A   1      45.916  26.986  36.877  1.00  0.00     0.020 A 
ATOM     89  C   UNL A   1      47.141  28.691  35.654  1.00  0.00     0.020 A 
ATOM     90  C   UNL A   1      47.125  27.552  36.460  1.00  0.00     0.054 A 
BRANCH  90  91
ATOM     91  S   UNL A   1      48.679  26.770  36.971  1.00  0.00     0.124 S 
ATOM     92  O   UNL A   1      49.668  27.762  36.557  1.00  0.00    -0.237 OA
ATOM     93  O   UNL A   1      48.505  26.618  38.413  1.00  0.00    -0.237 OA
ATOM     94  O   UNL A   1      48.700  25.518  36.217  1.00  0.00    -0.744 OA
ENDBRANCH  90  91
ENDBRANCH  64  85
ENDBRANCH  38  39
ENDBRANCH  31  33
ENDBRANCH  30  31
ENDBRANCH  29  30
ENDBRANCH  28  29
ENDBRANCH  27  28
ENDBRANCH  26  27
ENDBRANCH   1  26
TORSDOF 24
ENDMDL
MODEL 2
REMARK VINA RESULT:      -9.0      2.607      8.900
REMARK SMILES NC(=O)c1cccc(NC2(CC(=O)OCCOCCOCCOC(=O)c3ccc(-c4c5nc(c(-c6ccc(S(=O)(=O)[O-])cc6)c6ccc([nH]6)c(-c6ccc(S(=O)(=O)[O-])cc6)c6nc(c(-c7ccc(S(=O)(=O)[O-])cc7)c7ccc4[nH]7)C=C6)C=C5)cc3)CCC2)n1
REMARK SMILES IDX 18 1 17 2 16 3 15 4 14 5 12 6 13 7 11 8 10 9 86 10 88 11
REMARK SMILES IDX 87 12 9 13 8 15 4 16 5 17 89 18 6 19 7 20 2 21 1 22 3 25
REMARK SMILES IDX 19 26 20 27 21 28 22 29 23 30 24 31 25 32 26 33 27 34 85 35
REMARK SMILES IDX 28 36 84 37 29 38 30 39 31 40 78 41 32 42 83 43 77 44 79 45
REMARK SMILES IDX 33 46 82 47 76 48 75 49 34 51 64 52 45 53 63 54 46 55 49 56
REMARK SMILES IDX 62 57 80 58 47 59 48 60 61 62 81 63 50 64 35 65 36 66 44 67
REMARK SMILES IDX 37 68 43 69 38 70 39 71 40 72 41 73 42 74 65 75 66 76 74 77
REMARK SMILES IDX 67 78 73 79 68 80 69 81 70 82 71 83 72 84 51 85 52 86 60 87
REMARK SMILES IDX 53 88 59 89 54 90 55 91 56 92 57 93 58 94
REMARK H PARENT 9 14 1 23 1 24 79 50 49 61
REMARK Flexibility Score: inf
ROOT
ATOM      1  C   UNL A   1      31.763  30.100  26.464  1.00  0.00     0.188 C 
ENDROOT
BRANCH   1   2
ATOM      2  O   UNL A   1      31.462  29.199  25.400  1.00  0.00    -0.376 OA
BRANCH   2   3
ATOM      3  C   UNL A   1      32.445  28.270  24.981  1.00  0.00     0.202 C 
BRANCH   3   4
ATOM      4  C   UNL A   1      33.037  28.477  23.584  1.00  0.00     0.261 C 
BRANCH   4   5
ATOM      5  O   UNL A   1      32.323  27.818  22.512  1.00  0.00    -0.463 OA
BRANCH   5   6
ATOM      6  C   UNL A   1      32.762  26.585  22.178  1.00  0.00     0.308 C 
ATOM      7  O   UNL A   1      33.816  26.384  21.577  1.00  0.00    -0.252 OA
BRANCH   6   8
ATOM      8  C   UNL A   1      31.860  25.420  22.509  1.00  0.00     0.151 C 
BRANCH   8   9
ATOM      9  C   UNL A   1      32.145  24.322  23.562  1.00  0.00     0.049 C 
ATOM     10  C   UNL A   1      30.781  23.834  24.166  1.00  0.00     0.029 C 
ATOM     11  C   UNL A   1      32.554  24.722  25.011  1.00  0.00     0.029 C 
ATOM     12  C   UNL A   1      31.066  24.707  25.399  1.00  0.00     0.005 C 
BRANCH   9  13
ATOM     13  N   UNL A   1      32.879  23.185  23.006  1.00  0.00    -0.364 N 
ATOM     14  H   UNL A   1      32.939  23.161  22.024  1.00  0.00     0.162 HD
BRANCH  13  15
ATOM     15  C   UNL A   1      33.519  22.105  23.688  1.00  0.00     0.127 A 
ATOM     16  C   UNL A   1      33.535  20.056  24.787  1.00  0.00     0.130 A 
ATOM     17  C   UNL A   1      34.865  20.173  25.172  1.00  0.00     0.034 A 
ATOM     18  N   UNL A   1      32.852  21.016  24.100  1.00  0.00    -0.226 NA
ATOM     19  C   UNL A   1      35.550  21.296  24.754  1.00  0.00     0.006 A 
ATOM     20  C   UNL A   1      34.880  22.230  23.966  1.00  0.00     0.047 A 
BRANCH  16  21
ATOM     21  C   UNL A   1      32.803  18.773  25.042  1.00  0.00     0.267 C 
ATOM     22  N   UNL A   1      33.199  18.022  26.123  1.00  0.00    -0.364 N 
ATOM     23  H   UNL A   1      32.743  17.173  26.325  1.00  0.00     0.160 HD
ATOM     24  H   UNL A   1      33.938  18.333  26.693  1.00  0.00     0.160 HD
ATOM     25  O   UNL A   1      31.895  18.371  24.322  1.00  0.00    -0.268 OA
ENDBRANCH  16  21
ENDBRANCH  13  15
ENDBRANCH   9  13
ENDBRANCH   8   9
ENDBRANCH   6   8
ENDBRANCH   5   6
ENDBRANCH   4   5
ENDBRANCH   3   4
ENDBRANCH   2   3
ENDBRANCH   1   2
BRANCH   1  26
ATOM     26  C   UNL A   1      33.231  30.336  26.875  1.00  0.00     0.188 C 
BRANCH  26  27
ATOM     27  O   UNL A   1      33.372  31.550  27.592  1.00  0.00    -0.376 OA
BRANCH  27  28
ATOM     28  C   UNL A   1      32.385  32.530  27.369  1.00  0.00     0.202 C 
BRANCH  28  29
ATOM     29  C   UNL A   1      32.855  33.984  27.510  1.00  0.00     0.261 C 
BRANCH  29  30
ATOM     30  O   UNL A   1      32.395  34.674  28.687  1.00  0.00    -0.460 OA
BRANCH  30  31
ATOM     31  C   UNL A   1      33.333  35.299  29.429  1.00  0.00     0.338 C 
ATOM     32  O   UNL A   1      33.293  36.444  29.844  1.00  0.00    -0.246 OA
BRANCH  31  33
ATOM     33  C   UNL A   1      34.455  34.384  29.732  1.00  0.00     0.060 A 
ATOM     34  C   UNL A   1      34.295  33.390  30.695  1.00  0.00     0.016 A 
ATOM     35  C   UNL A   1      35.726  34.657  29.234  1.00  0.00     0.016 A 
ATOM     36  C   UNL A   1      35.407  32.785  31.283  1.00  0.00     0.010 A 
ATOM     37  C   UNL A   1      36.838  33.982  29.761  1.00  0.00     0.010 A 
ATOM     38  C   UNL A   1      36.700  33.093  30.844  1.00  0.00    -0.014 A 
BRANCH  38  39
ATOM     39  C   UNL A   1      37.896  32.574  31.573  1.00  0.00     0.031 A 
ATOM     40  C   UNL A   1      38.648  31.380  31.027  1.00  0.00     0.074 A 
ATOM     41  C   UNL A   1      38.337  33.170  32.699  1.00  0.00     0.049 A 
ATOM     42  N   UNL A   1      39.592  30.668  31.588  1.00  0.00    -0.248 NA
ATOM     43  C   UNL A   1      38.285  30.923  29.674  1.00  0.00     0.031 C 
ATOM     44  C   UNL A   1      37.763  34.372  33.309  1.00  0.00     0.029 A 
ATOM     45  N   UNL A   1      39.374  32.840  33.539  1.00  0.00    -0.354 N 
ATOM     46  C   UNL A   1      39.888  29.646  30.691  1.00  0.00     0.074 A 
ATOM     47  C   UNL A   1      39.029  29.833  29.542  1.00  0.00     0.031 C 
ATOM     48  C   UNL A   1      38.456  34.679  34.416  1.00  0.00     0.029 A 
ATOM     49  C   UNL A   1      39.467  33.654  34.645  1.00  0.00     0.049 A 
ATOM     50  H   UNL A   1      39.991  32.093  33.366  1.00  0.00     0.167 HD
ATOM     51  C   UNL A   1      40.785  28.638  30.817  1.00  0.00     0.031 A 
ATOM     52  C   UNL A   1      40.234  33.559  35.750  1.00  0.00     0.031 A 
ATOM     53  C   UNL A   1      41.672  28.478  31.941  1.00  0.00     0.049 A 
ATOM     54  C   UNL A   1      41.193  32.407  35.883  1.00  0.00     0.074 A 
ATOM     55  C   UNL A   1      42.634  27.502  32.145  1.00  0.00     0.029 A 
ATOM     56  N   UNL A   1      41.717  29.317  33.043  1.00  0.00    -0.354 N 
ATOM     57  N   UNL A   1      41.430  31.429  35.041  1.00  0.00    -0.248 NA
ATOM     58  C   UNL A   1      41.985  32.346  37.119  1.00  0.00     0.031 C 
ATOM     59  C   UNL A   1      43.219  27.717  33.395  1.00  0.00     0.029 A 
ATOM     60  C   UNL A   1      42.671  28.866  33.941  1.00  0.00     0.049 A 
ATOM     61  H   UNL A   1      41.153  30.114  33.169  1.00  0.00     0.167 HD
ATOM     62  C   UNL A   1      42.416  30.650  35.638  1.00  0.00     0.074 A 
ATOM     63  C   UNL A   1      42.748  31.286  36.896  1.00  0.00     0.031 C 
ATOM     64  C   UNL A   1      42.992  29.508  35.190  1.00  0.00     0.031 A 
BRANCH  51  65
ATOM     65  C   UNL A   1      40.832  27.586  29.738  1.00  0.00    -0.014 A 
ATOM     66  C   UNL A   1      41.992  27.349  28.981  1.00  0.00     0.010 A 
ATOM     67  C   UNL A   1      39.709  26.757  29.545  1.00  0.00     0.010 A 
ATOM     68  C   UNL A   1      42.023  26.313  28.041  1.00  0.00     0.020 A 
ATOM     69  C   UNL A   1      39.744  25.705  28.627  1.00  0.00     0.020 A 
ATOM     70  C   UNL A   1      40.900  25.495  27.874  1.00  0.00     0.054 A 
BRANCH  70  71
ATOM     71  S   UNL A   1      40.990  24.121  26.691  1.00  0.00     0.124 S 
ATOM     72  O   UNL A   1      39.649  24.134  26.112  1.00  0.00    -0.237 OA
ATOM     73  O   UNL A   1      42.065  24.540  25.796  1.00  0.00    -0.237 OA
ATOM     74  O   UNL A   1      41.295  22.963  27.528  1.00  0.00    -0.744 OA
ENDBRANCH  70  71
ENDBRANCH  51  65
BRANCH  52  75
ATOM     75  C   UNL A   1      40.071  34.540  36.860  1.00  0.00    -0.014 A 
ATOM     76  C   UNL A   1      39.105  34.348  37.863  1.00  0.00     0.010 A 
ATOM     77  C   UNL A   1      40.872  35.698  36.898  1.00  0.00     0.010 A 
ATOM     78  C   UNL A   1      38.922  35.308  38.863  1.00  0.00     0.020 A 
ATOM     79  C   UNL A   1      40.718  36.640  37.917  1.00  0.00     0.020 A 
ATOM     80  C   UNL A   1      39.729  36.450  38.881  1.00  0.00     0.054 A 
BRANCH  80  81
ATOM     81  S   UNL A   1      39.490  37.674  40.198  1.00  0.00     0.124 S 
ATOM     82  O   UNL A   1      38.510  38.575  39.600  1.00  0.00    -0.237 OA
ATOM     83  O   UNL A   1      39.005  36.855  41.307  1.00  0.00    -0.237 OA
ATOM     84  O   UNL A   1      40.826  38.236  40.386  1.00  0.00    -0.744 OA
ENDBRANCH  80  81
ENDBRANCH  52  75
BRANCH  64  85
ATOM     85  C   UNL A   1      44.076  28.902  36.044  1.00  0.00    -0.014 A 
ATOM     86  C   UNL A   1      45.402  29.366  35.985  1.00  0.00     0.010 A 
ATOM     87  C   UNL A   1      43.756  27.851  36.922  1.00  0.00     0.010 A 
ATOM     88  C   UNL A   1      46.399  28.748  36.744  1.00  0.00     0.020 A 
ATOM     89  C   UNL A   1      44.744  27.254  37.709  1.00  0.00     0.020 A 
ATOM     90  C   UNL A   1      46.065  27.690  37.596  1.00  0.00     0.054 A 
BRANCH  90  91
ATOM     91  S   UNL A   1      47.376  26.901  38.567  1.00  0.00     0.124 S 
ATOM     92  O   UNL A   1      46.652  26.466  39.758  1.00  0.00    -0.237 OA
ATOM     93  O   UNL A   1      47.834  25.831  37.683  1.00  0.00    -0.237 OA
ATOM     94  O   UNL A   1      48.341  27.977  38.783  1.00  0.00    -0.744 OA
ENDBRANCH  90  91
ENDBRANCH  64  85
ENDBRANCH  38  39
ENDBRANCH  31  33
ENDBRANCH  30  31
ENDBRANCH  29  30
ENDBRANCH  28  29
ENDBRANCH  27  28
ENDBRANCH  26  27
ENDBRANCH   1  26
TORSDOF 24
ENDMDL
MODEL 3
REMARK VINA RESULT:      -9.0      7.643     12.844
REMARK SMILES NC(=O)c1cccc(NC2(CC(=O)OCCOCCOCCOC(=O)c3ccc(-c4c5nc(c(-c6ccc(S(=O)(=O)[O-])cc6)c6ccc([nH]6)c(-c6ccc(S(=O)(=O)[O-])cc6)c6nc(c(-c7ccc(S(=O)(=O)[O-])cc7)c7ccc4[nH]7)C=C6)C=C5)cc3)CCC2)n1
REMARK SMILES IDX 18 1 17 2 16 3 15 4 14 5 12 6 13 7 11 8 10 9 86 10 88 11
REMARK SMILES IDX 87 12 9 13 8 15 4 16 5 17 89 18 6 19 7 20 2 21 1 22 3 25
REMARK SMILES IDX 19 26 20 27 21 28 22 29 23 30 24 31 25 32 26 33 27 34 85 35
REMARK SMILES IDX 28 36 84 37 29 38 30 39 31 40 78 41 32 42 83 43 77 44 79 45
REMARK SMILES IDX 33 46 82 47 76 48 75 49 34 51 64 52 45 53 63 54 46 55 49 56
REMARK SMILES IDX 62 57 80 58 47 59 48 60 61 62 81 63 50 64 35 65 36 66 44 67
REMARK SMILES IDX 37 68 43 69 38 70 39 71 40 72 41 73 42 74 65 75 66 76 74 77
REMARK SMILES IDX 67 78 73 79 68 80 69 81 70 82 71 83 72 84 51 85 52 86 60 87
REMARK SMILES IDX 53 88 59 89 54 90 55 91 56 92 57 93 58 94
REMARK H PARENT 9 14 1 23 1 24 79 50 49 61
REMARK Flexibility Score: inf
ROOT
ATOM      1  C   UNL A   1      44.557  18.828  24.649  1.00  0.00     0.188 C 
ENDROOT
BRANCH   1   2
ATOM      2  O   UNL A   1      43.331  18.660  25.356  1.00  0.00    -0.376 OA
BRANCH   2   3
ATOM      3  C   UNL A   1      42.596  19.805  25.749  1.00  0.00     0.202 C 
BRANCH   3   4
ATOM      4  C   UNL A   1      41.255  19.558  26.445  1.00  0.00     0.261 C 
BRANCH   4   5
ATOM      5  O   UNL A   1      40.967  20.441  27.554  1.00  0.00    -0.463 OA
BRANCH   5   6
ATOM      6  C   UNL A   1      40.617  21.706  27.228  1.00  0.00     0.308 C 
ATOM      7  O   UNL A   1      39.869  21.978  26.291  1.00  0.00    -0.252 OA
BRANCH   6   8
ATOM      8  C   UNL A   1      41.249  22.822  28.025  1.00  0.00     0.151 C 
BRANCH   8   9
ATOM      9  C   UNL A   1      42.089  23.987  27.448  1.00  0.00     0.049 C 
ATOM     10  C   UNL A   1      43.329  23.391  26.692  1.00  0.00     0.029 C 
ATOM     11  C   UNL A   1      43.104  24.740  28.358  1.00  0.00     0.029 C 
ATOM     12  C   UNL A   1      44.188  23.742  27.919  1.00  0.00     0.005 C 
BRANCH   9  13
ATOM     13  N   UNL A   1      41.319  24.842  26.545  1.00  0.00    -0.364 N 
ATOM     14  H   UNL A   1      40.951  24.394  25.749  1.00  0.00     0.162 HD
BRANCH  13  15
ATOM     15  C   UNL A   1      41.026  26.236  26.655  1.00  0.00     0.127 A 
ATOM     16  C   UNL A   1      39.782  28.047  27.417  1.00  0.00     0.130 A 
ATOM     17  C   UNL A   1      40.457  28.960  26.616  1.00  0.00     0.034 A 
ATOM     18  N   UNL A   1      40.020  26.704  27.410  1.00  0.00    -0.226 NA
ATOM     19  C   UNL A   1      41.487  28.479  25.834  1.00  0.00     0.006 A 
ATOM     20  C   UNL A   1      41.797  27.122  25.902  1.00  0.00     0.047 A 
BRANCH  16  21
ATOM     21  C   UNL A   1      38.792  28.542  28.428  1.00  0.00     0.267 C 
ATOM     22  N   UNL A   1      37.817  29.406  27.991  1.00  0.00    -0.364 N 
ATOM     23  H   UNL A   1      37.149  29.754  28.624  1.00  0.00     0.160 HD
ATOM     24  H   UNL A   1      37.790  29.677  27.045  1.00  0.00     0.160 HD
ATOM     25  O   UNL A   1      38.836  28.223  29.612  1.00  0.00    -0.268 OA
ENDBRANCH  16  21
ENDBRANCH  13  15
ENDBRANCH   9  13
ENDBRANCH   8   9
ENDBRANCH   6   8
ENDBRANCH   5   6
ENDBRANCH   4   5
ENDBRANCH   3   4
ENDBRANCH   2   3
ENDBRANCH   1   2
BRANCH   1  26
ATOM     26  C   UNL A   1      45.892  18.839  25.423  1.00  0.00     0.188 C 
BRANCH  26  27
ATOM     27  O   UNL A   1      46.553  20.083  25.284  1.00  0.00    -0.376 OA
BRANCH  27  28
ATOM     28  C   UNL A   1      45.737  21.232  25.273  1.00  0.00     0.202 C 
BRANCH  28  29
ATOM     29  C   UNL A   1      46.354  22.475  24.620  1.00  0.00     0.261 C 
BRANCH  29  30
ATOM     30  O   UNL A   1      46.669  23.556  25.517  1.00  0.00    -0.460 OA
BRANCH  30  31
ATOM     31  C   UNL A   1      46.940  24.752  24.953  1.00  0.00     0.338 C 
ATOM     32  O   UNL A   1      47.519  24.949  23.900  1.00  0.00    -0.246 OA
BRANCH  31  33
ATOM     33  C   UNL A   1      46.395  25.854  25.777  1.00  0.00     0.060 A 
ATOM     34  C   UNL A   1      45.557  26.803  25.193  1.00  0.00     0.016 A 
ATOM     35  C   UNL A   1      46.895  26.076  27.056  1.00  0.00     0.016 A 
ATOM     36  C   UNL A   1      45.351  28.040  25.806  1.00  0.00     0.010 A 
ATOM     37  C   UNL A   1      46.612  27.285  27.712  1.00  0.00     0.010 A 
ATOM     38  C   UNL A   1      45.900  28.311  27.064  1.00  0.00    -0.014 A 
BRANCH  38  39
ATOM     39  C   UNL A   1      45.819  29.682  27.651  1.00  0.00     0.031 A 
ATOM     40  C   UNL A   1      44.602  30.084  28.456  1.00  0.00     0.074 A 
ATOM     41  C   UNL A   1      46.827  30.564  27.500  1.00  0.00     0.049 A 
ATOM     42  N   UNL A   1      44.253  31.266  28.897  1.00  0.00    -0.248 NA
ATOM     43  C   UNL A   1      43.649  29.016  28.804  1.00  0.00     0.031 C 
ATOM     44  C   UNL A   1      48.095  30.301  26.814  1.00  0.00     0.029 A 
ATOM     45  N   UNL A   1      46.944  31.870  27.914  1.00  0.00    -0.354 N 
ATOM     46  C   UNL A   1      43.016  31.097  29.513  1.00  0.00     0.074 A 
ATOM     47  C   UNL A   1      42.677  29.696  29.397  1.00  0.00     0.031 C 
ATOM     48  C   UNL A   1      48.858  31.404  26.860  1.00  0.00     0.029 A 
ATOM     49  C   UNL A   1      48.107  32.478  27.499  1.00  0.00     0.049 A 
ATOM     50  H   UNL A   1      46.259  32.328  28.454  1.00  0.00     0.167 HD
ATOM     51  C   UNL A   1      42.230  32.026  30.110  1.00  0.00     0.031 A 
ATOM     52  C   UNL A   1      48.505  33.764  27.568  1.00  0.00     0.031 A 
ATOM     53  C   UNL A   1      42.590  33.413  30.265  1.00  0.00     0.049 A 
ATOM     54  C   UNL A   1      47.597  34.783  28.200  1.00  0.00     0.074 A 
ATOM     55  C   UNL A   1      41.869  34.424  30.880  1.00  0.00     0.029 A 
ATOM     56  N   UNL A   1      43.769  33.983  29.814  1.00  0.00    -0.354 N 
ATOM     57  N   UNL A   1      46.414  34.610  28.743  1.00  0.00    -0.248 NA
ATOM     58  C   UNL A   1      48.076  36.171  28.227  1.00  0.00     0.031 C 
ATOM     59  C   UNL A   1      42.587  35.615  30.750  1.00  0.00     0.029 A 
ATOM     60  C   UNL A   1      43.785  35.335  30.115  1.00  0.00     0.049 A 
ATOM     61  H   UNL A   1      44.489  33.499  29.348  1.00  0.00     0.167 HD
ATOM     62  C   UNL A   1      46.021  35.866  29.193  1.00  0.00     0.074 A 
ATOM     63  C   UNL A   1      47.102  36.780  28.886  1.00  0.00     0.031 C 
ATOM     64  C   UNL A   1      44.867  36.234  29.803  1.00  0.00     0.031 A 
BRANCH  51  65
ATOM     65  C   UNL A   1      40.873  31.599  30.606  1.00  0.00    -0.014 A 
ATOM     66  C   UNL A   1      40.708  30.907  31.817  1.00  0.00     0.010 A 
ATOM     67  C   UNL A   1      39.729  31.984  29.879  1.00  0.00     0.010 A 
ATOM     68  C   UNL A   1      39.426  30.594  32.284  1.00  0.00     0.020 A 
ATOM     69  C   UNL A   1      38.447  31.698  30.354  1.00  0.00     0.020 A 
ATOM     70  C   UNL A   1      38.305  30.995  31.551  1.00  0.00     0.054 A 
BRANCH  70  71
ATOM     71  S   UNL A   1      36.654  30.630  32.211  1.00  0.00     0.124 S 
ATOM     72  O   UNL A   1      36.505  31.660  33.236  1.00  0.00    -0.237 OA
ATOM     73  O   UNL A   1      35.799  30.784  31.037  1.00  0.00    -0.237 OA
ATOM     74  O   UNL A   1      36.776  29.264  32.715  1.00  0.00    -0.744 OA
ENDBRANCH  70  71
ENDBRANCH  51  65
BRANCH  52  75
ATOM     75  C   UNL A   1      49.796  34.181  26.950  1.00  0.00    -0.014 A 
ATOM     76  C   UNL A   1      50.978  34.241  27.709  1.00  0.00     0.010 A 
ATOM     77  C   UNL A   1      49.838  34.552  25.592  1.00  0.00     0.010 A 
ATOM     78  C   UNL A   1      52.168  34.694  27.131  1.00  0.00     0.020 A 
ATOM     79  C   UNL A   1      51.033  34.969  25.002  1.00  0.00     0.020 A 
ATOM     80  C   UNL A   1      52.186  35.058  25.781  1.00  0.00     0.054 A 
BRANCH  80  81
ATOM     81  S   UNL A   1      53.745  35.623  25.045  1.00  0.00     0.124 S 
ATOM     82  O   UNL A   1      53.824  36.999  25.525  1.00  0.00    -0.237 OA
ATOM     83  O   UNL A   1      54.719  34.695  25.613  1.00  0.00    -0.237 OA
ATOM     84  O   UNL A   1      53.516  35.473  23.609  1.00  0.00    -0.744 OA
ENDBRANCH  80  81
ENDBRANCH  52  75
BRANCH  64  85
ATOM     85  C   UNL A   1      44.738  37.676  30.221  1.00  0.00    -0.014 A 
ATOM     86  C   UNL A   1      45.091  38.099  31.514  1.00  0.00     0.010 A 
ATOM     87  C   UNL A   1      44.257  38.622  29.298  1.00  0.00     0.010 A 
ATOM     88  C   UNL A   1      44.907  39.431  31.896  1.00  0.00     0.020 A 
ATOM     89  C   UNL A   1      44.105  39.961  29.664  1.00  0.00     0.020 A 
ATOM     90  C   UNL A   1      44.407  40.352  30.969  1.00  0.00     0.054 A 
BRANCH  90  91
ATOM     91  S   UNL A   1      44.171  42.074  31.488  1.00  0.00     0.124 S 
ATOM     92  O   UNL A   1      43.003  42.468  30.706  1.00  0.00    -0.237 OA
ATOM     93  O   UNL A   1      43.954  41.951  32.927  1.00  0.00    -0.237 OA
ATOM     94  O   UNL A   1      45.424  42.723  31.106  1.00  0.00    -0.744 OA
ENDBRANCH  90  91
ENDBRANCH  64  85
ENDBRANCH  38  39
ENDBRANCH  31  33
ENDBRANCH  30  31
ENDBRANCH  29  30
ENDBRANCH  28  29
ENDBRANCH  27  28
ENDBRANCH  26  27
ENDBRANCH   1  26
TORSDOF 24
ENDMDL
