MODEL 1
REMARK VINA RESULT:     -10.6      0.000      0.000
REMARK SMILES CC1=C(C)C[C@@H](C(=O)OCCOCCOCCOC(=O)c2ccc(-c3c4nc(c(-c5ccc(S(=O)(=O)[O-])cc5)c5ccc([nH]5)c(-c5ccc(S(=O)(=O)[O-])cc5)c5nc(c(-c6ccc(S(=O)(=O)[O-])cc6)c6ccc3[nH]6)C=C5)C=C4)cc2)[C@@H](C(=O)NCC[NH+]2CCOCC2)C1
REMARK SMILES IDX 13 1 12 2 11 3 10 4 9 5 7 6 8 7 6 8 1 9 2 10 3 11 93 12 4 13
REMARK SMILES IDX 5 14 81 15 82 16 83 17 84 18 85 20 86 21 87 22 88 23 92 24
REMARK SMILES IDX 89 26 91 27 90 28 14 29 15 30 16 31 17 32 18 33 19 34 20 35
REMARK SMILES IDX 21 36 22 37 80 38 23 39 79 40 24 41 25 42 26 43 73 44 27 45
REMARK SMILES IDX 78 46 72 47 74 48 28 49 77 50 71 51 70 52 29 54 59 55 40 56
REMARK SMILES IDX 58 57 41 58 44 59 57 60 75 61 42 62 43 63 56 65 76 66 45 67
REMARK SMILES IDX 30 68 31 69 39 70 32 71 38 72 33 73 34 74 35 75 36 76 37 77
REMARK SMILES IDX 60 78 61 79 69 80 62 81 68 82 63 83 64 84 65 85 66 86 67 87
REMARK SMILES IDX 46 88 47 89 55 90 48 91 54 92 49 93 50 94 51 95 52 96 53 97
REMARK H PARENT 84 19 87 25 74 53 44 64
REMARK Flexibility Score: inf
ROOT
ATOM      1  C   UNL A   1      34.479  20.733  25.283  1.00  0.00     0.188 C 
ENDROOT
BRANCH   1   2
ATOM      2  O   UNL A   1      34.617  21.789  26.231  1.00  0.00    -0.376 OA
BRANCH   2   3
ATOM      3  C   UNL A   1      33.756  22.898  25.981  1.00  0.00     0.202 C 
BRANCH   3   4
ATOM      4  C   UNL A   1      33.081  22.852  24.603  1.00  0.00     0.261 C 
BRANCH   4   5
ATOM      5  O   UNL A   1      33.127  24.117  23.900  1.00  0.00    -0.463 OA
BRANCH   5   6
ATOM      6  C   UNL A   1      32.481  25.151  24.492  1.00  0.00     0.310 C 
ATOM      7  O   UNL A   1      31.271  25.179  24.689  1.00  0.00    -0.252 OA
BRANCH   6   8
ATOM      8  C   UNL A   1      33.360  26.359  24.779  1.00  0.00     0.116 C 
ATOM      9  C   UNL A   1      31.890  30.479  25.604  1.00  0.00     0.039 C 
ATOM     10  C   UNL A   1      32.504  29.114  25.458  1.00  0.00    -0.074 C 
ATOM     11  C   UNL A   1      32.353  28.125  26.362  1.00  0.00    -0.073 C 
ATOM     12  C   UNL A   1      33.369  28.926  24.236  1.00  0.00     0.045 C 
ATOM     13  C   UNL A   1      31.557  28.237  27.635  1.00  0.00     0.039 C 
ATOM     14  C   UNL A   1      33.086  26.817  26.214  1.00  0.00     0.046 C 
ATOM     15  C   UNL A   1      33.547  27.483  23.742  1.00  0.00     0.097 C 
BRANCH  15  16
ATOM     16  C   UNL A   1      32.988  27.243  22.343  1.00  0.00     0.224 C 
ATOM     17  O   UNL A   1      33.711  26.700  21.498  1.00  0.00    -0.275 OA
ATOM     18  N   UNL A   1      31.735  27.573  21.948  1.00  0.00    -0.350 N 
ATOM     19  H   UNL A   1      31.552  27.396  20.998  1.00  0.00     0.163 HD
BRANCH  18  20
ATOM     20  C   UNL A   1      30.614  28.139  22.673  1.00  0.00     0.177 C 
BRANCH  20  21
ATOM     21  C   UNL A   1      30.202  29.548  22.194  1.00  0.00     0.283 C 
BRANCH  21  22
ATOM     22  N   UNL A   1      28.853  30.071  22.442  1.00  0.00    -0.330 N 
ATOM     23  C   UNL A   1      28.046  30.453  21.277  1.00  0.00     0.291 C 
ATOM     24  C   UNL A   1      28.724  31.059  23.521  1.00  0.00     0.291 C 
ATOM     25  H   UNL A   1      28.432  29.207  22.782  1.00  0.00     0.348 HD
ATOM     26  C   UNL A   1      28.176  31.933  20.884  1.00  0.00     0.221 C 
ATOM     27  C   UNL A   1      28.810  32.524  23.073  1.00  0.00     0.221 C 
ATOM     28  O   UNL A   1      27.902  32.794  21.996  1.00  0.00    -0.370 OA
ENDBRANCH  21  22
ENDBRANCH  20  21
ENDBRANCH  18  20
ENDBRANCH  15  16
ENDBRANCH   6   8
ENDBRANCH   5   6
ENDBRANCH   4   5
ENDBRANCH   3   4
ENDBRANCH   2   3
ENDBRANCH   1   2
BRANCH   1  29
ATOM     29  C   UNL A   1      35.801  20.054  24.955  1.00  0.00     0.188 C 
BRANCH  29  30
ATOM     30  O   UNL A   1      36.876  20.988  24.795  1.00  0.00    -0.376 OA
BRANCH  30  31
ATOM     31  C   UNL A   1      38.161  20.406  25.053  1.00  0.00     0.202 C 
BRANCH  31  32
ATOM     32  C   UNL A   1      39.090  21.286  25.897  1.00  0.00     0.261 C 
BRANCH  32  33
ATOM     33  O   UNL A   1      39.948  20.464  26.702  1.00  0.00    -0.460 OA
BRANCH  33  34
ATOM     34  C   UNL A   1      41.219  20.297  26.242  1.00  0.00     0.338 C 
ATOM     35  O   UNL A   1      41.628  19.397  25.541  1.00  0.00    -0.246 OA
BRANCH  34  36
ATOM     36  C   UNL A   1      41.988  21.525  26.578  1.00  0.00     0.060 A 
ATOM     37  C   UNL A   1      42.325  21.751  27.920  1.00  0.00     0.016 A 
ATOM     38  C   UNL A   1      42.452  22.392  25.584  1.00  0.00     0.016 A 
ATOM     39  C   UNL A   1      43.116  22.848  28.272  1.00  0.00     0.010 A 
ATOM     40  C   UNL A   1      43.232  23.493  25.938  1.00  0.00     0.010 A 
ATOM     41  C   UNL A   1      43.555  23.737  27.284  1.00  0.00    -0.014 A 
BRANCH  41  42
ATOM     42  C   UNL A   1      44.208  25.020  27.634  1.00  0.00     0.031 A 
ATOM     43  C   UNL A   1      43.331  26.154  28.088  1.00  0.00     0.074 A 
ATOM     44  C   UNL A   1      45.534  25.201  27.492  1.00  0.00     0.049 A 
ATOM     45  N   UNL A   1      43.626  27.416  28.254  1.00  0.00    -0.248 NA
ATOM     46  C   UNL A   1      41.928  25.815  28.383  1.00  0.00     0.031 C 
ATOM     47  C   UNL A   1      46.497  24.171  27.107  1.00  0.00     0.029 A 
ATOM     48  N   UNL A   1      46.293  26.339  27.626  1.00  0.00    -0.354 N 
ATOM     49  C   UNL A   1      42.444  28.024  28.661  1.00  0.00     0.074 A 
ATOM     50  C   UNL A   1      41.425  26.999  28.698  1.00  0.00     0.031 C 
ATOM     51  C   UNL A   1      47.717  24.731  27.004  1.00  0.00     0.029 A 
ATOM     52  C   UNL A   1      47.611  26.165  27.270  1.00  0.00     0.049 A 
ATOM     53  H   UNL A   1      45.929  27.195  27.947  1.00  0.00     0.167 HD
ATOM     54  C   UNL A   1      42.228  29.322  28.976  1.00  0.00     0.031 A 
ATOM     55  C   UNL A   1      48.602  27.069  27.128  1.00  0.00     0.031 A 
ATOM     56  C   UNL A   1      43.237  30.342  28.915  1.00  0.00     0.049 A 
ATOM     57  C   UNL A   1      48.314  28.529  27.385  1.00  0.00     0.074 A 
ATOM     58  C   UNL A   1      43.118  31.690  29.205  1.00  0.00     0.029 A 
ATOM     59  N   UNL A   1      44.552  30.129  28.532  1.00  0.00    -0.354 N 
ATOM     60  N   UNL A   1      47.194  29.093  27.773  1.00  0.00    -0.248 NA
ATOM     61  C   UNL A   1      49.421  29.474  27.172  1.00  0.00     0.031 C 
ATOM     62  C   UNL A   1      44.350  32.300  28.951  1.00  0.00     0.029 A 
ATOM     63  C   UNL A   1      45.249  31.323  28.552  1.00  0.00     0.049 A 
ATOM     64  H   UNL A   1      44.933  29.256  28.281  1.00  0.00     0.167 HD
ATOM     65  C   UNL A   1      47.467  30.455  27.862  1.00  0.00     0.074 A 
ATOM     66  C   UNL A   1      48.860  30.629  27.509  1.00  0.00     0.031 C 
ATOM     67  C   UNL A   1      46.637  31.474  28.200  1.00  0.00     0.031 A 
BRANCH  54  68
ATOM     68  C   UNL A   1      40.836  29.709  29.388  1.00  0.00    -0.014 A 
ATOM     69  C   UNL A   1      39.764  29.612  28.486  1.00  0.00     0.010 A 
ATOM     70  C   UNL A   1      40.593  30.145  30.703  1.00  0.00     0.010 A 
ATOM     71  C   UNL A   1      38.474  29.972  28.882  1.00  0.00     0.020 A 
ATOM     72  C   UNL A   1      39.300  30.484  31.110  1.00  0.00     0.020 A 
ATOM     73  C   UNL A   1      38.249  30.407  30.192  1.00  0.00     0.054 A 
BRANCH  73  74
ATOM     74  S   UNL A   1      36.559  30.839  30.687  1.00  0.00     0.124 S 
ATOM     75  O   UNL A   1      36.023  31.416  29.457  1.00  0.00    -0.237 OA
ATOM     76  O   UNL A   1      35.998  29.546  31.069  1.00  0.00    -0.237 OA
ATOM     77  O   UNL A   1      36.749  31.782  31.786  1.00  0.00    -0.744 OA
ENDBRANCH  73  74
ENDBRANCH  54  68
BRANCH  55  78
ATOM     78  C   UNL A   1      49.949  26.641  26.654  1.00  0.00    -0.014 A 
ATOM     79  C   UNL A   1      50.229  26.537  25.280  1.00  0.00     0.010 A 
ATOM     80  C   UNL A   1      50.950  26.297  27.581  1.00  0.00     0.010 A 
ATOM     81  C   UNL A   1      51.476  26.074  24.843  1.00  0.00     0.020 A 
ATOM     82  C   UNL A   1      52.205  25.859  27.149  1.00  0.00     0.020 A 
ATOM     83  C   UNL A   1      52.454  25.734  25.781  1.00  0.00     0.054 A 
BRANCH  83  84
ATOM     84  S   UNL A   1      54.073  25.157  25.195  1.00  0.00     0.124 S 
ATOM     85  O   UNL A   1      53.808  23.750  24.911  1.00  0.00    -0.237 OA
ATOM     86  O   UNL A   1      54.309  26.004  24.028  1.00  0.00    -0.237 OA
ATOM     87  O   UNL A   1      54.958  25.413  26.328  1.00  0.00    -0.744 OA
ENDBRANCH  83  84
ENDBRANCH  55  78
BRANCH  67  88
ATOM     88  C   UNL A   1      47.210  32.866  28.223  1.00  0.00    -0.014 A 
ATOM     89  C   UNL A   1      47.865  33.357  29.366  1.00  0.00     0.010 A 
ATOM     90  C   UNL A   1      47.173  33.654  27.059  1.00  0.00     0.010 A 
ATOM     91  C   UNL A   1      48.465  34.620  29.346  1.00  0.00     0.020 A 
ATOM     92  C   UNL A   1      47.792  34.907  27.028  1.00  0.00     0.020 A 
ATOM     93  C   UNL A   1      48.428  35.385  28.176  1.00  0.00     0.054 A 
BRANCH  93  94
ATOM     94  S   UNL A   1      49.278  36.988  28.154  1.00  0.00     0.124 S 
ATOM     95  O   UNL A   1      48.629  37.662  27.033  1.00  0.00    -0.237 OA
ATOM     96  O   UNL A   1      48.974  37.532  29.475  1.00  0.00    -0.237 OA
ATOM     97  O   UNL A   1      50.680  36.634  27.940  1.00  0.00    -0.744 OA
ENDBRANCH  93  94
ENDBRANCH  67  88
ENDBRANCH  41  42
ENDBRANCH  34  36
ENDBRANCH  33  34
ENDBRANCH  32  33
ENDBRANCH  31  32
ENDBRANCH  30  31
ENDBRANCH  29  30
ENDBRANCH   1  29
TORSDOF 24
ENDMDL
MODEL 2
REMARK VINA RESULT:      -8.9      5.092      9.185
REMARK SMILES CC1=C(C)C[C@@H](C(=O)OCCOCCOCCOC(=O)c2ccc(-c3c4nc(c(-c5ccc(S(=O)(=O)[O-])cc5)c5ccc([nH]5)c(-c5ccc(S(=O)(=O)[O-])cc5)c5nc(c(-c6ccc(S(=O)(=O)[O-])cc6)c6ccc3[nH]6)C=C5)C=C4)cc2)[C@@H](C(=O)NCC[NH+]2CCOCC2)C1
REMARK SMILES IDX 13 1 12 2 11 3 10 4 9 5 7 6 8 7 6 8 1 9 2 10 3 11 93 12 4 13
REMARK SMILES IDX 5 14 81 15 82 16 83 17 84 18 85 20 86 21 87 22 88 23 92 24
REMARK SMILES IDX 89 26 91 27 90 28 14 29 15 30 16 31 17 32 18 33 19 34 20 35
REMARK SMILES IDX 21 36 22 37 80 38 23 39 79 40 24 41 25 42 26 43 73 44 27 45
REMARK SMILES IDX 78 46 72 47 74 48 28 49 77 50 71 51 70 52 29 54 59 55 40 56
REMARK SMILES IDX 58 57 41 58 44 59 57 60 75 61 42 62 43 63 56 65 76 66 45 67
REMARK SMILES IDX 30 68 31 69 39 70 32 71 38 72 33 73 34 74 35 75 36 76 37 77
REMARK SMILES IDX 60 78 61 79 69 80 62 81 68 82 63 83 64 84 65 85 66 86 67 87
REMARK SMILES IDX 46 88 47 89 55 90 48 91 54 92 49 93 50 94 51 95 52 96 53 97
REMARK H PARENT 84 19 87 25 74 53 44 64
REMARK Flexibility Score: inf
ROOT
ATOM      1  C   UNL A   1      35.770  21.803  24.706  1.00  0.00     0.188 C 
ENDROOT
BRANCH   1   2
ATOM      2  O   UNL A   1      35.004  20.674  25.120  1.00  0.00    -0.376 OA
BRANCH   2   3
ATOM      3  C   UNL A   1      33.616  20.956  25.288  1.00  0.00     0.202 C 
BRANCH   3   4
ATOM      4  C   UNL A   1      33.331  22.030  26.347  1.00  0.00     0.261 C 
BRANCH   4   5
ATOM      5  O   UNL A   1      32.181  22.852  26.035  1.00  0.00    -0.463 OA
BRANCH   5   6
ATOM      6  C   UNL A   1      32.355  24.190  26.156  1.00  0.00     0.310 C 
ATOM      7  O   UNL A   1      31.681  24.905  26.889  1.00  0.00    -0.252 OA
BRANCH   6   8
ATOM      8  C   UNL A   1      33.379  24.779  25.198  1.00  0.00     0.116 C 
ATOM      9  C   UNL A   1      33.381  28.964  23.679  1.00  0.00     0.039 C 
ATOM     10  C   UNL A   1      33.558  27.568  24.211  1.00  0.00    -0.074 C 
ATOM     11  C   UNL A   1      33.874  27.290  25.493  1.00  0.00    -0.073 C 
ATOM     12  C   UNL A   1      33.413  26.468  23.189  1.00  0.00     0.045 C 
ATOM     13  C   UNL A   1      34.093  28.321  26.568  1.00  0.00     0.039 C 
ATOM     14  C   UNL A   1      34.148  25.877  25.937  1.00  0.00     0.046 C 
ATOM     15  C   UNL A   1      33.026  25.083  23.729  1.00  0.00     0.097 C 
BRANCH  15  16
ATOM     16  C   UNL A   1      31.679  24.581  23.216  1.00  0.00     0.224 C 
ATOM     17  O   UNL A   1      31.632  23.490  22.636  1.00  0.00    -0.275 OA
ATOM     18  N   UNL A   1      30.507  25.244  23.360  1.00  0.00    -0.350 N 
ATOM     19  H   UNL A   1      29.740  24.805  22.926  1.00  0.00     0.163 HD
BRANCH  18  20
ATOM     20  C   UNL A   1      30.176  26.482  24.038  1.00  0.00     0.177 C 
BRANCH  20  21
ATOM     21  C   UNL A   1      28.961  27.223  23.437  1.00  0.00     0.283 C 
BRANCH  21  22
ATOM     22  N   UNL A   1      28.805  28.675  23.589  1.00  0.00    -0.330 N 
ATOM     23  C   UNL A   1      27.630  29.302  22.973  1.00  0.00     0.291 C 
ATOM     24  C   UNL A   1      30.011  29.487  23.377  1.00  0.00     0.291 C 
ATOM     25  H   UNL A   1      28.615  28.687  24.591  1.00  0.00     0.348 HD
ATOM     26  C   UNL A   1      27.876  29.823  21.548  1.00  0.00     0.221 C 
ATOM     27  C   UNL A   1      30.186  30.026  21.951  1.00  0.00     0.221 C 
ATOM     28  O   UNL A   1      29.004  30.704  21.501  1.00  0.00    -0.370 OA
ENDBRANCH  21  22
ENDBRANCH  20  21
ENDBRANCH  18  20
ENDBRANCH  15  16
ENDBRANCH   6   8
ENDBRANCH   5   6
ENDBRANCH   4   5
ENDBRANCH   3   4
ENDBRANCH   2   3
ENDBRANCH   1   2
BRANCH   1  29
ATOM     29  C   UNL A   1      37.259  21.643  24.982  1.00  0.00     0.188 C 
BRANCH  29  30
ATOM     30  O   UNL A   1      37.673  20.272  24.987  1.00  0.00    -0.376 OA
BRANCH  30  31
ATOM     31  C   UNL A   1      39.019  20.101  25.453  1.00  0.00     0.202 C 
BRANCH  31  32
ATOM     32  C   UNL A   1      39.651  21.376  26.023  1.00  0.00     0.261 C 
BRANCH  32  33
ATOM     33  O   UNL A   1      40.939  21.077  26.584  1.00  0.00    -0.460 OA
BRANCH  33  34
ATOM     34  C   UNL A   1      41.988  21.788  26.084  1.00  0.00     0.338 C 
ATOM     35  O   UNL A   1      42.544  21.616  25.021  1.00  0.00    -0.246 OA
BRANCH  34  36
ATOM     36  C   UNL A   1      42.213  22.954  26.979  1.00  0.00     0.060 A 
ATOM     37  C   UNL A   1      42.104  22.761  28.363  1.00  0.00     0.016 A 
ATOM     38  C   UNL A   1      42.616  24.195  26.475  1.00  0.00     0.016 A 
ATOM     39  C   UNL A   1      42.387  23.808  29.245  1.00  0.00     0.010 A 
ATOM     40  C   UNL A   1      42.887  25.242  27.355  1.00  0.00     0.010 A 
ATOM     41  C   UNL A   1      42.759  25.061  28.743  1.00  0.00    -0.014 A 
BRANCH  41  42
ATOM     42  C   UNL A   1      42.856  26.247  29.625  1.00  0.00     0.031 A 
ATOM     43  C   UNL A   1      43.975  26.287  30.628  1.00  0.00     0.074 A 
ATOM     44  C   UNL A   1      41.941  27.233  29.587  1.00  0.00     0.049 A 
ATOM     45  N   UNL A   1      44.158  27.101  31.634  1.00  0.00    -0.248 NA
ATOM     46  C   UNL A   1      45.022  25.262  30.479  1.00  0.00     0.031 C 
ATOM     47  C   UNL A   1      40.839  27.336  28.632  1.00  0.00     0.029 A 
ATOM     48  N   UNL A   1      41.780  28.327  30.405  1.00  0.00    -0.354 N 
ATOM     49  C   UNL A   1      45.333  26.679  32.246  1.00  0.00     0.074 A 
ATOM     50  C   UNL A   1      45.809  25.528  31.511  1.00  0.00     0.031 C 
ATOM     51  C   UNL A   1      40.095  28.415  28.938  1.00  0.00     0.029 A 
ATOM     52  C   UNL A   1      40.642  29.051  30.136  1.00  0.00     0.049 A 
ATOM     53  H   UNL A   1      42.419  28.568  31.113  1.00  0.00     0.167 HD
ATOM     54  C   UNL A   1      45.959  27.204  33.323  1.00  0.00     0.031 A 
ATOM     55  C   UNL A   1      40.081  30.076  30.810  1.00  0.00     0.031 A 
ATOM     56  C   UNL A   1      45.471  28.333  34.065  1.00  0.00     0.049 A 
ATOM     57  C   UNL A   1      40.743  30.582  32.070  1.00  0.00     0.074 A 
ATOM     58  C   UNL A   1      46.028  28.937  35.179  1.00  0.00     0.029 A 
ATOM     59  N   UNL A   1      44.306  29.025  33.773  1.00  0.00    -0.354 N 
ATOM     60  N   UNL A   1      41.855  30.178  32.638  1.00  0.00    -0.248 NA
ATOM     61  C   UNL A   1      40.064  31.672  32.787  1.00  0.00     0.031 C 
ATOM     62  C   UNL A   1      45.173  29.965  35.588  1.00  0.00     0.029 A 
ATOM     63  C   UNL A   1      44.112  30.033  34.699  1.00  0.00     0.049 A 
ATOM     64  H   UNL A   1      43.706  28.827  33.018  1.00  0.00     0.167 HD
ATOM     65  C   UNL A   1      42.015  30.974  33.768  1.00  0.00     0.074 A 
ATOM     66  C   UNL A   1      40.899  31.896  33.795  1.00  0.00     0.031 C 
ATOM     67  C   UNL A   1      42.995  30.942  34.706  1.00  0.00     0.031 A 
BRANCH  54  68
ATOM     68  C   UNL A   1      47.229  26.540  33.775  1.00  0.00    -0.014 A 
ATOM     69  C   UNL A   1      48.482  27.028  33.369  1.00  0.00     0.010 A 
ATOM     70  C   UNL A   1      47.169  25.433  34.642  1.00  0.00     0.010 A 
ATOM     71  C   UNL A   1      49.655  26.405  33.798  1.00  0.00     0.020 A 
ATOM     72  C   UNL A   1      48.341  24.821  35.092  1.00  0.00     0.020 A 
ATOM     73  C   UNL A   1      49.578  25.303  34.656  1.00  0.00     0.054 A 
BRANCH  73  74
ATOM     74  S   UNL A   1      51.119  24.532  35.222  1.00  0.00     0.124 S 
ATOM     75  O   UNL A   1      51.393  23.582  34.147  1.00  0.00    -0.237 OA
ATOM     76  O   UNL A   1      52.034  25.668  35.303  1.00  0.00    -0.237 OA
ATOM     77  O   UNL A   1      50.757  23.934  36.505  1.00  0.00    -0.744 OA
ENDBRANCH  73  74
ENDBRANCH  54  68
BRANCH  55  78
ATOM     78  C   UNL A   1      38.787  30.658  30.356  1.00  0.00    -0.014 A 
ATOM     79  C   UNL A   1      38.756  31.820  29.565  1.00  0.00     0.010 A 
ATOM     80  C   UNL A   1      37.570  30.069  30.748  1.00  0.00     0.010 A 
ATOM     81  C   UNL A   1      37.535  32.396  29.196  1.00  0.00     0.020 A 
ATOM     82  C   UNL A   1      36.348  30.626  30.358  1.00  0.00     0.020 A 
ATOM     83  C   UNL A   1      36.339  31.796  29.598  1.00  0.00     0.054 A 
BRANCH  83  84
ATOM     84  S   UNL A   1      34.764  32.545  29.090  1.00  0.00     0.124 S 
ATOM     85  O   UNL A   1      34.173  32.908  30.374  1.00  0.00    -0.237 OA
ATOM     86  O   UNL A   1      35.199  33.662  28.255  1.00  0.00    -0.237 OA
ATOM     87  O   UNL A   1      34.090  31.467  28.371  1.00  0.00    -0.744 OA
ENDBRANCH  83  84
ENDBRANCH  55  78
BRANCH  67  88
ATOM     88  C   UNL A   1      42.920  31.938  35.832  1.00  0.00    -0.014 A 
ATOM     89  C   UNL A   1      43.432  33.239  35.680  1.00  0.00     0.010 A 
ATOM     90  C   UNL A   1      42.247  31.599  37.020  1.00  0.00     0.010 A 
ATOM     91  C   UNL A   1      43.283  34.179  36.703  1.00  0.00     0.020 A 
ATOM     92  C   UNL A   1      42.075  32.543  38.034  1.00  0.00     0.020 A 
ATOM     93  C   UNL A   1      42.601  33.827  37.872  1.00  0.00     0.054 A 
BRANCH  93  94
ATOM     94  S   UNL A   1      42.356  35.089  39.153  1.00  0.00     0.124 S 
ATOM     95  O   UNL A   1      42.622  34.337  40.376  1.00  0.00    -0.237 OA
ATOM     96  O   UNL A   1      43.353  36.098  38.806  1.00  0.00    -0.237 OA
ATOM     97  O   UNL A   1      40.967  35.505  38.968  1.00  0.00    -0.744 OA
ENDBRANCH  93  94
ENDBRANCH  67  88
ENDBRANCH  41  42
ENDBRANCH  34  36
ENDBRANCH  33  34
ENDBRANCH  32  33
ENDBRANCH  31  32
ENDBRANCH  30  31
ENDBRANCH  29  30
ENDBRANCH   1  29
TORSDOF 24
ENDMDL
MODEL 3
REMARK VINA RESULT:      -8.9      2.652      8.206
REMARK SMILES CC1=C(C)C[C@@H](C(=O)OCCOCCOCCOC(=O)c2ccc(-c3c4nc(c(-c5ccc(S(=O)(=O)[O-])cc5)c5ccc([nH]5)c(-c5ccc(S(=O)(=O)[O-])cc5)c5nc(c(-c6ccc(S(=O)(=O)[O-])cc6)c6ccc3[nH]6)C=C5)C=C4)cc2)[C@@H](C(=O)NCC[NH+]2CCOCC2)C1
REMARK SMILES IDX 13 1 12 2 11 3 10 4 9 5 7 6 8 7 6 8 1 9 2 10 3 11 93 12 4 13
REMARK SMILES IDX 5 14 81 15 82 16 83 17 84 18 85 20 86 21 87 22 88 23 92 24
REMARK SMILES IDX 89 26 91 27 90 28 14 29 15 30 16 31 17 32 18 33 19 34 20 35
REMARK SMILES IDX 21 36 22 37 80 38 23 39 79 40 24 41 25 42 26 43 73 44 27 45
REMARK SMILES IDX 78 46 72 47 74 48 28 49 77 50 71 51 70 52 29 54 59 55 40 56
REMARK SMILES IDX 58 57 41 58 44 59 57 60 75 61 42 62 43 63 56 65 76 66 45 67
REMARK SMILES IDX 30 68 31 69 39 70 32 71 38 72 33 73 34 74 35 75 36 76 37 77
REMARK SMILES IDX 60 78 61 79 69 80 62 81 68 82 63 83 64 84 65 85 66 86 67 87
REMARK SMILES IDX 46 88 47 89 55 90 48 91 54 92 49 93 50 94 51 95 52 96 53 97
REMARK H PARENT 84 19 87 25 74 53 44 64
REMARK Flexibility Score: inf
ROOT
ATOM      1  C   UNL A   1      33.446  28.496  26.059  1.00  0.00     0.188 C 
ENDROOT
BRANCH   1   2
ATOM      2  O   UNL A   1      33.957  29.185  24.920  1.00  0.00    -0.376 OA
BRANCH   2   3
ATOM      3  C   UNL A   1      34.076  28.363  23.761  1.00  0.00     0.202 C 
BRANCH   3   4
ATOM      4  C   UNL A   1      32.819  27.532  23.466  1.00  0.00     0.261 C 
BRANCH   4   5
ATOM      5  O   UNL A   1      33.073  26.395  22.605  1.00  0.00    -0.463 OA
BRANCH   5   6
ATOM      6  C   UNL A   1      33.634  25.314  23.198  1.00  0.00     0.310 C 
ATOM      7  O   UNL A   1      34.178  24.402  22.585  1.00  0.00    -0.252 OA
BRANCH   6   8
ATOM      8  C   UNL A   1      33.419  25.240  24.702  1.00  0.00     0.116 C 
ATOM      9  C   UNL A   1      33.881  21.582  27.197  1.00  0.00     0.039 C 
ATOM     10  C   UNL A   1      33.809  22.906  26.486  1.00  0.00    -0.074 C 
ATOM     11  C   UNL A   1      34.881  23.532  25.960  1.00  0.00    -0.073 C 
ATOM     12  C   UNL A   1      32.440  23.538  26.443  1.00  0.00     0.045 C 
ATOM     13  C   UNL A   1      36.291  23.006  26.004  1.00  0.00     0.039 C 
ATOM     14  C   UNL A   1      34.761  24.909  25.360  1.00  0.00     0.046 C 
ATOM     15  C   UNL A   1      32.187  24.539  25.306  1.00  0.00     0.097 C 
BRANCH  15  16
ATOM     16  C   UNL A   1      31.088  24.104  24.341  1.00  0.00     0.224 C 
ATOM     17  O   UNL A   1      31.149  22.975  23.840  1.00  0.00    -0.275 OA
ATOM     18  N   UNL A   1      30.025  24.867  23.992  1.00  0.00    -0.350 N 
ATOM     19  H   UNL A   1      29.436  24.455  23.319  1.00  0.00     0.163 HD
BRANCH  18  20
ATOM     20  C   UNL A   1      29.595  26.181  24.431  1.00  0.00     0.177 C 
BRANCH  20  21
ATOM     21  C   UNL A   1      29.295  27.162  23.277  1.00  0.00     0.283 C 
BRANCH  21  22
ATOM     22  N   UNL A   1      29.003  28.577  23.539  1.00  0.00    -0.330 N 
ATOM     23  C   UNL A   1      27.729  29.113  23.046  1.00  0.00     0.291 C 
ATOM     24  C   UNL A   1      30.102  29.524  23.303  1.00  0.00     0.291 C 
ATOM     25  H   UNL A   1      28.887  28.508  24.549  1.00  0.00     0.348 HD
ATOM     26  C   UNL A   1      27.815  29.744  21.647  1.00  0.00     0.221 C 
ATOM     27  C   UNL A   1      30.116  30.166  21.909  1.00  0.00     0.221 C 
ATOM     28  O   UNL A   1      28.842  30.741  21.586  1.00  0.00    -0.370 OA
ENDBRANCH  21  22
ENDBRANCH  20  21
ENDBRANCH  18  20
ENDBRANCH  15  16
ENDBRANCH   6   8
ENDBRANCH   5   6
ENDBRANCH   4   5
ENDBRANCH   3   4
ENDBRANCH   2   3
ENDBRANCH   1   2
BRANCH   1  29
ATOM     29  C   UNL A   1      32.028  28.917  26.420  1.00  0.00     0.188 C 
BRANCH  29  30
ATOM     30  O   UNL A   1      31.998  29.986  27.374  1.00  0.00    -0.376 OA
BRANCH  30  31
ATOM     31  C   UNL A   1      32.593  31.192  26.875  1.00  0.00     0.202 C 
BRANCH  31  32
ATOM     32  C   UNL A   1      33.227  32.072  27.958  1.00  0.00     0.261 C 
BRANCH  32  33
ATOM     33  O   UNL A   1      34.331  31.383  28.566  1.00  0.00    -0.460 OA
BRANCH  33  34
ATOM     34  C   UNL A   1      34.880  31.982  29.658  1.00  0.00     0.338 C 
ATOM     35  O   UNL A   1      34.299  32.614  30.513  1.00  0.00    -0.246 OA
BRANCH  34  36
ATOM     36  C   UNL A   1      36.304  31.558  29.741  1.00  0.00     0.060 A 
ATOM     37  C   UNL A   1      37.075  31.587  28.570  1.00  0.00     0.016 A 
ATOM     38  C   UNL A   1      36.898  31.227  30.962  1.00  0.00     0.016 A 
ATOM     39  C   UNL A   1      38.436  31.276  28.615  1.00  0.00     0.010 A 
ATOM     40  C   UNL A   1      38.255  30.905  31.004  1.00  0.00     0.010 A 
ATOM     41  C   UNL A   1      39.028  30.912  29.830  1.00  0.00    -0.014 A 
BRANCH  41  42
ATOM     42  C   UNL A   1      40.406  30.369  29.886  1.00  0.00     0.031 A 
ATOM     43  C   UNL A   1      41.525  31.322  30.200  1.00  0.00     0.074 A 
ATOM     44  C   UNL A   1      40.670  29.080  29.601  1.00  0.00     0.049 A 
ATOM     45  N   UNL A   1      42.816  31.144  30.109  1.00  0.00    -0.248 NA
ATOM     46  C   UNL A   1      41.128  32.661  30.670  1.00  0.00     0.031 C 
ATOM     47  C   UNL A   1      39.672  28.047  29.328  1.00  0.00     0.029 A 
ATOM     48  N   UNL A   1      41.874  28.431  29.461  1.00  0.00    -0.354 N 
ATOM     49  C   UNL A   1      43.387  32.350  30.498  1.00  0.00     0.074 A 
ATOM     50  C   UNL A   1      42.303  33.257  30.807  1.00  0.00     0.031 C 
ATOM     51  C   UNL A   1      40.306  26.899  29.022  1.00  0.00     0.029 A 
ATOM     52  C   UNL A   1      41.750  27.130  29.032  1.00  0.00     0.049 A 
ATOM     53  H   UNL A   1      42.741  28.856  29.652  1.00  0.00     0.167 HD
ATOM     54  C   UNL A   1      44.697  32.674  30.590  1.00  0.00     0.031 A 
ATOM     55  C   UNL A   1      42.692  26.246  28.644  1.00  0.00     0.031 A 
ATOM     56  C   UNL A   1      45.770  31.778  30.260  1.00  0.00     0.049 A 
ATOM     57  C   UNL A   1      44.144  26.661  28.657  1.00  0.00     0.074 A 
ATOM     58  C   UNL A   1      47.133  32.012  30.310  1.00  0.00     0.029 A 
ATOM     59  N   UNL A   1      45.603  30.478  29.811  1.00  0.00    -0.354 N 
ATOM     60  N   UNL A   1      44.673  27.803  29.030  1.00  0.00    -0.248 NA
ATOM     61  C   UNL A   1      45.124  25.672  28.182  1.00  0.00     0.031 C 
ATOM     62  C   UNL A   1      47.788  30.867  29.846  1.00  0.00     0.029 A 
ATOM     63  C   UNL A   1      46.835  29.904  29.555  1.00  0.00     0.049 A 
ATOM     64  H   UNL A   1      44.734  30.029  29.691  1.00  0.00     0.167 HD
ATOM     65  C   UNL A   1      46.046  27.662  28.848  1.00  0.00     0.074 A 
ATOM     66  C   UNL A   1      46.270  26.321  28.352  1.00  0.00     0.031 C 
ATOM     67  C   UNL A   1      47.035  28.565  29.065  1.00  0.00     0.031 A 
BRANCH  54  68
ATOM     68  C   UNL A   1      45.034  34.066  31.042  1.00  0.00    -0.014 A 
ATOM     69  C   UNL A   1      45.096  35.128  30.124  1.00  0.00     0.010 A 
ATOM     70  C   UNL A   1      45.261  34.322  32.407  1.00  0.00     0.010 A 
ATOM     71  C   UNL A   1      45.406  36.418  30.557  1.00  0.00     0.020 A 
ATOM     72  C   UNL A   1      45.549  35.616  32.847  1.00  0.00     0.020 A 
ATOM     73  C   UNL A   1      45.633  36.655  31.917  1.00  0.00     0.054 A 
BRANCH  73  74
ATOM     74  S   UNL A   1      46.005  38.346  32.454  1.00  0.00     0.124 S 
ATOM     75  O   UNL A   1      44.784  38.711  33.168  1.00  0.00    -0.237 OA
ATOM     76  O   UNL A   1      47.189  38.164  33.289  1.00  0.00    -0.237 OA
ATOM     77  O   UNL A   1      46.233  39.066  31.203  1.00  0.00    -0.744 OA
ENDBRANCH  73  74
ENDBRANCH  54  68
BRANCH  55  78
ATOM     78  C   UNL A   1      42.300  24.899  28.142  1.00  0.00    -0.014 A 
ATOM     79  C   UNL A   1      41.616  24.756  26.922  1.00  0.00     0.010 A 
ATOM     80  C   UNL A   1      42.577  23.750  28.907  1.00  0.00     0.010 A 
ATOM     81  C   UNL A   1      41.195  23.493  26.489  1.00  0.00     0.020 A 
ATOM     82  C   UNL A   1      42.182  22.484  28.464  1.00  0.00     0.020 A 
ATOM     83  C   UNL A   1      41.478  22.366  27.265  1.00  0.00     0.054 A 
BRANCH  83  84
ATOM     84  S   UNL A   1      40.944  20.734  26.674  1.00  0.00     0.124 S 
ATOM     85  O   UNL A   1      40.853  19.977  27.919  1.00  0.00    -0.237 OA
ATOM     86  O   UNL A   1      39.672  21.033  26.021  1.00  0.00    -0.237 OA
ATOM     87  O   UNL A   1      42.019  20.329  25.771  1.00  0.00    -0.744 OA
ENDBRANCH  83  84
ENDBRANCH  55  78
BRANCH  67  88
ATOM     88  C   UNL A   1      48.451  28.134  28.787  1.00  0.00    -0.014 A 
ATOM     89  C   UNL A   1      49.052  28.393  27.543  1.00  0.00     0.010 A 
ATOM     90  C   UNL A   1      49.215  27.549  29.812  1.00  0.00     0.010 A 
ATOM     91  C   UNL A   1      50.393  28.062  27.326  1.00  0.00     0.020 A 
ATOM     92  C   UNL A   1      50.562  27.239  29.607  1.00  0.00     0.020 A 
ATOM     93  C   UNL A   1      51.140  27.491  28.361  1.00  0.00     0.054 A 
BRANCH  93  94
ATOM     94  S   UNL A   1      52.898  27.140  28.077  1.00  0.00     0.124 S 
ATOM     95  O   UNL A   1      52.854  25.789  27.527  1.00  0.00    -0.237 OA
ATOM     96  O   UNL A   1      53.288  28.190  27.139  1.00  0.00    -0.237 OA
ATOM     97  O   UNL A   1      53.493  27.251  29.408  1.00  0.00    -0.744 OA
ENDBRANCH  93  94
ENDBRANCH  67  88
ENDBRANCH  41  42
ENDBRANCH  34  36
ENDBRANCH  33  34
ENDBRANCH  32  33
ENDBRANCH  31  32
ENDBRANCH  30  31
ENDBRANCH  29  30
ENDBRANCH   1  29
TORSDOF 24
ENDMDL
