MODEL 1
REMARK VINA RESULT:      -9.2      0.000      0.000
REMARK SMILES O=C(OCCOCCOCCOC(=O)c1ccc(-c2cccc(F)c2)o1)c1ccc(-c2c3nc(c(-c4ccc(S(=O)(=O)[O-])cc4)c4ccc([nH]4)c(-c4ccc(S(=O)(=O)[O-])cc4)c4nc(c(-c5ccc(S(=O)(=O)[O-])cc5)c5ccc2[nH]5)C=C4)C=C3)cc1
REMARK SMILES IDX 7 1 6 2 5 3 4 4 3 5 2 6 1 7 27 8 28 9 86 10 29 11 85 12
REMARK SMILES IDX 30 13 31 14 32 15 79 16 33 17 84 18 78 19 80 20 34 21 83 22
REMARK SMILES IDX 77 23 76 24 35 26 65 27 46 28 64 29 47 30 50 31 63 32 81 33
REMARK SMILES IDX 48 34 49 35 62 37 82 38 51 39 36 40 37 41 45 42 38 43 44 44
REMARK SMILES IDX 39 45 40 46 41 47 42 48 43 49 66 50 67 51 75 52 68 53 74 54
REMARK SMILES IDX 69 55 70 56 71 57 72 58 73 59 52 60 53 61 61 62 54 63 60 64
REMARK SMILES IDX 55 65 56 66 57 67 58 68 59 69 8 70 9 71 10 72 11 73 12 74
REMARK SMILES IDX 13 75 14 76 15 77 16 78 26 79 17 80 18 81 19 82 20 83 25 84
REMARK SMILES IDX 21 85 23 86 22 87 24 88
REMARK H PARENT 80 25 50 36
REMARK Flexibility Score: inf
ROOT
ATOM      1  C   UNL A   1      34.114  33.742  29.535  1.00  0.00     0.188 C 
ENDROOT
BRANCH   1   2
ATOM      2  O   UNL A   1      33.952  33.095  30.808  1.00  0.00    -0.376 OA
BRANCH   2   3
ATOM      3  C   UNL A   1      34.865  33.553  31.804  1.00  0.00     0.202 C 
BRANCH   3   4
ATOM      4  C   UNL A   1      35.423  32.434  32.692  1.00  0.00     0.261 C 
BRANCH   4   5
ATOM      5  O   UNL A   1      36.700  31.980  32.208  1.00  0.00    -0.460 OA
BRANCH   5   6
ATOM      6  C   UNL A   1      36.987  30.816  31.570  1.00  0.00     0.338 C 
ATOM      7  O   UNL A   1      36.106  29.967  31.454  1.00  0.00    -0.246 OA
BRANCH   6   8
ATOM      8  C   UNL A   1      38.307  30.554  30.925  1.00  0.00     0.060 A 
ATOM      9  C   UNL A   1      38.588  30.811  29.584  1.00  0.00     0.016 A 
ATOM     10  C   UNL A   1      39.347  30.077  31.742  1.00  0.00     0.016 A 
ATOM     11  C   UNL A   1      39.816  30.451  29.032  1.00  0.00     0.010 A 
ATOM     12  C   UNL A   1      40.611  29.796  31.209  1.00  0.00     0.010 A 
ATOM     13  C   UNL A   1      40.841  29.936  29.835  1.00  0.00    -0.014 A 
BRANCH  13  14
ATOM     14  C   UNL A   1      42.118  29.524  29.198  1.00  0.00     0.031 A 
ATOM     15  C   UNL A   1      43.289  30.468  29.175  1.00  0.00     0.074 A 
ATOM     16  C   UNL A   1      42.266  28.261  28.753  1.00  0.00     0.049 A 
ATOM     17  N   UNL A   1      44.502  30.261  28.731  1.00  0.00    -0.248 NA
ATOM     18  C   UNL A   1      43.076  31.809  29.740  1.00  0.00     0.031 C 
ATOM     19  C   UNL A   1      41.223  27.234  28.776  1.00  0.00     0.029 A 
ATOM     20  N   UNL A   1      43.360  27.610  28.242  1.00  0.00    -0.354 N 
ATOM     21  C   UNL A   1      45.197  31.442  28.961  1.00  0.00     0.074 A 
ATOM     22  C   UNL A   1      44.263  32.370  29.562  1.00  0.00     0.031 C 
ATOM     23  C   UNL A   1      41.746  26.071  28.360  1.00  0.00     0.029 A 
ATOM     24  C   UNL A   1      43.134  26.280  27.977  1.00  0.00     0.049 A 
ATOM     25  H   UNL A   1      44.224  28.053  28.079  1.00  0.00     0.167 HD
ATOM     26  C   UNL A   1      46.495  31.728  28.706  1.00  0.00     0.031 A 
ATOM     27  C   UNL A   1      43.946  25.328  27.478  1.00  0.00     0.031 A 
ATOM     28  C   UNL A   1      47.420  30.814  28.094  1.00  0.00     0.049 A 
ATOM     29  C   UNL A   1      45.365  25.686  27.149  1.00  0.00     0.074 A 
ATOM     30  C   UNL A   1      48.734  31.036  27.718  1.00  0.00     0.029 A 
ATOM     31  N   UNL A   1      47.131  29.496  27.777  1.00  0.00    -0.354 N 
ATOM     32  N   UNL A   1      45.982  26.829  27.324  1.00  0.00    -0.248 NA
ATOM     33  C   UNL A   1      46.194  24.629  26.557  1.00  0.00     0.031 C 
ATOM     34  C   UNL A   1      49.232  29.855  27.154  1.00  0.00     0.029 A 
ATOM     35  C   UNL A   1      48.237  28.891  27.209  1.00  0.00     0.049 A 
ATOM     36  H   UNL A   1      46.264  29.056  27.934  1.00  0.00     0.167 HD
ATOM     37  C   UNL A   1      47.273  26.632  26.854  1.00  0.00     0.074 A 
ATOM     38  C   UNL A   1      47.357  25.251  26.421  1.00  0.00     0.031 C 
ATOM     39  C   UNL A   1      48.294  27.520  26.775  1.00  0.00     0.031 A 
BRANCH  26  40
ATOM     40  C   UNL A   1      46.966  33.108  29.068  1.00  0.00    -0.014 A 
ATOM     41  C   UNL A   1      47.607  33.348  30.296  1.00  0.00     0.010 A 
ATOM     42  C   UNL A   1      46.744  34.178  28.185  1.00  0.00     0.010 A 
ATOM     43  C   UNL A   1      47.981  34.646  30.655  1.00  0.00     0.020 A 
ATOM     44  C   UNL A   1      47.129  35.476  28.534  1.00  0.00     0.020 A 
ATOM     45  C   UNL A   1      47.726  35.704  29.777  1.00  0.00     0.054 A 
BRANCH  45  46
ATOM     46  S   UNL A   1      48.197  37.384  30.271  1.00  0.00     0.124 S 
ATOM     47  O   UNL A   1      47.635  38.184  29.185  1.00  0.00    -0.237 OA
ATOM     48  O   UNL A   1      47.542  37.538  31.567  1.00  0.00    -0.237 OA
ATOM     49  O   UNL A   1      49.657  37.333  30.317  1.00  0.00    -0.744 OA
ENDBRANCH  45  46
ENDBRANCH  26  40
BRANCH  27  50
ATOM     50  C   UNL A   1      43.420  23.959  27.230  1.00  0.00    -0.014 A 
ATOM     51  C   UNL A   1      43.247  23.049  28.287  1.00  0.00     0.010 A 
ATOM     52  C   UNL A   1      43.078  23.566  25.923  1.00  0.00     0.010 A 
ATOM     53  C   UNL A   1      42.752  21.765  28.039  1.00  0.00     0.020 A 
ATOM     54  C   UNL A   1      42.563  22.291  25.675  1.00  0.00     0.020 A 
ATOM     55  C   UNL A   1      42.416  21.394  26.734  1.00  0.00     0.054 A 
BRANCH  55  56
ATOM     56  S   UNL A   1      41.717  19.746  26.428  1.00  0.00     0.124 S 
ATOM     57  O   UNL A   1      42.201  18.995  27.582  1.00  0.00    -0.237 OA
ATOM     58  O   UNL A   1      40.280  20.005  26.396  1.00  0.00    -0.237 OA
ATOM     59  O   UNL A   1      42.300  19.372  25.142  1.00  0.00    -0.744 OA
ENDBRANCH  55  56
ENDBRANCH  27  50
BRANCH  39  60
ATOM     60  C   UNL A   1      49.579  27.015  26.190  1.00  0.00    -0.014 A 
ATOM     61  C   UNL A   1      49.836  27.145  24.814  1.00  0.00     0.010 A 
ATOM     62  C   UNL A   1      50.544  26.425  27.023  1.00  0.00     0.010 A 
ATOM     63  C   UNL A   1      51.028  26.662  24.273  1.00  0.00     0.020 A 
ATOM     64  C   UNL A   1      51.746  25.955  26.487  1.00  0.00     0.020 A 
ATOM     65  C   UNL A   1      51.972  26.063  25.111  1.00  0.00     0.054 A 
BRANCH  65  66
ATOM     66  S   UNL A   1      53.531  25.468  24.400  1.00  0.00     0.124 S 
ATOM     67  O   UNL A   1      53.376  25.827  22.993  1.00  0.00    -0.237 OA
ATOM     68  O   UNL A   1      54.538  26.228  25.135  1.00  0.00    -0.237 OA
ATOM     69  O   UNL A   1      53.511  24.035  24.686  1.00  0.00    -0.744 OA
ENDBRANCH  65  66
ENDBRANCH  39  60
ENDBRANCH  13  14
ENDBRANCH   6   8
ENDBRANCH   5   6
ENDBRANCH   4   5
ENDBRANCH   3   4
ENDBRANCH   2   3
ENDBRANCH   1   2
BRANCH   1  70
ATOM     70  C   UNL A   1      35.368  33.208  28.841  1.00  0.00     0.188 C 
BRANCH  70  71
ATOM     71  O   UNL A   1      35.057  32.497  27.637  1.00  0.00    -0.376 OA
BRANCH  71  72
ATOM     72  C   UNL A   1      33.671  32.231  27.426  1.00  0.00     0.202 C 
BRANCH  72  73
ATOM     73  C   UNL A   1      33.335  30.737  27.420  1.00  0.00     0.261 C 
BRANCH  73  74
ATOM     74  O   UNL A   1      33.467  30.131  26.123  1.00  0.00    -0.457 OA
BRANCH  74  75
ATOM     75  C   UNL A   1      34.162  28.958  26.072  1.00  0.00     0.374 C 
ATOM     76  O   UNL A   1      34.959  28.578  26.928  1.00  0.00    -0.242 OA
BRANCH  75  77
ATOM     77  C   UNL A   1      33.806  28.235  24.881  1.00  0.00     0.212 A 
ATOM     78  C   UNL A   1      33.502  28.658  23.598  1.00  0.00     0.059 A 
ATOM     79  O   UNL A   1      33.763  26.864  24.930  1.00  0.00    -0.449 OA
ATOM     80  C   UNL A   1      33.327  27.490  22.817  1.00  0.00     0.052 A 
ATOM     81  C   UNL A   1      33.446  26.426  23.681  1.00  0.00     0.135 A 
BRANCH  81  82
ATOM     82  C   UNL A   1      33.332  24.994  23.511  1.00  0.00     0.020 A 
ATOM     83  C   UNL A   1      32.083  24.420  23.238  1.00  0.00     0.012 A 
ATOM     84  C   UNL A   1      34.451  24.170  23.667  1.00  0.00     0.051 A 
ATOM     85  C   UNL A   1      31.950  23.034  23.125  1.00  0.00     0.004 A 
ATOM     86  C   UNL A   1      34.306  22.792  23.554  1.00  0.00     0.123 A 
ATOM     87  C   UNL A   1      33.067  22.217  23.287  1.00  0.00     0.039 A 
ATOM     88  F   UNL A   1      35.375  22.000  23.713  1.00  0.00    -0.207 F 
ENDBRANCH  81  82
ENDBRANCH  75  77
ENDBRANCH  74  75
ENDBRANCH  73  74
ENDBRANCH  72  73
ENDBRANCH  71  72
ENDBRANCH  70  71
ENDBRANCH   1  70
TORSDOF 21
ENDMDL
MODEL 2
REMARK VINA RESULT:      -8.9      5.585     10.869
REMARK SMILES O=C(OCCOCCOCCOC(=O)c1ccc(-c2cccc(F)c2)o1)c1ccc(-c2c3nc(c(-c4ccc(S(=O)(=O)[O-])cc4)c4ccc([nH]4)c(-c4ccc(S(=O)(=O)[O-])cc4)c4nc(c(-c5ccc(S(=O)(=O)[O-])cc5)c5ccc2[nH]5)C=C4)C=C3)cc1
REMARK SMILES IDX 7 1 6 2 5 3 4 4 3 5 2 6 1 7 27 8 28 9 86 10 29 11 85 12
REMARK SMILES IDX 30 13 31 14 32 15 79 16 33 17 84 18 78 19 80 20 34 21 83 22
REMARK SMILES IDX 77 23 76 24 35 26 65 27 46 28 64 29 47 30 50 31 63 32 81 33
REMARK SMILES IDX 48 34 49 35 62 37 82 38 51 39 36 40 37 41 45 42 38 43 44 44
REMARK SMILES IDX 39 45 40 46 41 47 42 48 43 49 66 50 67 51 75 52 68 53 74 54
REMARK SMILES IDX 69 55 70 56 71 57 72 58 73 59 52 60 53 61 61 62 54 63 60 64
REMARK SMILES IDX 55 65 56 66 57 67 58 68 59 69 8 70 9 71 10 72 11 73 12 74
REMARK SMILES IDX 13 75 14 76 15 77 16 78 26 79 17 80 18 81 19 82 20 83 25 84
REMARK SMILES IDX 21 85 23 86 22 87 24 88
REMARK H PARENT 80 25 50 36
REMARK Flexibility Score: inf
ROOT
ATOM      1  C   UNL A   1      33.191  36.055  29.653  1.00  0.00     0.188 C 
ENDROOT
BRANCH   1   2
ATOM      2  O   UNL A   1      33.938  35.382  28.627  1.00  0.00    -0.376 OA
BRANCH   2   3
ATOM      3  C   UNL A   1      33.389  34.119  28.253  1.00  0.00     0.202 C 
BRANCH   3   4
ATOM      4  C   UNL A   1      34.423  33.143  27.677  1.00  0.00     0.261 C 
BRANCH   4   5
ATOM      5  O   UNL A   1      34.328  31.856  28.314  1.00  0.00    -0.460 OA
BRANCH   5   6
ATOM      6  C   UNL A   1      35.065  30.743  28.065  1.00  0.00     0.338 C 
ATOM      7  O   UNL A   1      34.731  30.000  27.144  1.00  0.00    -0.246 OA
BRANCH   6   8
ATOM      8  C   UNL A   1      36.320  30.424  28.807  1.00  0.00     0.060 A 
ATOM      9  C   UNL A   1      37.514  31.130  28.665  1.00  0.00     0.016 A 
ATOM     10  C   UNL A   1      36.269  29.387  29.754  1.00  0.00     0.016 A 
ATOM     11  C   UNL A   1      38.670  30.712  29.323  1.00  0.00     0.010 A 
ATOM     12  C   UNL A   1      37.408  29.020  30.483  1.00  0.00     0.010 A 
ATOM     13  C   UNL A   1      38.633  29.651  30.236  1.00  0.00    -0.014 A 
BRANCH  13  14
ATOM     14  C   UNL A   1      39.897  29.211  30.881  1.00  0.00     0.031 A 
ATOM     15  C   UNL A   1      40.733  28.134  30.246  1.00  0.00     0.074 A 
ATOM     16  C   UNL A   1      40.356  29.865  31.966  1.00  0.00     0.049 A 
ATOM     17  N   UNL A   1      41.898  27.670  30.621  1.00  0.00    -0.248 NA
ATOM     18  C   UNL A   1      40.202  27.510  29.025  1.00  0.00     0.031 C 
ATOM     19  C   UNL A   1      39.666  30.968  32.637  1.00  0.00     0.029 A 
ATOM     20  N   UNL A   1      41.530  29.735  32.664  1.00  0.00    -0.354 N 
ATOM     21  C   UNL A   1      42.239  26.702  29.685  1.00  0.00     0.074 A 
ATOM     22  C   UNL A   1      41.147  26.626  28.738  1.00  0.00     0.031 C 
ATOM     23  C   UNL A   1      40.456  31.451  33.608  1.00  0.00     0.029 A 
ATOM     24  C   UNL A   1      41.673  30.656  33.674  1.00  0.00     0.049 A 
ATOM     25  H   UNL A   1      42.205  29.046  32.461  1.00  0.00     0.167 HD
ATOM     26  C   UNL A   1      43.362  25.949  29.612  1.00  0.00     0.031 A 
ATOM     27  C   UNL A   1      42.667  30.845  34.563  1.00  0.00     0.031 A 
ATOM     28  C   UNL A   1      44.441  26.010  30.560  1.00  0.00     0.049 A 
ATOM     29  C   UNL A   1      43.876  29.959  34.497  1.00  0.00     0.074 A 
ATOM     30  C   UNL A   1      45.583  25.231  30.620  1.00  0.00     0.029 A 
ATOM     31  N   UNL A   1      44.514  26.910  31.611  1.00  0.00    -0.354 N 
ATOM     32  N   UNL A   1      44.149  29.010  33.635  1.00  0.00    -0.248 NA
ATOM     33  C   UNL A   1      44.906  30.168  35.522  1.00  0.00     0.031 C 
ATOM     34  C   UNL A   1      46.339  25.649  31.723  1.00  0.00     0.029 A 
ATOM     35  C   UNL A   1      45.680  26.708  32.328  1.00  0.00     0.049 A 
ATOM     36  H   UNL A   1      43.836  27.594  31.816  1.00  0.00     0.167 HD
ATOM     37  C   UNL A   1      45.382  28.501  34.018  1.00  0.00     0.074 A 
ATOM     38  C   UNL A   1      45.816  29.270  35.167  1.00  0.00     0.031 C 
ATOM     39  C   UNL A   1      46.085  27.478  33.474  1.00  0.00     0.031 A 
BRANCH  26  40
ATOM     40  C   UNL A   1      43.448  24.974  28.473  1.00  0.00    -0.014 A 
ATOM     41  C   UNL A   1      42.847  23.706  28.568  1.00  0.00     0.010 A 
ATOM     42  C   UNL A   1      44.155  25.317  27.308  1.00  0.00     0.010 A 
ATOM     43  C   UNL A   1      42.990  22.779  27.531  1.00  0.00     0.020 A 
ATOM     44  C   UNL A   1      44.287  24.398  26.263  1.00  0.00     0.020 A 
ATOM     45  C   UNL A   1      43.722  23.126  26.392  1.00  0.00     0.054 A 
BRANCH  45  46
ATOM     46  S   UNL A   1      43.914  21.901  25.069  1.00  0.00     0.124 S 
ATOM     47  O   UNL A   1      45.353  21.644  25.107  1.00  0.00    -0.237 OA
ATOM     48  O   UNL A   1      43.069  20.799  25.519  1.00  0.00    -0.237 OA
ATOM     49  O   UNL A   1      43.437  22.601  23.878  1.00  0.00    -0.744 OA
ENDBRANCH  45  46
ENDBRANCH  26  40
BRANCH  27  50
ATOM     50  C   UNL A   1      42.539  31.894  35.609  1.00  0.00    -0.014 A 
ATOM     51  C   UNL A   1      43.042  33.189  35.399  1.00  0.00     0.010 A 
ATOM     52  C   UNL A   1      41.895  31.598  36.825  1.00  0.00     0.010 A 
ATOM     53  C   UNL A   1      42.915  34.167  36.391  1.00  0.00     0.020 A 
ATOM     54  C   UNL A   1      41.746  32.578  37.809  1.00  0.00     0.020 A 
ATOM     55  C   UNL A   1      42.270  33.853  37.591  1.00  0.00     0.054 A 
BRANCH  55  56
ATOM     56  S   UNL A   1      42.055  35.143  38.850  1.00  0.00     0.124 S 
ATOM     57  O   UNL A   1      41.253  34.452  39.855  1.00  0.00    -0.237 OA
ATOM     58  O   UNL A   1      43.430  35.450  39.236  1.00  0.00    -0.237 OA
ATOM     59  O   UNL A   1      41.372  36.208  38.120  1.00  0.00    -0.744 OA
ENDBRANCH  55  56
ENDBRANCH  27  50
BRANCH  39  60
ATOM     60  C   UNL A   1      47.389  27.137  34.131  1.00  0.00    -0.014 A 
ATOM     61  C   UNL A   1      48.580  27.759  33.718  1.00  0.00     0.010 A 
ATOM     62  C   UNL A   1      47.423  26.203  35.180  1.00  0.00     0.010 A 
ATOM     63  C   UNL A   1      49.793  27.429  34.323  1.00  0.00     0.020 A 
ATOM     64  C   UNL A   1      48.633  25.883  35.800  1.00  0.00     0.020 A 
ATOM     65  C   UNL A   1      49.813  26.487  35.356  1.00  0.00     0.054 A 
BRANCH  65  66
ATOM     66  S   UNL A   1      51.392  26.090  36.156  1.00  0.00     0.124 S 
ATOM     67  O   UNL A   1      52.290  25.978  35.010  1.00  0.00    -0.237 OA
ATOM     68  O   UNL A   1      51.620  27.244  37.023  1.00  0.00    -0.237 OA
ATOM     69  O   UNL A   1      51.114  24.839  36.857  1.00  0.00    -0.744 OA
ENDBRANCH  65  66
ENDBRANCH  39  60
ENDBRANCH  13  14
ENDBRANCH   6   8
ENDBRANCH   5   6
ENDBRANCH   4   5
ENDBRANCH   3   4
ENDBRANCH   2   3
ENDBRANCH   1   2
BRANCH   1  70
ATOM     70  C   UNL A   1      33.144  35.186  30.912  1.00  0.00     0.188 C 
BRANCH  70  71
ATOM     71  O   UNL A   1      34.454  34.881  31.405  1.00  0.00    -0.376 OA
BRANCH  71  72
ATOM     72  C   UNL A   1      34.656  35.131  32.796  1.00  0.00     0.202 C 
BRANCH  72  73
ATOM     73  C   UNL A   1      34.399  33.904  33.676  1.00  0.00     0.261 C 
BRANCH  73  74
ATOM     74  O   UNL A   1      35.603  33.214  34.052  1.00  0.00    -0.457 OA
BRANCH  74  75
ATOM     75  C   UNL A   1      36.293  33.736  35.108  1.00  0.00     0.374 C 
ATOM     76  O   UNL A   1      35.860  33.819  36.255  1.00  0.00    -0.242 OA
BRANCH  75  77
ATOM     77  C   UNL A   1      37.600  34.152  34.674  1.00  0.00     0.212 A 
ATOM     78  C   UNL A   1      38.715  34.580  35.375  1.00  0.00     0.059 A 
ATOM     79  O   UNL A   1      37.890  34.124  33.332  1.00  0.00    -0.449 OA
ATOM     80  C   UNL A   1      39.747  34.760  34.424  1.00  0.00     0.052 A 
ATOM     81  C   UNL A   1      39.184  34.520  33.192  1.00  0.00     0.135 A 
BRANCH  81  82
ATOM     82  C   UNL A   1      39.695  34.577  31.840  1.00  0.00     0.020 A 
ATOM     83  C   UNL A   1      38.808  34.578  30.756  1.00  0.00     0.012 A 
ATOM     84  C   UNL A   1      41.074  34.581  31.603  1.00  0.00     0.051 A 
ATOM     85  C   UNL A   1      39.291  34.578  29.445  1.00  0.00     0.004 A 
ATOM     86  C   UNL A   1      41.543  34.580  30.294  1.00  0.00     0.123 A 
ATOM     87  C   UNL A   1      40.665  34.576  29.214  1.00  0.00     0.039 A 
ATOM     88  F   UNL A   1      42.863  34.574  30.065  1.00  0.00    -0.207 F 
ENDBRANCH  81  82
ENDBRANCH  75  77
ENDBRANCH  74  75
ENDBRANCH  73  74
ENDBRANCH  72  73
ENDBRANCH  71  72
ENDBRANCH  70  71
ENDBRANCH   1  70
TORSDOF 21
ENDMDL
MODEL 3
REMARK VINA RESULT:      -8.9      2.762     10.076
REMARK SMILES O=C(OCCOCCOCCOC(=O)c1ccc(-c2cccc(F)c2)o1)c1ccc(-c2c3nc(c(-c4ccc(S(=O)(=O)[O-])cc4)c4ccc([nH]4)c(-c4ccc(S(=O)(=O)[O-])cc4)c4nc(c(-c5ccc(S(=O)(=O)[O-])cc5)c5ccc2[nH]5)C=C4)C=C3)cc1
REMARK SMILES IDX 7 1 6 2 5 3 4 4 3 5 2 6 1 7 27 8 28 9 86 10 29 11 85 12
REMARK SMILES IDX 30 13 31 14 32 15 79 16 33 17 84 18 78 19 80 20 34 21 83 22
REMARK SMILES IDX 77 23 76 24 35 26 65 27 46 28 64 29 47 30 50 31 63 32 81 33
REMARK SMILES IDX 48 34 49 35 62 37 82 38 51 39 36 40 37 41 45 42 38 43 44 44
REMARK SMILES IDX 39 45 40 46 41 47 42 48 43 49 66 50 67 51 75 52 68 53 74 54
REMARK SMILES IDX 69 55 70 56 71 57 72 58 73 59 52 60 53 61 61 62 54 63 60 64
REMARK SMILES IDX 55 65 56 66 57 67 58 68 59 69 8 70 9 71 10 72 11 73 12 74
REMARK SMILES IDX 13 75 14 76 15 77 16 78 26 79 17 80 18 81 19 82 20 83 25 84
REMARK SMILES IDX 21 85 23 86 22 87 24 88
REMARK H PARENT 80 25 50 36
REMARK Flexibility Score: inf
ROOT
ATOM      1  C   UNL A   1      41.071  21.429  27.564  1.00  0.00     0.188 C 
ENDROOT
BRANCH   1   2
ATOM      2  O   UNL A   1      42.031  20.389  27.316  1.00  0.00    -0.376 OA
BRANCH   2   3
ATOM      3  C   UNL A   1      41.653  19.501  26.266  1.00  0.00     0.202 C 
BRANCH   3   4
ATOM      4  C   UNL A   1      42.739  18.481  25.900  1.00  0.00     0.261 C 
BRANCH   4   5
ATOM      5  O   UNL A   1      44.026  19.117  25.782  1.00  0.00    -0.460 OA
BRANCH   5   6
ATOM      6  C   UNL A   1      44.455  19.961  24.808  1.00  0.00     0.338 C 
ATOM      7  O   UNL A   1      44.418  19.588  23.638  1.00  0.00    -0.246 OA
BRANCH   6   8
ATOM      8  C   UNL A   1      44.893  21.359  25.089  1.00  0.00     0.060 A 
ATOM      9  C   UNL A   1      45.384  21.794  26.320  1.00  0.00     0.016 A 
ATOM     10  C   UNL A   1      44.866  22.276  24.024  1.00  0.00     0.016 A 
ATOM     11  C   UNL A   1      45.683  23.138  26.532  1.00  0.00     0.010 A 
ATOM     12  C   UNL A   1      45.250  23.610  24.210  1.00  0.00     0.010 A 
ATOM     13  C   UNL A   1      45.617  24.064  25.483  1.00  0.00    -0.014 A 
BRANCH  13  14
ATOM     14  C   UNL A   1      45.903  25.494  25.764  1.00  0.00     0.031 A 
ATOM     15  C   UNL A   1      44.818  26.389  26.297  1.00  0.00     0.074 A 
ATOM     16  C   UNL A   1      47.164  25.956  25.661  1.00  0.00     0.049 A 
ATOM     17  N   UNL A   1      44.896  27.641  26.670  1.00  0.00    -0.248 NA
ATOM     18  C   UNL A   1      43.479  25.798  26.449  1.00  0.00     0.031 C 
ATOM     19  C   UNL A   1      48.314  25.169  25.214  1.00  0.00     0.029 A 
ATOM     20  N   UNL A   1      47.701  27.180  25.971  1.00  0.00    -0.354 N 
ATOM     21  C   UNL A   1      43.620  27.988  27.099  1.00  0.00     0.074 A 
ATOM     22  C   UNL A   1      42.782  26.823  26.917  1.00  0.00     0.031 C 
ATOM     23  C   UNL A   1      49.425  25.910  25.338  1.00  0.00     0.029 A 
ATOM     24  C   UNL A   1      49.064  27.240  25.806  1.00  0.00     0.049 A 
ATOM     25  H   UNL A   1      47.161  27.943  26.281  1.00  0.00     0.167 HD
ATOM     26  C   UNL A   1      43.186  29.166  27.606  1.00  0.00     0.031 A 
ATOM     27  C   UNL A   1      49.935  28.248  26.002  1.00  0.00     0.031 A 
ATOM     28  C   UNL A   1      44.012  30.331  27.772  1.00  0.00     0.049 A 
ATOM     29  C   UNL A   1      49.419  29.562  26.511  1.00  0.00     0.074 A 
ATOM     30  C   UNL A   1      43.647  31.595  28.200  1.00  0.00     0.029 A 
ATOM     31  N   UNL A   1      45.375  30.369  27.526  1.00  0.00    -0.354 N 
ATOM     32  N   UNL A   1      48.195  29.882  26.855  1.00  0.00    -0.248 NA
ATOM     33  C   UNL A   1      50.398  30.646  26.655  1.00  0.00     0.031 C 
ATOM     34  C   UNL A   1      44.791  32.405  28.193  1.00  0.00     0.029 A 
ATOM     35  C   UNL A   1      45.870  31.634  27.790  1.00  0.00     0.049 A 
ATOM     36  H   UNL A   1      45.913  29.607  27.210  1.00  0.00     0.167 HD
ATOM     37  C   UNL A   1      48.254  31.211  27.250  1.00  0.00     0.074 A 
ATOM     38  C   UNL A   1      49.640  31.623  27.136  1.00  0.00     0.031 C 
ATOM     39  C   UNL A   1      47.249  32.022  27.658  1.00  0.00     0.031 A 
BRANCH  26  40
ATOM     40  C   UNL A   1      41.735  29.243  27.984  1.00  0.00    -0.014 A 
ATOM     41  C   UNL A   1      40.730  29.085  27.012  1.00  0.00     0.010 A 
ATOM     42  C   UNL A   1      41.370  29.501  29.317  1.00  0.00     0.010 A 
ATOM     43  C   UNL A   1      39.384  29.227  27.360  1.00  0.00     0.020 A 
ATOM     44  C   UNL A   1      40.024  29.629  29.671  1.00  0.00     0.020 A 
ATOM     45  C   UNL A   1      39.040  29.512  28.685  1.00  0.00     0.054 A 
BRANCH  45  46
ATOM     46  S   UNL A   1      37.289  29.715  29.111  1.00  0.00     0.124 S 
ATOM     47  O   UNL A   1      36.630  29.267  27.885  1.00  0.00    -0.237 OA
ATOM     48  O   UNL A   1      37.131  28.835  30.265  1.00  0.00    -0.237 OA
ATOM     49  O   UNL A   1      37.167  31.142  29.398  1.00  0.00    -0.744 OA
ENDBRANCH  45  46
ENDBRANCH  26  40
BRANCH  27  50
ATOM     50  C   UNL A   1      51.375  28.060  25.682  1.00  0.00    -0.014 A 
ATOM     51  C   UNL A   1      52.283  27.629  26.664  1.00  0.00     0.010 A 
ATOM     52  C   UNL A   1      51.841  28.301  24.377  1.00  0.00     0.010 A 
ATOM     53  C   UNL A   1      53.634  27.455  26.350  1.00  0.00     0.020 A 
ATOM     54  C   UNL A   1      53.186  28.108  24.053  1.00  0.00     0.020 A 
ATOM     55  C   UNL A   1      54.077  27.699  25.046  1.00  0.00     0.054 A 
BRANCH  55  56
ATOM     56  S   UNL A   1      55.821  27.414  24.630  1.00  0.00     0.124 S 
ATOM     57  O   UNL A   1      56.350  28.774  24.601  1.00  0.00    -0.237 OA
ATOM     58  O   UNL A   1      56.284  26.576  25.733  1.00  0.00    -0.237 OA
ATOM     59  O   UNL A   1      55.748  26.738  23.337  1.00  0.00    -0.744 OA
ENDBRANCH  55  56
ENDBRANCH  27  50
BRANCH  39  60
ATOM     60  C   UNL A   1      47.622  33.434  27.999  1.00  0.00    -0.014 A 
ATOM     61  C   UNL A   1      48.009  33.774  29.307  1.00  0.00     0.010 A 
ATOM     62  C   UNL A   1      47.604  34.424  27.002  1.00  0.00     0.010 A 
ATOM     63  C   UNL A   1      48.343  35.092  29.622  1.00  0.00     0.020 A 
ATOM     64  C   UNL A   1      47.954  35.741  27.310  1.00  0.00     0.020 A 
ATOM     65  C   UNL A   1      48.306  36.069  28.623  1.00  0.00     0.054 A 
BRANCH  65  66
ATOM     66  S   UNL A   1      48.773  37.772  29.038  1.00  0.00     0.124 S 
ATOM     67  O   UNL A   1      49.858  37.563  29.992  1.00  0.00    -0.237 OA
ATOM     68  O   UNL A   1      49.169  38.327  27.746  1.00  0.00    -0.237 OA
ATOM     69  O   UNL A   1      47.546  38.334  29.599  1.00  0.00    -0.744 OA
ENDBRANCH  65  66
ENDBRANCH  39  60
ENDBRANCH  13  14
ENDBRANCH   6   8
ENDBRANCH   5   6
ENDBRANCH   4   5
ENDBRANCH   3   4
ENDBRANCH   2   3
ENDBRANCH   1   2
BRANCH   1  70
ATOM     70  C   UNL A   1      40.328  21.767  26.270  1.00  0.00     0.188 C 
BRANCH  70  71
ATOM     71  O   UNL A   1      38.960  22.116  26.510  1.00  0.00    -0.376 OA
BRANCH  71  72
ATOM     72  C   UNL A   1      38.058  21.823  25.443  1.00  0.00     0.202 C 
BRANCH  72  73
ATOM     73  C   UNL A   1      36.658  22.407  25.656  1.00  0.00     0.261 C 
BRANCH  73  74
ATOM     74  O   UNL A   1      35.686  21.423  26.045  1.00  0.00    -0.457 OA
BRANCH  74  75
ATOM     75  C   UNL A   1      34.550  21.896  26.635  1.00  0.00     0.374 C 
ATOM     76  O   UNL A   1      34.187  21.621  27.776  1.00  0.00    -0.242 OA
BRANCH  75  77
ATOM     77  C   UNL A   1      33.861  22.772  25.725  1.00  0.00     0.212 A 
ATOM     78  C   UNL A   1      33.382  22.580  24.440  1.00  0.00     0.059 A 
ATOM     79  O   UNL A   1      33.558  24.045  26.138  1.00  0.00    -0.449 OA
ATOM     80  C   UNL A   1      32.703  23.769  24.080  1.00  0.00     0.052 A 
ATOM     81  C   UNL A   1      32.881  24.647  25.123  1.00  0.00     0.135 A 
BRANCH  81  82
ATOM     82  C   UNL A   1      32.474  26.017  25.345  1.00  0.00     0.020 A 
ATOM     83  C   UNL A   1      32.655  26.973  24.336  1.00  0.00     0.012 A 
ATOM     84  C   UNL A   1      31.946  26.409  26.579  1.00  0.00     0.051 A 
ATOM     85  C   UNL A   1      32.317  28.310  24.557  1.00  0.00     0.004 A 
ATOM     86  C   UNL A   1      31.614  27.744  26.788  1.00  0.00     0.123 A 
ATOM     87  C   UNL A   1      31.796  28.696  25.791  1.00  0.00     0.039 A 
ATOM     88  F   UNL A   1      31.117  28.123  27.974  1.00  0.00    -0.207 F 
ENDBRANCH  81  82
ENDBRANCH  75  77
ENDBRANCH  74  75
ENDBRANCH  73  74
ENDBRANCH  72  73
ENDBRANCH  71  72
ENDBRANCH  70  71
ENDBRANCH   1  70
TORSDOF 21
ENDMDL
