MODEL 1
REMARK VINA RESULT:     -10.0      0.000      0.000
REMARK SMILES COc1ccc(CCN2C(=O)C[C@@H](C(=O)OCCOCCOCCOC(=O)c3ccc(-c4c5nc(c(-c6ccc(S(=O)(=O)[O-])cc6)c6ccc([nH]6)c(-c6ccc(S(=O)(=O)[O-])cc6)c6nc(c(-c7ccc(S(=O)(=O)[O-])cc7)c7ccc4[nH]7)C=C6)C=C5)cc3)S/C2=[NH+]\c2ccc(F)cc2)cc1OC
REMARK SMILES IDX 20 1 19 2 18 3 17 4 16 5 14 6 15 7 13 8 9 9 10 10 89 11
REMARK SMILES IDX 11 12 12 13 88 14 90 15 8 17 7 18 6 19 3 20 4 21 99 22 5 23
REMARK SMILES IDX 98 24 2 25 1 26 100 27 101 28 91 29 92 30 97 31 93 32 96 33
REMARK SMILES IDX 94 34 95 35 21 36 22 37 23 38 24 39 25 40 26 41 27 42 28 43
REMARK SMILES IDX 29 44 87 45 30 46 86 47 31 48 32 49 33 50 80 51 34 52 85 53
REMARK SMILES IDX 79 54 81 55 35 56 84 57 78 58 77 59 36 61 66 62 47 63 65 64
REMARK SMILES IDX 48 65 51 66 64 67 82 68 49 69 50 70 63 72 83 73 52 74 37 75
REMARK SMILES IDX 38 76 46 77 39 78 45 79 40 80 41 81 42 82 43 83 44 84 67 85
REMARK SMILES IDX 68 86 76 87 69 88 75 89 70 90 71 91 72 92 73 93 74 94 53 95
REMARK SMILES IDX 54 96 62 97 55 98 61 99 56 100 57 101 58 102 59 103 60 104
REMARK H PARENT 90 16 81 60 51 71
REMARK Flexibility Score: inf
ROOT
ATOM      1  C   UNL A   1      33.702  28.941  23.691  1.00  0.00     0.188 C 
ENDROOT
BRANCH   1   2
ATOM      2  O   UNL A   1      33.615  28.038  22.597  1.00  0.00    -0.376 OA
BRANCH   2   3
ATOM      3  C   UNL A   1      32.358  27.437  22.300  1.00  0.00     0.202 C 
BRANCH   3   4
ATOM      4  C   UNL A   1      32.325  26.199  21.387  1.00  0.00     0.261 C 
BRANCH   4   5
ATOM      5  O   UNL A   1      33.360  25.231  21.667  1.00  0.00    -0.462 OA
BRANCH   5   6
ATOM      6  C   UNL A   1      33.044  23.926  21.474  1.00  0.00     0.320 C 
ATOM      7  O   UNL A   1      33.252  23.328  20.423  1.00  0.00    -0.251 OA
BRANCH   6   8
ATOM      8  C   UNL A   1      32.471  23.202  22.692  1.00  0.00     0.180 C 
ATOM      9  N   UNL A   1      31.885  22.706  25.530  1.00  0.00    -0.191 N 
ATOM     10  C   UNL A   1      31.373  23.858  24.952  1.00  0.00     0.311 C 
ATOM     11  C   UNL A   1      32.489  21.678  24.826  1.00  0.00     0.319 C 
ATOM     12  O   UNL A   1      30.615  24.618  25.562  1.00  0.00    -0.247 OA
ATOM     13  C   UNL A   1      31.806  24.247  23.559  1.00  0.00     0.155 C 
ATOM     14  S   UNL A   1      33.656  22.285  23.704  1.00  0.00    -0.022 SA
ATOM     15  N   UNL A   1      32.148  20.462  25.080  1.00  0.00    -0.235 N 
ATOM     16  H   UNL A   1      31.514  20.351  25.825  1.00  0.00     0.313 HD
BRANCH   9  17
ATOM     17  C   UNL A   1      31.910  22.638  26.988  1.00  0.00     0.251 C 
BRANCH  17  18
ATOM     18  C   UNL A   1      33.147  22.018  27.640  1.00  0.00     0.082 C 
BRANCH  18  19
ATOM     19  C   UNL A   1      34.421  22.474  26.986  1.00  0.00    -0.040 A 
ATOM     20  C   UNL A   1      36.879  23.297  25.923  1.00  0.00     0.160 A 
ATOM     21  C   UNL A   1      35.927  24.243  26.327  1.00  0.00     0.051 A 
ATOM     22  C   UNL A   1      36.602  21.930  26.041  1.00  0.00     0.160 A 
ATOM     23  C   UNL A   1      34.699  23.834  26.841  1.00  0.00     0.008 A 
ATOM     24  C   UNL A   1      35.377  21.532  26.582  1.00  0.00     0.054 A 
BRANCH  20  25
ATOM     25  O   UNL A   1      38.118  23.723  25.531  1.00  0.00    -0.493 OA
ATOM     26  C   UNL A   1      38.751  24.554  26.504  1.00  0.00     0.278 C 
ENDBRANCH  20  25
BRANCH  22  27
ATOM     27  O   UNL A   1      37.418  20.878  25.714  1.00  0.00    -0.493 OA
ATOM     28  C   UNL A   1      36.952  20.012  24.690  1.00  0.00     0.278 C 
ENDBRANCH  22  27
ENDBRANCH  18  19
ENDBRANCH  17  18
ENDBRANCH   9  17
BRANCH  15  29
ATOM     29  C   UNL A   1      32.548  19.273  24.454  1.00  0.00     0.125 A 
ATOM     30  C   UNL A   1      33.522  18.499  25.118  1.00  0.00     0.055 A 
ATOM     31  C   UNL A   1      32.209  18.913  23.149  1.00  0.00     0.055 A 
ATOM     32  C   UNL A   1      34.156  17.417  24.496  1.00  0.00     0.043 A 
ATOM     33  C   UNL A   1      32.824  17.813  22.528  1.00  0.00     0.043 A 
ATOM     34  C   UNL A   1      33.802  17.085  23.200  1.00  0.00     0.123 A 
ATOM     35  F   UNL A   1      34.390  16.043  22.599  1.00  0.00    -0.207 F 
ENDBRANCH  15  29
ENDBRANCH   6   8
ENDBRANCH   5   6
ENDBRANCH   4   5
ENDBRANCH   3   4
ENDBRANCH   2   3
ENDBRANCH   1   2
BRANCH   1  36
ATOM     36  C   UNL A   1      32.602  28.919  24.760  1.00  0.00     0.188 C 
BRANCH  36  37
ATOM     37  O   UNL A   1      33.013  29.309  26.052  1.00  0.00    -0.376 OA
BRANCH  37  38
ATOM     38  C   UNL A   1      34.346  28.979  26.413  1.00  0.00     0.202 C 
BRANCH  38  39
ATOM     39  C   UNL A   1      34.994  29.721  27.603  1.00  0.00     0.261 C 
BRANCH  39  40
ATOM     40  O   UNL A   1      35.979  28.997  28.365  1.00  0.00    -0.460 OA
BRANCH  40  41
ATOM     41  C   UNL A   1      36.858  29.732  29.094  1.00  0.00     0.338 C 
ATOM     42  O   UNL A   1      36.582  30.492  30.001  1.00  0.00    -0.246 OA
BRANCH  41  43
ATOM     43  C   UNL A   1      38.229  29.269  28.755  1.00  0.00     0.060 A 
ATOM     44  C   UNL A   1      39.034  28.708  29.755  1.00  0.00     0.016 A 
ATOM     45  C   UNL A   1      38.720  29.385  27.457  1.00  0.00     0.016 A 
ATOM     46  C   UNL A   1      40.345  28.309  29.485  1.00  0.00     0.010 A 
ATOM     47  C   UNL A   1      40.036  28.992  27.185  1.00  0.00     0.010 A 
ATOM     48  C   UNL A   1      40.868  28.486  28.203  1.00  0.00    -0.014 A 
BRANCH  48  49
ATOM     49  C   UNL A   1      42.320  28.314  27.955  1.00  0.00     0.031 A 
ATOM     50  C   UNL A   1      43.237  29.473  28.242  1.00  0.00     0.074 A 
ATOM     51  C   UNL A   1      42.826  27.159  27.482  1.00  0.00     0.049 A 
ATOM     52  N   UNL A   1      44.514  29.605  27.993  1.00  0.00    -0.248 NA
ATOM     53  C   UNL A   1      42.624  30.641  28.895  1.00  0.00     0.031 C 
ATOM     54  C   UNL A   1      42.066  25.935  27.240  1.00  0.00     0.029 A 
ATOM     55  N   UNL A   1      44.109  26.838  27.111  1.00  0.00    -0.354 N 
ATOM     56  C   UNL A   1      44.851  30.882  28.429  1.00  0.00     0.074 A 
ATOM     57  C   UNL A   1      43.640  31.489  28.937  1.00  0.00     0.031 C 
ATOM     58  C   UNL A   1      42.896  24.997  26.750  1.00  0.00     0.029 A 
ATOM     59  C   UNL A   1      44.233  25.569  26.597  1.00  0.00     0.049 A 
ATOM     60  H   UNL A   1      44.867  27.459  27.203  1.00  0.00     0.167 HD
ATOM     61  C   UNL A   1      46.060  31.496  28.406  1.00  0.00     0.031 A 
ATOM     62  C   UNL A   1      45.296  24.952  26.041  1.00  0.00     0.031 A 
ATOM     63  C   UNL A   1      47.258  30.895  27.883  1.00  0.00     0.049 A 
ATOM     64  C   UNL A   1      46.604  25.692  25.926  1.00  0.00     0.074 A 
ATOM     65  C   UNL A   1      48.533  31.429  27.820  1.00  0.00     0.029 A 
ATOM     66  N   UNL A   1      47.329  29.629  27.321  1.00  0.00    -0.354 N 
ATOM     67  N   UNL A   1      46.913  26.898  26.342  1.00  0.00    -0.248 NA
ATOM     68  C   UNL A   1      47.710  24.983  25.265  1.00  0.00     0.031 C 
ATOM     69  C   UNL A   1      49.358  30.513  27.161  1.00  0.00     0.029 A 
ATOM     70  C   UNL A   1      48.618  29.377  26.880  1.00  0.00     0.049 A 
ATOM     71  H   UNL A   1      46.574  29.001  27.246  1.00  0.00     0.167 HD
ATOM     72  C   UNL A   1      48.257  27.076  26.027  1.00  0.00     0.074 A 
ATOM     73  C   UNL A   1      48.704  25.852  25.393  1.00  0.00     0.031 C 
ATOM     74  C   UNL A   1      49.053  28.154  26.250  1.00  0.00     0.031 A 
BRANCH  61  75
ATOM     75  C   UNL A   1      46.122  32.914  28.914  1.00  0.00    -0.014 A 
ATOM     76  C   UNL A   1      46.478  33.206  30.244  1.00  0.00     0.010 A 
ATOM     77  C   UNL A   1      45.816  33.975  28.043  1.00  0.00     0.010 A 
ATOM     78  C   UNL A   1      46.466  34.525  30.707  1.00  0.00     0.020 A 
ATOM     79  C   UNL A   1      45.839  35.299  28.491  1.00  0.00     0.020 A 
ATOM     80  C   UNL A   1      46.140  35.563  29.828  1.00  0.00     0.054 A 
BRANCH  80  81
ATOM     81  S   UNL A   1      46.124  37.262  30.458  1.00  0.00     0.124 S 
ATOM     82  O   UNL A   1      46.436  37.064  31.871  1.00  0.00    -0.237 OA
ATOM     83  O   UNL A   1      47.172  37.906  29.669  1.00  0.00    -0.237 OA
ATOM     84  O   UNL A   1      44.766  37.724  30.179  1.00  0.00    -0.744 OA
ENDBRANCH  80  81
ENDBRANCH  61  75
BRANCH  62  85
ATOM     85  C   UNL A   1      45.170  23.553  25.542  1.00  0.00    -0.014 A 
ATOM     86  C   UNL A   1      45.389  22.469  26.410  1.00  0.00     0.010 A 
ATOM     87  C   UNL A   1      44.834  23.295  24.200  1.00  0.00     0.010 A 
ATOM     88  C   UNL A   1      45.285  21.155  25.945  1.00  0.00     0.020 A 
ATOM     89  C   UNL A   1      44.699  21.983  23.738  1.00  0.00     0.020 A 
ATOM     90  C   UNL A   1      44.933  20.920  24.613  1.00  0.00     0.054 A 
BRANCH  90  91
ATOM     91  S   UNL A   1      44.743  19.205  24.053  1.00  0.00     0.124 S 
ATOM     92  O   UNL A   1      43.556  18.775  24.787  1.00  0.00    -0.237 OA
ATOM     93  O   UNL A   1      44.572  19.364  22.611  1.00  0.00    -0.237 OA
ATOM     94  O   UNL A   1      45.994  18.570  24.459  1.00  0.00    -0.744 OA
ENDBRANCH  90  91
ENDBRANCH  62  85
BRANCH  74  95
ATOM     95  C   UNL A   1      50.504  28.046  25.854  1.00  0.00    -0.014 A 
ATOM     96  C   UNL A   1      50.933  28.321  24.543  1.00  0.00     0.010 A 
ATOM     97  C   UNL A   1      51.464  27.718  26.830  1.00  0.00     0.010 A 
ATOM     98  C   UNL A   1      52.290  28.238  24.211  1.00  0.00     0.020 A 
ATOM     99  C   UNL A   1      52.823  27.666  26.510  1.00  0.00     0.020 A 
ATOM    100  C   UNL A   1      53.225  27.912  25.197  1.00  0.00     0.054 A 
BRANCH 100 101
ATOM    101  S   UNL A   1      54.983  27.855  24.750  1.00  0.00     0.124 S 
ATOM    102  O   UNL A   1      55.224  29.218  24.285  1.00  0.00    -0.237 OA
ATOM    103  O   UNL A   1      55.623  27.499  26.014  1.00  0.00    -0.237 OA
ATOM    104  O   UNL A   1      55.045  26.824  23.716  1.00  0.00    -0.744 OA
ENDBRANCH 100 101
ENDBRANCH  74  95
ENDBRANCH  48  49
ENDBRANCH  41  43
ENDBRANCH  40  41
ENDBRANCH  39  40
ENDBRANCH  38  39
ENDBRANCH  37  38
ENDBRANCH  36  37
ENDBRANCH   1  36
TORSDOF 26
ENDMDL
MODEL 2
REMARK VINA RESULT:      -9.6      4.571      5.522
REMARK SMILES COc1ccc(CCN2C(=O)C[C@@H](C(=O)OCCOCCOCCOC(=O)c3ccc(-c4c5nc(c(-c6ccc(S(=O)(=O)[O-])cc6)c6ccc([nH]6)c(-c6ccc(S(=O)(=O)[O-])cc6)c6nc(c(-c7ccc(S(=O)(=O)[O-])cc7)c7ccc4[nH]7)C=C6)C=C5)cc3)S/C2=[NH+]\c2ccc(F)cc2)cc1OC
REMARK SMILES IDX 20 1 19 2 18 3 17 4 16 5 14 6 15 7 13 8 9 9 10 10 89 11
REMARK SMILES IDX 11 12 12 13 88 14 90 15 8 17 7 18 6 19 3 20 4 21 99 22 5 23
REMARK SMILES IDX 98 24 2 25 1 26 100 27 101 28 91 29 92 30 97 31 93 32 96 33
REMARK SMILES IDX 94 34 95 35 21 36 22 37 23 38 24 39 25 40 26 41 27 42 28 43
REMARK SMILES IDX 29 44 87 45 30 46 86 47 31 48 32 49 33 50 80 51 34 52 85 53
REMARK SMILES IDX 79 54 81 55 35 56 84 57 78 58 77 59 36 61 66 62 47 63 65 64
REMARK SMILES IDX 48 65 51 66 64 67 82 68 49 69 50 70 63 72 83 73 52 74 37 75
REMARK SMILES IDX 38 76 46 77 39 78 45 79 40 80 41 81 42 82 43 83 44 84 67 85
REMARK SMILES IDX 68 86 76 87 69 88 75 89 70 90 71 91 72 92 73 93 74 94 53 95
REMARK SMILES IDX 54 96 62 97 55 98 61 99 56 100 57 101 58 102 59 103 60 104
REMARK H PARENT 90 16 81 60 51 71
REMARK Flexibility Score: inf
ROOT
ATOM      1  C   UNL A   1      31.014  29.205  24.498  1.00  0.00     0.188 C 
ENDROOT
BRANCH   1   2
ATOM      2  O   UNL A   1      31.339  28.128  23.630  1.00  0.00    -0.376 OA
BRANCH   2   3
ATOM      3  C   UNL A   1      30.437  27.029  23.529  1.00  0.00     0.202 C 
BRANCH   3   4
ATOM      4  C   UNL A   1      30.704  25.943  22.473  1.00  0.00     0.261 C 
BRANCH   4   5
ATOM      5  O   UNL A   1      31.909  26.151  21.705  1.00  0.00    -0.462 OA
BRANCH   5   6
ATOM      6  C   UNL A   1      32.759  25.098  21.605  1.00  0.00     0.320 C 
ATOM      7  O   UNL A   1      33.252  24.725  20.545  1.00  0.00    -0.251 OA
BRANCH   6   8
ATOM      8  C   UNL A   1      33.138  24.432  22.928  1.00  0.00     0.180 C 
ATOM      9  N   UNL A   1      34.783  23.818  25.286  1.00  0.00    -0.191 N 
ATOM     10  C   UNL A   1      34.328  25.118  25.132  1.00  0.00     0.311 C 
ATOM     11  C   UNL A   1      34.363  22.745  24.517  1.00  0.00     0.319 C 
ATOM     12  O   UNL A   1      34.514  25.986  25.990  1.00  0.00    -0.247 OA
ATOM     13  C   UNL A   1      33.646  25.521  23.846  1.00  0.00     0.155 C 
ATOM     14  S   UNL A   1      34.389  23.129  22.832  1.00  0.00    -0.022 SA
ATOM     15  N   UNL A   1      34.038  21.645  25.105  1.00  0.00    -0.235 N 
ATOM     16  H   UNL A   1      34.181  21.631  26.079  1.00  0.00     0.313 HD
BRANCH   9  17
ATOM     17  C   UNL A   1      35.874  23.593  26.230  1.00  0.00     0.251 C 
BRANCH  17  18
ATOM     18  C   UNL A   1      37.263  24.088  25.825  1.00  0.00     0.082 C 
BRANCH  18  19
ATOM     19  C   UNL A   1      38.335  23.078  26.124  1.00  0.00    -0.040 A 
ATOM     20  C   UNL A   1      40.219  21.118  26.795  1.00  0.00     0.160 A 
ATOM     21  C   UNL A   1      40.286  22.393  27.371  1.00  0.00     0.051 A 
ATOM     22  C   UNL A   1      39.213  20.817  25.871  1.00  0.00     0.160 A 
ATOM     23  C   UNL A   1      39.358  23.373  27.026  1.00  0.00     0.008 A 
ATOM     24  C   UNL A   1      38.272  21.800  25.552  1.00  0.00     0.054 A 
BRANCH  20  25
ATOM     25  O   UNL A   1      41.070  20.141  27.237  1.00  0.00    -0.493 OA
ATOM     26  C   UNL A   1      42.365  20.224  26.643  1.00  0.00     0.278 C 
ENDBRANCH  20  25
BRANCH  22  27
ATOM     27  O   UNL A   1      38.991  19.627  25.230  1.00  0.00    -0.493 OA
ATOM     28  C   UNL A   1      37.646  19.344  24.868  1.00  0.00     0.278 C 
ENDBRANCH  22  27
ENDBRANCH  18  19
ENDBRANCH  17  18
ENDBRANCH   9  17
BRANCH  15  29
ATOM     29  C   UNL A   1      33.512  20.464  24.561  1.00  0.00     0.125 A 
ATOM     30  C   UNL A   1      34.216  19.272  24.826  1.00  0.00     0.055 A 
ATOM     31  C   UNL A   1      32.478  20.416  23.625  1.00  0.00     0.055 A 
ATOM     32  C   UNL A   1      33.918  18.075  24.164  1.00  0.00     0.043 A 
ATOM     33  C   UNL A   1      32.157  19.212  22.974  1.00  0.00     0.043 A 
ATOM     34  C   UNL A   1      32.890  18.058  23.237  1.00  0.00     0.123 A 
ATOM     35  F   UNL A   1      32.585  16.915  22.608  1.00  0.00    -0.207 F 
ENDBRANCH  15  29
ENDBRANCH   6   8
ENDBRANCH   5   6
ENDBRANCH   4   5
ENDBRANCH   3   4
ENDBRANCH   2   3
ENDBRANCH   1   2
BRANCH   1  36
ATOM     36  C   UNL A   1      31.355  29.084  25.990  1.00  0.00     0.188 C 
BRANCH  36  37
ATOM     37  O   UNL A   1      32.444  29.868  26.422  1.00  0.00    -0.376 OA
BRANCH  37  38
ATOM     38  C   UNL A   1      33.718  29.514  25.903  1.00  0.00     0.202 C 
BRANCH  38  39
ATOM     39  C   UNL A   1      34.840  29.135  26.893  1.00  0.00     0.261 C 
BRANCH  39  40
ATOM     40  O   UNL A   1      34.773  29.712  28.211  1.00  0.00    -0.460 OA
BRANCH  40  41
ATOM     41  C   UNL A   1      35.446  30.874  28.411  1.00  0.00     0.338 C 
ATOM     42  O   UNL A   1      35.023  31.996  28.213  1.00  0.00    -0.246 OA
BRANCH  41  43
ATOM     43  C   UNL A   1      36.701  30.550  29.139  1.00  0.00     0.060 A 
ATOM     44  C   UNL A   1      37.843  31.335  28.927  1.00  0.00     0.016 A 
ATOM     45  C   UNL A   1      36.755  29.480  30.028  1.00  0.00     0.016 A 
ATOM     46  C   UNL A   1      39.053  31.030  29.554  1.00  0.00     0.010 A 
ATOM     47  C   UNL A   1      37.968  29.167  30.653  1.00  0.00     0.010 A 
ATOM     48  C   UNL A   1      39.132  29.917  30.393  1.00  0.00    -0.014 A 
BRANCH  48  49
ATOM     49  C   UNL A   1      40.450  29.423  30.863  1.00  0.00     0.031 A 
ATOM     50  C   UNL A   1      41.019  30.002  32.131  1.00  0.00     0.074 A 
ATOM     51  C   UNL A   1      41.138  28.485  30.186  1.00  0.00     0.049 A 
ATOM     52  N   UNL A   1      42.195  29.823  32.673  1.00  0.00    -0.248 NA
ATOM     53  C   UNL A   1      40.138  30.909  32.884  1.00  0.00     0.031 C 
ATOM     54  C   UNL A   1      40.669  27.783  28.993  1.00  0.00     0.029 A 
ATOM     55  N   UNL A   1      42.391  27.970  30.409  1.00  0.00    -0.354 N 
ATOM     56  C   UNL A   1      42.209  30.618  33.813  1.00  0.00     0.074 A 
ATOM     57  C   UNL A   1      40.932  31.296  33.871  1.00  0.00     0.031 C 
ATOM     58  C   UNL A   1      41.628  26.934  28.582  1.00  0.00     0.029 A 
ATOM     59  C   UNL A   1      42.796  27.069  29.451  1.00  0.00     0.049 A 
ATOM     60  H   UNL A   1      42.947  28.222  31.180  1.00  0.00     0.167 HD
ATOM     61  C   UNL A   1      43.196  30.774  34.730  1.00  0.00     0.031 A 
ATOM     62  C   UNL A   1      43.981  26.450  29.281  1.00  0.00     0.031 A 
ATOM     63  C   UNL A   1      44.472  30.111  34.658  1.00  0.00     0.049 A 
ATOM     64  C   UNL A   1      45.104  26.721  30.250  1.00  0.00     0.074 A 
ATOM     65  C   UNL A   1      45.536  30.196  35.538  1.00  0.00     0.029 A 
ATOM     66  N   UNL A   1      44.862  29.251  33.642  1.00  0.00    -0.354 N 
ATOM     67  N   UNL A   1      45.106  27.473  31.325  1.00  0.00    -0.248 NA
ATOM     68  C   UNL A   1      46.387  26.054  29.981  1.00  0.00     0.031 C 
ATOM     69  C   UNL A   1      46.592  29.440  35.020  1.00  0.00     0.029 A 
ATOM     70  C   UNL A   1      46.162  28.823  33.856  1.00  0.00     0.049 A 
ATOM     71  H   UNL A   1      44.298  28.984  32.880  1.00  0.00     0.167 HD
ATOM     72  C   UNL A   1      46.376  27.340  31.880  1.00  0.00     0.074 A 
ATOM     73  C   UNL A   1      47.112  26.429  31.026  1.00  0.00     0.031 C 
ATOM     74  C   UNL A   1      46.885  27.914  33.000  1.00  0.00     0.031 A 
BRANCH  61  75
ATOM     75  C   UNL A   1      42.945  31.745  35.854  1.00  0.00    -0.014 A 
ATOM     76  C   UNL A   1      43.224  33.117  35.720  1.00  0.00     0.010 A 
ATOM     77  C   UNL A   1      42.419  31.274  37.072  1.00  0.00     0.010 A 
ATOM     78  C   UNL A   1      43.041  33.987  36.799  1.00  0.00     0.020 A 
ATOM     79  C   UNL A   1      42.200  32.145  38.142  1.00  0.00     0.020 A 
ATOM     80  C   UNL A   1      42.536  33.493  38.006  1.00  0.00     0.054 A 
BRANCH  80  81
ATOM     81  S   UNL A   1      42.317  34.641  39.392  1.00  0.00     0.124 S 
ATOM     82  O   UNL A   1      42.739  33.826  40.528  1.00  0.00    -0.237 OA
ATOM     83  O   UNL A   1      43.213  35.740  39.041  1.00  0.00    -0.237 OA
ATOM     84  O   UNL A   1      40.893  34.965  39.354  1.00  0.00    -0.744 OA
ENDBRANCH  80  81
ENDBRANCH  61  75
BRANCH  62  85
ATOM     85  C   UNL A   1      44.176  25.511  28.140  1.00  0.00    -0.014 A 
ATOM     86  C   UNL A   1      44.654  25.986  26.905  1.00  0.00     0.010 A 
ATOM     87  C   UNL A   1      43.885  24.141  28.277  1.00  0.00     0.010 A 
ATOM     88  C   UNL A   1      44.828  25.113  25.828  1.00  0.00     0.020 A 
ATOM     89  C   UNL A   1      44.086  23.259  27.210  1.00  0.00     0.020 A 
ATOM     90  C   UNL A   1      44.549  23.753  25.990  1.00  0.00     0.054 A 
BRANCH  90  91
ATOM     91  S   UNL A   1      44.844  22.632  24.593  1.00  0.00     0.124 S 
ATOM     92  O   UNL A   1      45.506  21.504  25.244  1.00  0.00    -0.237 OA
ATOM     93  O   UNL A   1      43.491  22.377  24.106  1.00  0.00    -0.237 OA
ATOM     94  O   UNL A   1      45.685  23.418  23.694  1.00  0.00    -0.744 OA
ENDBRANCH  90  91
ENDBRANCH  62  85
BRANCH  74  95
ATOM     95  C   UNL A   1      48.289  27.539  33.403  1.00  0.00    -0.014 A 
ATOM     96  C   UNL A   1      49.377  28.402  33.178  1.00  0.00     0.010 A 
ATOM     97  C   UNL A   1      48.514  26.320  34.072  1.00  0.00     0.010 A 
ATOM     98  C   UNL A   1      50.665  28.038  33.586  1.00  0.00     0.020 A 
ATOM     99  C   UNL A   1      49.792  25.968  34.509  1.00  0.00     0.020 A 
ATOM    100  C   UNL A   1      50.864  26.824  34.250  1.00  0.00     0.054 A 
BRANCH 100 101
ATOM    101  S   UNL A   1      52.536  26.396  34.807  1.00  0.00     0.124 S 
ATOM    102  O   UNL A   1      52.268  25.641  36.028  1.00  0.00    -0.237 OA
ATOM    103  O   UNL A   1      53.057  25.616  33.686  1.00  0.00    -0.237 OA
ATOM    104  O   UNL A   1      53.179  27.693  35.007  1.00  0.00    -0.744 OA
ENDBRANCH 100 101
ENDBRANCH  74  95
ENDBRANCH  48  49
ENDBRANCH  41  43
ENDBRANCH  40  41
ENDBRANCH  39  40
ENDBRANCH  38  39
ENDBRANCH  37  38
ENDBRANCH  36  37
ENDBRANCH   1  36
TORSDOF 26
ENDMDL
MODEL 3
REMARK VINA RESULT:      -9.2      6.101     10.487
REMARK SMILES COc1ccc(CCN2C(=O)C[C@@H](C(=O)OCCOCCOCCOC(=O)c3ccc(-c4c5nc(c(-c6ccc(S(=O)(=O)[O-])cc6)c6ccc([nH]6)c(-c6ccc(S(=O)(=O)[O-])cc6)c6nc(c(-c7ccc(S(=O)(=O)[O-])cc7)c7ccc4[nH]7)C=C6)C=C5)cc3)S/C2=[NH+]\c2ccc(F)cc2)cc1OC
REMARK SMILES IDX 20 1 19 2 18 3 17 4 16 5 14 6 15 7 13 8 9 9 10 10 89 11
REMARK SMILES IDX 11 12 12 13 88 14 90 15 8 17 7 18 6 19 3 20 4 21 99 22 5 23
REMARK SMILES IDX 98 24 2 25 1 26 100 27 101 28 91 29 92 30 97 31 93 32 96 33
REMARK SMILES IDX 94 34 95 35 21 36 22 37 23 38 24 39 25 40 26 41 27 42 28 43
REMARK SMILES IDX 29 44 87 45 30 46 86 47 31 48 32 49 33 50 80 51 34 52 85 53
REMARK SMILES IDX 79 54 81 55 35 56 84 57 78 58 77 59 36 61 66 62 47 63 65 64
REMARK SMILES IDX 48 65 51 66 64 67 82 68 49 69 50 70 63 72 83 73 52 74 37 75
REMARK SMILES IDX 38 76 46 77 39 78 45 79 40 80 41 81 42 82 43 83 44 84 67 85
REMARK SMILES IDX 68 86 76 87 69 88 75 89 70 90 71 91 72 92 73 93 74 94 53 95
REMARK SMILES IDX 54 96 62 97 55 98 61 99 56 100 57 101 58 102 59 103 60 104
REMARK H PARENT 90 16 81 60 51 71
REMARK Flexibility Score: inf
ROOT
ATOM      1  C   UNL A   1      32.436  28.490  25.066  1.00  0.00     0.188 C 
ENDROOT
BRANCH   1   2
ATOM      2  O   UNL A   1      32.350  28.021  23.726  1.00  0.00    -0.376 OA
BRANCH   2   3
ATOM      3  C   UNL A   1      31.246  27.200  23.355  1.00  0.00     0.202 C 
BRANCH   3   4
ATOM      4  C   UNL A   1      31.306  26.435  22.022  1.00  0.00     0.261 C 
BRANCH   4   5
ATOM      5  O   UNL A   1      31.886  25.116  22.123  1.00  0.00    -0.462 OA
BRANCH   5   6
ATOM      6  C   UNL A   1      31.271  24.241  22.958  1.00  0.00     0.320 C 
ATOM      7  O   UNL A   1      30.101  23.896  22.833  1.00  0.00    -0.251 OA
BRANCH   6   8
ATOM      8  C   UNL A   1      32.159  23.636  24.045  1.00  0.00     0.180 C 
ATOM      9  N   UNL A   1      34.464  23.413  25.857  1.00  0.00    -0.191 N 
ATOM     10  C   UNL A   1      33.622  24.504  26.008  1.00  0.00     0.311 C 
ATOM     11  C   UNL A   1      34.196  22.322  25.046  1.00  0.00     0.319 C 
ATOM     12  O   UNL A   1      33.761  25.319  26.925  1.00  0.00    -0.247 OA
ATOM     13  C   UNL A   1      32.544  24.759  24.982  1.00  0.00     0.155 C 
ATOM     14  S   UNL A   1      33.669  22.819  23.476  1.00  0.00    -0.022 SA
ATOM     15  N   UNL A   1      34.373  21.136  25.516  1.00  0.00    -0.235 N 
ATOM     16  H   UNL A   1      34.760  21.097  26.421  1.00  0.00     0.313 HD
BRANCH   9  17
ATOM     17  C   UNL A   1      35.779  23.483  26.488  1.00  0.00     0.251 C 
BRANCH  17  18
ATOM     18  C   UNL A   1      36.979  23.758  25.580  1.00  0.00     0.082 C 
BRANCH  18  19
ATOM     19  C   UNL A   1      38.259  23.220  26.155  1.00  0.00    -0.040 A 
ATOM     20  C   UNL A   1      40.733  22.302  27.094  1.00  0.00     0.160 A 
ATOM     21  C   UNL A   1      39.910  21.466  26.328  1.00  0.00     0.051 A 
ATOM     22  C   UNL A   1      40.319  23.602  27.402  1.00  0.00     0.160 A 
ATOM     23  C   UNL A   1      38.673  21.917  25.874  1.00  0.00     0.008 A 
ATOM     24  C   UNL A   1      39.087  24.053  26.920  1.00  0.00     0.054 A 
BRANCH  20  25
ATOM     25  O   UNL A   1      41.990  21.876  27.428  1.00  0.00    -0.493 OA
ATOM     26  C   UNL A   1      42.188  20.486  27.174  1.00  0.00     0.278 C 
ENDBRANCH  20  25
BRANCH  22  27
ATOM     27  O   UNL A   1      41.000  24.552  28.119  1.00  0.00    -0.493 OA
ATOM     28  C   UNL A   1      40.548  25.892  27.983  1.00  0.00     0.278 C 
ENDBRANCH  22  27
ENDBRANCH  18  19
ENDBRANCH  17  18
ENDBRANCH   9  17
BRANCH  15  29
ATOM     29  C   UNL A   1      34.096  19.893  24.930  1.00  0.00     0.125 A 
ATOM     30  C   UNL A   1      32.745  19.495  24.886  1.00  0.00     0.055 A 
ATOM     31  C   UNL A   1      35.065  18.949  24.581  1.00  0.00     0.055 A 
ATOM     32  C   UNL A   1      32.368  18.194  24.530  1.00  0.00     0.043 A 
ATOM     33  C   UNL A   1      34.692  17.650  24.199  1.00  0.00     0.043 A 
ATOM     34  C   UNL A   1      33.350  17.279  24.193  1.00  0.00     0.123 A 
ATOM     35  F   UNL A   1      33.002  16.036  23.835  1.00  0.00    -0.207 F 
ENDBRANCH  15  29
ENDBRANCH   6   8
ENDBRANCH   5   6
ENDBRANCH   4   5
ENDBRANCH   3   4
ENDBRANCH   2   3
ENDBRANCH   1   2
BRANCH   1  36
ATOM     36  C   UNL A   1      33.823  28.720  25.683  1.00  0.00     0.188 C 
BRANCH  36  37
ATOM     37  O   UNL A   1      33.826  29.436  26.898  1.00  0.00    -0.376 OA
BRANCH  37  38
ATOM     38  C   UNL A   1      33.230  30.725  26.869  1.00  0.00     0.202 C 
BRANCH  38  39
ATOM     39  C   UNL A   1      33.789  31.819  27.805  1.00  0.00     0.261 C 
BRANCH  39  40
ATOM     40  O   UNL A   1      35.158  32.217  27.601  1.00  0.00    -0.460 OA
BRANCH  40  41
ATOM     41  C   UNL A   1      35.607  33.277  28.320  1.00  0.00     0.338 C 
ATOM     42  O   UNL A   1      35.037  34.340  28.469  1.00  0.00    -0.246 OA
BRANCH  41  43
ATOM     43  C   UNL A   1      36.798  32.832  29.090  1.00  0.00     0.060 A 
ATOM     44  C   UNL A   1      36.726  31.659  29.853  1.00  0.00     0.016 A 
ATOM     45  C   UNL A   1      37.981  33.565  29.060  1.00  0.00     0.016 A 
ATOM     46  C   UNL A   1      37.808  31.238  30.630  1.00  0.00     0.010 A 
ATOM     47  C   UNL A   1      39.066  33.149  29.842  1.00  0.00     0.010 A 
ATOM     48  C   UNL A   1      38.974  32.005  30.659  1.00  0.00    -0.014 A 
BRANCH  48  49
ATOM     49  C   UNL A   1      40.032  31.725  31.661  1.00  0.00     0.031 A 
ATOM     50  C   UNL A   1      41.066  30.681  31.336  1.00  0.00     0.074 A 
ATOM     51  C   UNL A   1      40.082  32.376  32.838  1.00  0.00     0.049 A 
ATOM     52  N   UNL A   1      42.007  30.178  32.092  1.00  0.00    -0.248 NA
ATOM     53  C   UNL A   1      41.026  30.127  29.973  1.00  0.00     0.031 C 
ATOM     54  C   UNL A   1      39.196  33.464  33.246  1.00  0.00     0.029 A 
ATOM     55  N   UNL A   1      40.917  32.200  33.915  1.00  0.00    -0.354 N 
ATOM     56  C   UNL A   1      42.651  29.228  31.308  1.00  0.00     0.074 A 
ATOM     57  C   UNL A   1      41.979  29.210  30.027  1.00  0.00     0.031 C 
ATOM     58  C   UNL A   1      39.529  33.854  34.490  1.00  0.00     0.029 A 
ATOM     59  C   UNL A   1      40.616  33.010  34.984  1.00  0.00     0.049 A 
ATOM     60  H   UNL A   1      41.660  31.555  33.920  1.00  0.00     0.167 HD
ATOM     61  C   UNL A   1      43.707  28.438  31.626  1.00  0.00     0.031 A 
ATOM     62  C   UNL A   1      41.138  33.045  36.228  1.00  0.00     0.031 A 
ATOM     63  C   UNL A   1      44.361  28.446  32.908  1.00  0.00     0.049 A 
ATOM     64  C   UNL A   1      42.238  32.082  36.596  1.00  0.00     0.074 A 
ATOM     65  C   UNL A   1      45.441  27.690  33.328  1.00  0.00     0.029 A 
ATOM     66  N   UNL A   1      43.989  29.241  33.982  1.00  0.00    -0.354 N 
ATOM     67  N   UNL A   1      42.841  31.188  35.847  1.00  0.00    -0.248 NA
ATOM     68  C   UNL A   1      42.730  32.135  37.981  1.00  0.00     0.031 C 
ATOM     69  C   UNL A   1      45.680  27.980  34.675  1.00  0.00     0.029 A 
ATOM     70  C   UNL A   1      44.797  28.971  35.074  1.00  0.00     0.049 A 
ATOM     71  H   UNL A   1      43.257  29.900  33.970  1.00  0.00     0.167 HD
ATOM     72  C   UNL A   1      43.806  30.600  36.659  1.00  0.00     0.074 A 
ATOM     73  C   UNL A   1      43.713  31.246  37.953  1.00  0.00     0.031 C 
ATOM     74  C   UNL A   1      44.697  29.620  36.359  1.00  0.00     0.031 A 
BRANCH  61  75
ATOM     75  C   UNL A   1      44.174  27.459  30.579  1.00  0.00    -0.014 A 
ATOM     76  C   UNL A   1      45.073  27.839  29.564  1.00  0.00     0.010 A 
ATOM     77  C   UNL A   1      43.704  26.134  30.611  1.00  0.00     0.010 A 
ATOM     78  C   UNL A   1      45.442  26.929  28.569  1.00  0.00     0.020 A 
ATOM     79  C   UNL A   1      44.098  25.211  29.638  1.00  0.00     0.020 A 
ATOM     80  C   UNL A   1      44.946  25.622  28.609  1.00  0.00     0.054 A 
BRANCH  80  81
ATOM     81  S   UNL A   1      45.434  24.467  27.300  1.00  0.00     0.124 S 
ATOM     82  O   UNL A   1      44.523  24.834  26.219  1.00  0.00    -0.237 OA
ATOM     83  O   UNL A   1      46.838  24.806  27.080  1.00  0.00    -0.237 OA
ATOM     84  O   UNL A   1      45.199  23.151  27.891  1.00  0.00    -0.744 OA
ENDBRANCH  80  81
ENDBRANCH  61  75
BRANCH  62  85
ATOM     85  C   UNL A   1      40.624  34.024  37.226  1.00  0.00    -0.014 A 
ATOM     86  C   UNL A   1      41.106  35.345  37.236  1.00  0.00     0.010 A 
ATOM     87  C   UNL A   1      39.654  33.646  38.173  1.00  0.00     0.010 A 
ATOM     88  C   UNL A   1      40.636  36.266  38.178  1.00  0.00     0.020 A 
ATOM     89  C   UNL A   1      39.160  34.571  39.097  1.00  0.00     0.020 A 
ATOM     90  C   UNL A   1      39.661  35.874  39.098  1.00  0.00     0.054 A 
BRANCH  90  91
ATOM     91  S   UNL A   1      39.023  37.107  40.268  1.00  0.00     0.124 S 
ATOM     92  O   UNL A   1      38.448  38.106  39.372  1.00  0.00    -0.237 OA
ATOM     93  O   UNL A   1      38.064  36.329  41.048  1.00  0.00    -0.237 OA
ATOM     94  O   UNL A   1      40.214  37.533  41.000  1.00  0.00    -0.744 OA
ENDBRANCH  90  91
ENDBRANCH  62  85
BRANCH  74  95
ATOM     95  C   UNL A   1      45.679  29.215  37.428  1.00  0.00    -0.014 A 
ATOM     96  C   UNL A   1      46.905  29.885  37.596  1.00  0.00     0.010 A 
ATOM     97  C   UNL A   1      45.342  28.179  38.320  1.00  0.00     0.010 A 
ATOM     98  C   UNL A   1      47.786  29.503  38.614  1.00  0.00     0.020 A 
ATOM     99  C   UNL A   1      46.204  27.817  39.358  1.00  0.00     0.020 A 
ATOM    100  C   UNL A   1      47.429  28.473  39.488  1.00  0.00     0.054 A 
BRANCH 100 101
ATOM    101  S   UNL A   1      48.570  28.028  40.827  1.00  0.00     0.124 S 
ATOM    102  O   UNL A   1      47.703  27.277  41.730  1.00  0.00    -0.237 OA
ATOM    103  O   UNL A   1      49.587  27.242  40.132  1.00  0.00    -0.237 OA
ATOM    104  O   UNL A   1      49.030  29.318  41.336  1.00  0.00    -0.744 OA
ENDBRANCH 100 101
ENDBRANCH  74  95
ENDBRANCH  48  49
ENDBRANCH  41  43
ENDBRANCH  40  41
ENDBRANCH  39  40
ENDBRANCH  38  39
ENDBRANCH  37  38
ENDBRANCH  36  37
ENDBRANCH   1  36
TORSDOF 26
ENDMDL
