MODEL 1
REMARK VINA RESULT:      -9.7      0.000      0.000
REMARK SMILES Cc1cc(C)c2c(c1)C=C(C(=O)OCCOCCOCCOC(=O)c1ccc(-c3c4nc(c(-c5ccc(S(=O)(=O)[O-])cc5)c5ccc([nH]5)c(-c5ccc(S(=O)(=O)[O-])cc5)c5nc(c(-c6ccc(S(=O)(=O)[O-])cc6)c6ccc3[nH]6)C=C5)C=C4)cc1)[C@@H](C(F)(F)F)O2
REMARK SMILES IDX 18 1 17 2 16 3 15 4 14 5 13 6 11 7 12 8 10 9 1 10 2 11 3 12
REMARK SMILES IDX 8 13 4 14 7 15 5 16 6 17 9 18 90 19 85 20 86 21 87 22 88 23
REMARK SMILES IDX 89 24 19 25 20 26 21 27 22 28 23 29 24 30 25 31 26 32 84 33
REMARK SMILES IDX 27 34 83 35 28 36 29 37 30 38 77 39 31 40 82 41 76 42 78 43
REMARK SMILES IDX 32 44 81 45 75 46 74 47 33 49 63 50 44 51 62 52 45 53 48 54
REMARK SMILES IDX 61 55 79 56 46 57 47 58 60 60 80 61 49 62 34 63 35 64 43 65
REMARK SMILES IDX 36 66 42 67 37 68 38 69 39 70 40 71 41 72 64 73 65 74 73 75
REMARK SMILES IDX 66 76 72 77 67 78 68 79 69 80 70 81 71 82 50 83 51 84 59 85
REMARK SMILES IDX 52 86 58 87 53 88 54 89 55 90 56 91 57 92
REMARK H PARENT 78 48 48 59
REMARK Flexibility Score: inf
ROOT
ATOM      1  C   UNL A   1      32.101  28.863  24.055  1.00  0.00     0.188 C 
ENDROOT
BRANCH   1   2
ATOM      2  C   UNL A   1      31.118  28.930  22.866  1.00  0.00     0.188 C 
BRANCH   2   3
ATOM      3  O   UNL A   1      30.679  27.725  22.246  1.00  0.00    -0.376 OA
BRANCH   3   4
ATOM      4  C   UNL A   1      31.605  26.677  21.989  1.00  0.00     0.202 C 
BRANCH   4   5
ATOM      5  C   UNL A   1      31.544  25.410  22.850  1.00  0.00     0.261 C 
BRANCH   5   6
ATOM      6  O   UNL A   1      32.481  25.404  23.940  1.00  0.00    -0.460 OA
BRANCH   6   7
ATOM      7  C   UNL A   1      32.237  24.491  24.910  1.00  0.00     0.338 C 
ATOM      8  O   UNL A   1      31.180  24.309  25.493  1.00  0.00    -0.246 OA
BRANCH   7   9
ATOM      9  C   UNL A   1      33.426  23.638  25.103  1.00  0.00     0.087 C 
ATOM     10  C   UNL A   1      39.409  23.997  26.562  1.00  0.00     0.044 C 
ATOM     11  C   UNL A   1      38.126  23.347  26.132  1.00  0.00    -0.050 A 
ATOM     12  C   UNL A   1      38.120  22.004  25.736  1.00  0.00     0.010 A 
ATOM     13  C   UNL A   1      36.929  24.070  26.103  1.00  0.00     0.015 A 
ATOM     14  C   UNL A   1      36.935  21.379  25.318  1.00  0.00    -0.008 A 
ATOM     15  C   UNL A   1      35.741  23.463  25.676  1.00  0.00     0.018 A 
ATOM     16  C   UNL A   1      36.963  19.944  24.872  1.00  0.00     0.048 C 
ATOM     17  C   UNL A   1      35.738  22.113  25.311  1.00  0.00     0.130 A 
ATOM     18  C   UNL A   1      34.529  24.252  25.549  1.00  0.00     0.027 C 
ATOM     19  O   UNL A   1      34.607  21.448  24.924  1.00  0.00    -0.475 OA
ATOM     20  C   UNL A   1      33.355  22.171  24.790  1.00  0.00     0.316 C 
BRANCH  20  21
ATOM     21  C   UNL A   1      32.798  21.892  23.386  1.00  0.00     0.430 C 
ATOM     22  F   UNL A   1      32.953  20.586  23.050  1.00  0.00    -0.167 F 
ATOM     23  F   UNL A   1      31.470  22.147  23.308  1.00  0.00    -0.167 F 
ATOM     24  F   UNL A   1      33.409  22.629  22.434  1.00  0.00    -0.167 F 
ENDBRANCH  20  21
ENDBRANCH   7   9
ENDBRANCH   6   7
ENDBRANCH   5   6
ENDBRANCH   4   5
ENDBRANCH   3   4
ENDBRANCH   2   3
ENDBRANCH   1   2
BRANCH   1  25
ATOM     25  O   UNL A   1      31.515  28.435  25.262  1.00  0.00    -0.376 OA
BRANCH  25  26
ATOM     26  C   UNL A   1      32.052  28.861  26.501  1.00  0.00     0.202 C 
BRANCH  26  27
ATOM     27  C   UNL A   1      32.572  30.285  26.780  1.00  0.00     0.261 C 
BRANCH  27  28
ATOM     28  O   UNL A   1      33.985  30.482  26.866  1.00  0.00    -0.460 OA
BRANCH  28  29
ATOM     29  C   UNL A   1      34.423  31.356  27.800  1.00  0.00     0.338 C 
ATOM     30  O   UNL A   1      33.803  32.286  28.282  1.00  0.00    -0.246 OA
BRANCH  29  31
ATOM     31  C   UNL A   1      35.735  30.877  28.284  1.00  0.00     0.060 A 
ATOM     32  C   UNL A   1      35.784  29.700  29.043  1.00  0.00     0.016 A 
ATOM     33  C   UNL A   1      36.903  31.586  27.996  1.00  0.00     0.016 A 
ATOM     34  C   UNL A   1      37.004  29.249  29.549  1.00  0.00     0.010 A 
ATOM     35  C   UNL A   1      38.120  31.148  28.526  1.00  0.00     0.010 A 
ATOM     36  C   UNL A   1      38.168  29.999  29.335  1.00  0.00    -0.014 A 
BRANCH  36  37
ATOM     37  C   UNL A   1      39.383  29.722  30.138  1.00  0.00     0.031 A 
ATOM     38  C   UNL A   1      40.270  28.585  29.705  1.00  0.00     0.074 A 
ATOM     39  C   UNL A   1      39.706  30.462  31.214  1.00  0.00     0.049 A 
ATOM     40  N   UNL A   1      41.335  28.097  30.285  1.00  0.00    -0.248 NA
ATOM     41  C   UNL A   1      39.906  27.915  28.445  1.00  0.00     0.031 C 
ATOM     42  C   UNL A   1      38.970  31.630  31.695  1.00  0.00     0.029 A 
ATOM     43  N   UNL A   1      40.743  30.325  32.101  1.00  0.00    -0.354 N 
ATOM     44  C   UNL A   1      41.768  27.063  29.461  1.00  0.00     0.074 A 
ATOM     45  C   UNL A   1      40.840  26.980  28.356  1.00  0.00     0.031 C 
ATOM     46  C   UNL A   1      39.580  32.102  32.798  1.00  0.00     0.029 A 
ATOM     47  C   UNL A   1      40.720  31.245  33.123  1.00  0.00     0.049 A 
ATOM     48  H   UNL A   1      41.439  29.635  32.016  1.00  0.00     0.167 HD
ATOM     49  C   UNL A   1      42.842  26.254  29.611  1.00  0.00     0.031 A 
ATOM     50  C   UNL A   1      41.512  31.361  34.208  1.00  0.00     0.031 A 
ATOM     51  C   UNL A   1      43.743  26.310  30.729  1.00  0.00     0.049 A 
ATOM     52  C   UNL A   1      42.634  30.375  34.414  1.00  0.00     0.074 A 
ATOM     53  C   UNL A   1      44.845  25.513  30.988  1.00  0.00     0.029 A 
ATOM     54  N   UNL A   1      43.644  27.210  31.778  1.00  0.00    -0.354 N 
ATOM     55  N   UNL A   1      43.016  29.384  33.643  1.00  0.00    -0.248 NA
ATOM     56  C   UNL A   1      43.428  30.524  35.641  1.00  0.00     0.031 C 
ATOM     57  C   UNL A   1      45.382  25.901  32.220  1.00  0.00     0.029 A 
ATOM     58  C   UNL A   1      44.652  26.976  32.699  1.00  0.00     0.049 A 
ATOM     59  H   UNL A   1      42.959  27.912  31.857  1.00  0.00     0.167 HD
ATOM     60  C   UNL A   1      44.106  28.803  34.284  1.00  0.00     0.074 A 
ATOM     61  C   UNL A   1      44.334  29.567  35.494  1.00  0.00     0.031 C 
ATOM     62  C   UNL A   1      44.853  27.734  33.907  1.00  0.00     0.031 A 
BRANCH  49  63
ATOM     63  C   UNL A   1      43.071  25.212  28.551  1.00  0.00    -0.014 A 
ATOM     64  C   UNL A   1      42.565  23.907  28.696  1.00  0.00     0.010 A 
ATOM     65  C   UNL A   1      43.782  25.547  27.384  1.00  0.00     0.010 A 
ATOM     66  C   UNL A   1      42.789  22.948  27.706  1.00  0.00     0.020 A 
ATOM     67  C   UNL A   1      43.987  24.596  26.380  1.00  0.00     0.020 A 
ATOM     68  C   UNL A   1      43.500  23.300  26.554  1.00  0.00     0.054 A 
BRANCH  68  69
ATOM     69  S   UNL A   1      43.753  22.041  25.273  1.00  0.00     0.124 S 
ATOM     70  O   UNL A   1      43.530  22.807  24.049  1.00  0.00    -0.237 OA
ATOM     71  O   UNL A   1      45.132  21.620  25.507  1.00  0.00    -0.237 OA
ATOM     72  O   UNL A   1      42.737  21.034  25.570  1.00  0.00    -0.744 OA
ENDBRANCH  68  69
ENDBRANCH  49  63
BRANCH  50  73
ATOM     73  C   UNL A   1      41.261  32.440  35.203  1.00  0.00    -0.014 A 
ATOM     74  C   UNL A   1      40.392  32.223  36.286  1.00  0.00     0.010 A 
ATOM     75  C   UNL A   1      41.883  33.694  35.067  1.00  0.00     0.010 A 
ATOM     76  C   UNL A   1      40.145  33.242  37.212  1.00  0.00     0.020 A 
ATOM     77  C   UNL A   1      41.659  34.708  36.003  1.00  0.00     0.020 A 
ATOM     78  C   UNL A   1      40.785  34.477  37.066  1.00  0.00     0.054 A 
BRANCH  78  79
ATOM     79  S   UNL A   1      40.493  35.763  38.314  1.00  0.00     0.124 S 
ATOM     80  O   UNL A   1      39.717  36.745  37.564  1.00  0.00    -0.237 OA
ATOM     81  O   UNL A   1      39.762  35.035  39.348  1.00  0.00    -0.237 OA
ATOM     82  O   UNL A   1      41.840  36.185  38.692  1.00  0.00    -0.744 OA
ENDBRANCH  78  79
ENDBRANCH  50  73
BRANCH  62  83
ATOM     83  C   UNL A   1      45.996  27.340  34.803  1.00  0.00    -0.014 A 
ATOM     84  C   UNL A   1      47.274  27.906  34.646  1.00  0.00     0.010 A 
ATOM     85  C   UNL A   1      45.781  26.413  35.840  1.00  0.00     0.010 A 
ATOM     86  C   UNL A   1      48.327  27.518  35.479  1.00  0.00     0.020 A 
ATOM     87  C   UNL A   1      46.823  26.044  36.694  1.00  0.00     0.020 A 
ATOM     88  C   UNL A   1      48.096  26.584  36.495  1.00  0.00     0.054 A 
BRANCH  88  89
ATOM     89  S   UNL A   1      49.476  26.103  37.569  1.00  0.00     0.124 S 
ATOM     90  O   UNL A   1      48.836  26.048  38.879  1.00  0.00    -0.237 OA
ATOM     91  O   UNL A   1      49.881  24.814  37.012  1.00  0.00    -0.237 OA
ATOM     92  O   UNL A   1      50.444  27.183  37.393  1.00  0.00    -0.744 OA
ENDBRANCH  88  89
ENDBRANCH  62  83
ENDBRANCH  36  37
ENDBRANCH  29  31
ENDBRANCH  28  29
ENDBRANCH  27  28
ENDBRANCH  26  27
ENDBRANCH  25  26
ENDBRANCH   1  25
TORSDOF 21
ENDMDL
MODEL 2
REMARK VINA RESULT:      -9.5      2.224      3.385
REMARK SMILES Cc1cc(C)c2c(c1)C=C(C(=O)OCCOCCOCCOC(=O)c1ccc(-c3c4nc(c(-c5ccc(S(=O)(=O)[O-])cc5)c5ccc([nH]5)c(-c5ccc(S(=O)(=O)[O-])cc5)c5nc(c(-c6ccc(S(=O)(=O)[O-])cc6)c6ccc3[nH]6)C=C5)C=C4)cc1)[C@@H](C(F)(F)F)O2
REMARK SMILES IDX 18 1 17 2 16 3 15 4 14 5 13 6 11 7 12 8 10 9 1 10 2 11 3 12
REMARK SMILES IDX 8 13 4 14 7 15 5 16 6 17 9 18 90 19 85 20 86 21 87 22 88 23
REMARK SMILES IDX 89 24 19 25 20 26 21 27 22 28 23 29 24 30 25 31 26 32 84 33
REMARK SMILES IDX 27 34 83 35 28 36 29 37 30 38 77 39 31 40 82 41 76 42 78 43
REMARK SMILES IDX 32 44 81 45 75 46 74 47 33 49 63 50 44 51 62 52 45 53 48 54
REMARK SMILES IDX 61 55 79 56 46 57 47 58 60 60 80 61 49 62 34 63 35 64 43 65
REMARK SMILES IDX 36 66 42 67 37 68 38 69 39 70 40 71 41 72 64 73 65 74 73 75
REMARK SMILES IDX 66 76 72 77 67 78 68 79 69 80 70 81 71 82 50 83 51 84 59 85
REMARK SMILES IDX 52 86 58 87 53 88 54 89 55 90 56 91 57 92
REMARK H PARENT 78 48 48 59
REMARK Flexibility Score: inf
ROOT
ATOM      1  C   UNL A   1      32.042  29.965  25.324  1.00  0.00     0.188 C 
ENDROOT
BRANCH   1   2
ATOM      2  C   UNL A   1      31.274  28.688  24.919  1.00  0.00     0.188 C 
BRANCH   2   3
ATOM      3  O   UNL A   1      30.448  28.701  23.759  1.00  0.00    -0.376 OA
BRANCH   3   4
ATOM      4  C   UNL A   1      29.764  27.521  23.359  1.00  0.00     0.202 C 
BRANCH   4   5
ATOM      5  C   UNL A   1      30.055  26.210  24.099  1.00  0.00     0.261 C 
BRANCH   5   6
ATOM      6  O   UNL A   1      30.420  25.123  23.232  1.00  0.00    -0.460 OA
BRANCH   6   7
ATOM      7  C   UNL A   1      31.635  25.232  22.647  1.00  0.00     0.338 C 
ATOM      8  O   UNL A   1      32.014  26.125  21.906  1.00  0.00    -0.246 OA
BRANCH   7   9
ATOM      9  C   UNL A   1      32.516  24.147  23.122  1.00  0.00     0.087 C 
ATOM     10  C   UNL A   1      32.489  18.082  24.252  1.00  0.00     0.044 C 
ATOM     11  C   UNL A   1      33.033  19.481  24.217  1.00  0.00    -0.050 A 
ATOM     12  C   UNL A   1      34.270  19.766  24.806  1.00  0.00     0.010 A 
ATOM     13  C   UNL A   1      32.312  20.517  23.615  1.00  0.00     0.015 A 
ATOM     14  C   UNL A   1      34.793  21.068  24.797  1.00  0.00    -0.008 A 
ATOM     15  C   UNL A   1      32.815  21.824  23.607  1.00  0.00     0.018 A 
ATOM     16  C   UNL A   1      36.110  21.351  25.463  1.00  0.00     0.048 C 
ATOM     17  C   UNL A   1      34.065  22.094  24.173  1.00  0.00     0.130 A 
ATOM     18  C   UNL A   1      32.009  22.909  23.075  1.00  0.00     0.027 C 
ATOM     19  O   UNL A   1      34.634  23.338  24.166  1.00  0.00    -0.475 OA
ATOM     20  C   UNL A   1      33.892  24.468  23.634  1.00  0.00     0.316 C 
BRANCH  20  21
ATOM     21  C   UNL A   1      33.883  25.571  24.702  1.00  0.00     0.430 C 
ATOM     22  F   UNL A   1      32.706  25.588  25.378  1.00  0.00    -0.167 F 
ATOM     23  F   UNL A   1      34.850  25.383  25.632  1.00  0.00    -0.167 F 
ATOM     24  F   UNL A   1      34.063  26.801  24.174  1.00  0.00    -0.167 F 
ENDBRANCH  20  21
ENDBRANCH   7   9
ENDBRANCH   6   7
ENDBRANCH   5   6
ENDBRANCH   4   5
ENDBRANCH   3   4
ENDBRANCH   2   3
ENDBRANCH   1   2
BRANCH   1  25
ATOM     25  O   UNL A   1      31.688  30.474  26.588  1.00  0.00    -0.376 OA
BRANCH  25  26
ATOM     26  C   UNL A   1      31.895  31.842  26.885  1.00  0.00     0.202 C 
BRANCH  26  27
ATOM     27  C   UNL A   1      33.132  32.396  27.618  1.00  0.00     0.261 C 
BRANCH  27  28
ATOM     28  O   UNL A   1      33.245  33.813  27.776  1.00  0.00    -0.460 OA
BRANCH  28  29
ATOM     29  C   UNL A   1      33.451  34.273  29.031  1.00  0.00     0.338 C 
ATOM     30  O   UNL A   1      32.683  34.933  29.705  1.00  0.00    -0.246 OA
BRANCH  29  31
ATOM     31  C   UNL A   1      34.709  33.675  29.528  1.00  0.00     0.060 A 
ATOM     32  C   UNL A   1      34.635  32.614  30.440  1.00  0.00     0.016 A 
ATOM     33  C   UNL A   1      35.946  34.160  29.100  1.00  0.00     0.016 A 
ATOM     34  C   UNL A   1      35.805  32.060  30.960  1.00  0.00     0.010 A 
ATOM     35  C   UNL A   1      37.118  33.623  29.641  1.00  0.00     0.010 A 
ATOM     36  C   UNL A   1      37.050  32.596  30.600  1.00  0.00    -0.014 A 
BRANCH  36  37
ATOM     37  C   UNL A   1      38.257  32.254  31.388  1.00  0.00     0.031 A 
ATOM     38  C   UNL A   1      39.188  31.210  30.833  1.00  0.00     0.074 A 
ATOM     39  C   UNL A   1      38.535  32.856  32.558  1.00  0.00     0.049 A 
ATOM     40  N   UNL A   1      40.258  30.682  31.369  1.00  0.00    -0.248 NA
ATOM     41  C   UNL A   1      38.871  30.699  29.488  1.00  0.00     0.031 C 
ATOM     42  C   UNL A   1      37.753  33.929  33.169  1.00  0.00     0.029 A 
ATOM     43  N   UNL A   1      39.559  32.636  33.445  1.00  0.00    -0.354 N 
ATOM     44  C   UNL A   1      40.740  29.777  30.428  1.00  0.00     0.074 A 
ATOM     45  C   UNL A   1      39.836  29.811  29.300  1.00  0.00     0.031 C 
ATOM     46  C   UNL A   1      38.326  34.272  34.339  1.00  0.00     0.029 A 
ATOM     47  C   UNL A   1      39.487  33.414  34.576  1.00  0.00     0.049 A 
ATOM     48  H   UNL A   1      40.279  31.984  33.286  1.00  0.00     0.167 HD
ATOM     49  C   UNL A   1      41.836  28.987  30.497  1.00  0.00     0.031 A 
ATOM     50  C   UNL A   1      40.254  33.411  35.685  1.00  0.00     0.031 A 
ATOM     51  C   UNL A   1      42.713  28.924  31.633  1.00  0.00     0.049 A 
ATOM     52  C   UNL A   1      41.403  32.440  35.787  1.00  0.00     0.074 A 
ATOM     53  C   UNL A   1      43.835  28.133  31.812  1.00  0.00     0.029 A 
ATOM     54  N   UNL A   1      42.566  29.677  32.788  1.00  0.00    -0.354 N 
ATOM     55  N   UNL A   1      41.831  31.570  34.903  1.00  0.00    -0.248 NA
ATOM     56  C   UNL A   1      42.168  32.452  37.041  1.00  0.00     0.031 C 
ATOM     57  C   UNL A   1      44.336  28.373  33.097  1.00  0.00     0.029 A 
ATOM     58  C   UNL A   1      43.562  29.355  33.693  1.00  0.00     0.049 A 
ATOM     59  H   UNL A   1      41.856  30.342  32.940  1.00  0.00     0.167 HD
ATOM     60  C   UNL A   1      42.927  30.943  35.489  1.00  0.00     0.074 A 
ATOM     61  C   UNL A   1      43.107  31.549  36.793  1.00  0.00     0.031 C 
ATOM     62  C   UNL A   1      43.715  29.955  34.994  1.00  0.00     0.031 A 
BRANCH  49  63
ATOM     63  C   UNL A   1      42.120  28.100  29.316  1.00  0.00    -0.014 A 
ATOM     64  C   UNL A   1      43.035  28.489  28.322  1.00  0.00     0.010 A 
ATOM     65  C   UNL A   1      41.481  26.852  29.211  1.00  0.00     0.010 A 
ATOM     66  C   UNL A   1      43.287  27.657  27.228  1.00  0.00     0.020 A 
ATOM     67  C   UNL A   1      41.747  26.006  28.131  1.00  0.00     0.020 A 
ATOM     68  C   UNL A   1      42.639  26.420  27.140  1.00  0.00     0.054 A 
BRANCH  68  69
ATOM     69  S   UNL A   1      43.005  25.349  25.723  1.00  0.00     0.124 S 
ATOM     70  O   UNL A   1      42.678  24.027  26.251  1.00  0.00    -0.237 OA
ATOM     71  O   UNL A   1      42.098  25.857  24.696  1.00  0.00    -0.237 OA
ATOM     72  O   UNL A   1      44.425  25.583  25.467  1.00  0.00    -0.744 OA
ENDBRANCH  68  69
ENDBRANCH  49  63
BRANCH  50  73
ATOM     73  C   UNL A   1      39.949  34.344  36.805  1.00  0.00    -0.014 A 
ATOM     74  C   UNL A   1      39.213  33.903  37.919  1.00  0.00     0.010 A 
ATOM     75  C   UNL A   1      40.387  35.679  36.760  1.00  0.00     0.010 A 
ATOM     76  C   UNL A   1      38.913  34.784  38.963  1.00  0.00     0.020 A 
ATOM     77  C   UNL A   1      40.111  36.556  37.813  1.00  0.00     0.020 A 
ATOM     78  C   UNL A   1      39.370  36.104  38.906  1.00  0.00     0.054 A 
BRANCH  78  79
ATOM     79  S   UNL A   1      39.019  37.211  40.302  1.00  0.00     0.124 S 
ATOM     80  O   UNL A   1      38.444  38.373  39.632  1.00  0.00    -0.237 OA
ATOM     81  O   UNL A   1      38.090  36.418  41.103  1.00  0.00    -0.237 OA
ATOM     82  O   UNL A   1      40.331  37.422  40.909  1.00  0.00    -0.744 OA
ENDBRANCH  78  79
ENDBRANCH  50  73
BRANCH  62  83
ATOM     83  C   UNL A   1      44.854  29.482  35.858  1.00  0.00    -0.014 A 
ATOM     84  C   UNL A   1      46.087  30.156  35.872  1.00  0.00     0.010 A 
ATOM     85  C   UNL A   1      44.676  28.363  36.694  1.00  0.00     0.010 A 
ATOM     86  C   UNL A   1      47.137  29.694  36.670  1.00  0.00     0.020 A 
ATOM     87  C   UNL A   1      45.713  27.915  37.515  1.00  0.00     0.020 A 
ATOM     88  C   UNL A   1      46.945  28.572  37.483  1.00  0.00     0.054 A 
BRANCH  88  89
ATOM     89  S   UNL A   1      48.320  27.997  38.517  1.00  0.00     0.124 S 
ATOM     90  O   UNL A   1      48.713  26.764  37.841  1.00  0.00    -0.237 OA
ATOM     91  O   UNL A   1      49.275  29.098  38.421  1.00  0.00    -0.237 OA
ATOM     92  O   UNL A   1      47.712  27.819  39.834  1.00  0.00    -0.744 OA
ENDBRANCH  88  89
ENDBRANCH  62  83
ENDBRANCH  36  37
ENDBRANCH  29  31
ENDBRANCH  28  29
ENDBRANCH  27  28
ENDBRANCH  26  27
ENDBRANCH  25  26
ENDBRANCH   1  25
TORSDOF 21
ENDMDL
MODEL 3
REMARK VINA RESULT:      -9.4      5.784      7.355
REMARK SMILES Cc1cc(C)c2c(c1)C=C(C(=O)OCCOCCOCCOC(=O)c1ccc(-c3c4nc(c(-c5ccc(S(=O)(=O)[O-])cc5)c5ccc([nH]5)c(-c5ccc(S(=O)(=O)[O-])cc5)c5nc(c(-c6ccc(S(=O)(=O)[O-])cc6)c6ccc3[nH]6)C=C5)C=C4)cc1)[C@@H](C(F)(F)F)O2
REMARK SMILES IDX 18 1 17 2 16 3 15 4 14 5 13 6 11 7 12 8 10 9 1 10 2 11 3 12
REMARK SMILES IDX 8 13 4 14 7 15 5 16 6 17 9 18 90 19 85 20 86 21 87 22 88 23
REMARK SMILES IDX 89 24 19 25 20 26 21 27 22 28 23 29 24 30 25 31 26 32 84 33
REMARK SMILES IDX 27 34 83 35 28 36 29 37 30 38 77 39 31 40 82 41 76 42 78 43
REMARK SMILES IDX 32 44 81 45 75 46 74 47 33 49 63 50 44 51 62 52 45 53 48 54
REMARK SMILES IDX 61 55 79 56 46 57 47 58 60 60 80 61 49 62 34 63 35 64 43 65
REMARK SMILES IDX 36 66 42 67 37 68 38 69 39 70 40 71 41 72 64 73 65 74 73 75
REMARK SMILES IDX 66 76 72 77 67 78 68 79 69 80 70 81 71 82 50 83 51 84 59 85
REMARK SMILES IDX 52 86 58 87 53 88 54 89 55 90 56 91 57 92
REMARK H PARENT 78 48 48 59
REMARK Flexibility Score: inf
ROOT
ATOM      1  C   UNL A   1      35.440  34.005  29.177  1.00  0.00     0.188 C 
ENDROOT
BRANCH   1   2
ATOM      2  C   UNL A   1      34.076  33.369  28.834  1.00  0.00     0.188 C 
BRANCH   2   3
ATOM      3  O   UNL A   1      33.951  32.550  27.676  1.00  0.00    -0.376 OA
BRANCH   3   4
ATOM      4  C   UNL A   1      33.627  31.172  27.810  1.00  0.00     0.202 C 
BRANCH   4   5
ATOM      5  C   UNL A   1      33.097  30.415  26.587  1.00  0.00     0.261 C 
BRANCH   5   6
ATOM      6  O   UNL A   1      33.569  29.060  26.494  1.00  0.00    -0.460 OA
BRANCH   6   7
ATOM      7  C   UNL A   1      32.628  28.105  26.685  1.00  0.00     0.338 C 
ATOM      8  O   UNL A   1      31.655  28.173  27.419  1.00  0.00    -0.246 OA
BRANCH   7   9
ATOM      9  C   UNL A   1      32.880  26.969  25.778  1.00  0.00     0.087 C 
ATOM     10  C   UNL A   1      37.054  22.576  24.621  1.00  0.00     0.044 C 
ATOM     11  C   UNL A   1      35.814  23.397  24.412  1.00  0.00    -0.050 A 
ATOM     12  C   UNL A   1      35.032  23.205  23.267  1.00  0.00     0.010 A 
ATOM     13  C   UNL A   1      35.433  24.370  25.340  1.00  0.00     0.015 A 
ATOM     14  C   UNL A   1      33.876  23.969  23.044  1.00  0.00    -0.008 A 
ATOM     15  C   UNL A   1      34.288  25.149  25.126  1.00  0.00     0.018 A 
ATOM     16  C   UNL A   1      33.072  23.761  21.792  1.00  0.00     0.048 C 
ATOM     17  C   UNL A   1      33.497  24.931  23.994  1.00  0.00     0.130 A 
ATOM     18  C   UNL A   1      33.963  26.228  26.042  1.00  0.00     0.027 C 
ATOM     19  O   UNL A   1      32.346  25.626  23.743  1.00  0.00    -0.475 OA
ATOM     20  C   UNL A   1      31.950  26.709  24.627  1.00  0.00     0.316 C 
BRANCH  20  21
ATOM     21  C   UNL A   1      31.712  27.957  23.764  1.00  0.00     0.430 C 
ATOM     22  F   UNL A   1      32.872  28.626  23.543  1.00  0.00    -0.167 F 
ATOM     23  F   UNL A   1      31.217  27.642  22.544  1.00  0.00    -0.167 F 
ATOM     24  F   UNL A   1      30.850  28.824  24.340  1.00  0.00    -0.167 F 
ENDBRANCH  20  21
ENDBRANCH   7   9
ENDBRANCH   6   7
ENDBRANCH   5   6
ENDBRANCH   4   5
ENDBRANCH   3   4
ENDBRANCH   2   3
ENDBRANCH   1   2
BRANCH   1  25
ATOM     25  O   UNL A   1      36.520  33.486  28.436  1.00  0.00    -0.376 OA
BRANCH  25  26
ATOM     26  C   UNL A   1      37.344  32.480  28.994  1.00  0.00     0.202 C 
BRANCH  26  27
ATOM     27  C   UNL A   1      36.920  31.546  30.144  1.00  0.00     0.261 C 
BRANCH  27  28
ATOM     28  O   UNL A   1      37.437  30.213  30.157  1.00  0.00    -0.460 OA
BRANCH  28  29
ATOM     29  C   UNL A   1      37.353  29.516  29.001  1.00  0.00     0.338 C 
ATOM     30  O   UNL A   1      36.356  29.328  28.329  1.00  0.00    -0.246 OA
BRANCH  29  31
ATOM     31  C   UNL A   1      38.729  29.169  28.584  1.00  0.00     0.060 A 
ATOM     32  C   UNL A   1      39.645  28.761  29.562  1.00  0.00     0.016 A 
ATOM     33  C   UNL A   1      39.109  29.252  27.243  1.00  0.00     0.016 A 
ATOM     34  C   UNL A   1      40.962  28.470  29.203  1.00  0.00     0.010 A 
ATOM     35  C   UNL A   1      40.434  28.987  26.889  1.00  0.00     0.010 A 
ATOM     36  C   UNL A   1      41.374  28.630  27.873  1.00  0.00    -0.014 A 
BRANCH  36  37
ATOM     37  C   UNL A   1      42.819  28.657  27.545  1.00  0.00     0.031 A 
ATOM     38  C   UNL A   1      43.449  27.391  27.031  1.00  0.00     0.074 A 
ATOM     39  C   UNL A   1      43.557  29.773  27.684  1.00  0.00     0.049 A 
ATOM     40  N   UNL A   1      44.702  27.139  26.756  1.00  0.00    -0.248 NA
ATOM     41  C   UNL A   1      42.538  26.258  26.791  1.00  0.00     0.031 C 
ATOM     42  C   UNL A   1      43.054  31.080  28.104  1.00  0.00     0.029 A 
ATOM     43  N   UNL A   1      44.900  29.975  27.488  1.00  0.00    -0.354 N 
ATOM     44  C   UNL A   1      44.730  25.821  26.311  1.00  0.00     0.074 A 
ATOM     45  C   UNL A   1      43.375  25.320  26.375  1.00  0.00     0.031 C 
ATOM     46  C   UNL A   1      44.081  31.949  28.140  1.00  0.00     0.029 A 
ATOM     47  C   UNL A   1      45.316  31.251  27.786  1.00  0.00     0.049 A 
ATOM     48  H   UNL A   1      45.509  29.273  27.164  1.00  0.00     0.167 HD
ATOM     49  C   UNL A   1      45.788  25.092  25.888  1.00  0.00     0.031 A 
ATOM     50  C   UNL A   1      46.556  31.781  27.799  1.00  0.00     0.031 A 
ATOM     51  C   UNL A   1      47.141  25.577  25.861  1.00  0.00     0.049 A 
ATOM     52  C   UNL A   1      47.735  30.916  27.435  1.00  0.00     0.074 A 
ATOM     53  C   UNL A   1      48.289  24.906  25.477  1.00  0.00     0.029 A 
ATOM     54  N   UNL A   1      47.530  26.853  26.238  1.00  0.00    -0.354 N 
ATOM     55  N   UNL A   1      47.752  29.663  27.044  1.00  0.00    -0.248 NA
ATOM     56  C   UNL A   1      49.063  31.539  27.518  1.00  0.00     0.031 C 
ATOM     57  C   UNL A   1      49.379  25.762  25.669  1.00  0.00     0.029 A 
ATOM     58  C   UNL A   1      48.903  26.983  26.116  1.00  0.00     0.049 A 
ATOM     59  H   UNL A   1      46.920  27.561  26.546  1.00  0.00     0.167 HD
ATOM     60  C   UNL A   1      49.090  29.354  26.817  1.00  0.00     0.074 A 
ATOM     61  C   UNL A   1      49.849  30.558  27.095  1.00  0.00     0.031 C 
ATOM     62  C   UNL A   1      49.643  28.182  26.415  1.00  0.00     0.031 A 
BRANCH  49  63
ATOM     63  C   UNL A   1      45.520  23.677  25.457  1.00  0.00    -0.014 A 
ATOM     64  C   UNL A   1      45.605  22.613  26.373  1.00  0.00     0.010 A 
ATOM     65  C   UNL A   1      45.156  23.409  24.125  1.00  0.00     0.010 A 
ATOM     66  C   UNL A   1      45.358  21.302  25.958  1.00  0.00     0.020 A 
ATOM     67  C   UNL A   1      44.884  22.101  23.712  1.00  0.00     0.020 A 
ATOM     68  C   UNL A   1      45.000  21.055  24.629  1.00  0.00     0.054 A 
BRANCH  68  69
ATOM     69  S   UNL A   1      44.658  19.347  24.126  1.00  0.00     0.124 S 
ATOM     70  O   UNL A   1      44.595  19.467  22.672  1.00  0.00    -0.237 OA
ATOM     71  O   UNL A   1      45.816  18.623  24.646  1.00  0.00    -0.237 OA
ATOM     72  O   UNL A   1      43.388  19.039  24.781  1.00  0.00    -0.744 OA
ENDBRANCH  68  69
ENDBRANCH  49  63
BRANCH  50  73
ATOM     73  C   UNL A   1      46.754  33.203  28.195  1.00  0.00    -0.014 A 
ATOM     74  C   UNL A   1      46.980  33.544  29.540  1.00  0.00     0.010 A 
ATOM     75  C   UNL A   1      46.709  34.225  27.230  1.00  0.00     0.010 A 
ATOM     76  C   UNL A   1      47.151  34.881  29.913  1.00  0.00     0.020 A 
ATOM     77  C   UNL A   1      46.905  35.560  27.595  1.00  0.00     0.020 A 
ATOM     78  C   UNL A   1      47.117  35.880  28.936  1.00  0.00     0.054 A 
BRANCH  78  79
ATOM     79  S   UNL A   1      47.401  37.602  29.438  1.00  0.00     0.124 S 
ATOM     80  O   UNL A   1      48.402  38.040  28.472  1.00  0.00    -0.237 OA
ATOM     81  O   UNL A   1      46.074  38.193  29.288  1.00  0.00    -0.237 OA
ATOM     82  O   UNL A   1      47.870  37.483  30.817  1.00  0.00    -0.744 OA
ENDBRANCH  78  79
ENDBRANCH  50  73
BRANCH  62  83
ATOM     83  C   UNL A   1      51.138  28.150  26.235  1.00  0.00    -0.014 A 
ATOM     84  C   UNL A   1      51.734  28.534  25.021  1.00  0.00     0.010 A 
ATOM     85  C   UNL A   1      51.961  27.760  27.308  1.00  0.00     0.010 A 
ATOM     86  C   UNL A   1      53.122  28.485  24.867  1.00  0.00     0.020 A 
ATOM     87  C   UNL A   1      53.351  27.737  27.169  1.00  0.00     0.020 A 
ATOM     88  C   UNL A   1      53.922  28.081  25.941  1.00  0.00     0.054 A 
BRANCH  88  89
ATOM     89  S   UNL A   1      55.722  28.034  25.721  1.00  0.00     0.124 S 
ATOM     90  O   UNL A   1      55.958  26.618  25.455  1.00  0.00    -0.237 OA
ATOM     91  O   UNL A   1      55.929  28.929  24.585  1.00  0.00    -0.237 OA
ATOM     92  O   UNL A   1      56.239  28.523  26.996  1.00  0.00    -0.744 OA
ENDBRANCH  88  89
ENDBRANCH  62  83
ENDBRANCH  36  37
ENDBRANCH  29  31
ENDBRANCH  28  29
ENDBRANCH  27  28
ENDBRANCH  26  27
ENDBRANCH  25  26
ENDBRANCH   1  25
TORSDOF 21
ENDMDL
