MODEL 1
REMARK VINA RESULT:      -9.3      0.000      0.000
REMARK SMILES C[C@@H](C(=O)OCCOCCOCCOC(=O)c1ccc(-c2c3nc(c(-c4ccc(S(=O)(=O)[O-])cc4)c4ccc([nH]4)c(-c4ccc(S(=O)(=O)[O-])cc4)c4nc(c(-c5ccc(S(=O)(=O)[O-])cc5)c5ccc2[nH]5)C=C4)C=C3)cc1)c1ccc(Cc2ccco2)cc1F
REMARK SMILES IDX 9 1 8 2 7 3 6 4 5 5 3 6 4 7 2 8 1 9 77 10 78 11 88 12 79 13
REMARK SMILES IDX 87 14 89 15 80 16 81 17 82 18 83 19 86 20 84 21 85 22 10 23
REMARK SMILES IDX 11 24 12 25 13 26 14 27 15 28 16 29 17 30 18 31 76 32 19 33
REMARK SMILES IDX 75 34 20 35 21 36 22 37 69 38 23 39 74 40 68 41 70 42 24 43
REMARK SMILES IDX 73 44 67 45 66 46 25 48 55 49 36 50 54 51 37 52 40 53 53 54
REMARK SMILES IDX 71 55 38 56 39 57 52 59 72 60 41 61 26 62 27 63 35 64 28 65
REMARK SMILES IDX 34 66 29 67 30 68 31 69 32 70 33 71 56 72 57 73 65 74 58 75
REMARK SMILES IDX 64 76 59 77 60 78 61 79 62 80 63 81 42 82 43 83 51 84 44 85
REMARK SMILES IDX 50 86 45 87 46 88 47 89 48 90 49 91
REMARK H PARENT 70 47 40 58
REMARK Flexibility Score: inf
ROOT
ATOM      1  C   UNL A   1      41.183  20.725  26.227  1.00  0.00     0.188 C 
ENDROOT
BRANCH   1   2
ATOM      2  O   UNL A   1      40.411  21.904  26.147  1.00  0.00    -0.376 OA
BRANCH   2   3
ATOM      3  C   UNL A   1      39.007  21.736  26.029  1.00  0.00     0.202 C 
BRANCH   3   4
ATOM      4  C   UNL A   1      38.382  20.526  25.298  1.00  0.00     0.261 C 
BRANCH   4   5
ATOM      5  O   UNL A   1      37.268  20.775  24.420  1.00  0.00    -0.463 OA
BRANCH   5   6
ATOM      6  C   UNL A   1      36.685  22.002  24.477  1.00  0.00     0.313 C 
ATOM      7  O   UNL A   1      37.170  22.988  23.937  1.00  0.00    -0.252 OA
BRANCH   6   8
ATOM      8  C   UNL A   1      35.362  22.020  25.279  1.00  0.00     0.129 C 
ATOM      9  C   UNL A   1      34.461  20.792  25.048  1.00  0.00     0.025 C 
BRANCH   8  10
ATOM     10  C   UNL A   1      34.661  23.383  25.271  1.00  0.00     0.002 A 
ATOM     11  C   UNL A   1      34.710  24.306  24.212  1.00  0.00     0.008 A 
ATOM     12  C   UNL A   1      33.836  23.720  26.351  1.00  0.00     0.127 A 
ATOM     13  C   UNL A   1      33.944  25.493  24.233  1.00  0.00     0.005 A 
ATOM     14  C   UNL A   1      33.106  24.908  26.393  1.00  0.00     0.043 A 
ATOM     15  F   UNL A   1      33.656  22.848  27.352  1.00  0.00    -0.207 F 
ATOM     16  C   UNL A   1      33.130  25.815  25.325  1.00  0.00    -0.038 A 
BRANCH  16  17
ATOM     17  C   UNL A   1      32.106  26.939  25.334  1.00  0.00     0.111 C 
BRANCH  17  18
ATOM     18  C   UNL A   1      32.412  28.233  26.007  1.00  0.00     0.108 A 
ATOM     19  C   UNL A   1      31.780  29.073  26.903  1.00  0.00     0.046 A 
ATOM     20  O   UNL A   1      33.697  28.670  25.819  1.00  0.00    -0.469 OA
ATOM     21  C   UNL A   1      32.717  30.078  27.256  1.00  0.00     0.042 A 
ATOM     22  C   UNL A   1      33.872  29.773  26.584  1.00  0.00     0.195 A 
ENDBRANCH  17  18
ENDBRANCH  16  17
ENDBRANCH   8  10
ENDBRANCH   6   8
ENDBRANCH   5   6
ENDBRANCH   4   5
ENDBRANCH   3   4
ENDBRANCH   2   3
ENDBRANCH   1   2
BRANCH   1  23
ATOM     23  C   UNL A   1      42.669  20.995  25.945  1.00  0.00     0.188 C 
BRANCH  23  24
ATOM     24  O   UNL A   1      43.071  21.792  24.843  1.00  0.00    -0.376 OA
BRANCH  24  25
ATOM     25  C   UNL A   1      43.956  22.881  25.070  1.00  0.00     0.202 C 
BRANCH  25  26
ATOM     26  C   UNL A   1      43.647  23.997  26.092  1.00  0.00     0.261 C 
BRANCH  26  27
ATOM     27  O   UNL A   1      42.290  24.444  26.201  1.00  0.00    -0.460 OA
BRANCH  27  28
ATOM     28  C   UNL A   1      42.084  25.764  25.941  1.00  0.00     0.338 C 
ATOM     29  O   UNL A   1      41.874  26.277  24.862  1.00  0.00    -0.246 OA
BRANCH  28  30
ATOM     30  C   UNL A   1      41.961  26.476  27.232  1.00  0.00     0.060 A 
ATOM     31  C   UNL A   1      41.108  25.962  28.218  1.00  0.00     0.016 A 
ATOM     32  C   UNL A   1      42.667  27.657  27.455  1.00  0.00     0.016 A 
ATOM     33  C   UNL A   1      40.970  26.621  29.436  1.00  0.00     0.010 A 
ATOM     34  C   UNL A   1      42.490  28.344  28.661  1.00  0.00     0.010 A 
ATOM     35  C   UNL A   1      41.624  27.839  29.647  1.00  0.00    -0.014 A 
BRANCH  35  36
ATOM     36  C   UNL A   1      41.240  28.669  30.814  1.00  0.00     0.031 A 
ATOM     37  C   UNL A   1      42.198  28.746  31.972  1.00  0.00     0.074 A 
ATOM     38  C   UNL A   1      40.121  29.417  30.800  1.00  0.00     0.049 A 
ATOM     39  N   UNL A   1      42.123  29.459  33.066  1.00  0.00    -0.248 NA
ATOM     40  C   UNL A   1      43.419  27.928  31.872  1.00  0.00     0.031 C 
ATOM     41  C   UNL A   1      39.213  29.545  29.661  1.00  0.00     0.029 A 
ATOM     42  N   UNL A   1      39.600  30.269  31.745  1.00  0.00    -0.354 N 
ATOM     43  C   UNL A   1      43.259  29.141  33.801  1.00  0.00     0.074 A 
ATOM     44  C   UNL A   1      44.018  28.189  33.025  1.00  0.00     0.031 C 
ATOM     45  C   UNL A   1      38.300  30.493  29.939  1.00  0.00     0.029 A 
ATOM     46  C   UNL A   1      38.531  31.008  31.288  1.00  0.00     0.049 A 
ATOM     47  H   UNL A   1      39.959  30.345  32.659  1.00  0.00     0.167 HD
ATOM     48  C   UNL A   1      43.625  29.591  35.025  1.00  0.00     0.031 A 
ATOM     49  C   UNL A   1      37.856  32.022  31.871  1.00  0.00     0.031 A 
ATOM     50  C   UNL A   1      42.868  30.545  35.789  1.00  0.00     0.049 A 
ATOM     51  C   UNL A   1      38.278  32.496  33.243  1.00  0.00     0.074 A 
ATOM     52  C   UNL A   1      43.118  31.011  37.068  1.00  0.00     0.029 A 
ATOM     53  N   UNL A   1      41.721  31.185  35.346  1.00  0.00    -0.354 N 
ATOM     54  N   UNL A   1      39.323  32.143  33.955  1.00  0.00    -0.248 NA
ATOM     55  C   UNL A   1      37.441  33.524  33.879  1.00  0.00     0.031 C 
ATOM     56  C   UNL A   1      42.089  31.889  37.421  1.00  0.00     0.029 A 
ATOM     57  C   UNL A   1      41.240  32.028  36.334  1.00  0.00     0.049 A 
ATOM     58  H   UNL A   1      41.308  31.060  34.461  1.00  0.00     0.167 HD
ATOM     59  C   UNL A   1      39.266  32.905  35.120  1.00  0.00     0.074 A 
ATOM     60  C   UNL A   1      38.117  33.777  34.991  1.00  0.00     0.031 C 
ATOM     61  C   UNL A   1      40.080  32.876  36.206  1.00  0.00     0.031 A 
BRANCH  48  62
ATOM     62  C   UNL A   1      44.852  28.986  35.654  1.00  0.00    -0.014 A 
ATOM     63  C   UNL A   1      46.074  29.675  35.716  1.00  0.00     0.010 A 
ATOM     64  C   UNL A   1      44.752  27.711  36.244  1.00  0.00     0.010 A 
ATOM     65  C   UNL A   1      47.181  29.090  36.339  1.00  0.00     0.020 A 
ATOM     66  C   UNL A   1      45.846  27.136  36.891  1.00  0.00     0.020 A 
ATOM     67  C   UNL A   1      47.058  27.825  36.926  1.00  0.00     0.054 A 
BRANCH  67  68
ATOM     68  S   UNL A   1      48.498  27.109  37.766  1.00  0.00     0.124 S 
ATOM     69  O   UNL A   1      48.767  28.101  38.803  1.00  0.00    -0.237 OA
ATOM     70  O   UNL A   1      47.984  25.826  38.240  1.00  0.00    -0.237 OA
ATOM     71  O   UNL A   1      49.507  27.021  36.713  1.00  0.00    -0.744 OA
ENDBRANCH  67  68
ENDBRANCH  48  62
BRANCH  49  72
ATOM     72  C   UNL A   1      36.764  32.722  31.131  1.00  0.00    -0.014 A 
ATOM     73  C   UNL A   1      35.415  32.450  31.431  1.00  0.00     0.010 A 
ATOM     74  C   UNL A   1      37.054  33.664  30.128  1.00  0.00     0.010 A 
ATOM     75  C   UNL A   1      34.385  33.085  30.732  1.00  0.00     0.020 A 
ATOM     76  C   UNL A   1      36.026  34.334  29.454  1.00  0.00     0.020 A 
ATOM     77  C   UNL A   1      34.697  34.028  29.749  1.00  0.00     0.054 A 
BRANCH  77  78
ATOM     78  S   UNL A   1      33.345  34.888  28.896  1.00  0.00     0.124 S 
ATOM     79  O   UNL A   1      32.415  35.151  29.989  1.00  0.00    -0.237 OA
ATOM     80  O   UNL A   1      34.016  36.059  28.338  1.00  0.00    -0.237 OA
ATOM     81  O   UNL A   1      32.890  33.911  27.908  1.00  0.00    -0.744 OA
ENDBRANCH  77  78
ENDBRANCH  49  72
BRANCH  61  82
ATOM     82  C   UNL A   1      39.742  33.776  37.371  1.00  0.00    -0.014 A 
ATOM     83  C   UNL A   1      38.952  33.304  38.437  1.00  0.00     0.010 A 
ATOM     84  C   UNL A   1      40.290  35.069  37.454  1.00  0.00     0.010 A 
ATOM     85  C   UNL A   1      38.691  34.116  39.543  1.00  0.00     0.020 A 
ATOM     86  C   UNL A   1      40.059  35.874  38.574  1.00  0.00     0.020 A 
ATOM     87  C   UNL A   1      39.250  35.396  39.607  1.00  0.00     0.054 A 
BRANCH  87  88
ATOM     88  S   UNL A   1      38.937  36.405  41.082  1.00  0.00     0.124 S 
ATOM     89  O   UNL A   1      38.578  37.694  40.498  1.00  0.00    -0.237 OA
ATOM     90  O   UNL A   1      37.847  35.686  41.735  1.00  0.00    -0.237 OA
ATOM     91  O   UNL A   1      40.210  36.379  41.798  1.00  0.00    -0.744 OA
ENDBRANCH  87  88
ENDBRANCH  61  82
ENDBRANCH  35  36
ENDBRANCH  28  30
ENDBRANCH  27  28
ENDBRANCH  26  27
ENDBRANCH  25  26
ENDBRANCH  24  25
ENDBRANCH  23  24
ENDBRANCH   1  23
TORSDOF 23
ENDMDL
MODEL 2
REMARK VINA RESULT:      -8.6      5.076     12.799
REMARK SMILES C[C@@H](C(=O)OCCOCCOCCOC(=O)c1ccc(-c2c3nc(c(-c4ccc(S(=O)(=O)[O-])cc4)c4ccc([nH]4)c(-c4ccc(S(=O)(=O)[O-])cc4)c4nc(c(-c5ccc(S(=O)(=O)[O-])cc5)c5ccc2[nH]5)C=C4)C=C3)cc1)c1ccc(Cc2ccco2)cc1F
REMARK SMILES IDX 9 1 8 2 7 3 6 4 5 5 3 6 4 7 2 8 1 9 77 10 78 11 88 12 79 13
REMARK SMILES IDX 87 14 89 15 80 16 81 17 82 18 83 19 86 20 84 21 85 22 10 23
REMARK SMILES IDX 11 24 12 25 13 26 14 27 15 28 16 29 17 30 18 31 76 32 19 33
REMARK SMILES IDX 75 34 20 35 21 36 22 37 69 38 23 39 74 40 68 41 70 42 24 43
REMARK SMILES IDX 73 44 67 45 66 46 25 48 55 49 36 50 54 51 37 52 40 53 53 54
REMARK SMILES IDX 71 55 38 56 39 57 52 59 72 60 41 61 26 62 27 63 35 64 28 65
REMARK SMILES IDX 34 66 29 67 30 68 31 69 32 70 33 71 56 72 57 73 65 74 58 75
REMARK SMILES IDX 64 76 59 77 60 78 61 79 62 80 63 81 42 82 43 83 51 84 44 85
REMARK SMILES IDX 50 86 45 87 46 88 47 89 48 90 49 91
REMARK H PARENT 70 47 40 58
REMARK Flexibility Score: inf
ROOT
ATOM      1  C   UNL A   1      44.809  22.337  34.094  1.00  0.00     0.188 C 
ENDROOT
BRANCH   1   2
ATOM      2  O   UNL A   1      44.954  21.554  35.260  1.00  0.00    -0.376 OA
BRANCH   2   3
ATOM      3  C   UNL A   1      45.399  20.220  35.077  1.00  0.00     0.202 C 
BRANCH   3   4
ATOM      4  C   UNL A   1      46.890  19.827  35.189  1.00  0.00     0.261 C 
BRANCH   4   5
ATOM      5  O   UNL A   1      47.820  20.839  35.620  1.00  0.00    -0.463 OA
BRANCH   5   6
ATOM      6  C   UNL A   1      48.794  20.467  36.492  1.00  0.00     0.313 C 
ATOM      7  O   UNL A   1      49.823  19.909  36.133  1.00  0.00    -0.252 OA
BRANCH   6   8
ATOM      8  C   UNL A   1      48.472  20.820  37.964  1.00  0.00     0.129 C 
ATOM      9  C   UNL A   1      49.354  21.935  38.557  1.00  0.00     0.025 C 
BRANCH   8  10
ATOM     10  C   UNL A   1      48.248  19.592  38.853  1.00  0.00     0.002 A 
ATOM     11  C   UNL A   1      49.223  19.009  39.681  1.00  0.00     0.008 A 
ATOM     12  C   UNL A   1      46.962  19.043  38.927  1.00  0.00     0.127 A 
ATOM     13  C   UNL A   1      48.908  17.947  40.556  1.00  0.00     0.005 A 
ATOM     14  C   UNL A   1      46.653  17.970  39.763  1.00  0.00     0.043 A 
ATOM     15  F   UNL A   1      45.955  19.605  38.246  1.00  0.00    -0.207 F 
ATOM     16  C   UNL A   1      47.617  17.408  40.612  1.00  0.00    -0.038 A 
BRANCH  16  17
ATOM     17  C   UNL A   1      47.135  16.433  41.675  1.00  0.00     0.111 C 
BRANCH  17  18
ATOM     18  C   UNL A   1      45.940  16.751  42.505  1.00  0.00     0.108 A 
ATOM     19  C   UNL A   1      45.618  17.653  43.501  1.00  0.00     0.046 A 
ATOM     20  O   UNL A   1      44.802  16.091  42.120  1.00  0.00    -0.469 OA
ATOM     21  C   UNL A   1      44.229  17.516  43.747  1.00  0.00     0.042 A 
ATOM     22  C   UNL A   1      43.778  16.568  42.866  1.00  0.00     0.195 A 
ENDBRANCH  17  18
ENDBRANCH  16  17
ENDBRANCH   8  10
ENDBRANCH   6   8
ENDBRANCH   5   6
ENDBRANCH   4   5
ENDBRANCH   3   4
ENDBRANCH   2   3
ENDBRANCH   1   2
BRANCH   1  23
ATOM     23  C   UNL A   1      45.761  23.543  34.094  1.00  0.00     0.188 C 
BRANCH  23  24
ATOM     24  O   UNL A   1      46.357  24.005  35.294  1.00  0.00    -0.376 OA
BRANCH  24  25
ATOM     25  C   UNL A   1      47.617  24.658  35.227  1.00  0.00     0.202 C 
BRANCH  25  26
ATOM     26  C   UNL A   1      48.440  24.998  36.490  1.00  0.00     0.261 C 
BRANCH  26  27
ATOM     27  O   UNL A   1      48.670  26.383  36.783  1.00  0.00    -0.460 OA
BRANCH  27  28
ATOM     28  C   UNL A   1      47.949  26.891  37.817  1.00  0.00     0.338 C 
ATOM     29  O   UNL A   1      48.271  26.939  38.987  1.00  0.00    -0.246 OA
BRANCH  28  30
ATOM     30  C   UNL A   1      46.759  27.572  37.263  1.00  0.00     0.060 A 
ATOM     31  C   UNL A   1      45.493  27.000  37.452  1.00  0.00     0.016 A 
ATOM     32  C   UNL A   1      46.897  28.756  36.541  1.00  0.00     0.016 A 
ATOM     33  C   UNL A   1      44.361  27.620  36.931  1.00  0.00     0.010 A 
ATOM     34  C   UNL A   1      45.762  29.351  35.976  1.00  0.00     0.010 A 
ATOM     35  C   UNL A   1      44.494  28.773  36.152  1.00  0.00    -0.014 A 
BRANCH  35  36
ATOM     36  C   UNL A   1      43.330  29.247  35.365  1.00  0.00     0.031 A 
ATOM     37  C   UNL A   1      42.506  30.373  35.931  1.00  0.00     0.074 A 
ATOM     38  C   UNL A   1      43.076  28.764  34.135  1.00  0.00     0.049 A 
ATOM     39  N   UNL A   1      41.494  31.009  35.402  1.00  0.00    -0.248 NA
ATOM     40  C   UNL A   1      42.895  30.868  37.263  1.00  0.00     0.031 C 
ATOM     41  C   UNL A   1      43.910  27.794  33.427  1.00  0.00     0.029 A 
ATOM     42  N   UNL A   1      42.086  29.080  33.234  1.00  0.00    -0.354 N 
ATOM     43  C   UNL A   1      41.096  31.942  36.352  1.00  0.00     0.074 A 
ATOM     44  C   UNL A   1      41.987  31.808  37.481  1.00  0.00     0.031 C 
ATOM     45  C   UNL A   1      43.451  27.665  32.169  1.00  0.00     0.029 A 
ATOM     46  C   UNL A   1      42.268  28.507  31.996  1.00  0.00     0.049 A 
ATOM     47  H   UNL A   1      41.323  29.662  33.454  1.00  0.00     0.167 HD
ATOM     48  C   UNL A   1      40.067  32.820  36.293  1.00  0.00     0.031 A 
ATOM     49  C   UNL A   1      41.592  28.687  30.841  1.00  0.00     0.031 A 
ATOM     50  C   UNL A   1      39.190  32.954  35.162  1.00  0.00     0.049 A 
ATOM     51  C   UNL A   1      40.438  29.664  30.807  1.00  0.00     0.074 A 
ATOM     52  C   UNL A   1      38.075  33.764  35.033  1.00  0.00     0.029 A 
ATOM     53  N   UNL A   1      39.328  32.269  33.965  1.00  0.00    -0.354 N 
ATOM     54  N   UNL A   1      40.034  30.500  31.735  1.00  0.00    -0.248 NA
ATOM     55  C   UNL A   1      39.665  29.738  29.558  1.00  0.00     0.031 C 
ATOM     56  C   UNL A   1      37.506  33.526  33.779  1.00  0.00     0.029 A 
ATOM     57  C   UNL A   1      38.308  32.624  33.098  1.00  0.00     0.049 A 
ATOM     58  H   UNL A   1      40.045  31.625  33.761  1.00  0.00     0.167 HD
ATOM     59  C   UNL A   1      38.962  31.196  31.181  1.00  0.00     0.074 A 
ATOM     60  C   UNL A   1      38.818  30.724  29.820  1.00  0.00     0.031 C 
ATOM     61  C   UNL A   1      38.158  32.130  31.751  1.00  0.00     0.031 A 
BRANCH  48  62
ATOM     62  C   UNL A   1      39.776  33.640  37.522  1.00  0.00    -0.014 A 
ATOM     63  C   UNL A   1      38.766  33.285  38.432  1.00  0.00     0.010 A 
ATOM     64  C   UNL A   1      40.577  34.766  37.791  1.00  0.00     0.010 A 
ATOM     65  C   UNL A   1      38.550  34.055  39.579  1.00  0.00     0.020 A 
ATOM     66  C   UNL A   1      40.383  35.520  38.949  1.00  0.00     0.020 A 
ATOM     67  C   UNL A   1      39.363  35.167  39.831  1.00  0.00     0.054 A 
BRANCH  67  68
ATOM     68  S   UNL A   1      39.089  36.122  41.349  1.00  0.00     0.124 S 
ATOM     69  O   UNL A   1      40.295  35.822  42.117  1.00  0.00    -0.237 OA
ATOM     70  O   UNL A   1      38.986  37.491  40.849  1.00  0.00    -0.237 OA
ATOM     71  O   UNL A   1      37.852  35.565  41.892  1.00  0.00    -0.744 OA
ENDBRANCH  67  68
ENDBRANCH  48  62
BRANCH  49  72
ATOM     72  C   UNL A   1      42.034  27.994  29.594  1.00  0.00    -0.014 A 
ATOM     73  C   UNL A   1      41.560  26.703  29.292  1.00  0.00     0.010 A 
ATOM     74  C   UNL A   1      42.925  28.612  28.697  1.00  0.00     0.010 A 
ATOM     75  C   UNL A   1      41.982  26.038  28.137  1.00  0.00     0.020 A 
ATOM     76  C   UNL A   1      43.317  27.967  27.518  1.00  0.00     0.020 A 
ATOM     77  C   UNL A   1      42.856  26.676  27.253  1.00  0.00     0.054 A 
BRANCH  77  78
ATOM     78  S   UNL A   1      43.344  25.821  25.729  1.00  0.00     0.124 S 
ATOM     79  O   UNL A   1      42.529  24.611  25.786  1.00  0.00    -0.237 OA
ATOM     80  O   UNL A   1      42.977  26.783  24.693  1.00  0.00    -0.237 OA
ATOM     81  O   UNL A   1      44.781  25.617  25.898  1.00  0.00    -0.744 OA
ENDBRANCH  77  78
ENDBRANCH  49  72
BRANCH  61  82
ATOM     82  C   UNL A   1      37.015  32.678  30.931  1.00  0.00    -0.014 A 
ATOM     83  C   UNL A   1      35.721  32.138  31.052  1.00  0.00     0.010 A 
ATOM     84  C   UNL A   1      37.207  33.800  30.103  1.00  0.00     0.010 A 
ATOM     85  C   UNL A   1      34.651  32.686  30.339  1.00  0.00     0.020 A 
ATOM     86  C   UNL A   1      36.133  34.372  29.413  1.00  0.00     0.020 A 
ATOM     87  C   UNL A   1      34.863  33.803  29.526  1.00  0.00     0.054 A 
BRANCH  87  88
ATOM     88  S   UNL A   1      33.443  34.524  28.657  1.00  0.00     0.124 S 
ATOM     89  O   UNL A   1      34.044  35.681  28.000  1.00  0.00    -0.237 OA
ATOM     90  O   UNL A   1      33.030  33.441  27.769  1.00  0.00    -0.237 OA
ATOM     91  O   UNL A   1      32.501  34.837  29.729  1.00  0.00    -0.744 OA
ENDBRANCH  87  88
ENDBRANCH  61  82
ENDBRANCH  35  36
ENDBRANCH  28  30
ENDBRANCH  27  28
ENDBRANCH  26  27
ENDBRANCH  25  26
ENDBRANCH  24  25
ENDBRANCH  23  24
ENDBRANCH   1  23
TORSDOF 23
ENDMDL
MODEL 3
REMARK VINA RESULT:      -8.4      3.833      6.804
REMARK SMILES C[C@@H](C(=O)OCCOCCOCCOC(=O)c1ccc(-c2c3nc(c(-c4ccc(S(=O)(=O)[O-])cc4)c4ccc([nH]4)c(-c4ccc(S(=O)(=O)[O-])cc4)c4nc(c(-c5ccc(S(=O)(=O)[O-])cc5)c5ccc2[nH]5)C=C4)C=C3)cc1)c1ccc(Cc2ccco2)cc1F
REMARK SMILES IDX 9 1 8 2 7 3 6 4 5 5 3 6 4 7 2 8 1 9 77 10 78 11 88 12 79 13
REMARK SMILES IDX 87 14 89 15 80 16 81 17 82 18 83 19 86 20 84 21 85 22 10 23
REMARK SMILES IDX 11 24 12 25 13 26 14 27 15 28 16 29 17 30 18 31 76 32 19 33
REMARK SMILES IDX 75 34 20 35 21 36 22 37 69 38 23 39 74 40 68 41 70 42 24 43
REMARK SMILES IDX 73 44 67 45 66 46 25 48 55 49 36 50 54 51 37 52 40 53 53 54
REMARK SMILES IDX 71 55 38 56 39 57 52 59 72 60 41 61 26 62 27 63 35 64 28 65
REMARK SMILES IDX 34 66 29 67 30 68 31 69 32 70 33 71 56 72 57 73 65 74 58 75
REMARK SMILES IDX 64 76 59 77 60 78 61 79 62 80 63 81 42 82 43 83 51 84 44 85
REMARK SMILES IDX 50 86 45 87 46 88 47 89 48 90 49 91
REMARK H PARENT 70 47 40 58
REMARK Flexibility Score: inf
ROOT
ATOM      1  C   UNL A   1      47.115  26.430  27.883  1.00  0.00     0.188 C 
ENDROOT
BRANCH   1   2
ATOM      2  O   UNL A   1      47.260  27.651  28.576  1.00  0.00    -0.376 OA
BRANCH   2   3
ATOM      3  C   UNL A   1      46.182  28.037  29.414  1.00  0.00     0.202 C 
BRANCH   3   4
ATOM      4  C   UNL A   1      45.698  29.502  29.510  1.00  0.00     0.261 C 
BRANCH   4   5
ATOM      5  O   UNL A   1      46.517  30.520  28.904  1.00  0.00    -0.463 OA
BRANCH   5   6
ATOM      6  C   UNL A   1      45.958  31.744  28.710  1.00  0.00     0.313 C 
ATOM      7  O   UNL A   1      46.536  32.786  28.994  1.00  0.00    -0.252 OA
BRANCH   6   8
ATOM      8  C   UNL A   1      44.538  31.683  28.097  1.00  0.00     0.129 C 
ATOM      9  C   UNL A   1      44.466  32.109  26.618  1.00  0.00     0.025 C 
BRANCH   8  10
ATOM     10  C   UNL A   1      43.451  32.249  29.017  1.00  0.00     0.002 A 
ATOM     11  C   UNL A   1      42.718  31.497  29.953  1.00  0.00     0.008 A 
ATOM     12  C   UNL A   1      43.211  33.628  29.004  1.00  0.00     0.127 A 
ATOM     13  C   UNL A   1      41.812  32.113  30.844  1.00  0.00     0.005 A 
ATOM     14  C   UNL A   1      42.290  34.236  29.857  1.00  0.00     0.043 A 
ATOM     15  F   UNL A   1      43.941  34.425  28.213  1.00  0.00    -0.207 F 
ATOM     16  C   UNL A   1      41.581  33.493  30.811  1.00  0.00    -0.038 A 
BRANCH  16  17
ATOM     17  C   UNL A   1      40.810  34.263  31.871  1.00  0.00     0.111 C 
BRANCH  17  18
ATOM     18  C   UNL A   1      41.397  34.483  33.223  1.00  0.00     0.108 A 
ATOM     19  C   UNL A   1      42.526  34.076  33.906  1.00  0.00     0.046 A 
ATOM     20  O   UNL A   1      40.749  35.437  33.963  1.00  0.00    -0.469 OA
ATOM     21  C   UNL A   1      42.551  34.797  35.127  1.00  0.00     0.042 A 
ATOM     22  C   UNL A   1      41.459  35.625  35.101  1.00  0.00     0.195 A 
ENDBRANCH  17  18
ENDBRANCH  16  17
ENDBRANCH   8  10
ENDBRANCH   6   8
ENDBRANCH   5   6
ENDBRANCH   4   5
ENDBRANCH   3   4
ENDBRANCH   2   3
ENDBRANCH   1   2
BRANCH   1  23
ATOM     23  C   UNL A   1      45.641  26.023  27.743  1.00  0.00     0.188 C 
BRANCH  23  24
ATOM     24  O   UNL A   1      44.863  26.456  26.640  1.00  0.00    -0.376 OA
BRANCH  24  25
ATOM     25  C   UNL A   1      44.248  25.481  25.808  1.00  0.00     0.202 C 
BRANCH  25  26
ATOM     26  C   UNL A   1      42.734  25.181  25.868  1.00  0.00     0.261 C 
BRANCH  26  27
ATOM     27  O   UNL A   1      41.839  26.292  26.003  1.00  0.00    -0.460 OA
BRANCH  27  28
ATOM     28  C   UNL A   1      40.588  25.988  26.443  1.00  0.00     0.338 C 
ATOM     29  O   UNL A   1      39.863  25.100  26.043  1.00  0.00    -0.246 OA
BRANCH  28  30
ATOM     30  C   UNL A   1      40.309  26.802  27.646  1.00  0.00     0.060 A 
ATOM     31  C   UNL A   1      40.862  28.086  27.746  1.00  0.00     0.016 A 
ATOM     32  C   UNL A   1      39.524  26.289  28.677  1.00  0.00     0.016 A 
ATOM     33  C   UNL A   1      40.618  28.865  28.873  1.00  0.00     0.010 A 
ATOM     34  C   UNL A   1      39.321  27.055  29.830  1.00  0.00     0.010 A 
ATOM     35  C   UNL A   1      39.886  28.338  29.941  1.00  0.00    -0.014 A 
BRANCH  35  36
ATOM     36  C   UNL A   1      39.888  29.055  31.238  1.00  0.00     0.031 A 
ATOM     37  C   UNL A   1      41.103  28.921  32.118  1.00  0.00     0.074 A 
ATOM     38  C   UNL A   1      38.885  29.885  31.578  1.00  0.00     0.049 A 
ATOM     39  N   UNL A   1      41.373  29.506  33.255  1.00  0.00    -0.248 NA
ATOM     40  C   UNL A   1      42.169  28.026  31.635  1.00  0.00     0.031 C 
ATOM     41  C   UNL A   1      37.745  30.215  30.724  1.00  0.00     0.029 A 
ATOM     42  N   UNL A   1      38.704  30.661  32.699  1.00  0.00    -0.354 N 
ATOM     43  C   UNL A   1      42.615  29.017  33.645  1.00  0.00     0.074 A 
ATOM     44  C   UNL A   1      43.056  28.104  32.616  1.00  0.00     0.031 C 
ATOM     45  C   UNL A   1      37.033  31.194  31.311  1.00  0.00     0.029 A 
ATOM     46  C   UNL A   1      37.640  31.530  32.599  1.00  0.00     0.049 A 
ATOM     47  H   UNL A   1      39.281  30.602  33.495  1.00  0.00     0.167 HD
ATOM     48  C   UNL A   1      43.314  29.292  34.771  1.00  0.00     0.031 A 
ATOM     49  C   UNL A   1      37.239  32.520  33.425  1.00  0.00     0.031 A 
ATOM     50  C   UNL A   1      42.871  30.208  35.787  1.00  0.00     0.049 A 
ATOM     51  C   UNL A   1      38.031  32.797  34.683  1.00  0.00     0.074 A 
ATOM     52  C   UNL A   1      43.474  30.501  36.998  1.00  0.00     0.029 A 
ATOM     53  N   UNL A   1      41.725  30.984  35.712  1.00  0.00    -0.354 N 
ATOM     54  N   UNL A   1      39.175  32.283  35.070  1.00  0.00    -0.248 NA
ATOM     55  C   UNL A   1      37.488  33.807  35.603  1.00  0.00     0.031 C 
ATOM     56  C   UNL A   1      42.662  31.411  37.680  1.00  0.00     0.029 A 
ATOM     57  C   UNL A   1      41.592  31.742  36.863  1.00  0.00     0.049 A 
ATOM     58  H   UNL A   1      41.098  30.995  34.953  1.00  0.00     0.167 HD
ATOM     59  C   UNL A   1      39.486  32.907  36.277  1.00  0.00     0.074 A 
ATOM     60  C   UNL A   1      38.438  33.876  36.524  1.00  0.00     0.031 C 
ATOM     61  C   UNL A   1      40.532  32.688  37.112  1.00  0.00     0.031 A 
BRANCH  48  62
ATOM     62  C   UNL A   1      44.586  28.523  35.010  1.00  0.00    -0.014 A 
ATOM     63  C   UNL A   1      44.604  27.319  35.732  1.00  0.00     0.010 A 
ATOM     64  C   UNL A   1      45.783  29.003  34.445  1.00  0.00     0.010 A 
ATOM     65  C   UNL A   1      45.803  26.618  35.902  1.00  0.00     0.020 A 
ATOM     66  C   UNL A   1      46.975  28.292  34.589  1.00  0.00     0.020 A 
ATOM     67  C   UNL A   1      46.980  27.108  35.326  1.00  0.00     0.054 A 
BRANCH  67  68
ATOM     68  S   UNL A   1      48.512  26.157  35.525  1.00  0.00     0.124 S 
ATOM     69  O   UNL A   1      49.286  27.014  36.419  1.00  0.00    -0.237 OA
ATOM     70  O   UNL A   1      48.035  24.906  36.111  1.00  0.00    -0.237 OA
ATOM     71  O   UNL A   1      49.033  26.046  34.165  1.00  0.00    -0.744 OA
ENDBRANCH  67  68
ENDBRANCH  48  62
BRANCH  49  72
ATOM     72  C   UNL A   1      36.079  33.385  33.055  1.00  0.00    -0.014 A 
ATOM     73  C   UNL A   1      36.273  34.533  32.263  1.00  0.00     0.010 A 
ATOM     74  C   UNL A   1      34.775  33.074  33.483  1.00  0.00     0.010 A 
ATOM     75  C   UNL A   1      35.197  35.360  31.926  1.00  0.00     0.020 A 
ATOM     76  C   UNL A   1      33.689  33.876  33.113  1.00  0.00     0.020 A 
ATOM     77  C   UNL A   1      33.909  35.024  32.350  1.00  0.00     0.054 A 
BRANCH  77  78
ATOM     78  S   UNL A   1      32.518  36.076  31.851  1.00  0.00     0.124 S 
ATOM     79  O   UNL A   1      32.846  37.341  32.502  1.00  0.00    -0.237 OA
ATOM     80  O   UNL A   1      32.619  36.068  30.394  1.00  0.00    -0.237 OA
ATOM     81  O   UNL A   1      31.352  35.378  32.391  1.00  0.00    -0.744 OA
ENDBRANCH  77  78
ENDBRANCH  49  72
BRANCH  61  82
ATOM     82  C   UNL A   1      40.586  33.471  38.403  1.00  0.00    -0.014 A 
ATOM     83  C   UNL A   1      41.677  34.315  38.685  1.00  0.00     0.010 A 
ATOM     84  C   UNL A   1      39.502  33.441  39.299  1.00  0.00     0.010 A 
ATOM     85  C   UNL A   1      41.697  35.086  39.850  1.00  0.00     0.020 A 
ATOM     86  C   UNL A   1      39.503  34.236  40.450  1.00  0.00     0.020 A 
ATOM     87  C   UNL A   1      40.607  35.045  40.724  1.00  0.00     0.054 A 
BRANCH  87  88
ATOM     88  S   UNL A   1      40.640  36.100  42.200  1.00  0.00     0.124 S 
ATOM     89  O   UNL A   1      40.163  37.376  41.673  1.00  0.00    -0.237 OA
ATOM     90  O   UNL A   1      39.723  35.412  43.104  1.00  0.00    -0.237 OA
ATOM     91  O   UNL A   1      42.042  36.082  42.610  1.00  0.00    -0.744 OA
ENDBRANCH  87  88
ENDBRANCH  61  82
ENDBRANCH  35  36
ENDBRANCH  28  30
ENDBRANCH  27  28
ENDBRANCH  26  27
ENDBRANCH  25  26
ENDBRANCH  24  25
ENDBRANCH  23  24
ENDBRANCH   1  23
TORSDOF 23
ENDMDL
