MODEL 1
REMARK VINA RESULT:     -13.0      0.000      0.000
REMARK SMILES Cc1ccc(-c2cc(Cl)cc3c2O[C@@H](C(F)(F)F)C(C(=O)OCCOCCOCCOC(=O)c2ccc(-c4c5nc(c(-c6ccc(S(=O)(=O)[O-])cc6)c6ccc([nH]6)c(-c6ccc(S(=O)(=O)[O-])cc6)c6nc(c(-c7ccc(S(=O)(=O)[O-])cc7)c7ccc4[nH]7)C=C6)C=C5)cc2)=C3)cc1
REMARK SMILES IDX 27 1 26 2 25 3 24 4 23 5 22 6 20 7 21 8 19 9 6 10 7 11 12 12
REMARK SMILES IDX 8 13 11 14 13 15 9 16 10 17 94 18 14 19 5 20 1 21 2 22 3 23
REMARK SMILES IDX 96 24 4 25 95 26 15 27 16 28 17 29 18 30 28 31 29 32 30 33
REMARK SMILES IDX 31 34 32 35 33 36 34 37 35 38 93 39 36 40 92 41 37 42 38 43
REMARK SMILES IDX 39 44 86 45 40 46 91 47 85 48 87 49 41 50 90 51 84 52 83 53
REMARK SMILES IDX 42 55 72 56 53 57 71 58 54 59 57 60 70 61 88 62 55 63 56 64
REMARK SMILES IDX 69 66 89 67 58 68 43 69 44 70 52 71 45 72 51 73 46 74 47 75
REMARK SMILES IDX 48 76 49 77 50 78 73 79 74 80 82 81 75 82 81 83 76 84 77 85
REMARK SMILES IDX 78 86 79 87 80 88 59 89 60 90 68 91 61 92 67 93 62 94 63 95
REMARK SMILES IDX 64 96 65 97 66 98
REMARK H PARENT 87 54 57 65
REMARK Flexibility Score: inf
ROOT
ATOM      1  C   UNL A   1      36.258  18.256  24.980  1.00  0.00     0.188 C 
ENDROOT
BRANCH   1   2
ATOM      2  C   UNL A   1      35.021  17.888  24.213  1.00  0.00     0.188 C 
BRANCH   2   3
ATOM      3  O   UNL A   1      33.852  18.745  24.262  1.00  0.00    -0.376 OA
BRANCH   3   4
ATOM      4  C   UNL A   1      32.990  19.117  25.402  1.00  0.00     0.202 C 
BRANCH   4   5
ATOM      5  C   UNL A   1      32.924  20.377  26.776  1.00  0.00     0.261 C 
BRANCH   5   6
ATOM      6  O   UNL A   1      33.205  22.307  26.785  1.00  0.00    -0.460 OA
BRANCH   6   7
ATOM      7  C   UNL A   1      32.887  23.687  25.869  1.00  0.00     0.338 C 
ATOM      8  O   UNL A   1      33.485  24.763  26.015  1.00  0.00    -0.246 OA
BRANCH   7   9
ATOM      9  C   UNL A   1      31.899  23.905  24.653  1.00  0.00     0.087 C 
ATOM     10  C   UNL A   1      31.547  28.247  24.951  1.00  0.00     0.026 A 
ATOM     11  C   UNL A   1      30.561  28.890  24.225  1.00  0.00     0.033 A 
ATOM     12  C   UNL A   1      31.599  26.725  24.747  1.00  0.00     0.135 A 
ATOM     13  C   UNL A   1      29.666  28.107  23.485  1.00  0.00     0.042 A 
ATOM     14  C   UNL A   1      30.490  25.966  24.402  1.00  0.00     0.019 A 
ATOM     15  O   UNL A   1      32.814  26.018  24.179  1.00  0.00    -0.475 OA
ATOM     16  Cl  UNL A   1      28.653  28.930  22.347  1.00  0.00    -0.084 Cl
ATOM     17  C   UNL A   1      29.564  26.685  23.633  1.00  0.00     0.032 A 
ATOM     18  C   UNL A   1      30.624  24.455  24.718  1.00  0.00     0.027 C 
ATOM     19  C   UNL A   1      32.592  24.662  23.601  1.00  0.00     0.316 C 
BRANCH  10  20
ATOM     20  C   UNL A   1      32.305  29.256  26.203  1.00  0.00    -0.015 A 
ATOM     21  C   UNL A   1      35.829  32.401  28.316  1.00  0.00     0.044 C 
ATOM     22  C   UNL A   1      34.841  31.500  27.626  1.00  0.00    -0.051 A 
ATOM     23  C   UNL A   1      33.248  32.182  27.484  1.00  0.00     0.004 A 
ATOM     24  C   UNL A   1      35.226  29.822  27.141  1.00  0.00     0.004 A 
ATOM     25  C   UNL A   1      31.947  31.166  26.820  1.00  0.00     0.009 A 
ATOM     26  C   UNL A   1      34.020  28.685  26.448  1.00  0.00     0.009 A 
ENDBRANCH  10  20
BRANCH  19  27
ATOM     27  C   UNL A   1      33.567  23.594  23.030  1.00  0.00     0.430 C 
ATOM     28  F   UNL A   1      33.559  23.570  21.655  1.00  0.00    -0.167 F 
ATOM     29  F   UNL A   1      34.853  23.933  23.323  1.00  0.00    -0.167 F 
ATOM     30  F   UNL A   1      33.382  22.339  23.432  1.00  0.00    -0.167 F 
ENDBRANCH  19  27
ENDBRANCH   7   9
ENDBRANCH   6   7
ENDBRANCH   5   6
ENDBRANCH   4   5
ENDBRANCH   3   4
ENDBRANCH   2   3
ENDBRANCH   1   2
BRANCH   1  31
ATOM     31  O   UNL A   1      36.286  19.658  24.953  1.00  0.00    -0.376 OA
BRANCH  31  32
ATOM     32  C   UNL A   1      37.550  20.248  24.992  1.00  0.00     0.202 C 
BRANCH  32  33
ATOM     33  C   UNL A   1      37.448  21.684  25.478  1.00  0.00     0.261 C 
BRANCH  33  34
ATOM     34  O   UNL A   1      38.733  22.358  25.508  1.00  0.00    -0.460 OA
BRANCH  34  35
ATOM     35  C   UNL A   1      39.563  22.137  26.583  1.00  0.00     0.338 C 
ATOM     36  O   UNL A   1      39.848  21.019  26.977  1.00  0.00    -0.246 OA
BRANCH  35  37
ATOM     37  C   UNL A   1      40.284  23.368  26.974  1.00  0.00     0.060 A 
ATOM     38  C   UNL A   1      41.520  23.488  27.584  1.00  0.00     0.016 A 
ATOM     39  C   UNL A   1      39.714  24.552  26.653  1.00  0.00     0.016 A 
ATOM     40  C   UNL A   1      41.893  24.739  28.268  1.00  0.00     0.010 A 
ATOM     41  C   UNL A   1      40.249  25.696  27.264  1.00  0.00     0.010 A 
ATOM     42  C   UNL A   1      41.186  25.886  28.415  1.00  0.00    -0.014 A 
BRANCH  42  43
ATOM     43  C   UNL A   1      41.550  27.410  29.499  1.00  0.00     0.031 A 
ATOM     44  C   UNL A   1      40.422  28.938  29.633  1.00  0.00     0.074 A 
ATOM     45  C   UNL A   1      42.558  27.584  30.417  1.00  0.00     0.049 A 
ATOM     46  N   UNL A   1      40.727  30.142  30.016  1.00  0.00    -0.248 NA
ATOM     47  C   UNL A   1      38.906  29.125  29.012  1.00  0.00     0.031 C 
ATOM     48  C   UNL A   1      42.662  28.604  31.474  1.00  0.00     0.029 A 
ATOM     49  N   UNL A   1      43.754  26.880  30.625  1.00  0.00    -0.354 N 
ATOM     50  C   UNL A   1      39.582  30.953  29.904  1.00  0.00     0.074 A 
ATOM     51  C   UNL A   1      38.682  30.409  28.982  1.00  0.00     0.031 C 
ATOM     52  C   UNL A   1      43.936  28.660  31.910  1.00  0.00     0.029 A 
ATOM     53  C   UNL A   1      44.715  27.818  31.015  1.00  0.00     0.049 A 
ATOM     54  H   UNL A   1      43.891  25.911  30.516  1.00  0.00     0.167 HD
ATOM     55  C   UNL A   1      39.337  31.928  30.804  1.00  0.00     0.031 A 
ATOM     56  C   UNL A   1      45.713  28.201  30.160  1.00  0.00     0.031 A 
ATOM     57  C   UNL A   1      40.592  32.262  31.423  1.00  0.00     0.049 A 
ATOM     58  C   UNL A   1      45.651  29.762  29.933  1.00  0.00     0.074 A 
ATOM     59  C   UNL A   1      41.196  31.991  32.631  1.00  0.00     0.029 A 
ATOM     60  N   UNL A   1      41.619  32.534  30.538  1.00  0.00    -0.354 N 
ATOM     61  N   UNL A   1      44.717  30.555  30.419  1.00  0.00    -0.248 NA
ATOM     62  C   UNL A   1      46.616  30.564  29.175  1.00  0.00     0.031 C 
ATOM     63  C   UNL A   1      42.611  32.123  32.439  1.00  0.00     0.029 A 
ATOM     64  C   UNL A   1      42.849  32.513  31.132  1.00  0.00     0.049 A 
ATOM     65  H   UNL A   1      41.478  32.723  29.582  1.00  0.00     0.167 HD
ATOM     66  C   UNL A   1      44.868  31.854  29.986  1.00  0.00     0.074 A 
ATOM     67  C   UNL A   1      46.086  31.803  29.207  1.00  0.00     0.031 C 
ATOM     68  C   UNL A   1      43.973  32.858  30.273  1.00  0.00     0.031 A 
BRANCH  55  69
ATOM     69  C   UNL A   1      37.933  32.340  31.227  1.00  0.00    -0.014 A 
ATOM     70  C   UNL A   1      37.544  33.657  30.956  1.00  0.00     0.010 A 
ATOM     71  C   UNL A   1      37.011  31.581  32.002  1.00  0.00     0.010 A 
ATOM     72  C   UNL A   1      36.353  34.201  31.465  1.00  0.00     0.020 A 
ATOM     73  C   UNL A   1      35.810  32.103  32.504  1.00  0.00     0.020 A 
ATOM     74  C   UNL A   1      35.497  33.425  32.245  1.00  0.00     0.054 A 
BRANCH  74  75
ATOM     75  S   UNL A   1      33.998  34.169  32.932  1.00  0.00     0.124 S 
ATOM     76  O   UNL A   1      33.476  34.925  31.797  1.00  0.00    -0.237 OA
ATOM     77  O   UNL A   1      33.221  32.996  33.324  1.00  0.00    -0.237 OA
ATOM     78  O   UNL A   1      34.488  34.986  34.041  1.00  0.00    -0.744 OA
ENDBRANCH  74  75
ENDBRANCH  55  69
BRANCH  56  79
ATOM     79  C   UNL A   1      46.131  27.031  29.070  1.00  0.00    -0.014 A 
ATOM     80  C   UNL A   1      47.413  25.480  28.820  1.00  0.00     0.010 A 
ATOM     81  C   UNL A   1      44.943  27.200  27.714  1.00  0.00     0.010 A 
ATOM     82  C   UNL A   1      47.349  24.419  27.388  1.00  0.00     0.020 A 
ATOM     83  C   UNL A   1      45.043  25.999  26.341  1.00  0.00     0.020 A 
ATOM     84  C   UNL A   1      46.177  24.714  26.221  1.00  0.00     0.054 A 
BRANCH  84  85
ATOM     85  S   UNL A   1      45.761  23.549  24.918  1.00  0.00     0.124 S 
ATOM     86  O   UNL A   1      44.364  23.849  24.638  1.00  0.00    -0.237 OA
ATOM     87  O   UNL A   1      46.720  23.930  23.881  1.00  0.00    -0.237 OA
ATOM     88  O   UNL A   1      46.018  22.260  25.555  1.00  0.00    -0.744 OA
ENDBRANCH  84  85
ENDBRANCH  56  79
BRANCH  68  89
ATOM     89  C   UNL A   1      43.981  34.302  29.743  1.00  0.00    -0.014 A 
ATOM     90  C   UNL A   1      44.698  35.346  30.333  1.00  0.00     0.010 A 
ATOM     91  C   UNL A   1      43.097  34.687  28.689  1.00  0.00     0.010 A 
ATOM     92  C   UNL A   1      44.538  36.681  29.895  1.00  0.00     0.020 A 
ATOM     93  C   UNL A   1      42.915  36.000  28.256  1.00  0.00     0.020 A 
ATOM     94  C   UNL A   1      43.640  36.998  28.867  1.00  0.00     0.054 A 
BRANCH  94  95
ATOM     95  S   UNL A   1      43.372  38.720  28.381  1.00  0.00     0.124 S 
ATOM     96  O   UNL A   1      42.124  38.641  27.625  1.00  0.00    -0.237 OA
ATOM     97  O   UNL A   1      43.285  39.392  29.675  1.00  0.00    -0.237 OA
ATOM     98  O   UNL A   1      44.554  39.054  27.588  1.00  0.00    -0.744 OA
ENDBRANCH  94  95
ENDBRANCH  68  89
ENDBRANCH  42  43
ENDBRANCH  35  37
ENDBRANCH  34  35
ENDBRANCH  33  34
ENDBRANCH  32  33
ENDBRANCH  31  32
ENDBRANCH   1  31
TORSDOF 22
ENDMDL
MODEL 2
REMARK VINA RESULT:     -12.0      3.555     10.538
REMARK SMILES Cc1ccc(-c2cc(Cl)cc3c2O[C@@H](C(F)(F)F)C(C(=O)OCCOCCOCCOC(=O)c2ccc(-c4c5nc(c(-c6ccc(S(=O)(=O)[O-])cc6)c6ccc([nH]6)c(-c6ccc(S(=O)(=O)[O-])cc6)c6nc(c(-c7ccc(S(=O)(=O)[O-])cc7)c7ccc4[nH]7)C=C6)C=C5)cc2)=C3)cc1
REMARK SMILES IDX 27 1 26 2 25 3 24 4 23 5 22 6 20 7 21 8 19 9 6 10 7 11 12 12
REMARK SMILES IDX 8 13 11 14 13 15 9 16 10 17 94 18 14 19 5 20 1 21 2 22 3 23
REMARK SMILES IDX 96 24 4 25 95 26 15 27 16 28 17 29 18 30 28 31 29 32 30 33
REMARK SMILES IDX 31 34 32 35 33 36 34 37 35 38 93 39 36 40 92 41 37 42 38 43
REMARK SMILES IDX 39 44 86 45 40 46 91 47 85 48 87 49 41 50 90 51 84 52 83 53
REMARK SMILES IDX 42 55 72 56 53 57 71 58 54 59 57 60 70 61 88 62 55 63 56 64
REMARK SMILES IDX 69 66 89 67 58 68 43 69 44 70 52 71 45 72 51 73 46 74 47 75
REMARK SMILES IDX 48 76 49 77 50 78 73 79 74 80 82 81 75 82 81 83 76 84 77 85
REMARK SMILES IDX 78 86 79 87 80 88 59 89 60 90 68 91 61 92 67 93 62 94 63 95
REMARK SMILES IDX 64 96 65 97 66 98
REMARK H PARENT 87 54 57 65
REMARK Flexibility Score: inf
ROOT
ATOM      1  C   UNL A   1      33.964  31.056  27.623  1.00  0.00     0.188 C 
ENDROOT
BRANCH   1   2
ATOM      2  C   UNL A   1      34.434  29.651  27.382  1.00  0.00     0.188 C 
BRANCH   2   3
ATOM      3  O   UNL A   1      34.035  28.947  26.176  1.00  0.00    -0.376 OA
BRANCH   3   4
ATOM      4  C   UNL A   1      33.143  29.368  25.078  1.00  0.00     0.202 C 
BRANCH   4   5
ATOM      5  C   UNL A   1      32.326  28.649  23.563  1.00  0.00     0.261 C 
BRANCH   5   6
ATOM      6  O   UNL A   1      32.557  26.943  22.646  1.00  0.00    -0.460 OA
BRANCH   6   7
ATOM      7  C   UNL A   1      32.993  25.340  22.940  1.00  0.00     0.338 C 
ATOM      8  O   UNL A   1      34.166  24.954  23.041  1.00  0.00    -0.246 OA
BRANCH   7   9
ATOM      9  C   UNL A   1      32.094  24.069  23.220  1.00  0.00     0.087 C 
ATOM     10  C   UNL A   1      35.199  21.521  24.934  1.00  0.00     0.026 A 
ATOM     11  C   UNL A   1      34.936  20.175  25.112  1.00  0.00     0.033 A 
ATOM     12  C   UNL A   1      34.027  22.327  24.353  1.00  0.00     0.135 A 
ATOM     13  C   UNL A   1      33.709  19.672  24.659  1.00  0.00     0.042 A 
ATOM     14  C   UNL A   1      33.054  21.771  23.533  1.00  0.00     0.019 A 
ATOM     15  O   UNL A   1      33.374  23.473  25.100  1.00  0.00    -0.475 OA
ATOM     16  Cl  UNL A   1      33.274  18.076  25.168  1.00  0.00    -0.084 Cl
ATOM     17  C   UNL A   1      32.825  20.417  23.811  1.00  0.00     0.032 A 
ATOM     18  C   UNL A   1      32.274  22.801  22.678  1.00  0.00     0.027 C 
ATOM     19  C   UNL A   1      31.999  23.858  24.670  1.00  0.00     0.316 C 
BRANCH  10  20
ATOM     20  C   UNL A   1      36.915  21.955  25.090  1.00  0.00    -0.015 A 
ATOM     21  C   UNL A   1      41.241  23.556  27.435  1.00  0.00     0.044 C 
ATOM     22  C   UNL A   1      39.946  23.084  26.830  1.00  0.00    -0.051 A 
ATOM     23  C   UNL A   1      40.009  21.458  26.219  1.00  0.00     0.004 A 
ATOM     24  C   UNL A   1      38.526  24.150  26.615  1.00  0.00     0.004 A 
ATOM     25  C   UNL A   1      38.592  20.825  25.347  1.00  0.00     0.009 A 
ATOM     26  C   UNL A   1      37.024  23.646  25.766  1.00  0.00     0.009 A 
ENDBRANCH  10  20
BRANCH  19  27
ATOM     27  C   UNL A   1      31.053  25.015  25.099  1.00  0.00     0.430 C 
ATOM     28  F   UNL A   1      30.280  25.464  24.053  1.00  0.00    -0.167 F 
ATOM     29  F   UNL A   1      30.130  24.558  25.989  1.00  0.00    -0.167 F 
ATOM     30  F   UNL A   1      31.627  26.090  25.633  1.00  0.00    -0.167 F 
ENDBRANCH  19  27
ENDBRANCH   7   9
ENDBRANCH   6   7
ENDBRANCH   5   6
ENDBRANCH   4   5
ENDBRANCH   3   4
ENDBRANCH   2   3
ENDBRANCH   1   2
BRANCH   1  31
ATOM     31  O   UNL A   1      34.839  31.559  28.597  1.00  0.00    -0.376 OA
BRANCH  31  32
ATOM     32  C   UNL A   1      35.276  32.871  28.413  1.00  0.00     0.202 C 
BRANCH  32  33
ATOM     33  C   UNL A   1      36.767  32.976  28.689  1.00  0.00     0.261 C 
BRANCH  33  34
ATOM     34  O   UNL A   1      37.059  33.260  30.081  1.00  0.00    -0.460 OA
BRANCH  34  35
ATOM     35  C   UNL A   1      37.337  32.206  30.921  1.00  0.00     0.338 C 
ATOM     36  O   UNL A   1      36.468  31.577  31.500  1.00  0.00    -0.246 OA
BRANCH  35  37
ATOM     37  C   UNL A   1      38.739  31.755  30.780  1.00  0.00     0.060 A 
ATOM     38  C   UNL A   1      39.903  32.466  31.011  1.00  0.00     0.016 A 
ATOM     39  C   UNL A   1      38.946  30.463  30.437  1.00  0.00     0.016 A 
ATOM     40  C   UNL A   1      41.180  32.012  30.431  1.00  0.00     0.010 A 
ATOM     41  C   UNL A   1      40.244  30.118  30.033  1.00  0.00     0.010 A 
ATOM     42  C   UNL A   1      41.438  30.934  29.653  1.00  0.00    -0.014 A 
BRANCH  42  43
ATOM     43  C   UNL A   1      43.022  30.474  28.699  1.00  0.00     0.031 A 
ATOM     44  C   UNL A   1      43.646  28.695  28.429  1.00  0.00     0.074 A 
ATOM     45  C   UNL A   1      43.849  31.295  27.970  1.00  0.00     0.049 A 
ATOM     46  N   UNL A   1      44.847  28.290  28.144  1.00  0.00    -0.248 NA
ATOM     47  C   UNL A   1      42.862  27.291  28.791  1.00  0.00     0.031 C 
ATOM     48  C   UNL A   1      44.872  30.914  26.982  1.00  0.00     0.029 A 
ATOM     49  N   UNL A   1      43.979  32.692  27.943  1.00  0.00    -0.354 N 
ATOM     50  C   UNL A   1      44.846  26.883  28.089  1.00  0.00     0.074 A 
ATOM     51  C   UNL A   1      43.778  26.363  28.827  1.00  0.00     0.031 C 
ATOM     52  C   UNL A   1      45.693  31.961  26.769  1.00  0.00     0.029 A 
ATOM     53  C   UNL A   1      45.336  32.971  27.753  1.00  0.00     0.049 A 
ATOM     54  H   UNL A   1      43.253  33.350  28.040  1.00  0.00     0.167 HD
ATOM     55  C   UNL A   1      45.614  26.227  27.195  1.00  0.00     0.031 A 
ATOM     56  C   UNL A   1      46.105  33.453  28.776  1.00  0.00     0.031 A 
ATOM     57  C   UNL A   1      46.674  27.120  26.809  1.00  0.00     0.049 A 
ATOM     58  C   UNL A   1      47.314  32.474  29.043  1.00  0.00     0.074 A 
ATOM     59  C   UNL A   1      46.947  27.907  25.711  1.00  0.00     0.029 A 
ATOM     60  N   UNL A   1      47.366  27.687  27.863  1.00  0.00    -0.354 N 
ATOM     61  N   UNL A   1      47.492  31.318  28.435  1.00  0.00    -0.248 NA
ATOM     62  C   UNL A   1      48.419  32.699  29.981  1.00  0.00     0.031 C 
ATOM     63  C   UNL A   1      47.832  28.950  26.143  1.00  0.00     0.029 A 
ATOM     64  C   UNL A   1      48.120  28.762  27.484  1.00  0.00     0.049 A 
ATOM     65  H   UNL A   1      47.321  27.352  28.787  1.00  0.00     0.167 HD
ATOM     66  C   UNL A   1      48.582  30.637  28.931  1.00  0.00     0.074 A 
ATOM     67  C   UNL A   1      49.132  31.558  29.902  1.00  0.00     0.031 C 
ATOM     68  C   UNL A   1      48.930  29.367  28.532  1.00  0.00     0.031 A 
BRANCH  55  69
ATOM     69  C   UNL A   1      45.209  24.906  26.556  1.00  0.00    -0.014 A 
ATOM     70  C   UNL A   1      45.470  23.738  27.282  1.00  0.00     0.010 A 
ATOM     71  C   UNL A   1      44.722  24.704  25.234  1.00  0.00     0.010 A 
ATOM     72  C   UNL A   1      45.313  22.460  26.717  1.00  0.00     0.020 A 
ATOM     73  C   UNL A   1      44.545  23.436  24.660  1.00  0.00     0.020 A 
ATOM     74  C   UNL A   1      44.862  22.316  25.406  1.00  0.00     0.054 A 
BRANCH  74  75
ATOM     75  S   UNL A   1      44.724  20.661  24.689  1.00  0.00     0.124 S 
ATOM     76  O   UNL A   1      46.014  20.067  25.023  1.00  0.00    -0.237 OA
ATOM     77  O   UNL A   1      43.570  20.112  25.395  1.00  0.00    -0.237 OA
ATOM     78  O   UNL A   1      44.514  20.913  23.263  1.00  0.00    -0.744 OA
ENDBRANCH  74  75
ENDBRANCH  55  69
BRANCH  56  79
ATOM     79  C   UNL A   1      45.252  34.339  29.881  1.00  0.00    -0.014 A 
ATOM     80  C   UNL A   1      43.991  34.123  31.455  1.00  0.00     0.010 A 
ATOM     81  C   UNL A   1      45.724  36.060  29.577  1.00  0.00     0.010 A 
ATOM     82  C   UNL A   1      43.422  35.516  32.410  1.00  0.00     0.020 A 
ATOM     83  C   UNL A   1      45.033  37.340  30.682  1.00  0.00     0.020 A 
ATOM     84  C   UNL A   1      43.963  37.052  31.994  1.00  0.00     0.054 A 
BRANCH  84  85
ATOM     85  S   UNL A   1      43.765  38.492  33.050  1.00  0.00     0.124 S 
ATOM     86  O   UNL A   1      43.287  39.514  32.130  1.00  0.00    -0.237 OA
ATOM     87  O   UNL A   1      42.793  37.997  34.024  1.00  0.00    -0.237 OA
ATOM     88  O   UNL A   1      45.116  38.688  33.570  1.00  0.00    -0.744 OA
ENDBRANCH  84  85
ENDBRANCH  56  79
BRANCH  68  89
ATOM     89  C   UNL A   1      50.045  28.476  29.105  1.00  0.00    -0.014 A 
ATOM     90  C   UNL A   1      50.247  28.262  30.471  1.00  0.00     0.010 A 
ATOM     91  C   UNL A   1      51.053  27.943  28.247  1.00  0.00     0.010 A 
ATOM     92  C   UNL A   1      51.384  27.562  30.939  1.00  0.00     0.020 A 
ATOM     93  C   UNL A   1      52.187  27.266  28.692  1.00  0.00     0.020 A 
ATOM     94  C   UNL A   1      52.349  27.079  30.047  1.00  0.00     0.054 A 
BRANCH  94  95
ATOM     95  S   UNL A   1      53.846  26.272  30.662  1.00  0.00     0.124 S 
ATOM     96  O   UNL A   1      54.497  27.345  31.410  1.00  0.00    -0.237 OA
ATOM     97  O   UNL A   1      53.297  25.184  31.468  1.00  0.00    -0.237 OA
ATOM     98  O   UNL A   1      54.548  25.850  29.450  1.00  0.00    -0.744 OA
ENDBRANCH  94  95
ENDBRANCH  68  89
ENDBRANCH  42  43
ENDBRANCH  35  37
ENDBRANCH  34  35
ENDBRANCH  33  34
ENDBRANCH  32  33
ENDBRANCH  31  32
ENDBRANCH   1  31
TORSDOF 22
ENDMDL
MODEL 3
REMARK VINA RESULT:     -11.7      1.556      2.014
REMARK SMILES Cc1ccc(-c2cc(Cl)cc3c2O[C@@H](C(F)(F)F)C(C(=O)OCCOCCOCCOC(=O)c2ccc(-c4c5nc(c(-c6ccc(S(=O)(=O)[O-])cc6)c6ccc([nH]6)c(-c6ccc(S(=O)(=O)[O-])cc6)c6nc(c(-c7ccc(S(=O)(=O)[O-])cc7)c7ccc4[nH]7)C=C6)C=C5)cc2)=C3)cc1
REMARK SMILES IDX 27 1 26 2 25 3 24 4 23 5 22 6 20 7 21 8 19 9 6 10 7 11 12 12
REMARK SMILES IDX 8 13 11 14 13 15 9 16 10 17 94 18 14 19 5 20 1 21 2 22 3 23
REMARK SMILES IDX 96 24 4 25 95 26 15 27 16 28 17 29 18 30 28 31 29 32 30 33
REMARK SMILES IDX 31 34 32 35 33 36 34 37 35 38 93 39 36 40 92 41 37 42 38 43
REMARK SMILES IDX 39 44 86 45 40 46 91 47 85 48 87 49 41 50 90 51 84 52 83 53
REMARK SMILES IDX 42 55 72 56 53 57 71 58 54 59 57 60 70 61 88 62 55 63 56 64
REMARK SMILES IDX 69 66 89 67 58 68 43 69 44 70 52 71 45 72 51 73 46 74 47 75
REMARK SMILES IDX 48 76 49 77 50 78 73 79 74 80 82 81 75 82 81 83 76 84 77 85
REMARK SMILES IDX 78 86 79 87 80 88 59 89 60 90 68 91 61 92 67 93 62 94 63 95
REMARK SMILES IDX 64 96 65 97 66 98
REMARK H PARENT 87 54 57 65
REMARK Flexibility Score: inf
ROOT
ATOM      1  C   UNL A   1      36.076  19.672  25.052  1.00  0.00     0.188 C 
ENDROOT
BRANCH   1   2
ATOM      2  C   UNL A   1      34.744  19.498  24.381  1.00  0.00     0.188 C 
BRANCH   2   3
ATOM      3  O   UNL A   1      33.620  20.330  24.766  1.00  0.00    -0.376 OA
BRANCH   3   4
ATOM      4  C   UNL A   1      32.884  20.406  26.044  1.00  0.00     0.202 C 
BRANCH   4   5
ATOM      5  C   UNL A   1      32.572  21.617  27.429  1.00  0.00     0.261 C 
BRANCH   5   6
ATOM      6  O   UNL A   1      32.612  23.566  27.486  1.00  0.00    -0.460 OA
BRANCH   6   7
ATOM      7  C   UNL A   1      32.244  24.917  26.547  1.00  0.00     0.338 C 
ATOM      8  O   UNL A   1      32.594  26.071  26.835  1.00  0.00    -0.246 OA
BRANCH   7   9
ATOM      9  C   UNL A   1      31.506  25.025  25.152  1.00  0.00     0.087 C 
ATOM     10  C   UNL A   1      31.259  29.381  24.955  1.00  0.00     0.026 A 
ATOM     11  C   UNL A   1      30.447  29.962  23.998  1.00  0.00     0.033 A 
ATOM     12  C   UNL A   1      31.293  27.845  24.914  1.00  0.00     0.135 A 
ATOM     13  C   UNL A   1      29.676  29.123  23.183  1.00  0.00     0.042 A 
ATOM     14  C   UNL A   1      30.241  27.074  24.442  1.00  0.00     0.019 A 
ATOM     15  O   UNL A   1      32.566  27.064  24.654  1.00  0.00    -0.475 OA
ATOM     16  Cl  UNL A   1      28.920  29.842  21.802  1.00  0.00    -0.084 Cl
ATOM     17  C   UNL A   1      29.499  27.725  23.448  1.00  0.00     0.032 A 
ATOM     18  C   UNL A   1      30.261  25.601  24.924  1.00  0.00     0.027 C 
ATOM     19  C   UNL A   1      32.407  25.659  24.180  1.00  0.00     0.316 C 
BRANCH  10  20
ATOM     20  C   UNL A   1      31.807  30.500  26.223  1.00  0.00    -0.015 A 
ATOM     21  C   UNL A   1      34.929  33.891  28.575  1.00  0.00     0.044 C 
ATOM     22  C   UNL A   1      34.069  32.913  27.821  1.00  0.00    -0.051 A 
ATOM     23  C   UNL A   1      32.502  33.538  27.399  1.00  0.00     0.004 A 
ATOM     24  C   UNL A   1      34.550  31.216  27.526  1.00  0.00     0.004 A 
ATOM     25  C   UNL A   1      31.330  32.439  26.633  1.00  0.00     0.009 A 
ATOM     26  C   UNL A   1      33.478  29.997  26.755  1.00  0.00     0.009 A 
ENDBRANCH  10  20
BRANCH  19  27
ATOM     27  C   UNL A   1      33.432  24.523  23.909  1.00  0.00     0.430 C 
ATOM     28  F   UNL A   1      33.074  23.752  22.827  1.00  0.00    -0.167 F 
ATOM     29  F   UNL A   1      34.626  25.054  23.524  1.00  0.00    -0.167 F 
ATOM     30  F   UNL A   1      33.672  23.681  24.911  1.00  0.00    -0.167 F 
ENDBRANCH  19  27
ENDBRANCH   7   9
ENDBRANCH   6   7
ENDBRANCH   5   6
ENDBRANCH   4   5
ENDBRANCH   3   4
ENDBRANCH   2   3
ENDBRANCH   1   2
BRANCH   1  31
ATOM     31  O   UNL A   1      36.124  21.032  25.394  1.00  0.00    -0.376 OA
BRANCH  31  32
ATOM     32  C   UNL A   1      37.303  21.705  25.072  1.00  0.00     0.202 C 
BRANCH  32  33
ATOM     33  C   UNL A   1      37.523  22.870  26.023  1.00  0.00     0.261 C 
BRANCH  33  34
ATOM     34  O   UNL A   1      38.853  23.438  25.913  1.00  0.00    -0.460 OA
BRANCH  34  35
ATOM     35  C   UNL A   1      39.709  23.315  26.983  1.00  0.00     0.338 C 
ATOM     36  O   UNL A   1      40.002  22.238  27.473  1.00  0.00    -0.246 OA
BRANCH  35  37
ATOM     37  C   UNL A   1      40.442  24.574  27.241  1.00  0.00     0.060 A 
ATOM     38  C   UNL A   1      41.694  24.746  27.804  1.00  0.00     0.016 A 
ATOM     39  C   UNL A   1      39.865  25.726  26.828  1.00  0.00     0.016 A 
ATOM     40  C   UNL A   1      42.086  26.053  28.361  1.00  0.00     0.010 A 
ATOM     41  C   UNL A   1      40.417  26.919  27.318  1.00  0.00     0.010 A 
ATOM     42  C   UNL A   1      41.385  27.210  28.420  1.00  0.00    -0.014 A 
BRANCH  42  43
ATOM     43  C   UNL A   1      41.779  28.826  29.351  1.00  0.00     0.031 A 
ATOM     44  C   UNL A   1      40.536  30.239  29.641  1.00  0.00     0.074 A 
ATOM     45  C   UNL A   1      42.917  29.155  30.046  1.00  0.00     0.049 A 
ATOM     46  N   UNL A   1      40.774  31.488  29.909  1.00  0.00    -0.248 NA
ATOM     47  C   UNL A   1      38.919  30.235  29.322  1.00  0.00     0.031 C 
ATOM     48  C   UNL A   1      43.109  30.242  31.020  1.00  0.00     0.029 A 
ATOM     49  N   UNL A   1      44.202  28.588  30.044  1.00  0.00    -0.354 N 
ATOM     50  C   UNL A   1      39.547  32.173  29.991  1.00  0.00     0.074 A 
ATOM     51  C   UNL A   1      38.554  31.487  29.285  1.00  0.00     0.031 C 
ATOM     52  C   UNL A   1      44.429  30.452  31.196  1.00  0.00     0.029 A 
ATOM     53  C   UNL A   1      45.110  29.639  30.201  1.00  0.00     0.049 A 
ATOM     54  H   UNL A   1      44.420  27.633  29.950  1.00  0.00     0.167 HD
ATOM     55  C   UNL A   1      39.372  33.171  30.880  1.00  0.00     0.031 A 
ATOM     56  C   UNL A   1      45.879  30.067  29.153  1.00  0.00     0.031 A 
ATOM     57  C   UNL A   1      40.678  33.665  31.228  1.00  0.00     0.049 A 
ATOM     58  C   UNL A   1      45.605  31.598  28.879  1.00  0.00     0.074 A 
ATOM     59  C   UNL A   1      41.527  33.530  32.305  1.00  0.00     0.029 A 
ATOM     60  N   UNL A   1      41.481  33.985  30.149  1.00  0.00    -0.354 N 
ATOM     61  N   UNL A   1      44.699  32.321  29.506  1.00  0.00    -0.248 NA
ATOM     62  C   UNL A   1      46.313  32.445  27.915  1.00  0.00     0.031 C 
ATOM     63  C   UNL A   1      42.857  33.791  31.835  1.00  0.00     0.029 A 
ATOM     64  C   UNL A   1      42.797  34.123  30.492  1.00  0.00     0.049 A 
ATOM     65  H   UNL A   1      41.142  34.100  29.233  1.00  0.00     0.167 HD
ATOM     66  C   UNL A   1      44.621  33.600  29.000  1.00  0.00     0.074 A 
ATOM     67  C   UNL A   1      45.666  33.624  28.000  1.00  0.00     0.031 C 
ATOM     68  C   UNL A   1      43.692  34.526  29.416  1.00  0.00     0.031 A 
BRANCH  55  69
ATOM     69  C   UNL A   1      38.038  33.466  31.553  1.00  0.00    -0.014 A 
ATOM     70  C   UNL A   1      36.991  32.567  31.318  1.00  0.00     0.010 A 
ATOM     71  C   UNL A   1      37.683  34.635  32.284  1.00  0.00     0.010 A 
ATOM     72  C   UNL A   1      35.674  32.835  31.728  1.00  0.00     0.020 A 
ATOM     73  C   UNL A   1      36.377  34.910  32.715  1.00  0.00     0.020 A 
ATOM     74  C   UNL A   1      35.371  34.009  32.416  1.00  0.00     0.054 A 
BRANCH  74  75
ATOM     75  S   UNL A   1      33.658  34.352  32.883  1.00  0.00     0.124 S 
ATOM     76  O   UNL A   1      33.810  35.417  33.870  1.00  0.00    -0.237 OA
ATOM     77  O   UNL A   1      33.063  34.748  31.610  1.00  0.00    -0.237 OA
ATOM     78  O   UNL A   1      33.179  33.080  33.421  1.00  0.00    -0.744 OA
ENDBRANCH  74  75
ENDBRANCH  55  69
BRANCH  56  79
ATOM     79  C   UNL A   1      46.207  28.881  28.049  1.00  0.00    -0.014 A 
ATOM     80  C   UNL A   1      45.375  27.249  27.178  1.00  0.00     0.010 A 
ATOM     81  C   UNL A   1      47.834  29.300  27.372  1.00  0.00     0.010 A 
ATOM     82  C   UNL A   1      46.201  26.342  25.885  1.00  0.00     0.020 A 
ATOM     83  C   UNL A   1      48.498  28.241  26.039  1.00  0.00     0.020 A 
ATOM     84  C   UNL A   1      47.710  26.870  25.368  1.00  0.00     0.054 A 
BRANCH  84  85
ATOM     85  S   UNL A   1      48.504  26.288  23.865  1.00  0.00     0.124 S 
ATOM     86  O   UNL A   1      49.918  26.299  24.212  1.00  0.00    -0.237 OA
ATOM     87  O   UNL A   1      47.890  24.969  23.715  1.00  0.00    -0.237 OA
ATOM     88  O   UNL A   1      48.083  27.282  22.882  1.00  0.00    -0.744 OA
ENDBRANCH  84  85
ENDBRANCH  56  79
BRANCH  68  89
ATOM     89  C   UNL A   1      43.440  35.929  28.837  1.00  0.00    -0.014 A 
ATOM     90  C   UNL A   1      43.983  37.101  29.370  1.00  0.00     0.010 A 
ATOM     91  C   UNL A   1      42.479  36.117  27.798  1.00  0.00     0.010 A 
ATOM     92  C   UNL A   1      43.587  38.371  28.891  1.00  0.00     0.020 A 
ATOM     93  C   UNL A   1      42.065  37.362  27.327  1.00  0.00     0.020 A 
ATOM     94  C   UNL A   1      42.624  38.492  27.881  1.00  0.00     0.054 A 
BRANCH  94  95
ATOM     95  S   UNL A   1      42.054  40.122  27.345  1.00  0.00     0.124 S 
ATOM     96  O   UNL A   1      41.244  39.802  26.173  1.00  0.00    -0.237 OA
ATOM     97  O   UNL A   1      41.313  40.587  28.516  1.00  0.00    -0.237 OA
ATOM     98  O   UNL A   1      43.287  40.855  27.062  1.00  0.00    -0.744 OA
ENDBRANCH  94  95
ENDBRANCH  68  89
ENDBRANCH  42  43
ENDBRANCH  35  37
ENDBRANCH  34  35
ENDBRANCH  33  34
ENDBRANCH  32  33
ENDBRANCH  31  32
ENDBRANCH   1  31
TORSDOF 22
ENDMDL
