MODEL 1
REMARK VINA RESULT:      -8.7      0.000      0.000
REMARK SMILES Cc1ccc(C)c([C@@H](O)[C@@H](C)[C@@H](C)C(=O)OCCOCCOCCOC(=O)c2ccc(-c3c4nc(c(-c5ccc(S(=O)(=O)[O-])cc5)c5ccc([nH]5)c(-c5ccc(S(=O)(=O)[O-])cc5)c5nc(c(-c6ccc(S(=O)(=O)[O-])cc6)c6ccc3[nH]6)C=C5)C=C4)cc2)c1
REMARK SMILES IDX 20 1 19 2 18 3 17 4 16 5 14 6 15 7 12 8 13 9 10 10 11 11
REMARK SMILES IDX 8 12 7 13 1 14 2 15 3 16 88 17 4 18 5 19 6 20 9 21 21 23
REMARK SMILES IDX 22 24 23 25 24 26 25 27 26 28 27 29 28 30 29 31 87 32 30 33
REMARK SMILES IDX 86 34 31 35 32 36 33 37 80 38 34 39 85 40 79 41 81 42 35 43
REMARK SMILES IDX 84 44 78 45 77 46 36 48 66 49 47 50 65 51 48 52 51 53 64 54
REMARK SMILES IDX 82 55 49 56 50 57 63 59 83 60 52 61 37 62 38 63 46 64 39 65
REMARK SMILES IDX 45 66 40 67 41 68 42 69 43 70 44 71 67 72 68 73 76 74 69 75
REMARK SMILES IDX 75 76 70 77 71 78 72 79 73 80 74 81 53 82 54 83 62 84 55 85
REMARK SMILES IDX 61 86 56 87 57 88 58 89 59 90 60 91
REMARK H PARENT 9 22 81 47 51 58
REMARK Flexibility Score: inf
ROOT
ATOM      1  C   UNL A   1      39.295  21.901  26.369  1.00  0.00     0.188 C 
ENDROOT
BRANCH   1   2
ATOM      2  O   UNL A   1      38.221  21.360  25.603  1.00  0.00    -0.376 OA
BRANCH   2   3
ATOM      3  C   UNL A   1      37.025  22.147  25.582  1.00  0.00     0.202 C 
BRANCH   3   4
ATOM      4  C   UNL A   1      35.691  21.388  25.828  1.00  0.00     0.261 C 
BRANCH   4   5
ATOM      5  O   UNL A   1      34.746  21.317  24.692  1.00  0.00    -0.463 OA
BRANCH   5   6
ATOM      6  C   UNL A   1      33.468  20.964  24.988  1.00  0.00     0.309 C 
ATOM      7  O   UNL A   1      33.225  19.954  25.651  1.00  0.00    -0.252 OA
BRANCH   6   8
ATOM      8  C   UNL A   1      32.261  21.801  24.395  1.00  0.00     0.102 C 
ATOM      9  C   UNL A   1      32.697  22.121  22.951  1.00  0.00     0.020 C 
BRANCH   8  10
ATOM     10  C   UNL A   1      31.501  23.052  25.016  1.00  0.00     0.033 C 
ATOM     11  C   UNL A   1      31.357  24.190  23.998  1.00  0.00     0.011 C 
BRANCH  10  12
ATOM     12  C   UNL A   1      32.201  23.723  26.292  1.00  0.00     0.148 C 
BRANCH  12  13
ATOM     13  C   UNL A   1      32.607  25.212  26.166  1.00  0.00    -0.016 A 
ATOM     14  C   UNL A   1      31.298  28.551  27.591  1.00  0.00     0.044 C 
ATOM     15  C   UNL A   1      32.119  27.550  26.831  1.00  0.00    -0.051 A 
ATOM     16  C   UNL A   1      33.263  27.980  26.165  1.00  0.00     0.004 A 
ATOM     17  C   UNL A   1      31.787  26.183  26.802  1.00  0.00     0.010 A 
ATOM     18  C   UNL A   1      34.058  27.058  25.491  1.00  0.00     0.004 A 
ATOM     19  C   UNL A   1      33.748  25.679  25.476  1.00  0.00    -0.045 A 
ATOM     20  C   UNL A   1      34.724  24.801  24.742  1.00  0.00     0.045 C 
ENDBRANCH  12  13
BRANCH  12  21
ATOM     21  O   UNL A   1      31.461  23.560  27.496  1.00  0.00    -0.388 OA
ATOM     22  H   UNL A   1      30.755  24.222  27.535  1.00  0.00     0.211 HD
ENDBRANCH  12  21
ENDBRANCH  10  12
ENDBRANCH   8  10
ENDBRANCH   6   8
ENDBRANCH   5   6
ENDBRANCH   4   5
ENDBRANCH   3   4
ENDBRANCH   2   3
ENDBRANCH   1   2
BRANCH   1  23
ATOM     23  C   UNL A   1      40.707  21.480  25.912  1.00  0.00     0.188 C 
BRANCH  23  24
ATOM     24  O   UNL A   1      41.474  21.014  27.009  1.00  0.00    -0.376 OA
BRANCH  24  25
ATOM     25  C   UNL A   1      42.288  19.873  26.805  1.00  0.00     0.202 C 
BRANCH  25  26
ATOM     26  C   UNL A   1      42.955  19.723  25.433  1.00  0.00     0.261 C 
BRANCH  26  27
ATOM     27  O   UNL A   1      44.094  20.518  25.019  1.00  0.00    -0.460 OA
BRANCH  27  28
ATOM     28  C   UNL A   1      44.169  21.800  24.597  1.00  0.00     0.338 C 
ATOM     29  O   UNL A   1      44.301  22.072  23.424  1.00  0.00    -0.246 OA
BRANCH  28  30
ATOM     30  C   UNL A   1      44.130  22.841  25.639  1.00  0.00     0.060 A 
ATOM     31  C   UNL A   1      43.449  23.996  25.324  1.00  0.00     0.016 A 
ATOM     32  C   UNL A   1      44.824  22.765  26.846  1.00  0.00     0.016 A 
ATOM     33  C   UNL A   1      43.575  25.103  26.139  1.00  0.00     0.010 A 
ATOM     34  C   UNL A   1      45.035  23.939  27.600  1.00  0.00     0.010 A 
ATOM     35  C   UNL A   1      44.484  25.151  27.180  1.00  0.00    -0.014 A 
BRANCH  35  36
ATOM     36  C   UNL A   1      44.473  26.436  27.914  1.00  0.00     0.031 A 
ATOM     37  C   UNL A   1      45.767  27.146  27.711  1.00  0.00     0.074 A 
ATOM     38  C   UNL A   1      43.527  26.888  28.780  1.00  0.00     0.049 A 
ATOM     39  N   UNL A   1      46.593  27.534  28.628  1.00  0.00    -0.248 NA
ATOM     40  C   UNL A   1      46.305  27.235  26.339  1.00  0.00     0.031 C 
ATOM     41  C   UNL A   1      42.262  26.223  29.111  1.00  0.00     0.029 A 
ATOM     42  N   UNL A   1      43.435  28.061  29.516  1.00  0.00    -0.354 N 
ATOM     43  C   UNL A   1      47.616  28.171  27.935  1.00  0.00     0.074 A 
ATOM     44  C   UNL A   1      47.497  27.785  26.553  1.00  0.00     0.031 C 
ATOM     45  C   UNL A   1      41.439  27.095  29.738  1.00  0.00     0.029 A 
ATOM     46  C   UNL A   1      42.129  28.361  29.937  1.00  0.00     0.049 A 
ATOM     47  H   UNL A   1      44.212  28.629  29.723  1.00  0.00     0.167 HD
ATOM     48  C   UNL A   1      48.137  29.321  28.433  1.00  0.00     0.031 A 
ATOM     49  C   UNL A   1      41.602  29.541  30.380  1.00  0.00     0.031 A 
ATOM     50  C   UNL A   1      48.107  29.356  29.865  1.00  0.00     0.049 A 
ATOM     51  C   UNL A   1      42.696  30.384  30.896  1.00  0.00     0.074 A 
ATOM     52  C   UNL A   1      48.783  28.746  30.897  1.00  0.00     0.029 A 
ATOM     53  N   UNL A   1      46.968  29.899  30.386  1.00  0.00    -0.354 N 
ATOM     54  N   UNL A   1      43.269  30.171  32.044  1.00  0.00    -0.248 NA
ATOM     55  C   UNL A   1      43.373  31.321  30.008  1.00  0.00     0.031 C 
ATOM     56  C   UNL A   1      47.966  28.887  32.055  1.00  0.00     0.029 A 
ATOM     57  C   UNL A   1      46.836  29.624  31.717  1.00  0.00     0.049 A 
ATOM     58  H   UNL A   1      46.319  30.424  29.865  1.00  0.00     0.167 HD
ATOM     59  C   UNL A   1      44.570  30.576  31.835  1.00  0.00     0.074 A 
ATOM     60  C   UNL A   1      44.540  31.415  30.646  1.00  0.00     0.031 C 
ATOM     61  C   UNL A   1      45.595  29.889  32.405  1.00  0.00     0.031 A 
BRANCH  48  62
ATOM     62  C   UNL A   1      48.030  30.590  27.608  1.00  0.00    -0.014 A 
ATOM     63  C   UNL A   1      49.135  31.448  27.487  1.00  0.00     0.010 A 
ATOM     64  C   UNL A   1      46.781  31.094  27.173  1.00  0.00     0.010 A 
ATOM     65  C   UNL A   1      48.997  32.727  26.924  1.00  0.00     0.020 A 
ATOM     66  C   UNL A   1      46.637  32.342  26.576  1.00  0.00     0.020 A 
ATOM     67  C   UNL A   1      47.749  33.158  26.459  1.00  0.00     0.054 A 
BRANCH  67  68
ATOM     68  S   UNL A   1      47.574  34.796  25.716  1.00  0.00     0.124 S 
ATOM     69  O   UNL A   1      46.221  34.740  25.174  1.00  0.00    -0.237 OA
ATOM     70  O   UNL A   1      47.766  35.675  26.867  1.00  0.00    -0.237 OA
ATOM     71  O   UNL A   1      48.648  34.838  24.725  1.00  0.00    -0.744 OA
ENDBRANCH  67  68
ENDBRANCH  48  62
BRANCH  49  72
ATOM     72  C   UNL A   1      40.214  30.103  30.286  1.00  0.00    -0.014 A 
ATOM     73  C   UNL A   1      39.734  31.052  31.223  1.00  0.00     0.010 A 
ATOM     74  C   UNL A   1      39.468  29.948  29.104  1.00  0.00     0.010 A 
ATOM     75  C   UNL A   1      38.627  31.879  30.939  1.00  0.00     0.020 A 
ATOM     76  C   UNL A   1      38.358  30.759  28.817  1.00  0.00     0.020 A 
ATOM     77  C   UNL A   1      37.966  31.747  29.717  1.00  0.00     0.054 A 
BRANCH  77  78
ATOM     78  S   UNL A   1      36.705  32.971  29.229  1.00  0.00     0.124 S 
ATOM     79  O   UNL A   1      36.237  32.449  27.948  1.00  0.00    -0.237 OA
ATOM     80  O   UNL A   1      35.746  32.903  30.328  1.00  0.00    -0.237 OA
ATOM     81  O   UNL A   1      37.459  34.223  29.149  1.00  0.00    -0.744 OA
ENDBRANCH  77  78
ENDBRANCH  49  72
BRANCH  61  82
ATOM     82  C   UNL A   1      45.389  29.302  33.766  1.00  0.00    -0.014 A 
ATOM     83  C   UNL A   1      45.004  27.978  34.035  1.00  0.00     0.010 A 
ATOM     84  C   UNL A   1      45.668  30.161  34.844  1.00  0.00     0.010 A 
ATOM     85  C   UNL A   1      44.896  27.532  35.360  1.00  0.00     0.020 A 
ATOM     86  C   UNL A   1      45.581  29.720  36.160  1.00  0.00     0.020 A 
ATOM     87  C   UNL A   1      45.186  28.408  36.414  1.00  0.00     0.054 A 
BRANCH  87  88
ATOM     88  S   UNL A   1      45.072  27.826  38.126  1.00  0.00     0.124 S 
ATOM     89  O   UNL A   1      43.896  26.961  38.089  1.00  0.00    -0.237 OA
ATOM     90  O   UNL A   1      46.350  27.145  38.323  1.00  0.00    -0.237 OA
ATOM     91  O   UNL A   1      44.909  29.056  38.903  1.00  0.00    -0.744 OA
ENDBRANCH  87  88
ENDBRANCH  61  82
ENDBRANCH  35  36
ENDBRANCH  28  30
ENDBRANCH  27  28
ENDBRANCH  26  27
ENDBRANCH  25  26
ENDBRANCH  24  25
ENDBRANCH  23  24
ENDBRANCH   1  23
TORSDOF 24
ENDMDL
MODEL 2
REMARK VINA RESULT:      -8.7      2.912     10.104
REMARK SMILES Cc1ccc(C)c([C@@H](O)[C@@H](C)[C@@H](C)C(=O)OCCOCCOCCOC(=O)c2ccc(-c3c4nc(c(-c5ccc(S(=O)(=O)[O-])cc5)c5ccc([nH]5)c(-c5ccc(S(=O)(=O)[O-])cc5)c5nc(c(-c6ccc(S(=O)(=O)[O-])cc6)c6ccc3[nH]6)C=C5)C=C4)cc2)c1
REMARK SMILES IDX 20 1 19 2 18 3 17 4 16 5 14 6 15 7 12 8 13 9 10 10 11 11
REMARK SMILES IDX 8 12 7 13 1 14 2 15 3 16 88 17 4 18 5 19 6 20 9 21 21 23
REMARK SMILES IDX 22 24 23 25 24 26 25 27 26 28 27 29 28 30 29 31 87 32 30 33
REMARK SMILES IDX 86 34 31 35 32 36 33 37 80 38 34 39 85 40 79 41 81 42 35 43
REMARK SMILES IDX 84 44 78 45 77 46 36 48 66 49 47 50 65 51 48 52 51 53 64 54
REMARK SMILES IDX 82 55 49 56 50 57 63 59 83 60 52 61 37 62 38 63 46 64 39 65
REMARK SMILES IDX 45 66 40 67 41 68 42 69 43 70 44 71 67 72 68 73 76 74 69 75
REMARK SMILES IDX 75 76 70 77 71 78 72 79 73 80 74 81 53 82 54 83 62 84 55 85
REMARK SMILES IDX 61 86 56 87 57 88 58 89 59 90 60 91
REMARK H PARENT 9 22 81 47 51 58
REMARK Flexibility Score: inf
ROOT
ATOM      1  C   UNL A   1      34.803  33.061  28.424  1.00  0.00     0.188 C 
ENDROOT
BRANCH   1   2
ATOM      2  O   UNL A   1      34.311  31.941  27.691  1.00  0.00    -0.376 OA
BRANCH   2   3
ATOM      3  C   UNL A   1      34.933  30.688  27.993  1.00  0.00     0.202 C 
BRANCH   3   4
ATOM      4  C   UNL A   1      34.691  29.531  26.982  1.00  0.00     0.261 C 
BRANCH   4   5
ATOM      5  O   UNL A   1      33.298  29.327  26.528  1.00  0.00    -0.463 OA
BRANCH   5   6
ATOM      6  C   UNL A   1      33.017  28.124  25.961  1.00  0.00     0.309 C 
ATOM      7  O   UNL A   1      33.578  27.096  26.342  1.00  0.00    -0.252 OA
BRANCH   6   8
ATOM      8  C   UNL A   1      32.029  28.047  24.725  1.00  0.00     0.102 C 
ATOM      9  C   UNL A   1      31.151  29.307  24.862  1.00  0.00     0.020 C 
BRANCH   8  10
ATOM     10  C   UNL A   1      31.143  26.827  24.218  1.00  0.00     0.033 C 
ATOM     11  C   UNL A   1      29.760  27.290  23.747  1.00  0.00     0.011 C 
BRANCH  10  12
ATOM     12  C   UNL A   1      30.851  25.686  25.304  1.00  0.00     0.148 C 
BRANCH  12  13
ATOM     13  C   UNL A   1      31.661  24.373  25.175  1.00  0.00    -0.016 A 
ATOM     14  C   UNL A   1      34.884  23.294  23.346  1.00  0.00     0.044 C 
ATOM     15  C   UNL A   1      33.643  23.255  24.191  1.00  0.00    -0.051 A 
ATOM     16  C   UNL A   1      33.352  22.099  24.911  1.00  0.00     0.004 A 
ATOM     17  C   UNL A   1      32.785  24.364  24.306  1.00  0.00     0.010 A 
ATOM     18  C   UNL A   1      32.228  22.062  25.731  1.00  0.00     0.004 A 
ATOM     19  C   UNL A   1      31.373  23.178  25.875  1.00  0.00    -0.045 A 
ATOM     20  C   UNL A   1      30.225  23.000  26.829  1.00  0.00     0.045 C 
ENDBRANCH  12  13
BRANCH  12  21
ATOM     21  O   UNL A   1      30.948  26.143  26.648  1.00  0.00    -0.388 OA
ATOM     22  H   UNL A   1      30.267  26.813  26.812  1.00  0.00     0.211 HD
ENDBRANCH  12  21
ENDBRANCH  10  12
ENDBRANCH   8  10
ENDBRANCH   6   8
ENDBRANCH   5   6
ENDBRANCH   4   5
ENDBRANCH   3   4
ENDBRANCH   2   3
ENDBRANCH   1   2
BRANCH   1  23
ATOM     23  C   UNL A   1      34.840  32.882  29.955  1.00  0.00     0.188 C 
BRANCH  23  24
ATOM     24  O   UNL A   1      33.755  33.555  30.569  1.00  0.00    -0.376 OA
BRANCH  24  25
ATOM     25  C   UNL A   1      33.606  34.939  30.307  1.00  0.00     0.202 C 
BRANCH  25  26
ATOM     26  C   UNL A   1      33.782  35.899  31.490  1.00  0.00     0.261 C 
BRANCH  26  27
ATOM     27  O   UNL A   1      34.897  35.817  32.412  1.00  0.00    -0.460 OA
BRANCH  27  28
ATOM     28  C   UNL A   1      35.084  35.042  33.503  1.00  0.00     0.338 C 
ATOM     29  O   UNL A   1      34.398  35.168  34.493  1.00  0.00    -0.246 OA
BRANCH  28  30
ATOM     30  C   UNL A   1      36.194  34.074  33.442  1.00  0.00     0.060 A 
ATOM     31  C   UNL A   1      37.425  34.577  33.082  1.00  0.00     0.016 A 
ATOM     32  C   UNL A   1      36.042  32.698  33.613  1.00  0.00     0.016 A 
ATOM     33  C   UNL A   1      38.448  33.708  32.764  1.00  0.00     0.010 A 
ATOM     34  C   UNL A   1      37.061  31.828  33.170  1.00  0.00     0.010 A 
ATOM     35  C   UNL A   1      38.245  32.345  32.641  1.00  0.00    -0.014 A 
BRANCH  35  36
ATOM     36  C   UNL A   1      39.467  31.597  32.273  1.00  0.00     0.031 A 
ATOM     37  C   UNL A   1      40.440  31.631  33.400  1.00  0.00     0.074 A 
ATOM     38  C   UNL A   1      39.783  31.070  31.060  1.00  0.00     0.049 A 
ATOM     39  N   UNL A   1      41.654  32.079  33.368  1.00  0.00    -0.248 NA
ATOM     40  C   UNL A   1      39.941  31.346  34.761  1.00  0.00     0.031 C 
ATOM     41  C   UNL A   1      38.930  31.061  29.867  1.00  0.00     0.029 A 
ATOM     42  N   UNL A   1      40.898  30.369  30.620  1.00  0.00    -0.354 N 
ATOM     43  C   UNL A   1      42.147  31.855  34.648  1.00  0.00     0.074 A 
ATOM     44  C   UNL A   1      41.016  31.602  35.501  1.00  0.00     0.031 C 
ATOM     45  C   UNL A   1      39.421  30.183  28.962  1.00  0.00     0.029 A 
ATOM     46  C   UNL A   1      40.668  29.617  29.456  1.00  0.00     0.049 A 
ATOM     47  H   UNL A   1      41.767  30.397  31.081  1.00  0.00     0.167 HD
ATOM     48  C   UNL A   1      43.418  31.401  34.798  1.00  0.00     0.031 A 
ATOM     49  C   UNL A   1      41.387  28.584  28.926  1.00  0.00     0.031 A 
ATOM     50  C   UNL A   1      44.289  31.870  33.763  1.00  0.00     0.049 A 
ATOM     51  C   UNL A   1      42.773  28.670  29.420  1.00  0.00     0.074 A 
ATOM     52  C   UNL A   1      44.885  33.062  33.418  1.00  0.00     0.029 A 
ATOM     53  N   UNL A   1      44.353  31.050  32.673  1.00  0.00    -0.354 N 
ATOM     54  N   UNL A   1      43.630  29.539  28.972  1.00  0.00    -0.248 NA
ATOM     55  C   UNL A   1      43.155  27.966  30.638  1.00  0.00     0.031 C 
ATOM     56  C   UNL A   1      45.253  32.948  32.047  1.00  0.00     0.029 A 
ATOM     57  C   UNL A   1      44.922  31.675  31.600  1.00  0.00     0.049 A 
ATOM     58  H   UNL A   1      44.027  30.122  32.662  1.00  0.00     0.167 HD
ATOM     59  C   UNL A   1      44.416  29.814  30.070  1.00  0.00     0.074 A 
ATOM     60  C   UNL A   1      44.195  28.717  31.002  1.00  0.00     0.031 C 
ATOM     61  C   UNL A   1      44.865  31.078  30.286  1.00  0.00     0.031 A 
BRANCH  48  62
ATOM     62  C   UNL A   1      43.639  30.060  35.472  1.00  0.00    -0.014 A 
ATOM     63  C   UNL A   1      43.113  28.890  34.901  1.00  0.00     0.010 A 
ATOM     64  C   UNL A   1      44.121  29.960  36.799  1.00  0.00     0.010 A 
ATOM     65  C   UNL A   1      43.108  27.679  35.614  1.00  0.00     0.020 A 
ATOM     66  C   UNL A   1      44.161  28.760  37.500  1.00  0.00     0.020 A 
ATOM     67  C   UNL A   1      43.647  27.622  36.904  1.00  0.00     0.054 A 
BRANCH  67  68
ATOM     68  S   UNL A   1      43.659  26.061  37.814  1.00  0.00     0.124 S 
ATOM     69  O   UNL A   1      44.106  26.484  39.136  1.00  0.00    -0.237 OA
ATOM     70  O   UNL A   1      42.265  25.639  37.715  1.00  0.00    -0.237 OA
ATOM     71  O   UNL A   1      44.605  25.236  37.064  1.00  0.00    -0.744 OA
ENDBRANCH  67  68
ENDBRANCH  48  62
BRANCH  49  72
ATOM     72  C   UNL A   1      40.964  27.402  28.104  1.00  0.00    -0.014 A 
ATOM     73  C   UNL A   1      41.829  26.819  27.146  1.00  0.00     0.010 A 
ATOM     74  C   UNL A   1      39.834  26.652  28.477  1.00  0.00     0.010 A 
ATOM     75  C   UNL A   1      41.629  25.506  26.669  1.00  0.00     0.020 A 
ATOM     76  C   UNL A   1      39.620  25.349  27.999  1.00  0.00     0.020 A 
ATOM     77  C   UNL A   1      40.539  24.766  27.128  1.00  0.00     0.054 A 
BRANCH  77  78
ATOM     78  S   UNL A   1      40.408  22.993  26.726  1.00  0.00     0.124 S 
ATOM     79  O   UNL A   1      39.054  22.888  26.192  1.00  0.00    -0.237 OA
ATOM     80  O   UNL A   1      41.485  22.801  25.759  1.00  0.00    -0.237 OA
ATOM     81  O   UNL A   1      40.617  22.334  28.015  1.00  0.00    -0.744 OA
ENDBRANCH  77  78
ENDBRANCH  49  72
BRANCH  61  82
ATOM     82  C   UNL A   1      45.224  31.919  29.100  1.00  0.00    -0.014 A 
ATOM     83  C   UNL A   1      46.417  31.826  28.365  1.00  0.00     0.010 A 
ATOM     84  C   UNL A   1      44.235  32.826  28.682  1.00  0.00     0.010 A 
ATOM     85  C   UNL A   1      46.612  32.636  27.236  1.00  0.00     0.020 A 
ATOM     86  C   UNL A   1      44.414  33.619  27.553  1.00  0.00     0.020 A 
ATOM     87  C   UNL A   1      45.607  33.527  26.839  1.00  0.00     0.054 A 
BRANCH  87  88
ATOM     88  S   UNL A   1      45.847  34.556  25.366  1.00  0.00     0.124 S 
ATOM     89  O   UNL A   1      45.528  35.894  25.859  1.00  0.00    -0.237 OA
ATOM     90  O   UNL A   1      47.250  34.324  25.033  1.00  0.00    -0.237 OA
ATOM     91  O   UNL A   1      44.891  34.010  24.401  1.00  0.00    -0.744 OA
ENDBRANCH  87  88
ENDBRANCH  61  82
ENDBRANCH  35  36
ENDBRANCH  28  30
ENDBRANCH  27  28
ENDBRANCH  26  27
ENDBRANCH  25  26
ENDBRANCH  24  25
ENDBRANCH  23  24
ENDBRANCH   1  23
TORSDOF 24
ENDMDL
MODEL 3
REMARK VINA RESULT:      -8.7      4.655     10.687
REMARK SMILES Cc1ccc(C)c([C@@H](O)[C@@H](C)[C@@H](C)C(=O)OCCOCCOCCOC(=O)c2ccc(-c3c4nc(c(-c5ccc(S(=O)(=O)[O-])cc5)c5ccc([nH]5)c(-c5ccc(S(=O)(=O)[O-])cc5)c5nc(c(-c6ccc(S(=O)(=O)[O-])cc6)c6ccc3[nH]6)C=C5)C=C4)cc2)c1
REMARK SMILES IDX 20 1 19 2 18 3 17 4 16 5 14 6 15 7 12 8 13 9 10 10 11 11
REMARK SMILES IDX 8 12 7 13 1 14 2 15 3 16 88 17 4 18 5 19 6 20 9 21 21 23
REMARK SMILES IDX 22 24 23 25 24 26 25 27 26 28 27 29 28 30 29 31 87 32 30 33
REMARK SMILES IDX 86 34 31 35 32 36 33 37 80 38 34 39 85 40 79 41 81 42 35 43
REMARK SMILES IDX 84 44 78 45 77 46 36 48 66 49 47 50 65 51 48 52 51 53 64 54
REMARK SMILES IDX 82 55 49 56 50 57 63 59 83 60 52 61 37 62 38 63 46 64 39 65
REMARK SMILES IDX 45 66 40 67 41 68 42 69 43 70 44 71 67 72 68 73 76 74 69 75
REMARK SMILES IDX 75 76 70 77 71 78 72 79 73 80 74 81 53 82 54 83 62 84 55 85
REMARK SMILES IDX 61 86 56 87 57 88 58 89 59 90 60 91
REMARK H PARENT 9 22 81 47 51 58
REMARK Flexibility Score: inf
ROOT
ATOM      1  C   UNL A   1      35.910  34.252  34.891  1.00  0.00     0.188 C 
ENDROOT
BRANCH   1   2
ATOM      2  O   UNL A   1      35.007  34.174  33.790  1.00  0.00    -0.376 OA
BRANCH   2   3
ATOM      3  C   UNL A   1      35.619  34.067  32.500  1.00  0.00     0.202 C 
BRANCH   3   4
ATOM      4  C   UNL A   1      34.658  34.003  31.280  1.00  0.00     0.261 C 
BRANCH   4   5
ATOM      5  O   UNL A   1      34.496  32.684  30.629  1.00  0.00    -0.463 OA
BRANCH   5   6
ATOM      6  C   UNL A   1      35.544  32.244  29.883  1.00  0.00     0.309 C 
ATOM      7  O   UNL A   1      35.573  32.421  28.664  1.00  0.00    -0.252 OA
BRANCH   6   8
ATOM      8  C   UNL A   1      36.701  31.405  30.565  1.00  0.00     0.102 C 
ATOM      9  C   UNL A   1      35.975  30.548  31.621  1.00  0.00     0.020 C 
BRANCH   8  10
ATOM     10  C   UNL A   1      38.098  31.900  31.142  1.00  0.00     0.033 C 
ATOM     11  C   UNL A   1      38.815  32.836  30.163  1.00  0.00     0.011 C 
BRANCH  10  12
ATOM     12  C   UNL A   1      39.160  30.746  31.467  1.00  0.00     0.148 C 
BRANCH  12  13
ATOM     13  C   UNL A   1      39.175  29.521  30.520  1.00  0.00    -0.016 A 
ATOM     14  C   UNL A   1      40.153  28.901  26.838  1.00  0.00     0.044 C 
ATOM     15  C   UNL A   1      39.674  28.675  28.244  1.00  0.00    -0.051 A 
ATOM     16  C   UNL A   1      39.394  27.377  28.662  1.00  0.00     0.004 A 
ATOM     17  C   UNL A   1      39.535  29.732  29.162  1.00  0.00     0.010 A 
ATOM     18  C   UNL A   1      38.990  27.146  29.974  1.00  0.00     0.004 A 
ATOM     19  C   UNL A   1      38.871  28.197  30.912  1.00  0.00    -0.045 A 
ATOM     20  C   UNL A   1      38.466  27.787  32.300  1.00  0.00     0.045 C 
ENDBRANCH  12  13
BRANCH  12  21
ATOM     21  O   UNL A   1      40.493  31.223  31.605  1.00  0.00    -0.388 OA
ATOM     22  H   UNL A   1      40.682  31.863  30.901  1.00  0.00     0.211 HD
ENDBRANCH  12  21
ENDBRANCH  10  12
ENDBRANCH   8  10
ENDBRANCH   6   8
ENDBRANCH   5   6
ENDBRANCH   4   5
ENDBRANCH   3   4
ENDBRANCH   2   3
ENDBRANCH   1   2
BRANCH   1  23
ATOM     23  C   UNL A   1      37.311  33.657  34.639  1.00  0.00     0.188 C 
BRANCH  23  24
ATOM     24  O   UNL A   1      37.640  32.702  35.632  1.00  0.00    -0.376 OA
BRANCH  24  25
ATOM     25  C   UNL A   1      37.888  31.373  35.210  1.00  0.00     0.202 C 
BRANCH  25  26
ATOM     26  C   UNL A   1      39.018  30.613  35.913  1.00  0.00     0.261 C 
BRANCH  26  27
ATOM     27  O   UNL A   1      40.365  30.534  35.382  1.00  0.00    -0.460 OA
BRANCH  27  28
ATOM     28  C   UNL A   1      41.406  29.746  35.731  1.00  0.00     0.338 C 
ATOM     29  O   UNL A   1      41.703  29.569  36.891  1.00  0.00    -0.246 OA
BRANCH  28  30
ATOM     30  C   UNL A   1      42.186  29.157  34.627  1.00  0.00     0.060 A 
ATOM     31  C   UNL A   1      43.435  29.695  34.408  1.00  0.00     0.016 A 
ATOM     32  C   UNL A   1      41.694  28.191  33.750  1.00  0.00     0.016 A 
ATOM     33  C   UNL A   1      44.120  29.373  33.253  1.00  0.00     0.010 A 
ATOM     34  C   UNL A   1      42.355  27.969  32.524  1.00  0.00     0.010 A 
ATOM     35  C   UNL A   1      43.536  28.651  32.228  1.00  0.00    -0.014 A 
BRANCH  35  36
ATOM     36  C   UNL A   1      44.435  28.435  31.073  1.00  0.00     0.031 A 
ATOM     37  C   UNL A   1      44.022  29.309  29.940  1.00  0.00     0.074 A 
ATOM     38  C   UNL A   1      45.407  27.493  30.944  1.00  0.00     0.049 A 
ATOM     39  N   UNL A   1      43.691  28.931  28.747  1.00  0.00    -0.248 NA
ATOM     40  C   UNL A   1      43.731  30.728  30.224  1.00  0.00     0.031 C 
ATOM     41  C   UNL A   1      45.829  26.532  31.969  1.00  0.00     0.029 A 
ATOM     42  N   UNL A   1      46.285  27.208  29.907  1.00  0.00    -0.354 N 
ATOM     43  C   UNL A   1      43.430  30.113  28.063  1.00  0.00     0.074 A 
ATOM     44  C   UNL A   1      43.270  31.148  29.050  1.00  0.00     0.031 C 
ATOM     45  C   UNL A   1      47.014  25.982  31.619  1.00  0.00     0.029 A 
ATOM     46  C   UNL A   1      47.414  26.476  30.310  1.00  0.00     0.049 A 
ATOM     47  H   UNL A   1      46.130  27.493  28.978  1.00  0.00     0.167 HD
ATOM     48  C   UNL A   1      43.861  30.247  26.783  1.00  0.00     0.031 A 
ATOM     49  C   UNL A   1      48.611  26.295  29.675  1.00  0.00     0.031 A 
ATOM     50  C   UNL A   1      43.879  28.998  26.082  1.00  0.00     0.049 A 
ATOM     51  C   UNL A   1      48.419  26.514  28.231  1.00  0.00     0.074 A 
ATOM     52  C   UNL A   1      42.948  28.134  25.550  1.00  0.00     0.029 A 
ATOM     53  N   UNL A   1      45.059  28.318  26.182  1.00  0.00    -0.354 N 
ATOM     54  N   UNL A   1      47.840  25.645  27.455  1.00  0.00    -0.248 NA
ATOM     55  C   UNL A   1      48.617  27.843  27.664  1.00  0.00     0.031 C 
ATOM     56  C   UNL A   1      43.604  26.880  25.394  1.00  0.00     0.029 A 
ATOM     57  C   UNL A   1      44.931  27.017  25.785  1.00  0.00     0.049 A 
ATOM     58  H   UNL A   1      45.899  28.718  26.501  1.00  0.00     0.167 HD
ATOM     59  C   UNL A   1      47.207  26.425  26.512  1.00  0.00     0.074 A 
ATOM     60  C   UNL A   1      47.843  27.732  26.584  1.00  0.00     0.031 C 
ATOM     61  C   UNL A   1      45.984  26.064  26.040  1.00  0.00     0.031 A 
BRANCH  48  62
ATOM     62  C   UNL A   1      44.848  31.352  26.456  1.00  0.00    -0.014 A 
ATOM     63  C   UNL A   1      46.153  31.306  26.972  1.00  0.00     0.010 A 
ATOM     64  C   UNL A   1      44.435  32.575  25.875  1.00  0.00     0.010 A 
ATOM     65  C   UNL A   1      47.007  32.417  26.873  1.00  0.00     0.020 A 
ATOM     66  C   UNL A   1      45.283  33.668  25.734  1.00  0.00     0.020 A 
ATOM     67  C   UNL A   1      46.568  33.585  26.241  1.00  0.00     0.054 A 
BRANCH  67  68
ATOM     68  S   UNL A   1      47.673  35.009  26.096  1.00  0.00     0.124 S 
ATOM     69  O   UNL A   1      46.734  36.125  26.134  1.00  0.00    -0.237 OA
ATOM     70  O   UNL A   1      48.528  34.852  27.269  1.00  0.00    -0.237 OA
ATOM     71  O   UNL A   1      48.341  34.792  24.814  1.00  0.00    -0.744 OA
ENDBRANCH  67  68
ENDBRANCH  48  62
BRANCH  49  72
ATOM     72  C   UNL A   1      49.993  26.070  30.215  1.00  0.00    -0.014 A 
ATOM     73  C   UNL A   1      50.933  27.126  30.305  1.00  0.00     0.010 A 
ATOM     74  C   UNL A   1      50.289  24.896  30.929  1.00  0.00     0.010 A 
ATOM     75  C   UNL A   1      52.055  27.047  31.155  1.00  0.00     0.020 A 
ATOM     76  C   UNL A   1      51.410  24.804  31.769  1.00  0.00     0.020 A 
ATOM     77  C   UNL A   1      52.268  25.893  31.910  1.00  0.00     0.054 A 
BRANCH  77  78
ATOM     78  S   UNL A   1      53.558  25.873  33.198  1.00  0.00     0.124 S 
ATOM     79  O   UNL A   1      54.777  25.666  32.421  1.00  0.00    -0.237 OA
ATOM     80  O   UNL A   1      53.418  27.188  33.817  1.00  0.00    -0.237 OA
ATOM     81  O   UNL A   1      53.171  24.749  34.051  1.00  0.00    -0.744 OA
ENDBRANCH  77  78
ENDBRANCH  49  72
BRANCH  61  82
ATOM     82  C   UNL A   1      45.690  24.606  25.870  1.00  0.00    -0.014 A 
ATOM     83  C   UNL A   1      44.878  23.833  26.716  1.00  0.00     0.010 A 
ATOM     84  C   UNL A   1      46.243  24.007  24.724  1.00  0.00     0.010 A 
ATOM     85  C   UNL A   1      44.634  22.484  26.418  1.00  0.00     0.020 A 
ATOM     86  C   UNL A   1      45.991  22.675  24.413  1.00  0.00     0.020 A 
ATOM     87  C   UNL A   1      45.194  21.916  25.267  1.00  0.00     0.054 A 
BRANCH  87  88
ATOM     88  S   UNL A   1      44.859  20.179  24.867  1.00  0.00     0.124 S 
ATOM     89  O   UNL A   1      44.710  20.212  23.415  1.00  0.00    -0.237 OA
ATOM     90  O   UNL A   1      46.051  19.496  25.364  1.00  0.00    -0.237 OA
ATOM     91  O   UNL A   1      43.632  19.882  25.606  1.00  0.00    -0.744 OA
ENDBRANCH  87  88
ENDBRANCH  61  82
ENDBRANCH  35  36
ENDBRANCH  28  30
ENDBRANCH  27  28
ENDBRANCH  26  27
ENDBRANCH  25  26
ENDBRANCH  24  25
ENDBRANCH  23  24
ENDBRANCH   1  23
TORSDOF 24
ENDMDL
