MODEL 1
REMARK VINA RESULT:     -11.0      0.000      0.000
REMARK SMILES O=C(OCCOCCOCCOC(=O)[C@H]1Cc2c([nH]c3ccccc23)[C@@H](c2ccc(OC(F)(F)F)cc2)[NH2+]1)c1ccc(-c2c3nc(c(-c4ccc(S(=O)(=O)[O-])cc4)c4ccc([nH]4)c(-c4ccc(S(=O)(=O)[O-])cc4)c4nc(c(-c5ccc(S(=O)(=O)[O-])cc5)c5ccc2[nH]5)C=C4)C=C3)cc1
REMARK SMILES IDX 7 1 6 2 5 3 4 4 3 5 2 6 1 7 39 8 40 9 98 10 41 11 97 12
REMARK SMILES IDX 42 13 43 14 44 15 91 16 45 17 96 18 90 19 92 20 46 21 95 22
REMARK SMILES IDX 89 23 88 24 47 26 77 27 58 28 76 29 59 30 62 31 75 32 93 33
REMARK SMILES IDX 60 34 61 35 74 37 94 38 63 39 48 40 49 41 57 42 50 43 56 44
REMARK SMILES IDX 51 45 52 46 53 47 54 48 55 49 78 50 79 51 87 52 80 53 86 54
REMARK SMILES IDX 81 55 82 56 83 57 84 58 85 59 64 60 65 61 73 62 66 63 72 64
REMARK SMILES IDX 67 65 68 66 69 67 70 68 71 69 8 70 9 71 10 72 11 73 12 74
REMARK SMILES IDX 13 75 14 76 15 77 16 78 38 79 17 80 26 81 18 84 25 85 19 86
REMARK SMILES IDX 20 87 24 88 21 90 23 91 22 92 27 93 28 94 37 95 29 96 36 97
REMARK SMILES IDX 30 98 31 99 32 100 33 101 34 102 35 103
REMARK H PARENT 92 25 62 36 38 82 38 83 19 89
REMARK Flexibility Score: inf
ROOT
ATOM      1  C   UNL A   1      36.874  21.969  24.332  1.00  0.00     0.188 C 
ENDROOT
BRANCH   1   2
ATOM      2  O   UNL A   1      37.943  22.363  25.198  1.00  0.00    -0.376 OA
BRANCH   2   3
ATOM      3  C   UNL A   1      37.999  23.769  25.464  1.00  0.00     0.202 C 
BRANCH   3   4
ATOM      4  C   UNL A   1      38.227  24.165  26.930  1.00  0.00     0.261 C 
BRANCH   4   5
ATOM      5  O   UNL A   1      39.577  24.555  27.208  1.00  0.00    -0.460 OA
BRANCH   5   6
ATOM      6  C   UNL A   1      40.146  25.759  26.954  1.00  0.00     0.338 C 
ATOM      7  O   UNL A   1      40.568  25.977  25.818  1.00  0.00    -0.246 OA
BRANCH   6   8
ATOM      8  C   UNL A   1      40.275  26.846  27.969  1.00  0.00     0.060 A 
ATOM      9  C   UNL A   1      40.977  28.047  27.818  1.00  0.00     0.016 A 
ATOM     10  C   UNL A   1      39.533  26.671  29.140  1.00  0.00     0.016 A 
ATOM     11  C   UNL A   1      41.010  29.023  28.822  1.00  0.00     0.010 A 
ATOM     12  C   UNL A   1      39.522  27.662  30.121  1.00  0.00     0.010 A 
ATOM     13  C   UNL A   1      40.276  28.846  29.986  1.00  0.00    -0.014 A 
BRANCH  13  14
ATOM     14  C   UNL A   1      40.364  29.774  31.148  1.00  0.00     0.031 A 
ATOM     15  C   UNL A   1      41.428  29.484  32.150  1.00  0.00     0.074 A 
ATOM     16  C   UNL A   1      39.517  30.799  31.371  1.00  0.00     0.049 A 
ATOM     17  N   UNL A   1      41.535  29.902  33.376  1.00  0.00    -0.248 NA
ATOM     18  C   UNL A   1      42.502  28.574  31.710  1.00  0.00     0.031 C 
ATOM     19  C   UNL A   1      38.538  31.282  30.418  1.00  0.00     0.029 A 
ATOM     20  N   UNL A   1      39.283  31.577  32.489  1.00  0.00    -0.354 N 
ATOM     21  C   UNL A   1      42.678  29.295  33.861  1.00  0.00     0.074 A 
ATOM     22  C   UNL A   1      43.163  28.395  32.839  1.00  0.00     0.031 C 
ATOM     23  C   UNL A   1      37.734  32.166  31.024  1.00  0.00     0.029 A 
ATOM     24  C   UNL A   1      38.126  32.326  32.395  1.00  0.00     0.049 A 
ATOM     25  H   UNL A   1      39.879  31.595  33.273  1.00  0.00     0.167 HD
ATOM     26  C   UNL A   1      43.294  29.519  35.039  1.00  0.00     0.031 A 
ATOM     27  C   UNL A   1      37.398  33.028  33.288  1.00  0.00     0.031 A 
ATOM     28  C   UNL A   1      42.783  30.432  36.020  1.00  0.00     0.049 A 
ATOM     29  C   UNL A   1      37.967  33.117  34.656  1.00  0.00     0.074 A 
ATOM     30  C   UNL A   1      43.329  30.785  37.237  1.00  0.00     0.029 A 
ATOM     31  N   UNL A   1      41.591  31.139  35.889  1.00  0.00    -0.354 N 
ATOM     32  N   UNL A   1      39.031  32.511  35.120  1.00  0.00    -0.248 NA
ATOM     33  C   UNL A   1      37.299  34.015  35.598  1.00  0.00     0.031 C 
ATOM     34  C   UNL A   1      42.440  31.661  37.865  1.00  0.00     0.029 A 
ATOM     35  C   UNL A   1      41.371  31.909  37.014  1.00  0.00     0.049 A 
ATOM     36  H   UNL A   1      40.993  31.096  35.108  1.00  0.00     0.167 HD
ATOM     37  C   UNL A   1      39.222  33.020  36.387  1.00  0.00     0.074 A 
ATOM     38  C   UNL A   1      38.122  33.939  36.637  1.00  0.00     0.031 C 
ATOM     39  C   UNL A   1      40.250  32.791  37.233  1.00  0.00     0.031 A 
BRANCH  26  40
ATOM     40  C   UNL A   1      44.543  28.726  35.288  1.00  0.00    -0.014 A 
ATOM     41  C   UNL A   1      44.503  27.506  35.993  1.00  0.00     0.010 A 
ATOM     42  C   UNL A   1      45.785  29.270  34.926  1.00  0.00     0.010 A 
ATOM     43  C   UNL A   1      45.686  26.897  36.416  1.00  0.00     0.020 A 
ATOM     44  C   UNL A   1      46.971  28.642  35.312  1.00  0.00     0.020 A 
ATOM     45  C   UNL A   1      46.913  27.480  36.085  1.00  0.00     0.054 A 
BRANCH  45  46
ATOM     46  S   UNL A   1      48.430  26.700  36.694  1.00  0.00     0.124 S 
ATOM     47  O   UNL A   1      49.267  26.696  35.494  1.00  0.00    -0.237 OA
ATOM     48  O   UNL A   1      48.854  27.599  37.754  1.00  0.00    -0.237 OA
ATOM     49  O   UNL A   1      47.981  25.376  37.139  1.00  0.00    -0.744 OA
ENDBRANCH  45  46
ENDBRANCH  26  40
BRANCH  27  50
ATOM     50  C   UNL A   1      36.096  33.678  32.922  1.00  0.00    -0.014 A 
ATOM     51  C   UNL A   1      34.862  33.043  33.141  1.00  0.00     0.010 A 
ATOM     52  C   UNL A   1      36.076  34.986  32.407  1.00  0.00     0.010 A 
ATOM     53  C   UNL A   1      33.650  33.717  32.907  1.00  0.00     0.020 A 
ATOM     54  C   UNL A   1      34.875  35.680  32.205  1.00  0.00     0.020 A 
ATOM     55  C   UNL A   1      33.663  35.041  32.461  1.00  0.00     0.054 A 
BRANCH  55  56
ATOM     56  S   UNL A   1      32.107  35.965  32.285  1.00  0.00     0.124 S 
ATOM     57  O   UNL A   1      31.119  34.984  32.720  1.00  0.00    -0.237 OA
ATOM     58  O   UNL A   1      32.293  37.112  33.170  1.00  0.00    -0.237 OA
ATOM     59  O   UNL A   1      32.084  36.295  30.861  1.00  0.00    -0.744 OA
ENDBRANCH  55  56
ENDBRANCH  27  50
BRANCH  39  60
ATOM     60  C   UNL A   1      40.262  33.600  38.488  1.00  0.00    -0.014 A 
ATOM     61  C   UNL A   1      40.632  34.952  38.476  1.00  0.00     0.010 A 
ATOM     62  C   UNL A   1      39.801  33.001  39.674  1.00  0.00     0.010 A 
ATOM     63  C   UNL A   1      40.523  35.705  39.642  1.00  0.00     0.020 A 
ATOM     64  C   UNL A   1      39.664  33.759  40.831  1.00  0.00     0.020 A 
ATOM     65  C   UNL A   1      40.023  35.108  40.806  1.00  0.00     0.054 A 
BRANCH  65  66
ATOM     66  S   UNL A   1      39.767  36.144  42.266  1.00  0.00     0.124 S 
ATOM     67  O   UNL A   1      39.723  37.483  41.685  1.00  0.00    -0.237 OA
ATOM     68  O   UNL A   1      38.499  35.642  42.791  1.00  0.00    -0.237 OA
ATOM     69  O   UNL A   1      40.933  35.862  43.100  1.00  0.00    -0.744 OA
ENDBRANCH  65  66
ENDBRANCH  39  60
ENDBRANCH  13  14
ENDBRANCH   6   8
ENDBRANCH   5   6
ENDBRANCH   4   5
ENDBRANCH   3   4
ENDBRANCH   2   3
ENDBRANCH   1   2
BRANCH   1  70
ATOM     70  C   UNL A   1      35.852  21.065  25.019  1.00  0.00     0.188 C 
BRANCH  70  71
ATOM     71  O   UNL A   1      35.144  21.606  26.129  1.00  0.00    -0.376 OA
BRANCH  71  72
ATOM     72  C   UNL A   1      33.728  21.479  26.137  1.00  0.00     0.202 C 
BRANCH  72  73
ATOM     73  C   UNL A   1      32.865  22.652  25.646  1.00  0.00     0.261 C 
BRANCH  73  74
ATOM     74  O   UNL A   1      33.241  23.961  26.089  1.00  0.00    -0.459 OA
BRANCH  74  75
ATOM     75  C   UNL A   1      32.184  24.774  26.368  1.00  0.00     0.365 C 
ATOM     76  O   UNL A   1      31.357  24.555  27.253  1.00  0.00    -0.245 OA
BRANCH  75  77
ATOM     77  C   UNL A   1      31.989  25.902  25.352  1.00  0.00     0.298 C 
ATOM     78  C   UNL A   1      30.546  26.447  25.229  1.00  0.00     0.115 C 
ATOM     79  N   UNL A   1      32.989  26.902  25.753  1.00  0.00    -0.323 N 
ATOM     80  C   UNL A   1      30.581  27.665  24.364  1.00  0.00    -0.006 A 
ATOM     81  C   UNL A   1      33.030  28.178  25.043  1.00  0.00     0.262 C 
ATOM     82  H   UNL A   1      33.906  26.470  25.646  1.00  0.00     0.347 HD
ATOM     83  H   UNL A   1      32.716  27.157  26.703  1.00  0.00     0.347 HD
ATOM     84  C   UNL A   1      31.718  28.458  24.346  1.00  0.00     0.083 A 
ATOM     85  C   UNL A   1      29.588  28.288  23.549  1.00  0.00     0.003 A 
ATOM     86  N   UNL A   1      31.479  29.488  23.465  1.00  0.00    -0.353 N 
ATOM     87  C   UNL A   1      30.153  29.466  23.057  1.00  0.00     0.046 A 
ATOM     88  C   UNL A   1      28.238  28.020  23.237  1.00  0.00     0.010 A 
ATOM     89  H   UNL A   1      32.150  30.145  23.167  1.00  0.00     0.166 HD
ATOM     90  C   UNL A   1      29.394  30.415  22.350  1.00  0.00     0.026 A 
ATOM     91  C   UNL A   1      27.458  28.997  22.597  1.00  0.00     0.001 A 
ATOM     92  C   UNL A   1      28.025  30.195  22.189  1.00  0.00     0.002 A 
BRANCH  81  93
ATOM     93  C   UNL A   1      33.536  29.165  26.095  1.00  0.00     0.016 A 
ATOM     94  C   UNL A   1      32.721  30.116  26.719  1.00  0.00     0.014 A 
ATOM     95  C   UNL A   1      34.822  29.000  26.632  1.00  0.00     0.014 A 
ATOM     96  C   UNL A   1      33.226  31.010  27.671  1.00  0.00     0.047 A 
ATOM     97  C   UNL A   1      35.305  29.823  27.662  1.00  0.00     0.047 A 
ATOM     98  C   UNL A   1      34.521  30.860  28.156  1.00  0.00     0.129 A 
BRANCH  98  99
ATOM     99  O   UNL A   1      34.931  31.808  29.047  1.00  0.00    -0.406 OA
BRANCH  99 100
ATOM    100  C   UNL A   1      35.089  33.118  28.533  1.00  0.00     0.573 C 
ATOM    101  F   UNL A   1      36.394  33.469  28.488  1.00  0.00    -0.132 F 
ATOM    102  F   UNL A   1      34.540  33.274  27.313  1.00  0.00    -0.132 F 
ATOM    103  F   UNL A   1      34.469  33.985  29.374  1.00  0.00    -0.132 F 
ENDBRANCH  99 100
ENDBRANCH  98  99
ENDBRANCH  81  93
ENDBRANCH  75  77
ENDBRANCH  74  75
ENDBRANCH  73  74
ENDBRANCH  72  73
ENDBRANCH  71  72
ENDBRANCH  70  71
ENDBRANCH   1  70
TORSDOF 23
ENDMDL
MODEL 2
REMARK VINA RESULT:      -9.6      5.219      7.787
REMARK SMILES O=C(OCCOCCOCCOC(=O)[C@H]1Cc2c([nH]c3ccccc23)[C@@H](c2ccc(OC(F)(F)F)cc2)[NH2+]1)c1ccc(-c2c3nc(c(-c4ccc(S(=O)(=O)[O-])cc4)c4ccc([nH]4)c(-c4ccc(S(=O)(=O)[O-])cc4)c4nc(c(-c5ccc(S(=O)(=O)[O-])cc5)c5ccc2[nH]5)C=C4)C=C3)cc1
REMARK SMILES IDX 7 1 6 2 5 3 4 4 3 5 2 6 1 7 39 8 40 9 98 10 41 11 97 12
REMARK SMILES IDX 42 13 43 14 44 15 91 16 45 17 96 18 90 19 92 20 46 21 95 22
REMARK SMILES IDX 89 23 88 24 47 26 77 27 58 28 76 29 59 30 62 31 75 32 93 33
REMARK SMILES IDX 60 34 61 35 74 37 94 38 63 39 48 40 49 41 57 42 50 43 56 44
REMARK SMILES IDX 51 45 52 46 53 47 54 48 55 49 78 50 79 51 87 52 80 53 86 54
REMARK SMILES IDX 81 55 82 56 83 57 84 58 85 59 64 60 65 61 73 62 66 63 72 64
REMARK SMILES IDX 67 65 68 66 69 67 70 68 71 69 8 70 9 71 10 72 11 73 12 74
REMARK SMILES IDX 13 75 14 76 15 77 16 78 38 79 17 80 26 81 18 84 25 85 19 86
REMARK SMILES IDX 20 87 24 88 21 90 23 91 22 92 27 93 28 94 37 95 29 96 36 97
REMARK SMILES IDX 30 98 31 99 32 100 33 101 34 102 35 103
REMARK H PARENT 92 25 62 36 38 82 38 83 19 89
REMARK Flexibility Score: inf
ROOT
ATOM      1  C   UNL A   1      35.689  21.909  24.605  1.00  0.00     0.188 C 
ENDROOT
BRANCH   1   2
ATOM      2  O   UNL A   1      36.660  21.313  25.471  1.00  0.00    -0.376 OA
BRANCH   2   3
ATOM      3  C   UNL A   1      37.405  20.244  24.877  1.00  0.00     0.202 C 
BRANCH   3   4
ATOM      4  C   UNL A   1      38.898  20.189  25.231  1.00  0.00     0.261 C 
BRANCH   4   5
ATOM      5  O   UNL A   1      39.176  20.590  26.577  1.00  0.00    -0.460 OA
BRANCH   5   6
ATOM      6  C   UNL A   1      40.368  20.995  27.077  1.00  0.00     0.338 C 
ATOM      7  O   UNL A   1      41.195  20.135  27.384  1.00  0.00    -0.246 OA
BRANCH   6   8
ATOM      8  C   UNL A   1      40.748  22.428  27.260  1.00  0.00     0.060 A 
ATOM      9  C   UNL A   1      40.061  23.540  26.760  1.00  0.00     0.016 A 
ATOM     10  C   UNL A   1      41.841  22.662  28.096  1.00  0.00     0.016 A 
ATOM     11  C   UNL A   1      40.481  24.852  27.016  1.00  0.00     0.010 A 
ATOM     12  C   UNL A   1      42.233  23.967  28.394  1.00  0.00     0.010 A 
ATOM     13  C   UNL A   1      41.570  25.083  27.843  1.00  0.00    -0.014 A 
BRANCH  13  14
ATOM     14  C   UNL A   1      42.153  26.437  28.055  1.00  0.00     0.031 A 
ATOM     15  C   UNL A   1      43.380  26.761  27.275  1.00  0.00     0.074 A 
ATOM     16  C   UNL A   1      41.680  27.340  28.937  1.00  0.00     0.049 A 
ATOM     17  N   UNL A   1      44.260  27.696  27.482  1.00  0.00    -0.248 NA
ATOM     18  C   UNL A   1      43.664  25.890  26.120  1.00  0.00     0.031 C 
ATOM     19  C   UNL A   1      40.423  27.219  29.648  1.00  0.00     0.029 A 
ATOM     20  N   UNL A   1      42.225  28.503  29.450  1.00  0.00    -0.354 N 
ATOM     21  C   UNL A   1      45.209  27.517  26.494  1.00  0.00     0.074 A 
ATOM     22  C   UNL A   1      44.860  26.320  25.763  1.00  0.00     0.031 C 
ATOM     23  C   UNL A   1      40.355  28.176  30.584  1.00  0.00     0.029 A 
ATOM     24  C   UNL A   1      41.540  28.982  30.551  1.00  0.00     0.049 A 
ATOM     25  H   UNL A   1      43.019  28.944  29.069  1.00  0.00     0.167 HD
ATOM     26  C   UNL A   1      46.250  28.320  26.196  1.00  0.00     0.031 A 
ATOM     27  C   UNL A   1      41.819  29.915  31.484  1.00  0.00     0.031 A 
ATOM     28  C   UNL A   1      46.553  29.506  26.942  1.00  0.00     0.049 A 
ATOM     29  C   UNL A   1      43.075  30.680  31.277  1.00  0.00     0.074 A 
ATOM     30  C   UNL A   1      47.551  30.432  26.721  1.00  0.00     0.029 A 
ATOM     31  N   UNL A   1      45.849  29.927  28.067  1.00  0.00    -0.354 N 
ATOM     32  N   UNL A   1      43.989  30.482  30.360  1.00  0.00    -0.248 NA
ATOM     33  C   UNL A   1      43.317  31.816  32.165  1.00  0.00     0.031 C 
ATOM     34  C   UNL A   1      47.486  31.382  27.745  1.00  0.00     0.029 A 
ATOM     35  C   UNL A   1      46.407  31.087  28.567  1.00  0.00     0.049 A 
ATOM     36  H   UNL A   1      45.069  29.465  28.450  1.00  0.00     0.167 HD
ATOM     37  C   UNL A   1      44.879  31.526  30.497  1.00  0.00     0.074 A 
ATOM     38  C   UNL A   1      44.424  32.316  31.630  1.00  0.00     0.031 C 
ATOM     39  C   UNL A   1      45.937  31.829  29.713  1.00  0.00     0.031 A 
BRANCH  26  40
ATOM     40  C   UNL A   1      47.108  27.883  25.044  1.00  0.00    -0.014 A 
ATOM     41  C   UNL A   1      48.320  27.198  25.258  1.00  0.00     0.010 A 
ATOM     42  C   UNL A   1      46.759  28.275  23.742  1.00  0.00     0.010 A 
ATOM     43  C   UNL A   1      49.214  27.001  24.204  1.00  0.00     0.020 A 
ATOM     44  C   UNL A   1      47.634  28.043  22.678  1.00  0.00     0.020 A 
ATOM     45  C   UNL A   1      48.870  27.441  22.922  1.00  0.00     0.054 A 
BRANCH  45  46
ATOM     46  S   UNL A   1      50.071  27.223  21.584  1.00  0.00     0.124 S 
ATOM     47  O   UNL A   1      50.086  28.554  20.977  1.00  0.00    -0.237 OA
ATOM     48  O   UNL A   1      51.281  26.841  22.293  1.00  0.00    -0.237 OA
ATOM     49  O   UNL A   1      49.474  26.172  20.755  1.00  0.00    -0.744 OA
ENDBRANCH  45  46
ENDBRANCH  26  40
BRANCH  27  50
ATOM     50  C   UNL A   1      40.917  30.167  32.656  1.00  0.00    -0.014 A 
ATOM     51  C   UNL A   1      41.138  29.563  33.905  1.00  0.00     0.010 A 
ATOM     52  C   UNL A   1      39.853  31.080  32.550  1.00  0.00     0.010 A 
ATOM     53  C   UNL A   1      40.356  29.907  35.023  1.00  0.00     0.020 A 
ATOM     54  C   UNL A   1      39.091  31.457  33.664  1.00  0.00     0.020 A 
ATOM     55  C   UNL A   1      39.351  30.869  34.901  1.00  0.00     0.054 A 
BRANCH  55  56
ATOM     56  S   UNL A   1      38.426  31.419  36.367  1.00  0.00     0.124 S 
ATOM     57  O   UNL A   1      39.436  32.172  37.101  1.00  0.00    -0.237 OA
ATOM     58  O   UNL A   1      37.334  32.208  35.801  1.00  0.00    -0.237 OA
ATOM     59  O   UNL A   1      38.009  30.158  36.980  1.00  0.00    -0.744 OA
ENDBRANCH  55  56
ENDBRANCH  27  50
BRANCH  39  60
ATOM     60  C   UNL A   1      46.638  33.111  30.022  1.00  0.00    -0.014 A 
ATOM     61  C   UNL A   1      47.654  33.169  30.986  1.00  0.00     0.010 A 
ATOM     62  C   UNL A   1      46.323  34.246  29.255  1.00  0.00     0.010 A 
ATOM     63  C   UNL A   1      48.363  34.353  31.169  1.00  0.00     0.020 A 
ATOM     64  C   UNL A   1      47.050  35.421  29.415  1.00  0.00     0.020 A 
ATOM     65  C   UNL A   1      48.068  35.464  30.369  1.00  0.00     0.054 A 
BRANCH  65  66
ATOM     66  S   UNL A   1      49.095  36.944  30.536  1.00  0.00     0.124 S 
ATOM     67  O   UNL A   1      48.108  38.013  30.416  1.00  0.00    -0.237 OA
ATOM     68  O   UNL A   1      49.682  36.773  31.863  1.00  0.00    -0.237 OA
ATOM     69  O   UNL A   1      50.039  36.837  29.425  1.00  0.00    -0.744 OA
ENDBRANCH  65  66
ENDBRANCH  39  60
ENDBRANCH  13  14
ENDBRANCH   6   8
ENDBRANCH   5   6
ENDBRANCH   4   5
ENDBRANCH   3   4
ENDBRANCH   2   3
ENDBRANCH   1   2
BRANCH   1  70
ATOM     70  C   UNL A   1      34.442  21.047  24.423  1.00  0.00     0.188 C 
BRANCH  70  71
ATOM     71  O   UNL A   1      33.561  20.929  25.537  1.00  0.00    -0.376 OA
BRANCH  71  72
ATOM     72  C   UNL A   1      32.183  21.202  25.322  1.00  0.00     0.202 C 
BRANCH  72  73
ATOM     73  C   UNL A   1      31.750  22.623  24.928  1.00  0.00     0.261 C 
BRANCH  73  74
ATOM     74  O   UNL A   1      32.677  23.680  25.200  1.00  0.00    -0.459 OA
BRANCH  74  75
ATOM     75  C   UNL A   1      32.127  24.743  25.851  1.00  0.00     0.365 C 
ATOM     76  O   UNL A   1      31.708  24.705  27.008  1.00  0.00    -0.245 OA
BRANCH  75  77
ATOM     77  C   UNL A   1      31.887  25.959  24.954  1.00  0.00     0.298 C 
ATOM     78  C   UNL A   1      30.438  26.500  24.936  1.00  0.00     0.115 C 
ATOM     79  N   UNL A   1      32.896  26.926  25.409  1.00  0.00    -0.323 N 
ATOM     80  C   UNL A   1      30.434  27.795  24.189  1.00  0.00    -0.006 A 
ATOM     81  C   UNL A   1      32.904  28.263  24.821  1.00  0.00     0.262 C 
ATOM     82  H   UNL A   1      33.811  26.513  25.229  1.00  0.00     0.347 HD
ATOM     83  H   UNL A   1      32.658  27.088  26.388  1.00  0.00     0.347 HD
ATOM     84  C   UNL A   1      31.565  28.596  24.203  1.00  0.00     0.083 A 
ATOM     85  C   UNL A   1      29.407  28.482  23.473  1.00  0.00     0.003 A 
ATOM     86  N   UNL A   1      31.287  29.702  23.432  1.00  0.00    -0.353 N 
ATOM     87  C   UNL A   1      29.948  29.706  23.074  1.00  0.00     0.046 A 
ATOM     88  C   UNL A   1      28.048  28.233  23.188  1.00  0.00     0.010 A 
ATOM     89  H   UNL A   1      31.944  30.389  23.173  1.00  0.00     0.166 HD
ATOM     90  C   UNL A   1      29.157  30.710  22.488  1.00  0.00     0.026 A 
ATOM     91  C   UNL A   1      27.239  29.259  22.671  1.00  0.00     0.001 A 
ATOM     92  C   UNL A   1      27.784  30.495  22.357  1.00  0.00     0.002 A 
BRANCH  81  93
ATOM     93  C   UNL A   1      33.444  29.152  25.942  1.00  0.00     0.016 A 
ATOM     94  C   UNL A   1      32.745  30.243  26.469  1.00  0.00     0.014 A 
ATOM     95  C   UNL A   1      34.599  28.758  26.637  1.00  0.00     0.014 A 
ATOM     96  C   UNL A   1      33.280  31.039  27.489  1.00  0.00     0.047 A 
ATOM     97  C   UNL A   1      35.089  29.489  27.731  1.00  0.00     0.047 A 
ATOM     98  C   UNL A   1      34.452  30.659  28.134  1.00  0.00     0.129 A 
BRANCH  98  99
ATOM     99  O   UNL A   1      34.912  31.525  29.082  1.00  0.00    -0.406 OA
BRANCH  99 100
ATOM    100  C   UNL A   1      35.791  32.537  28.627  1.00  0.00     0.573 C 
ATOM    101  F   UNL A   1      36.002  32.437  27.294  1.00  0.00    -0.132 F 
ATOM    102  F   UNL A   1      35.359  33.780  28.920  1.00  0.00    -0.132 F 
ATOM    103  F   UNL A   1      36.991  32.368  29.237  1.00  0.00    -0.132 F 
ENDBRANCH  99 100
ENDBRANCH  98  99
ENDBRANCH  81  93
ENDBRANCH  75  77
ENDBRANCH  74  75
ENDBRANCH  73  74
ENDBRANCH  72  73
ENDBRANCH  71  72
ENDBRANCH  70  71
ENDBRANCH   1  70
TORSDOF 23
ENDMDL
MODEL 3
REMARK VINA RESULT:      -9.6      6.385     10.967
REMARK SMILES O=C(OCCOCCOCCOC(=O)[C@H]1Cc2c([nH]c3ccccc23)[C@@H](c2ccc(OC(F)(F)F)cc2)[NH2+]1)c1ccc(-c2c3nc(c(-c4ccc(S(=O)(=O)[O-])cc4)c4ccc([nH]4)c(-c4ccc(S(=O)(=O)[O-])cc4)c4nc(c(-c5ccc(S(=O)(=O)[O-])cc5)c5ccc2[nH]5)C=C4)C=C3)cc1
REMARK SMILES IDX 7 1 6 2 5 3 4 4 3 5 2 6 1 7 39 8 40 9 98 10 41 11 97 12
REMARK SMILES IDX 42 13 43 14 44 15 91 16 45 17 96 18 90 19 92 20 46 21 95 22
REMARK SMILES IDX 89 23 88 24 47 26 77 27 58 28 76 29 59 30 62 31 75 32 93 33
REMARK SMILES IDX 60 34 61 35 74 37 94 38 63 39 48 40 49 41 57 42 50 43 56 44
REMARK SMILES IDX 51 45 52 46 53 47 54 48 55 49 78 50 79 51 87 52 80 53 86 54
REMARK SMILES IDX 81 55 82 56 83 57 84 58 85 59 64 60 65 61 73 62 66 63 72 64
REMARK SMILES IDX 67 65 68 66 69 67 70 68 71 69 8 70 9 71 10 72 11 73 12 74
REMARK SMILES IDX 13 75 14 76 15 77 16 78 38 79 17 80 26 81 18 84 25 85 19 86
REMARK SMILES IDX 20 87 24 88 21 90 23 91 22 92 27 93 28 94 37 95 29 96 36 97
REMARK SMILES IDX 30 98 31 99 32 100 33 101 34 102 35 103
REMARK H PARENT 92 25 62 36 38 82 38 83 19 89
REMARK Flexibility Score: inf
ROOT
ATOM      1  C   UNL A   1      36.609  22.578  24.890  1.00  0.00     0.188 C 
ENDROOT
BRANCH   1   2
ATOM      2  O   UNL A   1      37.251  21.953  26.005  1.00  0.00    -0.376 OA
BRANCH   2   3
ATOM      3  C   UNL A   1      38.409  21.181  25.664  1.00  0.00     0.202 C 
BRANCH   3   4
ATOM      4  C   UNL A   1      39.763  21.812  26.017  1.00  0.00     0.261 C 
BRANCH   4   5
ATOM      5  O   UNL A   1      40.812  20.849  26.175  1.00  0.00    -0.460 OA
BRANCH   5   6
ATOM      6  C   UNL A   1      42.143  21.064  26.041  1.00  0.00     0.338 C 
ATOM      7  O   UNL A   1      42.802  20.257  25.384  1.00  0.00    -0.246 OA
BRANCH   6   8
ATOM      8  C   UNL A   1      42.857  22.237  26.629  1.00  0.00     0.060 A 
ATOM      9  C   UNL A   1      43.312  22.359  27.947  1.00  0.00     0.016 A 
ATOM     10  C   UNL A   1      43.179  23.259  25.734  1.00  0.00     0.016 A 
ATOM     11  C   UNL A   1      44.004  23.491  28.394  1.00  0.00     0.010 A 
ATOM     12  C   UNL A   1      43.911  24.366  26.163  1.00  0.00     0.010 A 
ATOM     13  C   UNL A   1      44.320  24.508  27.505  1.00  0.00    -0.014 A 
BRANCH  13  14
ATOM     14  C   UNL A   1      44.935  25.795  27.933  1.00  0.00     0.031 A 
ATOM     15  C   UNL A   1      44.030  26.777  28.594  1.00  0.00     0.074 A 
ATOM     16  C   UNL A   1      46.218  26.139  27.705  1.00  0.00     0.049 A 
ATOM     17  N   UNL A   1      44.195  28.054  28.773  1.00  0.00    -0.248 NA
ATOM     18  C   UNL A   1      42.751  26.243  29.097  1.00  0.00     0.031 C 
ATOM     19  C   UNL A   1      47.238  25.237  27.209  1.00  0.00     0.029 A 
ATOM     20  N   UNL A   1      46.878  27.352  27.784  1.00  0.00    -0.354 N 
ATOM     21  C   UNL A   1      43.037  28.480  29.394  1.00  0.00     0.074 A 
ATOM     22  C   UNL A   1      42.134  27.353  29.456  1.00  0.00     0.031 C 
ATOM     23  C   UNL A   1      48.338  25.941  26.907  1.00  0.00     0.029 A 
ATOM     24  C   UNL A   1      48.122  27.332  27.183  1.00  0.00     0.049 A 
ATOM     25  H   UNL A   1      46.499  28.148  28.224  1.00  0.00     0.167 HD
ATOM     26  C   UNL A   1      42.780  29.697  29.914  1.00  0.00     0.031 A 
ATOM     27  C   UNL A   1      48.996  28.295  26.825  1.00  0.00     0.031 A 
ATOM     28  C   UNL A   1      43.712  30.784  29.839  1.00  0.00     0.049 A 
ATOM     29  C   UNL A   1      48.629  29.678  27.218  1.00  0.00     0.074 A 
ATOM     30  C   UNL A   1      43.597  32.056  30.361  1.00  0.00     0.029 A 
ATOM     31  N   UNL A   1      44.943  30.721  29.191  1.00  0.00    -0.354 N 
ATOM     32  N   UNL A   1      47.513  30.081  27.774  1.00  0.00    -0.248 NA
ATOM     33  C   UNL A   1      49.633  30.720  27.006  1.00  0.00     0.031 C 
ATOM     34  C   UNL A   1      44.732  32.778  29.980  1.00  0.00     0.029 A 
ATOM     35  C   UNL A   1      45.587  31.939  29.278  1.00  0.00     0.049 A 
ATOM     36  H   UNL A   1      45.300  29.924  28.737  1.00  0.00     0.167 HD
ATOM     37  C   UNL A   1      47.709  31.414  28.066  1.00  0.00     0.074 A 
ATOM     38  C   UNL A   1      49.030  31.762  27.565  1.00  0.00     0.031 C 
ATOM     39  C   UNL A   1      46.891  32.250  28.743  1.00  0.00     0.031 A 
BRANCH  26  40
ATOM     40  C   UNL A   1      41.434  29.866  30.555  1.00  0.00    -0.014 A 
ATOM     41  C   UNL A   1      41.217  29.506  31.899  1.00  0.00     0.010 A 
ATOM     42  C   UNL A   1      40.344  30.268  29.766  1.00  0.00     0.010 A 
ATOM     43  C   UNL A   1      39.921  29.450  32.415  1.00  0.00     0.020 A 
ATOM     44  C   UNL A   1      39.051  30.253  30.291  1.00  0.00     0.020 A 
ATOM     45  C   UNL A   1      38.844  29.810  31.599  1.00  0.00     0.054 A 
BRANCH  45  46
ATOM     46  S   UNL A   1      37.168  29.675  32.274  1.00  0.00     0.124 S 
ATOM     47  O   UNL A   1      36.380  29.423  31.069  1.00  0.00    -0.237 OA
ATOM     48  O   UNL A   1      37.280  28.560  33.199  1.00  0.00    -0.237 OA
ATOM     49  O   UNL A   1      36.944  30.984  32.898  1.00  0.00    -0.744 OA
ENDBRANCH  45  46
ENDBRANCH  26  40
BRANCH  27  50
ATOM     50  C   UNL A   1      50.261  27.987  26.078  1.00  0.00    -0.014 A 
ATOM     51  C   UNL A   1      51.458  27.677  26.743  1.00  0.00     0.010 A 
ATOM     52  C   UNL A   1      50.260  27.935  24.673  1.00  0.00     0.010 A 
ATOM     53  C   UNL A   1      52.599  27.271  26.027  1.00  0.00     0.020 A 
ATOM     54  C   UNL A   1      51.380  27.498  23.952  1.00  0.00     0.020 A 
ATOM     55  C   UNL A   1      52.547  27.163  24.636  1.00  0.00     0.054 A 
BRANCH  55  56
ATOM     56  S   UNL A   1      53.971  26.510  23.712  1.00  0.00     0.124 S 
ATOM     57  O   UNL A   1      54.384  25.385  24.543  1.00  0.00    -0.237 OA
ATOM     58  O   UNL A   1      53.402  26.164  22.413  1.00  0.00    -0.237 OA
ATOM     59  O   UNL A   1      54.891  27.648  23.688  1.00  0.00    -0.744 OA
ENDBRANCH  55  56
ENDBRANCH  27  50
BRANCH  39  60
ATOM     60  C   UNL A   1      47.435  33.609  29.036  1.00  0.00    -0.014 A 
ATOM     61  C   UNL A   1      47.185  34.691  28.179  1.00  0.00     0.010 A 
ATOM     62  C   UNL A   1      48.128  33.806  30.243  1.00  0.00     0.010 A 
ATOM     63  C   UNL A   1      47.611  35.966  28.539  1.00  0.00     0.020 A 
ATOM     64  C   UNL A   1      48.528  35.084  30.618  1.00  0.00     0.020 A 
ATOM     65  C   UNL A   1      48.263  36.156  29.764  1.00  0.00     0.054 A 
BRANCH  65  66
ATOM     66  S   UNL A   1      48.684  37.843  30.265  1.00  0.00     0.124 S 
ATOM     67  O   UNL A   1      50.143  37.810  30.243  1.00  0.00    -0.237 OA
ATOM     68  O   UNL A   1      48.054  38.649  29.222  1.00  0.00    -0.237 OA
ATOM     69  O   UNL A   1      48.081  37.970  31.591  1.00  0.00    -0.744 OA
ENDBRANCH  65  66
ENDBRANCH  39  60
ENDBRANCH  13  14
ENDBRANCH   6   8
ENDBRANCH   5   6
ENDBRANCH   4   5
ENDBRANCH   3   4
ENDBRANCH   2   3
ENDBRANCH   1   2
BRANCH   1  70
ATOM     70  C   UNL A   1      35.479  21.736  24.302  1.00  0.00     0.188 C 
BRANCH  70  71
ATOM     71  O   UNL A   1      34.631  21.051  25.218  1.00  0.00    -0.376 OA
BRANCH  71  72
ATOM     72  C   UNL A   1      33.233  21.301  25.139  1.00  0.00     0.202 C 
BRANCH  72  73
ATOM     73  C   UNL A   1      32.667  22.602  25.729  1.00  0.00     0.261 C 
BRANCH  73  74
ATOM     74  O   UNL A   1      32.101  23.539  24.806  1.00  0.00    -0.459 OA
BRANCH  74  75
ATOM     75  C   UNL A   1      32.939  24.560  24.472  1.00  0.00     0.365 C 
ATOM     76  O   UNL A   1      33.859  24.463  23.660  1.00  0.00    -0.245 OA
BRANCH  75  77
ATOM     77  C   UNL A   1      32.769  25.806  25.343  1.00  0.00     0.298 C 
ATOM     78  C   UNL A   1      33.992  26.752  25.401  1.00  0.00     0.115 C 
ATOM     79  N   UNL A   1      31.541  26.425  24.821  1.00  0.00    -0.323 N 
ATOM     80  C   UNL A   1      33.581  28.002  26.110  1.00  0.00    -0.006 A 
ATOM     81  C   UNL A   1      31.114  27.709  25.370  1.00  0.00     0.262 C 
ATOM     82  H   UNL A   1      30.782  25.763  24.978  1.00  0.00     0.347 HD
ATOM     83  H   UNL A   1      31.765  26.634  23.848  1.00  0.00     0.347 HD
ATOM     84  C   UNL A   1      32.265  28.432  26.030  1.00  0.00     0.083 A 
ATOM     85  C   UNL A   1      34.325  28.974  26.844  1.00  0.00     0.003 A 
ATOM     86  N   UNL A   1      32.170  29.583  26.779  1.00  0.00    -0.353 N 
ATOM     87  C   UNL A   1      33.431  29.990  27.188  1.00  0.00     0.046 A 
ATOM     88  C   UNL A   1      35.683  29.142  27.189  1.00  0.00     0.010 A 
ATOM     89  H   UNL A   1      31.329  30.050  26.993  1.00  0.00     0.166 HD
ATOM     90  C   UNL A   1      33.863  31.192  27.775  1.00  0.00     0.026 A 
ATOM     91  C   UNL A   1      36.130  30.370  27.706  1.00  0.00     0.001 A 
ATOM     92  C   UNL A   1      35.231  31.394  27.964  1.00  0.00     0.002 A 
BRANCH  81  93
ATOM     93  C   UNL A   1      30.386  28.380  24.205  1.00  0.00     0.016 A 
ATOM     94  C   UNL A   1      31.032  29.149  23.231  1.00  0.00     0.014 A 
ATOM     95  C   UNL A   1      29.043  28.059  23.954  1.00  0.00     0.014 A 
ATOM     96  C   UNL A   1      30.328  29.756  22.183  1.00  0.00     0.047 A 
ATOM     97  C   UNL A   1      28.352  28.577  22.848  1.00  0.00     0.047 A 
ATOM     98  C   UNL A   1      28.982  29.464  21.980  1.00  0.00     0.129 A 
BRANCH  98  99
ATOM     99  O   UNL A   1      28.379  30.140  20.962  1.00  0.00    -0.406 OA
BRANCH  99 100
ATOM    100  C   UNL A   1      28.157  31.522  21.177  1.00  0.00     0.573 C 
ATOM    101  F   UNL A   1      27.817  32.147  20.027  1.00  0.00    -0.132 F 
ATOM    102  F   UNL A   1      27.219  31.764  22.114  1.00  0.00    -0.132 F 
ATOM    103  F   UNL A   1      29.317  32.079  21.608  1.00  0.00    -0.132 F 
ENDBRANCH  99 100
ENDBRANCH  98  99
ENDBRANCH  81  93
ENDBRANCH  75  77
ENDBRANCH  74  75
ENDBRANCH  73  74
ENDBRANCH  72  73
ENDBRANCH  71  72
ENDBRANCH  70  71
ENDBRANCH   1  70
TORSDOF 23
ENDMDL
