MODEL 1
REMARK VINA RESULT:      -7.8      0.000      0.000
REMARK SMILES O=C(OCCOCCOCCOC(=O)c1ccccc1/C=C1\SC(=S)N(Cc2ccccc2)C1=O)c1ccc(-c2c3nc(c(-c4ccc(S(=O)(=O)[O-])cc4)c4ccc([nH]4)c(-c4ccc(S(=O)(=O)[O-])cc4)c4nc(c(-c5ccc(S(=O)(=O)[O-])cc5)c5ccc2[nH]5)C=C4)C=C3)cc1
REMARK SMILES IDX 7 1 6 2 5 3 4 4 3 5 2 6 1 7 36 8 37 9 95 10 38 11 94 12
REMARK SMILES IDX 39 13 40 14 41 15 88 16 42 17 93 18 87 19 89 20 43 21 92 22
REMARK SMILES IDX 86 23 85 24 44 26 74 27 55 28 73 29 56 30 59 31 72 32 90 33
REMARK SMILES IDX 57 34 58 35 71 37 91 38 60 39 45 40 46 41 54 42 47 43 53 44
REMARK SMILES IDX 48 45 49 46 50 47 51 48 52 49 75 50 76 51 84 52 77 53 83 54
REMARK SMILES IDX 78 55 79 56 80 57 81 58 82 59 61 60 62 61 70 62 63 63 69 64
REMARK SMILES IDX 64 65 65 66 66 67 67 68 68 69 8 70 9 71 10 72 11 73 12 74
REMARK SMILES IDX 13 75 14 76 15 77 16 78 20 79 17 80 19 81 18 82 21 83 22 84
REMARK SMILES IDX 23 85 34 86 24 87 26 88 35 89 25 90 27 91 28 92 29 93 33 94
REMARK SMILES IDX 30 95 32 96 31 97
REMARK H PARENT 89 25 59 36
REMARK Flexibility Score: inf
ROOT
ATOM      1  C   UNL A   1      45.289  19.193  24.170  1.00  0.00     0.188 C 
ENDROOT
BRANCH   1   2
ATOM      2  O   UNL A   1      43.874  19.245  24.388  1.00  0.00    -0.376 OA
BRANCH   2   3
ATOM      3  C   UNL A   1      43.447  18.558  25.563  1.00  0.00     0.202 C 
BRANCH   3   4
ATOM      4  C   UNL A   1      42.268  19.231  26.274  1.00  0.00     0.261 C 
BRANCH   4   5
ATOM      5  O   UNL A   1      41.910  20.477  25.652  1.00  0.00    -0.460 OA
BRANCH   5   6
ATOM      6  C   UNL A   1      40.943  21.344  26.049  1.00  0.00     0.338 C 
ATOM      7  O   UNL A   1      39.768  21.075  25.811  1.00  0.00    -0.246 OA
BRANCH   6   8
ATOM      8  C   UNL A   1      41.237  22.577  26.839  1.00  0.00     0.060 A 
ATOM      9  C   UNL A   1      41.071  23.878  26.364  1.00  0.00     0.016 A 
ATOM     10  C   UNL A   1      41.636  22.405  28.175  1.00  0.00     0.016 A 
ATOM     11  C   UNL A   1      41.420  24.979  27.144  1.00  0.00     0.010 A 
ATOM     12  C   UNL A   1      41.914  23.509  28.988  1.00  0.00     0.010 A 
ATOM     13  C   UNL A   1      41.841  24.807  28.464  1.00  0.00    -0.014 A 
BRANCH  13  14
ATOM     14  C   UNL A   1      42.237  25.989  29.263  1.00  0.00     0.031 A 
ATOM     15  C   UNL A   1      43.585  26.020  29.922  1.00  0.00     0.074 A 
ATOM     16  C   UNL A   1      41.426  27.062  29.334  1.00  0.00     0.049 A 
ATOM     17  N   UNL A   1      44.096  26.936  30.702  1.00  0.00    -0.248 NA
ATOM     18  C   UNL A   1      44.484  24.886  29.652  1.00  0.00     0.031 C 
ATOM     19  C   UNL A   1      40.138  27.190  28.651  1.00  0.00     0.029 A 
ATOM     20  N   UNL A   1      41.569  28.254  29.999  1.00  0.00    -0.354 N 
ATOM     21  C   UNL A   1      45.370  26.487  31.023  1.00  0.00     0.074 A 
ATOM     22  C   UNL A   1      45.551  25.209  30.369  1.00  0.00     0.031 C 
ATOM     23  C   UNL A   1      39.618  28.395  28.928  1.00  0.00     0.029 A 
ATOM     24  C   UNL A   1      40.483  29.085  29.870  1.00  0.00     0.049 A 
ATOM     25  H   UNL A   1      42.371  28.491  30.518  1.00  0.00     0.167 HD
ATOM     26  C   UNL A   1      46.307  27.092  31.789  1.00  0.00     0.031 A 
ATOM     27  C   UNL A   1      40.179  30.248  30.476  1.00  0.00     0.031 A 
ATOM     28  C   UNL A   1      46.118  28.361  32.435  1.00  0.00     0.049 A 
ATOM     29  C   UNL A   1      41.174  30.832  31.433  1.00  0.00     0.074 A 
ATOM     30  C   UNL A   1      47.001  29.056  33.243  1.00  0.00     0.029 A 
ATOM     31  N   UNL A   1      44.963  29.124  32.353  1.00  0.00    -0.354 N 
ATOM     32  N   UNL A   1      42.366  30.383  31.744  1.00  0.00    -0.248 NA
ATOM     33  C   UNL A   1      40.788  32.068  32.122  1.00  0.00     0.031 C 
ATOM     34  C   UNL A   1      46.360  30.218  33.688  1.00  0.00     0.029 A 
ATOM     35  C   UNL A   1      45.095  30.266  33.122  1.00  0.00     0.049 A 
ATOM     36  H   UNL A   1      44.167  28.887  31.825  1.00  0.00     0.167 HD
ATOM     37  C   UNL A   1      42.882  31.291  32.656  1.00  0.00     0.074 A 
ATOM     38  C   UNL A   1      41.878  32.322  32.835  1.00  0.00     0.031 C 
ATOM     39  C   UNL A   1      44.079  31.273  33.288  1.00  0.00     0.031 A 
BRANCH  26  40
ATOM     40  C   UNL A   1      47.600  26.359  31.999  1.00  0.00    -0.014 A 
ATOM     41  C   UNL A   1      47.858  25.666  33.194  1.00  0.00     0.010 A 
ATOM     42  C   UNL A   1      48.565  26.353  30.976  1.00  0.00     0.010 A 
ATOM     43  C   UNL A   1      49.074  25.000  33.373  1.00  0.00     0.020 A 
ATOM     44  C   UNL A   1      49.774  25.674  31.144  1.00  0.00     0.020 A 
ATOM     45  C   UNL A   1      50.026  25.013  32.349  1.00  0.00     0.054 A 
BRANCH  45  46
ATOM     46  S   UNL A   1      51.589  24.126  32.599  1.00  0.00     0.124 S 
ATOM     47  O   UNL A   1      51.777  24.251  34.042  1.00  0.00    -0.237 OA
ATOM     48  O   UNL A   1      51.276  22.782  32.120  1.00  0.00    -0.237 OA
ATOM     49  O   UNL A   1      52.543  24.870  31.779  1.00  0.00    -0.744 OA
ENDBRANCH  45  46
ENDBRANCH  26  40
BRANCH  27  50
ATOM     50  C   UNL A   1      38.844  30.876  30.272  1.00  0.00    -0.014 A 
ATOM     51  C   UNL A   1      37.801  30.694  31.195  1.00  0.00     0.010 A 
ATOM     52  C   UNL A   1      38.613  31.658  29.124  1.00  0.00     0.010 A 
ATOM     53  C   UNL A   1      36.543  31.263  30.960  1.00  0.00     0.020 A 
ATOM     54  C   UNL A   1      37.366  32.247  28.898  1.00  0.00     0.020 A 
ATOM     55  C   UNL A   1      36.334  32.031  29.810  1.00  0.00     0.054 A 
BRANCH  55  56
ATOM     56  S   UNL A   1      34.704  32.780  29.530  1.00  0.00     0.124 S 
ATOM     57  O   UNL A   1      34.114  32.723  30.863  1.00  0.00    -0.237 OA
ATOM     58  O   UNL A   1      35.047  34.114  29.044  1.00  0.00    -0.237 OA
ATOM     59  O   UNL A   1      34.097  31.899  28.535  1.00  0.00    -0.744 OA
ENDBRANCH  55  56
ENDBRANCH  27  50
BRANCH  39  60
ATOM     60  C   UNL A   1      44.370  32.414  34.216  1.00  0.00    -0.014 A 
ATOM     61  C   UNL A   1      44.065  32.321  35.585  1.00  0.00     0.010 A 
ATOM     62  C   UNL A   1      44.990  33.572  33.719  1.00  0.00     0.010 A 
ATOM     63  C   UNL A   1      44.358  33.383  36.441  1.00  0.00     0.020 A 
ATOM     64  C   UNL A   1      45.303  34.628  34.576  1.00  0.00     0.020 A 
ATOM     65  C   UNL A   1      44.974  34.530  35.931  1.00  0.00     0.054 A 
BRANCH  65  66
ATOM     66  S   UNL A   1      45.393  35.878  37.068  1.00  0.00     0.124 S 
ATOM     67  O   UNL A   1      44.495  36.940  36.622  1.00  0.00    -0.237 OA
ATOM     68  O   UNL A   1      45.088  35.305  38.376  1.00  0.00    -0.237 OA
ATOM     69  O   UNL A   1      46.813  36.114  36.814  1.00  0.00    -0.744 OA
ENDBRANCH  65  66
ENDBRANCH  39  60
ENDBRANCH  13  14
ENDBRANCH   6   8
ENDBRANCH   5   6
ENDBRANCH   4   5
ENDBRANCH   3   4
ENDBRANCH   2   3
ENDBRANCH   1   2
BRANCH   1  70
ATOM     70  C   UNL A   1      45.960  20.385  24.851  1.00  0.00     0.188 C 
BRANCH  70  71
ATOM     71  O   UNL A   1      45.171  21.578  24.856  1.00  0.00    -0.376 OA
BRANCH  71  72
ATOM     72  C   UNL A   1      44.811  22.111  26.128  1.00  0.00     0.202 C 
BRANCH  72  73
ATOM     73  C   UNL A   1      45.153  23.582  26.376  1.00  0.00     0.261 C 
BRANCH  73  74
ATOM     74  O   UNL A   1      44.523  24.541  25.511  1.00  0.00    -0.460 OA
BRANCH  74  75
ATOM     75  C   UNL A   1      45.255  25.666  25.305  1.00  0.00     0.338 C 
ATOM     76  O   UNL A   1      46.197  25.793  24.539  1.00  0.00    -0.246 OA
BRANCH  75  77
ATOM     77  C   UNL A   1      44.838  26.752  26.209  1.00  0.00     0.067 A 
ATOM     78  C   UNL A   1      43.577  27.323  26.024  1.00  0.00     0.016 A 
ATOM     79  C   UNL A   1      45.763  27.312  27.113  1.00  0.00    -0.010 A 
ATOM     80  C   UNL A   1      43.237  28.474  26.734  1.00  0.00     0.001 A 
ATOM     81  C   UNL A   1      45.435  28.506  27.760  1.00  0.00     0.009 A 
ATOM     82  C   UNL A   1      44.172  29.078  27.578  1.00  0.00     0.001 A 
BRANCH  79  83
ATOM     83  C   UNL A   1      46.989  26.594  27.473  1.00  0.00     0.030 C 
ATOM     84  C   UNL A   1      48.212  26.843  26.993  1.00  0.00     0.081 C 
ATOM     85  S   UNL A   1      48.759  28.179  26.073  1.00  0.00    -0.054 SA
ATOM     86  C   UNL A   1      49.233  25.770  27.010  1.00  0.00     0.266 C 
ATOM     87  C   UNL A   1      50.228  27.347  25.579  1.00  0.00     0.148 C 
ATOM     88  N   UNL A   1      50.311  26.128  26.220  1.00  0.00    -0.288 N 
ATOM     89  O   UNL A   1      49.060  24.675  27.532  1.00  0.00    -0.268 OA
ATOM     90  S   UNL A   1      51.281  28.002  24.462  1.00  0.00    -0.052 S 
BRANCH  88  91
ATOM     91  C   UNL A   1      51.434  25.200  26.130  1.00  0.00     0.163 C 
BRANCH  91  92
ATOM     92  C   UNL A   1      52.592  25.716  26.951  1.00  0.00    -0.028 A 
ATOM     93  C   UNL A   1      53.830  25.980  26.351  1.00  0.00     0.005 A 
ATOM     94  C   UNL A   1      52.399  26.068  28.296  1.00  0.00     0.005 A 
ATOM     95  C   UNL A   1      54.838  26.621  27.070  1.00  0.00     0.000 A 
ATOM     96  C   UNL A   1      53.405  26.714  29.009  1.00  0.00     0.000 A 
ATOM     97  C   UNL A   1      54.622  26.998  28.394  1.00  0.00     0.000 A 
ENDBRANCH  91  92
ENDBRANCH  88  91
ENDBRANCH  79  83
ENDBRANCH  75  77
ENDBRANCH  74  75
ENDBRANCH  73  74
ENDBRANCH  72  73
ENDBRANCH  71  72
ENDBRANCH  70  71
ENDBRANCH   1  70
TORSDOF 23
ENDMDL
MODEL 2
REMARK VINA RESULT:      -7.5      4.257      5.463
REMARK SMILES O=C(OCCOCCOCCOC(=O)c1ccccc1/C=C1\SC(=S)N(Cc2ccccc2)C1=O)c1ccc(-c2c3nc(c(-c4ccc(S(=O)(=O)[O-])cc4)c4ccc([nH]4)c(-c4ccc(S(=O)(=O)[O-])cc4)c4nc(c(-c5ccc(S(=O)(=O)[O-])cc5)c5ccc2[nH]5)C=C4)C=C3)cc1
REMARK SMILES IDX 7 1 6 2 5 3 4 4 3 5 2 6 1 7 36 8 37 9 95 10 38 11 94 12
REMARK SMILES IDX 39 13 40 14 41 15 88 16 42 17 93 18 87 19 89 20 43 21 92 22
REMARK SMILES IDX 86 23 85 24 44 26 74 27 55 28 73 29 56 30 59 31 72 32 90 33
REMARK SMILES IDX 57 34 58 35 71 37 91 38 60 39 45 40 46 41 54 42 47 43 53 44
REMARK SMILES IDX 48 45 49 46 50 47 51 48 52 49 75 50 76 51 84 52 77 53 83 54
REMARK SMILES IDX 78 55 79 56 80 57 81 58 82 59 61 60 62 61 70 62 63 63 69 64
REMARK SMILES IDX 64 65 65 66 66 67 67 68 68 69 8 70 9 71 10 72 11 73 12 74
REMARK SMILES IDX 13 75 14 76 15 77 16 78 20 79 17 80 19 81 18 82 21 83 22 84
REMARK SMILES IDX 23 85 34 86 24 87 26 88 35 89 25 90 27 91 28 92 29 93 33 94
REMARK SMILES IDX 30 95 32 96 31 97
REMARK H PARENT 89 25 59 36
REMARK Flexibility Score: inf
ROOT
ATOM      1  C   UNL A   1      44.242  19.338  24.842  1.00  0.00     0.188 C 
ENDROOT
BRANCH   1   2
ATOM      2  O   UNL A   1      43.504  19.166  26.058  1.00  0.00    -0.376 OA
BRANCH   2   3
ATOM      3  C   UNL A   1      42.286  18.443  25.893  1.00  0.00     0.202 C 
BRANCH   3   4
ATOM      4  C   UNL A   1      41.049  19.204  26.382  1.00  0.00     0.261 C 
BRANCH   4   5
ATOM      5  O   UNL A   1      41.056  20.573  25.943  1.00  0.00    -0.460 OA
BRANCH   5   6
ATOM      6  C   UNL A   1      40.499  21.639  26.573  1.00  0.00     0.338 C 
ATOM      7  O   UNL A   1      39.283  21.805  26.501  1.00  0.00    -0.246 OA
BRANCH   6   8
ATOM      8  C   UNL A   1      41.287  22.579  27.424  1.00  0.00     0.060 A 
ATOM      9  C   UNL A   1      40.865  23.859  27.788  1.00  0.00     0.016 A 
ATOM     10  C   UNL A   1      42.501  22.108  27.949  1.00  0.00     0.016 A 
ATOM     11  C   UNL A   1      41.683  24.699  28.540  1.00  0.00     0.010 A 
ATOM     12  C   UNL A   1      43.292  22.921  28.769  1.00  0.00     0.010 A 
ATOM     13  C   UNL A   1      42.902  24.239  29.041  1.00  0.00    -0.014 A 
BRANCH  13  14
ATOM     14  C   UNL A   1      43.769  25.160  29.810  1.00  0.00     0.031 A 
ATOM     15  C   UNL A   1      44.346  24.714  31.122  1.00  0.00     0.074 A 
ATOM     16  C   UNL A   1      44.101  26.363  29.301  1.00  0.00     0.049 A 
ATOM     17  N   UNL A   1      45.082  25.387  31.966  1.00  0.00    -0.248 NA
ATOM     18  C   UNL A   1      44.081  23.323  31.525  1.00  0.00     0.031 C 
ATOM     19  C   UNL A   1      43.687  26.866  27.991  1.00  0.00     0.029 A 
ATOM     20  N   UNL A   1      44.875  27.373  29.814  1.00  0.00    -0.354 N 
ATOM     21  C   UNL A   1      45.361  24.508  33.005  1.00  0.00     0.074 A 
ATOM     22  C   UNL A   1      44.701  23.258  32.695  1.00  0.00     0.031 C 
ATOM     23  C   UNL A   1      44.219  28.083  27.805  1.00  0.00     0.029 A 
ATOM     24  C   UNL A   1      44.932  28.482  29.006  1.00  0.00     0.049 A 
ATOM     25  H   UNL A   1      45.344  27.310  30.678  1.00  0.00     0.167 HD
ATOM     26  C   UNL A   1      46.106  24.724  34.112  1.00  0.00     0.031 A 
ATOM     27  C   UNL A   1      45.449  29.708  29.216  1.00  0.00     0.031 A 
ATOM     28  C   UNL A   1      46.756  25.970  34.412  1.00  0.00     0.049 A 
ATOM     29  C   UNL A   1      46.150  29.970  30.514  1.00  0.00     0.074 A 
ATOM     30  C   UNL A   1      47.526  26.297  35.514  1.00  0.00     0.029 A 
ATOM     31  N   UNL A   1      46.707  27.099  33.608  1.00  0.00    -0.354 N 
ATOM     32  N   UNL A   1      46.385  29.134  31.497  1.00  0.00    -0.248 NA
ATOM     33  C   UNL A   1      46.650  31.331  30.738  1.00  0.00     0.031 C 
ATOM     34  C   UNL A   1      47.903  27.640  35.398  1.00  0.00     0.029 A 
ATOM     35  C   UNL A   1      47.404  28.134  34.204  1.00  0.00     0.049 A 
ATOM     36  H   UNL A   1      46.245  27.154  32.741  1.00  0.00     0.167 HD
ATOM     37  C   UNL A   1      47.076  29.864  32.452  1.00  0.00     0.074 A 
ATOM     38  C   UNL A   1      47.233  31.205  31.923  1.00  0.00     0.031 C 
ATOM     39  C   UNL A   1      47.538  29.461  33.659  1.00  0.00     0.031 A 
BRANCH  26  40
ATOM     40  C   UNL A   1      46.216  23.597  35.097  1.00  0.00    -0.014 A 
ATOM     41  C   UNL A   1      47.125  22.544  34.900  1.00  0.00     0.010 A 
ATOM     42  C   UNL A   1      45.406  23.603  36.247  1.00  0.00     0.010 A 
ATOM     43  C   UNL A   1      47.202  21.499  35.826  1.00  0.00     0.020 A 
ATOM     44  C   UNL A   1      45.493  22.569  37.182  1.00  0.00     0.020 A 
ATOM     45  C   UNL A   1      46.382  21.516  36.958  1.00  0.00     0.054 A 
BRANCH  45  46
ATOM     46  S   UNL A   1      46.514  20.157  38.152  1.00  0.00     0.124 S 
ATOM     47  O   UNL A   1      47.945  19.865  38.117  1.00  0.00    -0.237 OA
ATOM     48  O   UNL A   1      46.027  20.765  39.388  1.00  0.00    -0.237 OA
ATOM     49  O   UNL A   1      45.653  19.118  37.591  1.00  0.00    -0.744 OA
ENDBRANCH  45  46
ENDBRANCH  26  40
BRANCH  27  50
ATOM     50  C   UNL A   1      45.234  30.795  28.221  1.00  0.00    -0.014 A 
ATOM     51  C   UNL A   1      44.123  31.650  28.301  1.00  0.00     0.010 A 
ATOM     52  C   UNL A   1      46.154  30.964  27.168  1.00  0.00     0.010 A 
ATOM     53  C   UNL A   1      43.923  32.640  27.330  1.00  0.00     0.020 A 
ATOM     54  C   UNL A   1      45.971  31.966  26.212  1.00  0.00     0.020 A 
ATOM     55  C   UNL A   1      44.846  32.787  26.290  1.00  0.00     0.054 A 
BRANCH  55  56
ATOM     56  S   UNL A   1      44.585  34.088  25.052  1.00  0.00     0.124 S 
ATOM     57  O   UNL A   1      45.912  34.690  24.964  1.00  0.00    -0.237 OA
ATOM     58  O   UNL A   1      44.153  33.330  23.880  1.00  0.00    -0.237 OA
ATOM     59  O   UNL A   1      43.552  34.925  25.659  1.00  0.00    -0.744 OA
ENDBRANCH  55  56
ENDBRANCH  27  50
BRANCH  39  60
ATOM     60  C   UNL A   1      48.274  30.481  34.476  1.00  0.00    -0.014 A 
ATOM     61  C   UNL A   1      47.602  31.236  35.452  1.00  0.00     0.010 A 
ATOM     62  C   UNL A   1      49.655  30.655  34.291  1.00  0.00     0.010 A 
ATOM     63  C   UNL A   1      48.302  32.170  36.219  1.00  0.00     0.020 A 
ATOM     64  C   UNL A   1      50.362  31.571  35.069  1.00  0.00     0.020 A 
ATOM     65  C   UNL A   1      49.677  32.332  36.021  1.00  0.00     0.054 A 
BRANCH  65  66
ATOM     66  S   UNL A   1      50.577  33.512  37.062  1.00  0.00     0.124 S 
ATOM     67  O   UNL A   1      50.889  34.576  36.111  1.00  0.00    -0.237 OA
ATOM     68  O   UNL A   1      49.596  33.854  38.088  1.00  0.00    -0.237 OA
ATOM     69  O   UNL A   1      51.725  32.744  37.538  1.00  0.00    -0.744 OA
ENDBRANCH  65  66
ENDBRANCH  39  60
ENDBRANCH  13  14
ENDBRANCH   6   8
ENDBRANCH   5   6
ENDBRANCH   4   5
ENDBRANCH   3   4
ENDBRANCH   2   3
ENDBRANCH   1   2
BRANCH   1  70
ATOM     70  C   UNL A   1      44.866  20.734  24.812  1.00  0.00     0.188 C 
BRANCH  70  71
ATOM     71  O   UNL A   1      44.444  21.541  23.709  1.00  0.00    -0.376 OA
BRANCH  71  72
ATOM     72  C   UNL A   1      44.514  22.954  23.876  1.00  0.00     0.202 C 
BRANCH  72  73
ATOM     73  C   UNL A   1      44.214  23.495  25.275  1.00  0.00     0.261 C 
BRANCH  73  74
ATOM     74  O   UNL A   1      45.083  24.532  25.760  1.00  0.00    -0.460 OA
BRANCH  74  75
ATOM     75  C   UNL A   1      46.353  24.119  26.008  1.00  0.00     0.338 C 
ATOM     76  O   UNL A   1      46.853  23.057  25.673  1.00  0.00    -0.246 OA
BRANCH  75  77
ATOM     77  C   UNL A   1      47.081  25.090  26.844  1.00  0.00     0.067 A 
ATOM     78  C   UNL A   1      47.205  24.829  28.210  1.00  0.00     0.016 A 
ATOM     79  C   UNL A   1      47.479  26.329  26.304  1.00  0.00    -0.010 A 
ATOM     80  C   UNL A   1      47.715  25.817  29.052  1.00  0.00     0.001 A 
ATOM     81  C   UNL A   1      47.917  27.333  27.170  1.00  0.00     0.009 A 
ATOM     82  C   UNL A   1      48.044  27.073  28.538  1.00  0.00     0.001 A 
BRANCH  79  83
ATOM     83  C   UNL A   1      47.559  26.523  24.853  1.00  0.00     0.030 C 
ATOM     84  C   UNL A   1      48.677  26.751  24.154  1.00  0.00     0.081 C 
ATOM     85  S   UNL A   1      50.309  26.620  24.656  1.00  0.00    -0.054 SA
ATOM     86  C   UNL A   1      48.588  27.432  22.841  1.00  0.00     0.266 C 
ATOM     87  C   UNL A   1      50.894  27.548  23.281  1.00  0.00     0.148 C 
ATOM     88  N   UNL A   1      49.847  27.828  22.427  1.00  0.00    -0.288 N 
ATOM     89  O   UNL A   1      47.530  27.721  22.296  1.00  0.00    -0.268 OA
ATOM     90  S   UNL A   1      52.493  28.009  23.142  1.00  0.00    -0.052 S 
BRANCH  88  91
ATOM     91  C   UNL A   1      49.964  28.501  21.137  1.00  0.00     0.163 C 
BRANCH  91  92
ATOM     92  C   UNL A   1      50.573  27.562  20.123  1.00  0.00    -0.028 A 
ATOM     93  C   UNL A   1      51.655  27.970  19.331  1.00  0.00     0.005 A 
ATOM     94  C   UNL A   1      50.152  26.224  20.061  1.00  0.00     0.005 A 
ATOM     95  C   UNL A   1      52.326  27.049  18.527  1.00  0.00     0.000 A 
ATOM     96  C   UNL A   1      50.829  25.305  19.262  1.00  0.00     0.000 A 
ATOM     97  C   UNL A   1      51.921  25.716  18.502  1.00  0.00     0.000 A 
ENDBRANCH  91  92
ENDBRANCH  88  91
ENDBRANCH  79  83
ENDBRANCH  75  77
ENDBRANCH  74  75
ENDBRANCH  73  74
ENDBRANCH  72  73
ENDBRANCH  71  72
ENDBRANCH  70  71
ENDBRANCH   1  70
TORSDOF 23
ENDMDL
MODEL 3
REMARK VINA RESULT:      -7.1      9.298     15.844
REMARK SMILES O=C(OCCOCCOCCOC(=O)c1ccccc1/C=C1\SC(=S)N(Cc2ccccc2)C1=O)c1ccc(-c2c3nc(c(-c4ccc(S(=O)(=O)[O-])cc4)c4ccc([nH]4)c(-c4ccc(S(=O)(=O)[O-])cc4)c4nc(c(-c5ccc(S(=O)(=O)[O-])cc5)c5ccc2[nH]5)C=C4)C=C3)cc1
REMARK SMILES IDX 7 1 6 2 5 3 4 4 3 5 2 6 1 7 36 8 37 9 95 10 38 11 94 12
REMARK SMILES IDX 39 13 40 14 41 15 88 16 42 17 93 18 87 19 89 20 43 21 92 22
REMARK SMILES IDX 86 23 85 24 44 26 74 27 55 28 73 29 56 30 59 31 72 32 90 33
REMARK SMILES IDX 57 34 58 35 71 37 91 38 60 39 45 40 46 41 54 42 47 43 53 44
REMARK SMILES IDX 48 45 49 46 50 47 51 48 52 49 75 50 76 51 84 52 77 53 83 54
REMARK SMILES IDX 78 55 79 56 80 57 81 58 82 59 61 60 62 61 70 62 63 63 69 64
REMARK SMILES IDX 64 65 65 66 66 67 67 68 68 69 8 70 9 71 10 72 11 73 12 74
REMARK SMILES IDX 13 75 14 76 15 77 16 78 20 79 17 80 19 81 18 82 21 83 22 84
REMARK SMILES IDX 23 85 34 86 24 87 26 88 35 89 25 90 27 91 28 92 29 93 33 94
REMARK SMILES IDX 30 95 32 96 31 97
REMARK H PARENT 89 25 59 36
REMARK Flexibility Score: inf
ROOT
ATOM      1  C   UNL A   1      45.836  42.703  30.227  1.00  0.00     0.188 C 
ENDROOT
BRANCH   1   2
ATOM      2  O   UNL A   1      45.027  43.881  30.320  1.00  0.00    -0.376 OA
BRANCH   2   3
ATOM      3  C   UNL A   1      44.197  43.918  31.480  1.00  0.00     0.202 C 
BRANCH   3   4
ATOM      4  C   UNL A   1      44.864  43.336  32.731  1.00  0.00     0.261 C 
BRANCH   4   5
ATOM      5  O   UNL A   1      43.909  42.701  33.598  1.00  0.00    -0.460 OA
BRANCH   5   6
ATOM      6  C   UNL A   1      43.045  41.703  33.276  1.00  0.00     0.338 C 
ATOM      7  O   UNL A   1      41.857  41.828  33.564  1.00  0.00    -0.246 OA
BRANCH   6   8
ATOM      8  C   UNL A   1      43.458  40.491  32.508  1.00  0.00     0.060 A 
ATOM      9  C   UNL A   1      43.191  40.284  31.154  1.00  0.00     0.016 A 
ATOM     10  C   UNL A   1      44.232  39.533  33.185  1.00  0.00     0.016 A 
ATOM     11  C   UNL A   1      43.562  39.100  30.521  1.00  0.00     0.010 A 
ATOM     12  C   UNL A   1      44.673  38.376  32.533  1.00  0.00     0.010 A 
ATOM     13  C   UNL A   1      44.309  38.135  31.202  1.00  0.00    -0.014 A 
BRANCH  13  14
ATOM     14  C   UNL A   1      44.663  36.871  30.518  1.00  0.00     0.031 A 
ATOM     15  C   UNL A   1      43.797  35.659  30.703  1.00  0.00     0.074 A 
ATOM     16  C   UNL A   1      45.711  36.828  29.672  1.00  0.00     0.049 A 
ATOM     17  N   UNL A   1      43.964  34.451  30.234  1.00  0.00    -0.248 NA
ATOM     18  C   UNL A   1      42.572  35.835  31.500  1.00  0.00     0.031 C 
ATOM     19  C   UNL A   1      46.565  37.967  29.331  1.00  0.00     0.029 A 
ATOM     20  N   UNL A   1      46.228  35.793  28.934  1.00  0.00    -0.354 N 
ATOM     21  C   UNL A   1      42.874  33.719  30.686  1.00  0.00     0.074 A 
ATOM     22  C   UNL A   1      42.058  34.613  31.480  1.00  0.00     0.031 C 
ATOM     23  C   UNL A   1      47.490  37.566  28.446  1.00  0.00     0.029 A 
ATOM     24  C   UNL A   1      47.355  36.136  28.227  1.00  0.00     0.049 A 
ATOM     25  H   UNL A   1      45.832  34.892  28.914  1.00  0.00     0.167 HD
ATOM     26  C   UNL A   1      42.577  32.421  30.451  1.00  0.00     0.031 A 
ATOM     27  C   UNL A   1      48.221  35.386  27.519  1.00  0.00     0.031 A 
ATOM     28  C   UNL A   1      43.394  31.541  29.661  1.00  0.00     0.049 A 
ATOM     29  C   UNL A   1      47.949  33.918  27.391  1.00  0.00     0.074 A 
ATOM     30  C   UNL A   1      43.189  30.204  29.372  1.00  0.00     0.029 A 
ATOM     31  N   UNL A   1      44.578  31.909  29.041  1.00  0.00    -0.354 N 
ATOM     32  N   UNL A   1      46.924  33.236  27.843  1.00  0.00    -0.248 NA
ATOM     33  C   UNL A   1      48.942  33.118  26.665  1.00  0.00     0.031 C 
ATOM     34  C   UNL A   1      44.275  29.751  28.614  1.00  0.00     0.029 A 
ATOM     35  C   UNL A   1      45.134  30.818  28.397  1.00  0.00     0.049 A 
ATOM     36  H   UNL A   1      44.966  32.813  29.056  1.00  0.00     0.167 HD
ATOM     37  C   UNL A   1      47.141  31.926  27.443  1.00  0.00     0.074 A 
ATOM     38  C   UNL A   1      48.386  31.914  26.701  1.00  0.00     0.031 C 
ATOM     39  C   UNL A   1      46.377  30.832  27.671  1.00  0.00     0.031 A 
BRANCH  26  40
ATOM     40  C   UNL A   1      41.338  31.872  31.096  1.00  0.00    -0.014 A 
ATOM     41  C   UNL A   1      41.381  31.283  32.371  1.00  0.00     0.010 A 
ATOM     42  C   UNL A   1      40.109  31.962  30.419  1.00  0.00     0.010 A 
ATOM     43  C   UNL A   1      40.217  30.767  32.948  1.00  0.00     0.020 A 
ATOM     44  C   UNL A   1      38.940  31.464  31.000  1.00  0.00     0.020 A 
ATOM     45  C   UNL A   1      39.005  30.857  32.256  1.00  0.00     0.054 A 
BRANCH  45  46
ATOM     46  S   UNL A   1      37.505  30.197  33.034  1.00  0.00     0.124 S 
ATOM     47  O   UNL A   1      38.004  29.780  34.342  1.00  0.00    -0.237 OA
ATOM     48  O   UNL A   1      36.611  31.352  33.041  1.00  0.00    -0.237 OA
ATOM     49  O   UNL A   1      37.105  29.108  32.144  1.00  0.00    -0.744 OA
ENDBRANCH  45  46
ENDBRANCH  26  40
BRANCH  27  50
ATOM     50  C   UNL A   1      49.467  35.992  26.973  1.00  0.00    -0.014 A 
ATOM     51  C   UNL A   1      49.515  36.520  25.673  1.00  0.00     0.010 A 
ATOM     52  C   UNL A   1      50.629  36.026  27.769  1.00  0.00     0.010 A 
ATOM     53  C   UNL A   1      50.710  37.049  25.170  1.00  0.00     0.020 A 
ATOM     54  C   UNL A   1      51.817  36.574  27.278  1.00  0.00     0.020 A 
ATOM     55  C   UNL A   1      51.854  37.067  25.974  1.00  0.00     0.054 A 
BRANCH  55  56
ATOM     56  S   UNL A   1      53.389  37.775  25.316  1.00  0.00     0.124 S 
ATOM     57  O   UNL A   1      53.285  39.167  25.741  1.00  0.00    -0.237 OA
ATOM     58  O   UNL A   1      54.417  36.982  25.984  1.00  0.00    -0.237 OA
ATOM     59  O   UNL A   1      53.273  37.546  23.877  1.00  0.00    -0.744 OA
ENDBRANCH  55  56
ENDBRANCH  27  50
BRANCH  39  60
ATOM     60  C   UNL A   1      46.863  29.537  27.092  1.00  0.00    -0.014 A 
ATOM     61  C   UNL A   1      46.473  29.137  25.803  1.00  0.00     0.010 A 
ATOM     62  C   UNL A   1      47.749  28.735  27.830  1.00  0.00     0.010 A 
ATOM     63  C   UNL A   1      46.947  27.937  25.268  1.00  0.00     0.020 A 
ATOM     64  C   UNL A   1      48.242  27.546  27.291  1.00  0.00     0.020 A 
ATOM     65  C   UNL A   1      47.827  27.149  26.017  1.00  0.00     0.054 A 
BRANCH  65  66
ATOM     66  S   UNL A   1      48.471  25.621  25.285  1.00  0.00     0.124 S 
ATOM     67  O   UNL A   1      47.815  25.611  23.980  1.00  0.00    -0.237 OA
ATOM     68  O   UNL A   1      49.913  25.856  25.262  1.00  0.00    -0.237 OA
ATOM     69  O   UNL A   1      48.031  24.583  26.214  1.00  0.00    -0.744 OA
ENDBRANCH  65  66
ENDBRANCH  39  60
ENDBRANCH  13  14
ENDBRANCH   6   8
ENDBRANCH   5   6
ENDBRANCH   4   5
ENDBRANCH   3   4
ENDBRANCH   2   3
ENDBRANCH   1   2
BRANCH   1  70
ATOM     70  C   UNL A   1      47.275  43.092  29.887  1.00  0.00     0.188 C 
BRANCH  70  71
ATOM     71  O   UNL A   1      47.541  43.188  28.485  1.00  0.00    -0.376 OA
BRANCH  71  72
ATOM     72  C   UNL A   1      48.201  42.083  27.873  1.00  0.00     0.202 C 
BRANCH  72  73
ATOM     73  C   UNL A   1      47.421  41.332  26.792  1.00  0.00     0.261 C 
BRANCH  73  74
ATOM     74  O   UNL A   1      46.017  41.142  27.031  1.00  0.00    -0.460 OA
BRANCH  74  75
ATOM     75  C   UNL A   1      45.378  40.444  26.057  1.00  0.00     0.338 C 
ATOM     76  O   UNL A   1      45.900  39.792  25.166  1.00  0.00    -0.246 OA
BRANCH  75  77
ATOM     77  C   UNL A   1      43.919  40.632  26.128  1.00  0.00     0.067 A 
ATOM     78  C   UNL A   1      43.183  39.802  26.977  1.00  0.00     0.016 A 
ATOM     79  C   UNL A   1      43.274  41.502  25.227  1.00  0.00    -0.010 A 
ATOM     80  C   UNL A   1      41.790  39.827  26.919  1.00  0.00     0.001 A 
ATOM     81  C   UNL A   1      41.882  41.461  25.129  1.00  0.00     0.009 A 
ATOM     82  C   UNL A   1      41.143  40.633  25.979  1.00  0.00     0.001 A 
BRANCH  79  83
ATOM     83  C   UNL A   1      44.032  42.526  24.501  1.00  0.00     0.030 C 
ATOM     84  C   UNL A   1      43.769  42.968  23.267  1.00  0.00     0.081 C 
ATOM     85  S   UNL A   1      42.383  42.702  22.298  1.00  0.00    -0.054 SA
ATOM     86  C   UNL A   1      44.855  43.577  22.465  1.00  0.00     0.266 C 
ATOM     87  C   UNL A   1      43.201  43.227  20.832  1.00  0.00     0.148 C 
ATOM     88  N   UNL A   1      44.461  43.695  21.144  1.00  0.00    -0.288 N 
ATOM     89  O   UNL A   1      45.980  43.796  22.899  1.00  0.00    -0.268 OA
ATOM     90  S   UNL A   1      42.488  43.098  19.328  1.00  0.00    -0.052 S 
BRANCH  88  91
ATOM     91  C   UNL A   1      45.397  44.297  20.200  1.00  0.00     0.163 C 
BRANCH  91  92
ATOM     92  C   UNL A   1      45.064  45.758  20.010  1.00  0.00    -0.028 A 
ATOM     93  C   UNL A   1      45.565  46.724  20.893  1.00  0.00     0.005 A 
ATOM     94  C   UNL A   1      44.365  46.178  18.868  1.00  0.00     0.005 A 
ATOM     95  C   UNL A   1      45.405  48.082  20.615  1.00  0.00     0.000 A 
ATOM     96  C   UNL A   1      44.212  47.534  18.590  1.00  0.00     0.000 A 
ATOM     97  C   UNL A   1      44.740  48.486  19.459  1.00  0.00     0.000 A 
ENDBRANCH  91  92
ENDBRANCH  88  91
ENDBRANCH  79  83
ENDBRANCH  75  77
ENDBRANCH  74  75
ENDBRANCH  73  74
ENDBRANCH  72  73
ENDBRANCH  71  72
ENDBRANCH  70  71
ENDBRANCH   1  70
TORSDOF 23
ENDMDL
