MODEL 1
REMARK VINA RESULT:      -9.5      0.000      0.000
REMARK SMILES Cn1ccc(C(=O)NCc2ccc(C(=O)OCCOCCOCCOC(=O)c3ccc(-c4c5nc(c(-c6ccc(S(=O)(=O)[O-])cc6)c6ccc([nH]6)c(-c6ccc(S(=O)(=O)[O-])cc6)c6nc(c(-c7ccc(S(=O)(=O)[O-])cc7)c7ccc4[nH]7)C=C6)C=C5)cc3)cc2)cc1=O
REMARK SMILES IDX 20 1 19 2 18 3 17 4 16 5 14 6 15 7 13 8 10 9 11 10 89 11
REMARK SMILES IDX 12 12 88 13 9 14 8 15 6 16 7 17 5 19 1 20 2 21 3 22 91 23
REMARK SMILES IDX 4 24 90 25 92 26 21 27 22 28 23 29 24 30 25 31 26 32 27 33
REMARK SMILES IDX 28 34 29 35 87 36 30 37 86 38 31 39 32 40 33 41 80 42 34 43
REMARK SMILES IDX 85 44 79 45 81 46 35 47 84 48 78 49 77 50 36 52 66 53 47 54
REMARK SMILES IDX 65 55 48 56 51 57 64 58 82 59 49 60 50 61 63 63 83 64 52 65
REMARK SMILES IDX 37 66 38 67 46 68 39 69 45 70 40 71 41 72 42 73 43 74 44 75
REMARK SMILES IDX 67 76 68 77 76 78 69 79 75 80 70 81 71 82 72 83 73 84 74 85
REMARK SMILES IDX 53 86 54 87 62 88 55 89 61 90 56 91 57 92 58 93 59 94 60 95
REMARK H PARENT 8 18 81 51 51 62
REMARK Flexibility Score: inf
ROOT
ATOM      1  C   UNL A   1      37.046  23.486  26.118  1.00  0.00     0.188 C 
ENDROOT
BRANCH   1   2
ATOM      2  O   UNL A   1      36.364  24.101  25.047  1.00  0.00    -0.376 OA
BRANCH   2   3
ATOM      3  C   UNL A   1      34.949  24.145  25.008  1.00  0.00     0.202 C 
BRANCH   3   4
ATOM      4  C   UNL A   1      34.016  23.039  25.528  1.00  0.00     0.261 C 
BRANCH   4   5
ATOM      5  O   UNL A   1      33.113  22.463  24.582  1.00  0.00    -0.460 OA
BRANCH   5   6
ATOM      6  C   UNL A   1      31.834  22.314  25.028  1.00  0.00     0.338 C 
ATOM      7  O   UNL A   1      31.386  21.384  25.657  1.00  0.00    -0.246 OA
BRANCH   6   8
ATOM      8  C   UNL A   1      31.079  23.565  24.779  1.00  0.00     0.060 A 
ATOM      9  C   UNL A   1      29.639  25.913  24.209  1.00  0.00    -0.029 A 
ATOM     10  C   UNL A   1      30.073  25.076  23.172  1.00  0.00     0.006 A 
ATOM     11  C   UNL A   1      29.897  25.526  25.538  1.00  0.00     0.006 A 
ATOM     12  C   UNL A   1      30.802  23.915  23.453  1.00  0.00     0.016 A 
ATOM     13  C   UNL A   1      30.616  24.362  25.824  1.00  0.00     0.016 A 
BRANCH   9  14
ATOM     14  C   UNL A   1      28.868  27.174  23.879  1.00  0.00     0.152 C 
BRANCH  14  15
ATOM     15  N   UNL A   1      29.526  27.965  22.858  1.00  0.00    -0.348 N 
ATOM     16  C   UNL A   1      30.573  28.824  22.849  1.00  0.00     0.251 C 
ATOM     17  O   UNL A   1      30.758  29.432  21.787  1.00  0.00    -0.269 OA
ATOM     18  H   UNL A   1      29.119  27.853  21.969  1.00  0.00     0.164 HD
BRANCH  16  19
ATOM     19  C   UNL A   1      31.537  29.028  23.986  1.00  0.00     0.046 A 
ATOM     20  C   UNL A   1      34.451  29.105  27.094  1.00  0.00     0.153 C 
ATOM     21  N   UNL A   1      33.468  29.118  26.022  1.00  0.00    -0.319 N 
ATOM     22  C   UNL A   1      33.649  28.275  24.946  1.00  0.00     0.089 A 
ATOM     23  C   UNL A   1      32.381  29.980  26.102  1.00  0.00     0.251 A 
ATOM     24  C   UNL A   1      32.747  28.211  23.963  1.00  0.00     0.032 A 
ATOM     25  C   UNL A   1      31.403  29.920  24.979  1.00  0.00     0.085 A 
ATOM     26  O   UNL A   1      32.173  30.763  27.025  1.00  0.00    -0.269 OA
ENDBRANCH  16  19
ENDBRANCH  14  15
ENDBRANCH   9  14
ENDBRANCH   6   8
ENDBRANCH   5   6
ENDBRANCH   4   5
ENDBRANCH   3   4
ENDBRANCH   2   3
ENDBRANCH   1   2
BRANCH   1  27
ATOM     27  C   UNL A   1      38.579  23.622  26.217  1.00  0.00     0.188 C 
BRANCH  27  28
ATOM     28  O   UNL A   1      39.390  22.487  26.429  1.00  0.00    -0.376 OA
BRANCH  28  29
ATOM     29  C   UNL A   1      39.056  21.247  25.831  1.00  0.00     0.202 C 
BRANCH  29  30
ATOM     30  C   UNL A   1      39.773  19.918  26.123  1.00  0.00     0.261 C 
BRANCH  30  31
ATOM     31  O   UNL A   1      40.978  19.651  25.401  1.00  0.00    -0.460 OA
BRANCH  31  32
ATOM     32  C   UNL A   1      42.112  19.672  26.145  1.00  0.00     0.338 C 
ATOM     33  O   UNL A   1      42.841  18.731  26.407  1.00  0.00    -0.246 OA
BRANCH  32  34
ATOM     34  C   UNL A   1      42.450  21.069  26.469  1.00  0.00     0.060 A 
ATOM     35  C   UNL A   1      42.651  21.971  25.416  1.00  0.00     0.016 A 
ATOM     36  C   UNL A   1      42.616  21.472  27.794  1.00  0.00     0.016 A 
ATOM     37  C   UNL A   1      43.035  23.284  25.687  1.00  0.00     0.010 A 
ATOM     38  C   UNL A   1      43.022  22.782  28.062  1.00  0.00     0.010 A 
ATOM     39  C   UNL A   1      43.257  23.686  27.010  1.00  0.00    -0.014 A 
BRANCH  39  40
ATOM     40  C   UNL A   1      43.882  25.002  27.288  1.00  0.00     0.031 A 
ATOM     41  C   UNL A   1      43.022  26.104  27.845  1.00  0.00     0.074 A 
ATOM     42  C   UNL A   1      45.189  25.216  27.047  1.00  0.00     0.049 A 
ATOM     43  N   UNL A   1      43.335  27.349  28.095  1.00  0.00    -0.248 NA
ATOM     44  C   UNL A   1      41.625  25.759  28.157  1.00  0.00     0.031 C 
ATOM     45  C   UNL A   1      46.132  24.217  26.544  1.00  0.00     0.029 A 
ATOM     46  N   UNL A   1      45.943  26.354  27.180  1.00  0.00    -0.354 N 
ATOM     47  C   UNL A   1      42.172  27.940  28.575  1.00  0.00     0.074 A 
ATOM     48  C   UNL A   1      41.144  26.923  28.569  1.00  0.00     0.031 C 
ATOM     49  C   UNL A   1      47.336  24.795  26.390  1.00  0.00     0.029 A 
ATOM     50  C   UNL A   1      47.240  26.210  26.746  1.00  0.00     0.049 A 
ATOM     51  H   UNL A   1      45.589  27.195  27.551  1.00  0.00     0.167 HD
ATOM     52  C   UNL A   1      41.978  29.217  28.981  1.00  0.00     0.031 A 
ATOM     53  C   UNL A   1      48.225  27.123  26.618  1.00  0.00     0.031 A 
ATOM     54  C   UNL A   1      43.002  30.227  28.981  1.00  0.00     0.049 A 
ATOM     55  C   UNL A   1      47.964  28.554  27.019  1.00  0.00     0.074 A 
ATOM     56  C   UNL A   1      42.909  31.541  29.408  1.00  0.00     0.029 A 
ATOM     57  N   UNL A   1      44.297  30.046  28.523  1.00  0.00    -0.354 N 
ATOM     58  N   UNL A   1      46.872  29.087  27.515  1.00  0.00    -0.248 NA
ATOM     59  C   UNL A   1      49.072  29.506  26.850  1.00  0.00     0.031 C 
ATOM     60  C   UNL A   1      44.129  32.171  29.148  1.00  0.00     0.029 A 
ATOM     61  C   UNL A   1      45.003  31.233  28.625  1.00  0.00     0.049 A 
ATOM     62  H   UNL A   1      44.661  29.199  28.177  1.00  0.00     0.167 HD
ATOM     63  C   UNL A   1      47.173  30.426  27.744  1.00  0.00     0.074 A 
ATOM     64  C   UNL A   1      48.553  30.619  27.349  1.00  0.00     0.031 C 
ATOM     65  C   UNL A   1      46.379  31.409  28.238  1.00  0.00     0.031 A 
BRANCH  52  66
ATOM     66  C   UNL A   1      40.597  29.613  29.427  1.00  0.00    -0.014 A 
ATOM     67  C   UNL A   1      39.544  29.759  28.509  1.00  0.00     0.010 A 
ATOM     68  C   UNL A   1      40.335  29.764  30.802  1.00  0.00     0.010 A 
ATOM     69  C   UNL A   1      38.254  30.063  28.956  1.00  0.00     0.020 A 
ATOM     70  C   UNL A   1      39.042  30.042  31.255  1.00  0.00     0.020 A 
ATOM     71  C   UNL A   1      38.011  30.197  30.327  1.00  0.00     0.054 A 
BRANCH  71  72
ATOM     72  S   UNL A   1      36.317  30.531  30.880  1.00  0.00     0.124 S 
ATOM     73  O   UNL A   1      35.992  31.749  30.141  1.00  0.00    -0.237 OA
ATOM     74  O   UNL A   1      35.602  29.329  30.458  1.00  0.00    -0.237 OA
ATOM     75  O   UNL A   1      36.449  30.698  32.326  1.00  0.00    -0.744 OA
ENDBRANCH  71  72
ENDBRANCH  52  66
BRANCH  53  76
ATOM     76  C   UNL A   1      49.542  26.730  26.039  1.00  0.00    -0.014 A 
ATOM     77  C   UNL A   1      50.567  26.219  26.854  1.00  0.00     0.010 A 
ATOM     78  C   UNL A   1      49.789  26.906  24.665  1.00  0.00     0.010 A 
ATOM     79  C   UNL A   1      51.824  25.924  26.313  1.00  0.00     0.020 A 
ATOM     80  C   UNL A   1      51.032  26.584  24.115  1.00  0.00     0.020 A 
ATOM     81  C   UNL A   1      52.048  26.112  24.946  1.00  0.00     0.054 A 
BRANCH  81  82
ATOM     82  S   UNL A   1      53.680  25.711  24.262  1.00  0.00     0.124 S 
ATOM     83  O   UNL A   1      53.837  24.314  24.652  1.00  0.00    -0.237 OA
ATOM     84  O   UNL A   1      53.493  25.953  22.834  1.00  0.00    -0.237 OA
ATOM     85  O   UNL A   1      54.573  26.653  24.934  1.00  0.00    -0.744 OA
ENDBRANCH  81  82
ENDBRANCH  53  76
BRANCH  65  86
ATOM     86  C   UNL A   1      46.989  32.775  28.428  1.00  0.00    -0.014 A 
ATOM     87  C   UNL A   1      47.002  33.724  27.391  1.00  0.00     0.010 A 
ATOM     88  C   UNL A   1      47.494  33.135  29.692  1.00  0.00     0.010 A 
ATOM     89  C   UNL A   1      47.537  34.998  27.606  1.00  0.00     0.020 A 
ATOM     90  C   UNL A   1      48.001  34.417  29.918  1.00  0.00     0.020 A 
ATOM     91  C   UNL A   1      48.032  35.337  28.869  1.00  0.00     0.054 A 
BRANCH  91  92
ATOM     92  S   UNL A   1      48.678  37.011  29.134  1.00  0.00     0.124 S 
ATOM     93  O   UNL A   1      47.465  37.759  29.453  1.00  0.00    -0.237 OA
ATOM     94  O   UNL A   1      49.610  36.822  30.243  1.00  0.00    -0.237 OA
ATOM     95  O   UNL A   1      49.300  37.350  27.857  1.00  0.00    -0.744 OA
ENDBRANCH  91  92
ENDBRANCH  65  86
ENDBRANCH  39  40
ENDBRANCH  32  34
ENDBRANCH  31  32
ENDBRANCH  30  31
ENDBRANCH  29  30
ENDBRANCH  28  29
ENDBRANCH  27  28
ENDBRANCH   1  27
TORSDOF 23
ENDMDL
MODEL 2
REMARK VINA RESULT:      -9.3      4.818     10.449
REMARK SMILES Cn1ccc(C(=O)NCc2ccc(C(=O)OCCOCCOCCOC(=O)c3ccc(-c4c5nc(c(-c6ccc(S(=O)(=O)[O-])cc6)c6ccc([nH]6)c(-c6ccc(S(=O)(=O)[O-])cc6)c6nc(c(-c7ccc(S(=O)(=O)[O-])cc7)c7ccc4[nH]7)C=C6)C=C5)cc3)cc2)cc1=O
REMARK SMILES IDX 20 1 19 2 18 3 17 4 16 5 14 6 15 7 13 8 10 9 11 10 89 11
REMARK SMILES IDX 12 12 88 13 9 14 8 15 6 16 7 17 5 19 1 20 2 21 3 22 91 23
REMARK SMILES IDX 4 24 90 25 92 26 21 27 22 28 23 29 24 30 25 31 26 32 27 33
REMARK SMILES IDX 28 34 29 35 87 36 30 37 86 38 31 39 32 40 33 41 80 42 34 43
REMARK SMILES IDX 85 44 79 45 81 46 35 47 84 48 78 49 77 50 36 52 66 53 47 54
REMARK SMILES IDX 65 55 48 56 51 57 64 58 82 59 49 60 50 61 63 63 83 64 52 65
REMARK SMILES IDX 37 66 38 67 46 68 39 69 45 70 40 71 41 72 42 73 43 74 44 75
REMARK SMILES IDX 67 76 68 77 76 78 69 79 75 80 70 81 71 82 72 83 73 84 74 85
REMARK SMILES IDX 53 86 54 87 62 88 55 89 61 90 56 91 57 92 58 93 59 94 60 95
REMARK H PARENT 8 18 81 51 51 62
REMARK Flexibility Score: inf
ROOT
ATOM      1  C   UNL A   1      39.261  31.761  35.822  1.00  0.00     0.188 C 
ENDROOT
BRANCH   1   2
ATOM      2  O   UNL A   1      39.242  33.123  35.459  1.00  0.00    -0.376 OA
BRANCH   2   3
ATOM      3  C   UNL A   1      39.849  33.570  34.260  1.00  0.00     0.202 C 
BRANCH   3   4
ATOM      4  C   UNL A   1      41.365  33.651  34.014  1.00  0.00     0.261 C 
BRANCH   4   5
ATOM      5  O   UNL A   1      41.785  34.032  32.702  1.00  0.00    -0.460 OA
BRANCH   5   6
ATOM      6  C   UNL A   1      41.754  33.030  31.779  1.00  0.00     0.338 C 
ATOM      7  O   UNL A   1      42.481  32.066  31.726  1.00  0.00    -0.246 OA
BRANCH   6   8
ATOM      8  C   UNL A   1      40.561  33.196  30.915  1.00  0.00     0.060 A 
ATOM      9  C   UNL A   1      38.330  33.601  29.250  1.00  0.00    -0.029 A 
ATOM     10  C   UNL A   1      39.233  34.645  29.495  1.00  0.00     0.006 A 
ATOM     11  C   UNL A   1      38.592  32.339  29.816  1.00  0.00     0.006 A 
ATOM     12  C   UNL A   1      40.335  34.449  30.334  1.00  0.00     0.016 A 
ATOM     13  C   UNL A   1      39.697  32.135  30.647  1.00  0.00     0.016 A 
BRANCH   9  14
ATOM     14  C   UNL A   1      37.134  33.843  28.353  1.00  0.00     0.152 C 
BRANCH  14  15
ATOM     15  N   UNL A   1      36.034  32.950  28.656  1.00  0.00    -0.348 N 
ATOM     16  C   UNL A   1      35.059  32.926  29.595  1.00  0.00     0.251 C 
ATOM     17  O   UNL A   1      34.366  31.901  29.624  1.00  0.00    -0.269 OA
ATOM     18  H   UNL A   1      35.983  32.186  28.037  1.00  0.00     0.164 HD
BRANCH  16  19
ATOM     19  C   UNL A   1      34.728  34.058  30.530  1.00  0.00     0.046 A 
ATOM     20  C   UNL A   1      33.600  37.523  32.738  1.00  0.00     0.153 C 
ATOM     21  N   UNL A   1      33.968  36.316  32.014  1.00  0.00    -0.319 N 
ATOM     22  C   UNL A   1      33.346  36.048  30.814  1.00  0.00     0.089 A 
ATOM     23  C   UNL A   1      34.924  35.463  32.551  1.00  0.00     0.251 A 
ATOM     24  C   UNL A   1      33.687  34.980  30.087  1.00  0.00     0.032 A 
ATOM     25  C   UNL A   1      35.267  34.259  31.741  1.00  0.00     0.085 A 
ATOM     26  O   UNL A   1      35.502  35.640  33.620  1.00  0.00    -0.269 OA
ENDBRANCH  16  19
ENDBRANCH  14  15
ENDBRANCH   9  14
ENDBRANCH   6   8
ENDBRANCH   5   6
ENDBRANCH   4   5
ENDBRANCH   3   4
ENDBRANCH   2   3
ENDBRANCH   1   2
BRANCH   1  27
ATOM     27  C   UNL A   1      38.236  30.795  35.192  1.00  0.00     0.188 C 
BRANCH  27  28
ATOM     28  O   UNL A   1      38.187  30.612  33.793  1.00  0.00    -0.376 OA
BRANCH  28  29
ATOM     29  C   UNL A   1      37.051  31.031  33.057  1.00  0.00     0.202 C 
BRANCH  29  30
ATOM     30  C   UNL A   1      36.490  30.295  31.828  1.00  0.00     0.261 C 
BRANCH  30  31
ATOM     31  O   UNL A   1      37.301  29.269  31.252  1.00  0.00    -0.460 OA
BRANCH  31  32
ATOM     32  C   UNL A   1      37.193  29.138  29.906  1.00  0.00     0.338 C 
ATOM     33  O   UNL A   1      36.204  29.338  29.221  1.00  0.00    -0.246 OA
BRANCH  32  34
ATOM     34  C   UNL A   1      38.527  28.875  29.339  1.00  0.00     0.060 A 
ATOM     35  C   UNL A   1      39.537  28.407  30.190  1.00  0.00     0.016 A 
ATOM     36  C   UNL A   1      38.792  29.134  27.994  1.00  0.00     0.016 A 
ATOM     37  C   UNL A   1      40.827  28.209  29.698  1.00  0.00     0.010 A 
ATOM     38  C   UNL A   1      40.090  28.957  27.509  1.00  0.00     0.010 A 
ATOM     39  C   UNL A   1      41.118  28.518  28.363  1.00  0.00    -0.014 A 
BRANCH  39  40
ATOM     40  C   UNL A   1      42.526  28.528  27.897  1.00  0.00     0.031 A 
ATOM     41  C   UNL A   1      43.093  27.275  27.287  1.00  0.00     0.074 A 
ATOM     42  C   UNL A   1      43.289  29.630  28.017  1.00  0.00     0.049 A 
ATOM     43  N   UNL A   1      44.311  27.033  26.879  1.00  0.00    -0.248 NA
ATOM     44  C   UNL A   1      42.164  26.144  27.117  1.00  0.00     0.031 C 
ATOM     45  C   UNL A   1      42.843  30.915  28.556  1.00  0.00     0.029 A 
ATOM     46  N   UNL A   1      44.610  29.837  27.705  1.00  0.00    -0.354 N 
ATOM     47  C   UNL A   1      44.302  25.720  26.423  1.00  0.00     0.074 A 
ATOM     48  C   UNL A   1      42.962  25.212  26.616  1.00  0.00     0.031 C 
ATOM     49  C   UNL A   1      43.882  31.770  28.557  1.00  0.00     0.029 A 
ATOM     50  C   UNL A   1      45.071  31.084  28.056  1.00  0.00     0.049 A 
ATOM     51  H   UNL A   1      45.174  29.155  27.271  1.00  0.00     0.167 HD
ATOM     52  C   UNL A   1      45.320  25.001  25.895  1.00  0.00     0.031 A 
ATOM     53  C   UNL A   1      46.317  31.599  28.010  1.00  0.00     0.031 A 
ATOM     54  C   UNL A   1      46.653  25.508  25.708  1.00  0.00     0.049 A 
ATOM     55  C   UNL A   1      47.447  30.754  27.474  1.00  0.00     0.074 A 
ATOM     56  C   UNL A   1      47.743  24.865  25.148  1.00  0.00     0.029 A 
ATOM     57  N   UNL A   1      47.084  26.769  26.087  1.00  0.00    -0.354 N 
ATOM     58  N   UNL A   1      47.412  29.529  27.005  1.00  0.00    -0.248 NA
ATOM     59  C   UNL A   1      48.785  31.365  27.456  1.00  0.00     0.031 C 
ATOM     60  C   UNL A   1      48.848  25.714  25.247  1.00  0.00     0.029 A 
ATOM     61  C   UNL A   1      48.431  26.912  25.804  1.00  0.00     0.049 A 
ATOM     62  H   UNL A   1      46.515  27.461  26.497  1.00  0.00     0.167 HD
ATOM     63  C   UNL A   1      48.715  29.238  26.608  1.00  0.00     0.074 A 
ATOM     64  C   UNL A   1      49.509  30.418  26.877  1.00  0.00     0.031 C 
ATOM     65  C   UNL A   1      49.209  28.096  26.068  1.00  0.00     0.031 A 
BRANCH  52  66
ATOM     66  C   UNL A   1      45.049  23.572  25.510  1.00  0.00    -0.014 A 
ATOM     67  C   UNL A   1      44.726  23.218  24.189  1.00  0.00     0.010 A 
ATOM     68  C   UNL A   1      45.201  22.558  26.474  1.00  0.00     0.010 A 
ATOM     69  C   UNL A   1      44.544  21.876  23.842  1.00  0.00     0.020 A 
ATOM     70  C   UNL A   1      45.046  21.214  26.126  1.00  0.00     0.020 A 
ATOM     71  C   UNL A   1      44.711  20.882  24.812  1.00  0.00     0.054 A 
BRANCH  71  72
ATOM     72  S   UNL A   1      44.530  19.147  24.318  1.00  0.00     0.124 S 
ATOM     73  O   UNL A   1      45.540  18.490  25.145  1.00  0.00    -0.237 OA
ATOM     74  O   UNL A   1      43.143  18.858  24.672  1.00  0.00    -0.237 OA
ATOM     75  O   UNL A   1      44.814  19.162  22.885  1.00  0.00    -0.744 OA
ENDBRANCH  71  72
ENDBRANCH  52  66
BRANCH  53  76
ATOM     76  C   UNL A   1      46.582  32.971  28.531  1.00  0.00    -0.014 A 
ATOM     77  C   UNL A   1      46.845  33.189  29.894  1.00  0.00     0.010 A 
ATOM     78  C   UNL A   1      46.531  34.076  27.661  1.00  0.00     0.010 A 
ATOM     79  C   UNL A   1      47.017  34.489  30.384  1.00  0.00     0.020 A 
ATOM     80  C   UNL A   1      46.734  35.373  28.141  1.00  0.00     0.020 A 
ATOM     81  C   UNL A   1      46.958  35.573  29.503  1.00  0.00     0.054 A 
BRANCH  81  82
ATOM     82  S   UNL A   1      47.198  37.248  30.157  1.00  0.00     0.124 S 
ATOM     83  O   UNL A   1      45.830  37.752  30.210  1.00  0.00    -0.237 OA
ATOM     84  O   UNL A   1      47.831  36.996  31.449  1.00  0.00    -0.237 OA
ATOM     85  O   UNL A   1      48.060  37.882  29.162  1.00  0.00    -0.744 OA
ENDBRANCH  81  82
ENDBRANCH  53  76
BRANCH  65  86
ATOM     86  C   UNL A   1      50.667  28.073  25.685  1.00  0.00    -0.014 A 
ATOM     87  C   UNL A   1      51.662  27.693  26.602  1.00  0.00     0.010 A 
ATOM     88  C   UNL A   1      51.036  28.372  24.360  1.00  0.00     0.010 A 
ATOM     89  C   UNL A   1      53.002  27.642  26.210  1.00  0.00     0.020 A 
ATOM     90  C   UNL A   1      52.372  28.293  23.956  1.00  0.00     0.020 A 
ATOM     91  C   UNL A   1      53.349  27.941  24.889  1.00  0.00     0.054 A 
BRANCH  91  92
ATOM     92  S   UNL A   1      55.090  27.822  24.393  1.00  0.00     0.124 S 
ATOM     93  O   UNL A   1      55.321  29.125  23.777  1.00  0.00    -0.237 OA
ATOM     94  O   UNL A   1      55.771  27.598  25.666  1.00  0.00    -0.237 OA
ATOM     95  O   UNL A   1      55.113  26.686  23.474  1.00  0.00    -0.744 OA
ENDBRANCH  91  92
ENDBRANCH  65  86
ENDBRANCH  39  40
ENDBRANCH  32  34
ENDBRANCH  31  32
ENDBRANCH  30  31
ENDBRANCH  29  30
ENDBRANCH  28  29
ENDBRANCH  27  28
ENDBRANCH   1  27
TORSDOF 23
ENDMDL
MODEL 3
REMARK VINA RESULT:      -9.3      5.891      8.468
REMARK SMILES Cn1ccc(C(=O)NCc2ccc(C(=O)OCCOCCOCCOC(=O)c3ccc(-c4c5nc(c(-c6ccc(S(=O)(=O)[O-])cc6)c6ccc([nH]6)c(-c6ccc(S(=O)(=O)[O-])cc6)c6nc(c(-c7ccc(S(=O)(=O)[O-])cc7)c7ccc4[nH]7)C=C6)C=C5)cc3)cc2)cc1=O
REMARK SMILES IDX 20 1 19 2 18 3 17 4 16 5 14 6 15 7 13 8 10 9 11 10 89 11
REMARK SMILES IDX 12 12 88 13 9 14 8 15 6 16 7 17 5 19 1 20 2 21 3 22 91 23
REMARK SMILES IDX 4 24 90 25 92 26 21 27 22 28 23 29 24 30 25 31 26 32 27 33
REMARK SMILES IDX 28 34 29 35 87 36 30 37 86 38 31 39 32 40 33 41 80 42 34 43
REMARK SMILES IDX 85 44 79 45 81 46 35 47 84 48 78 49 77 50 36 52 66 53 47 54
REMARK SMILES IDX 65 55 48 56 51 57 64 58 82 59 49 60 50 61 63 63 83 64 52 65
REMARK SMILES IDX 37 66 38 67 46 68 39 69 45 70 40 71 41 72 42 73 43 74 44 75
REMARK SMILES IDX 67 76 68 77 76 78 69 79 75 80 70 81 71 82 72 83 73 84 74 85
REMARK SMILES IDX 53 86 54 87 62 88 55 89 61 90 56 91 57 92 58 93 59 94 60 95
REMARK H PARENT 8 18 81 51 51 62
REMARK Flexibility Score: inf
ROOT
ATOM      1  C   UNL A   1      38.497  21.079  25.711  1.00  0.00     0.188 C 
ENDROOT
BRANCH   1   2
ATOM      2  O   UNL A   1      37.762  20.178  24.913  1.00  0.00    -0.376 OA
BRANCH   2   3
ATOM      3  C   UNL A   1      36.373  20.353  24.700  1.00  0.00     0.202 C 
BRANCH   3   4
ATOM      4  C   UNL A   1      35.275  19.405  25.211  1.00  0.00     0.261 C 
BRANCH   4   5
ATOM      5  O   UNL A   1      34.581  18.634  24.227  1.00  0.00    -0.460 OA
BRANCH   5   6
ATOM      6  C   UNL A   1      33.228  18.597  24.378  1.00  0.00     0.338 C 
ATOM      7  O   UNL A   1      32.559  17.649  24.716  1.00  0.00    -0.246 OA
BRANCH   6   8
ATOM      8  C   UNL A   1      32.680  19.967  24.233  1.00  0.00     0.060 A 
ATOM      9  C   UNL A   1      31.634  22.552  23.858  1.00  0.00    -0.029 A 
ATOM     10  C   UNL A   1      31.969  21.753  22.755  1.00  0.00     0.006 A 
ATOM     11  C   UNL A   1      31.788  22.012  25.150  1.00  0.00     0.006 A 
ATOM     12  C   UNL A   1      32.502  20.473  22.940  1.00  0.00     0.016 A 
ATOM     13  C   UNL A   1      32.311  20.731  25.339  1.00  0.00     0.016 A 
BRANCH   9  14
ATOM     14  C   UNL A   1      31.076  23.941  23.633  1.00  0.00     0.152 C 
BRANCH  14  15
ATOM     15  N   UNL A   1      30.468  24.487  24.830  1.00  0.00    -0.348 N 
ATOM     16  C   UNL A   1      29.979  25.700  25.179  1.00  0.00     0.251 C 
ATOM     17  O   UNL A   1      29.660  25.828  26.368  1.00  0.00    -0.269 OA
ATOM     18  H   UNL A   1      30.393  23.825  25.554  1.00  0.00     0.164 HD
BRANCH  16  19
ATOM     19  C   UNL A   1      29.740  26.844  24.232  1.00  0.00     0.046 A 
ATOM     20  C   UNL A   1      29.565  30.250  21.678  1.00  0.00     0.153 C 
ATOM     21  N   UNL A   1      29.608  29.064  22.519  1.00  0.00    -0.319 N 
ATOM     22  C   UNL A   1      30.835  28.542  22.865  1.00  0.00     0.089 A 
ATOM     23  C   UNL A   1      28.418  28.485  22.943  1.00  0.00     0.251 A 
ATOM     24  C   UNL A   1      30.928  27.486  23.678  1.00  0.00     0.032 A 
ATOM     25  C   UNL A   1      28.542  27.287  23.821  1.00  0.00     0.085 A 
ATOM     26  O   UNL A   1      27.297  28.895  22.657  1.00  0.00    -0.269 OA
ENDBRANCH  16  19
ENDBRANCH  14  15
ENDBRANCH   9  14
ENDBRANCH   6   8
ENDBRANCH   5   6
ENDBRANCH   4   5
ENDBRANCH   3   4
ENDBRANCH   2   3
ENDBRANCH   1   2
BRANCH   1  27
ATOM     27  C   UNL A   1      39.948  20.731  26.103  1.00  0.00     0.188 C 
BRANCH  27  28
ATOM     28  O   UNL A   1      40.670  21.556  26.993  1.00  0.00    -0.376 OA
BRANCH  28  29
ATOM     29  C   UNL A   1      41.946  22.053  26.631  1.00  0.00     0.202 C 
BRANCH  29  30
ATOM     30  C   UNL A   1      42.245  23.525  26.298  1.00  0.00     0.261 C 
BRANCH  30  31
ATOM     31  O   UNL A   1      41.127  24.401  26.141  1.00  0.00    -0.460 OA
BRANCH  31  32
ATOM     32  C   UNL A   1      41.440  25.714  26.000  1.00  0.00     0.338 C 
ATOM     33  O   UNL A   1      41.582  26.332  24.959  1.00  0.00    -0.246 OA
BRANCH  32  34
ATOM     34  C   UNL A   1      41.420  26.358  27.325  1.00  0.00     0.060 A 
ATOM     35  C   UNL A   1      40.384  26.035  28.211  1.00  0.00     0.016 A 
ATOM     36  C   UNL A   1      42.382  27.307  27.669  1.00  0.00     0.016 A 
ATOM     37  C   UNL A   1      40.300  26.675  29.448  1.00  0.00     0.010 A 
ATOM     38  C   UNL A   1      42.284  27.963  28.899  1.00  0.00     0.010 A 
ATOM     39  C   UNL A   1      41.230  27.668  29.783  1.00  0.00    -0.014 A 
BRANCH  39  40
ATOM     40  C   UNL A   1      41.013  28.507  30.986  1.00  0.00     0.031 A 
ATOM     41  C   UNL A   1      39.903  29.522  30.968  1.00  0.00     0.074 A 
ATOM     42  C   UNL A   1      41.791  28.371  32.077  1.00  0.00     0.049 A 
ATOM     43  N   UNL A   1      39.578  30.408  31.873  1.00  0.00    -0.248 NA
ATOM     44  C   UNL A   1      39.049  29.545  29.768  1.00  0.00     0.031 C 
ATOM     45  C   UNL A   1      42.873  27.398  32.230  1.00  0.00     0.029 A 
ATOM     46  N   UNL A   1      41.797  29.070  33.258  1.00  0.00    -0.354 N 
ATOM     47  C   UNL A   1      38.497  31.105  31.347  1.00  0.00     0.074 A 
ATOM     48  C   UNL A   1      38.229  30.550  30.039  1.00  0.00     0.031 C 
ATOM     49  C   UNL A   1      43.452  27.578  33.430  1.00  0.00     0.029 A 
ATOM     50  C   UNL A   1      42.810  28.701  34.112  1.00  0.00     0.049 A 
ATOM     51  H   UNL A   1      41.138  29.770  33.473  1.00  0.00     0.167 HD
ATOM     52  C   UNL A   1      37.794  32.119  31.902  1.00  0.00     0.031 A 
ATOM     53  C   UNL A   1      43.194  29.230  35.291  1.00  0.00     0.031 A 
ATOM     54  C   UNL A   1      38.067  32.672  33.202  1.00  0.00     0.049 A 
ATOM     55  C   UNL A   1      42.432  30.401  35.860  1.00  0.00     0.074 A 
ATOM     56  C   UNL A   1      37.385  33.679  33.865  1.00  0.00     0.029 A 
ATOM     57  N   UNL A   1      39.106  32.281  34.030  1.00  0.00    -0.354 N 
ATOM     58  N   UNL A   1      41.382  31.020  35.371  1.00  0.00    -0.248 NA
ATOM     59  C   UNL A   1      42.901  30.943  37.144  1.00  0.00     0.031 C 
ATOM     60  C   UNL A   1      38.052  33.939  35.065  1.00  0.00     0.029 A 
ATOM     61  C   UNL A   1      39.106  33.048  35.182  1.00  0.00     0.049 A 
ATOM     62  H   UNL A   1      39.750  31.563  33.828  1.00  0.00     0.167 HD
ATOM     63  C   UNL A   1      41.050  32.000  36.303  1.00  0.00     0.074 A 
ATOM     64  C   UNL A   1      41.999  31.882  37.391  1.00  0.00     0.031 C 
ATOM     65  C   UNL A   1      40.050  32.915  36.262  1.00  0.00     0.031 A 
BRANCH  52  66
ATOM     66  C   UNL A   1      36.678  32.729  31.097  1.00  0.00    -0.014 A 
ATOM     67  C   UNL A   1      35.336  32.384  31.327  1.00  0.00     0.010 A 
ATOM     68  C   UNL A   1      36.979  33.725  30.149  1.00  0.00     0.010 A 
ATOM     69  C   UNL A   1      34.313  33.014  30.611  1.00  0.00     0.020 A 
ATOM     70  C   UNL A   1      35.958  34.375  29.451  1.00  0.00     0.020 A 
ATOM     71  C   UNL A   1      34.631  34.010  29.682  1.00  0.00     0.054 A 
BRANCH  71  72
ATOM     72  S   UNL A   1      33.279  34.851  28.815  1.00  0.00     0.124 S 
ATOM     73  O   UNL A   1      33.995  35.887  28.073  1.00  0.00    -0.237 OA
ATOM     74  O   UNL A   1      32.705  33.780  28.004  1.00  0.00    -0.237 OA
ATOM     75  O   UNL A   1      32.424  35.339  29.894  1.00  0.00    -0.744 OA
ENDBRANCH  71  72
ENDBRANCH  52  66
BRANCH  53  76
ATOM     76  C   UNL A   1      44.392  28.694  36.000  1.00  0.00    -0.014 A 
ATOM     77  C   UNL A   1      45.681  29.170  35.704  1.00  0.00     0.010 A 
ATOM     78  C   UNL A   1      44.247  27.669  36.953  1.00  0.00     0.010 A 
ATOM     79  C   UNL A   1      46.804  28.607  36.321  1.00  0.00     0.020 A 
ATOM     80  C   UNL A   1      45.363  27.126  37.594  1.00  0.00     0.020 A 
ATOM     81  C   UNL A   1      46.637  27.586  37.261  1.00  0.00     0.054 A 
BRANCH  81  82
ATOM     82  S   UNL A   1      48.105  26.880  38.059  1.00  0.00     0.124 S 
ATOM     83  O   UNL A   1      47.516  26.099  39.141  1.00  0.00    -0.237 OA
ATOM     84  O   UNL A   1      48.712  26.107  36.978  1.00  0.00    -0.237 OA
ATOM     85  O   UNL A   1      48.865  28.055  38.477  1.00  0.00    -0.744 OA
ENDBRANCH  81  82
ENDBRANCH  53  76
BRANCH  65  86
ATOM     86  C   UNL A   1      39.891  33.835  37.446  1.00  0.00    -0.014 A 
ATOM     87  C   UNL A   1      40.536  35.083  37.498  1.00  0.00     0.010 A 
ATOM     88  C   UNL A   1      39.023  33.469  38.492  1.00  0.00     0.010 A 
ATOM     89  C   UNL A   1      40.341  35.935  38.589  1.00  0.00     0.020 A 
ATOM     90  C   UNL A   1      38.802  34.331  39.569  1.00  0.00     0.020 A 
ATOM     91  C   UNL A   1      39.473  35.554  39.617  1.00  0.00     0.054 A 
BRANCH  91  92
ATOM     92  S   UNL A   1      39.200  36.697  40.999  1.00  0.00     0.124 S 
ATOM     93  O   UNL A   1      38.103  36.054  41.715  1.00  0.00    -0.237 OA
ATOM     94  O   UNL A   1      40.491  36.686  41.684  1.00  0.00    -0.237 OA
ATOM     95  O   UNL A   1      38.862  37.959  40.345  1.00  0.00    -0.744 OA
ENDBRANCH  91  92
ENDBRANCH  65  86
ENDBRANCH  39  40
ENDBRANCH  32  34
ENDBRANCH  31  32
ENDBRANCH  30  31
ENDBRANCH  29  30
ENDBRANCH  28  29
ENDBRANCH  27  28
ENDBRANCH   1  27
TORSDOF 23
ENDMDL
