MODEL 1
REMARK VINA RESULT:      -9.6      0.000      0.000
REMARK SMILES CC(=O)Nc1ccc2sc(C(=O)OCCOCCOCCOC(=O)c3ccc(-c4c5nc(c(-c6ccc(S(=O)(=O)[O-])cc6)c6ccc([nH]6)c(-c6ccc(S(=O)(=O)[O-])cc6)c6nc(c(-c7ccc(S(=O)(=O)[O-])cc7)c7ccc4[nH]7)C=C6)C=C5)cc3)cc2c1
REMARK SMILES IDX 18 1 17 2 16 3 15 4 14 5 13 6 11 7 12 8 10 9 5 10 6 11 87 12
REMARK SMILES IDX 7 13 86 14 8 15 85 16 9 17 4 18 1 19 2 20 3 21 19 23 20 24
REMARK SMILES IDX 21 25 22 26 23 27 24 28 25 29 26 30 84 31 27 32 83 33 28 34
REMARK SMILES IDX 29 35 30 36 77 37 31 38 82 39 76 40 78 41 32 42 81 43 75 44
REMARK SMILES IDX 74 45 33 47 63 48 44 49 62 50 45 51 48 52 61 53 79 54 46 55
REMARK SMILES IDX 47 56 60 58 80 59 49 60 34 61 35 62 43 63 36 64 42 65 37 66
REMARK SMILES IDX 38 67 39 68 40 69 41 70 64 71 65 72 73 73 66 74 72 75 67 76
REMARK SMILES IDX 68 77 69 78 70 79 71 80 50 81 51 82 59 83 52 84 58 85 53 86
REMARK SMILES IDX 54 87 55 88 56 89 57 90
REMARK H PARENT 4 22 78 46 48 57
REMARK Flexibility Score: inf
ROOT
ATOM      1  C   UNL A   1      33.574  30.864  27.425  1.00  0.00     0.188 C 
ENDROOT
BRANCH   1   2
ATOM      2  C   UNL A   1      34.294  29.652  26.799  1.00  0.00     0.188 C 
BRANCH   2   3
ATOM      3  O   UNL A   1      33.978  28.326  27.214  1.00  0.00    -0.376 OA
BRANCH   3   4
ATOM      4  C   UNL A   1      32.793  27.692  26.759  1.00  0.00     0.202 C 
BRANCH   4   5
ATOM      5  C   UNL A   1      32.927  26.330  26.071  1.00  0.00     0.261 C 
BRANCH   5   6
ATOM      6  O   UNL A   1      33.596  26.384  24.804  1.00  0.00    -0.459 OA
BRANCH   6   7
ATOM      7  C   UNL A   1      32.892  25.872  23.754  1.00  0.00     0.348 C 
ATOM      8  O   UNL A   1      33.151  24.816  23.190  1.00  0.00    -0.245 OA
BRANCH   7   9
ATOM      9  C   UNL A   1      31.707  26.657  23.484  1.00  0.00     0.113 A 
ATOM     10  C   UNL A   1      28.611  30.220  23.000  1.00  0.00     0.041 A 
ATOM     11  C   UNL A   1      27.658  29.225  23.199  1.00  0.00     0.027 A 
ATOM     12  C   UNL A   1      29.955  29.876  22.849  1.00  0.00     0.035 A 
ATOM     13  C   UNL A   1      28.036  27.883  23.323  1.00  0.00     0.022 A 
ATOM     14  C   UNL A   1      30.374  28.544  23.076  1.00  0.00    -0.005 A 
ATOM     15  C   UNL A   1      29.406  27.563  23.303  1.00  0.00     0.035 A 
ATOM     16  C   UNL A   1      31.691  28.001  23.178  1.00  0.00     0.036 A 
ATOM     17  S   UNL A   1      30.129  26.015  23.551  1.00  0.00    -0.128 S 
BRANCH  10  18
ATOM     18  N   UNL A   1      28.281  31.582  22.947  1.00  0.00    -0.326 N 
ATOM     19  C   UNL A   1      28.078  31.754  20.480  1.00  0.00     0.114 C 
ATOM     20  C   UNL A   1      28.140  32.385  21.848  1.00  0.00     0.221 C 
ATOM     21  O   UNL A   1      27.987  33.598  21.989  1.00  0.00    -0.275 OA
ATOM     22  H   UNL A   1      28.131  32.019  23.817  1.00  0.00     0.169 HD
ENDBRANCH  10  18
ENDBRANCH   7   9
ENDBRANCH   6   7
ENDBRANCH   5   6
ENDBRANCH   4   5
ENDBRANCH   3   4
ENDBRANCH   2   3
ENDBRANCH   1   2
BRANCH   1  23
ATOM     23  O   UNL A   1      34.435  31.950  27.728  1.00  0.00    -0.376 OA
BRANCH  23  24
ATOM     24  C   UNL A   1      35.013  31.961  29.023  1.00  0.00     0.202 C 
BRANCH  24  25
ATOM     25  C   UNL A   1      36.545  31.910  29.064  1.00  0.00     0.261 C 
BRANCH  25  26
ATOM     26  O   UNL A   1      37.156  30.855  28.305  1.00  0.00    -0.460 OA
BRANCH  26  27
ATOM     27  C   UNL A   1      37.501  29.734  28.977  1.00  0.00     0.338 C 
ATOM     28  O   UNL A   1      36.775  29.046  29.671  1.00  0.00    -0.246 OA
BRANCH  27  29
ATOM     29  C   UNL A   1      38.888  29.386  28.597  1.00  0.00     0.060 A 
ATOM     30  C   UNL A   1      39.818  29.103  29.604  1.00  0.00     0.016 A 
ATOM     31  C   UNL A   1      39.267  29.347  27.252  1.00  0.00     0.016 A 
ATOM     32  C   UNL A   1      41.143  28.815  29.265  1.00  0.00     0.010 A 
ATOM     33  C   UNL A   1      40.597  29.073  26.917  1.00  0.00     0.010 A 
ATOM     34  C   UNL A   1      41.549  28.835  27.923  1.00  0.00    -0.014 A 
BRANCH  34  35
ATOM     35  C   UNL A   1      42.993  28.798  27.579  1.00  0.00     0.031 A 
ATOM     36  C   UNL A   1      43.571  27.511  27.053  1.00  0.00     0.074 A 
ATOM     37  C   UNL A   1      43.779  29.880  27.721  1.00  0.00     0.049 A 
ATOM     38  N   UNL A   1      44.801  27.233  26.709  1.00  0.00    -0.248 NA
ATOM     39  C   UNL A   1      42.632  26.388  26.894  1.00  0.00     0.031 C 
ATOM     40  C   UNL A   1      43.340  31.194  28.186  1.00  0.00     0.029 A 
ATOM     41  N   UNL A   1      45.125  30.037  27.489  1.00  0.00    -0.354 N 
ATOM     42  C   UNL A   1      44.785  25.908  26.290  1.00  0.00     0.074 A 
ATOM     43  C   UNL A   1      43.430  25.428  26.453  1.00  0.00     0.031 C 
ATOM     44  C   UNL A   1      44.400  32.024  28.208  1.00  0.00     0.029 A 
ATOM     45  C   UNL A   1      45.594  31.294  27.788  1.00  0.00     0.049 A 
ATOM     46  H   UNL A   1      45.698  29.316  27.140  1.00  0.00     0.167 HD
ATOM     47  C   UNL A   1      45.803  25.155  25.809  1.00  0.00     0.031 A 
ATOM     48  C   UNL A   1      46.847  31.792  27.741  1.00  0.00     0.031 A 
ATOM     49  C   UNL A   1      47.158  25.616  25.675  1.00  0.00     0.049 A 
ATOM     50  C   UNL A   1      47.980  30.912  27.278  1.00  0.00     0.074 A 
ATOM     51  C   UNL A   1      48.261  24.925  25.204  1.00  0.00     0.029 A 
ATOM     52  N   UNL A   1      47.597  26.884  26.022  1.00  0.00    -0.354 N 
ATOM     53  N   UNL A   1      47.945  29.666  26.868  1.00  0.00    -0.248 NA
ATOM     54  C   UNL A   1      49.324  31.510  27.264  1.00  0.00     0.031 C 
ATOM     55  C   UNL A   1      49.378  25.763  25.309  1.00  0.00     0.029 A 
ATOM     56  C   UNL A   1      48.959  26.992  25.793  1.00  0.00     0.049 A 
ATOM     57  H   UNL A   1      47.027  27.602  26.378  1.00  0.00     0.167 HD
ATOM     58  C   UNL A   1      49.253  29.344  26.516  1.00  0.00     0.074 A 
ATOM     59  C   UNL A   1      50.054  30.526  26.757  1.00  0.00     0.031 C 
ATOM     60  C   UNL A   1      49.743  28.176  26.032  1.00  0.00     0.031 A 
BRANCH  47  61
ATOM     61  C   UNL A   1      45.482  23.736  25.424  1.00  0.00    -0.014 A 
ATOM     62  C   UNL A   1      45.684  22.676  26.327  1.00  0.00     0.010 A 
ATOM     63  C   UNL A   1      44.963  23.459  24.147  1.00  0.00     0.010 A 
ATOM     64  C   UNL A   1      45.419  21.360  25.943  1.00  0.00     0.020 A 
ATOM     65  C   UNL A   1      44.672  22.146  23.767  1.00  0.00     0.020 A 
ATOM     66  C   UNL A   1      44.922  21.103  24.661  1.00  0.00     0.054 A 
BRANCH  66  67
ATOM     67  S   UNL A   1      44.586  19.385  24.184  1.00  0.00     0.124 S 
ATOM     68  O   UNL A   1      43.268  19.164  24.773  1.00  0.00    -0.237 OA
ATOM     69  O   UNL A   1      44.619  19.443  22.725  1.00  0.00    -0.237 OA
ATOM     70  O   UNL A   1      45.677  18.635  24.800  1.00  0.00    -0.744 OA
ENDBRANCH  66  67
ENDBRANCH  47  61
BRANCH  48  71
ATOM     71  C   UNL A   1      47.105  33.200  28.149  1.00  0.00    -0.014 A 
ATOM     72  C   UNL A   1      47.398  33.515  29.488  1.00  0.00     0.010 A 
ATOM     73  C   UNL A   1      47.051  34.237  27.200  1.00  0.00     0.010 A 
ATOM     74  C   UNL A   1      47.615  34.842  29.873  1.00  0.00     0.020 A 
ATOM     75  C   UNL A   1      47.292  35.561  27.576  1.00  0.00     0.020 A 
ATOM     76  C   UNL A   1      47.562  35.857  28.914  1.00  0.00     0.054 A 
BRANCH  76  77
ATOM     77  S   UNL A   1      47.899  37.566  29.425  1.00  0.00     0.124 S 
ATOM     78  O   UNL A   1      48.378  37.384  30.791  1.00  0.00    -0.237 OA
ATOM     79  O   UNL A   1      48.901  37.994  28.454  1.00  0.00    -0.237 OA
ATOM     80  O   UNL A   1      46.599  38.221  29.298  1.00  0.00    -0.744 OA
ENDBRANCH  76  77
ENDBRANCH  48  71
BRANCH  60  81
ATOM     81  C   UNL A   1      51.207  28.127  25.681  1.00  0.00    -0.014 A 
ATOM     82  C   UNL A   1      52.175  27.741  26.625  1.00  0.00     0.010 A 
ATOM     83  C   UNL A   1      51.611  28.416  24.364  1.00  0.00     0.010 A 
ATOM     84  C   UNL A   1      53.525  27.675  26.266  1.00  0.00     0.020 A 
ATOM     85  C   UNL A   1      52.955  28.327  23.995  1.00  0.00     0.020 A 
ATOM     86  C   UNL A   1      53.907  27.971  24.952  1.00  0.00     0.054 A 
BRANCH  86  87
ATOM     87  S   UNL A   1      55.658  27.836  24.497  1.00  0.00     0.124 S 
ATOM     88  O   UNL A   1      55.777  26.418  24.168  1.00  0.00    -0.237 OA
ATOM     89  O   UNL A   1      55.770  28.756  23.368  1.00  0.00    -0.237 OA
ATOM     90  O   UNL A   1      56.363  28.256  25.706  1.00  0.00    -0.744 OA
ENDBRANCH  86  87
ENDBRANCH  60  81
ENDBRANCH  34  35
ENDBRANCH  27  29
ENDBRANCH  26  27
ENDBRANCH  25  26
ENDBRANCH  24  25
ENDBRANCH  23  24
ENDBRANCH   1  23
TORSDOF 21
ENDMDL
MODEL 2
REMARK VINA RESULT:      -9.4      2.469      9.081
REMARK SMILES CC(=O)Nc1ccc2sc(C(=O)OCCOCCOCCOC(=O)c3ccc(-c4c5nc(c(-c6ccc(S(=O)(=O)[O-])cc6)c6ccc([nH]6)c(-c6ccc(S(=O)(=O)[O-])cc6)c6nc(c(-c7ccc(S(=O)(=O)[O-])cc7)c7ccc4[nH]7)C=C6)C=C5)cc3)cc2c1
REMARK SMILES IDX 18 1 17 2 16 3 15 4 14 5 13 6 11 7 12 8 10 9 5 10 6 11 87 12
REMARK SMILES IDX 7 13 86 14 8 15 85 16 9 17 4 18 1 19 2 20 3 21 19 23 20 24
REMARK SMILES IDX 21 25 22 26 23 27 24 28 25 29 26 30 84 31 27 32 83 33 28 34
REMARK SMILES IDX 29 35 30 36 77 37 31 38 82 39 76 40 78 41 32 42 81 43 75 44
REMARK SMILES IDX 74 45 33 47 63 48 44 49 62 50 45 51 48 52 61 53 79 54 46 55
REMARK SMILES IDX 47 56 60 58 80 59 49 60 34 61 35 62 43 63 36 64 42 65 37 66
REMARK SMILES IDX 38 67 39 68 40 69 41 70 64 71 65 72 73 73 66 74 72 75 67 76
REMARK SMILES IDX 68 77 69 78 70 79 71 80 50 81 51 82 59 83 52 84 58 85 53 86
REMARK SMILES IDX 54 87 55 88 56 89 57 90
REMARK H PARENT 4 22 78 46 48 57
REMARK Flexibility Score: inf
ROOT
ATOM      1  C   UNL A   1      34.194  33.330  28.894  1.00  0.00     0.188 C 
ENDROOT
BRANCH   1   2
ATOM      2  C   UNL A   1      33.502  32.546  27.760  1.00  0.00     0.188 C 
BRANCH   2   3
ATOM      3  O   UNL A   1      33.658  31.133  27.655  1.00  0.00    -0.376 OA
BRANCH   3   4
ATOM      4  C   UNL A   1      32.674  30.347  27.001  1.00  0.00     0.202 C 
BRANCH   4   5
ATOM      5  C   UNL A   1      33.143  29.120  26.213  1.00  0.00     0.261 C 
BRANCH   5   6
ATOM      6  O   UNL A   1      32.393  27.930  26.492  1.00  0.00    -0.459 OA
BRANCH   6   7
ATOM      7  C   UNL A   1      31.735  27.395  25.423  1.00  0.00     0.348 C 
ATOM      8  O   UNL A   1      30.947  28.006  24.712  1.00  0.00    -0.245 OA
BRANCH   7   9
ATOM      9  C   UNL A   1      32.200  26.055  25.138  1.00  0.00     0.113 A 
ATOM     10  C   UNL A   1      33.155  21.413  25.381  1.00  0.00     0.041 A 
ATOM     11  C   UNL A   1      34.229  21.740  24.559  1.00  0.00     0.027 A 
ATOM     12  C   UNL A   1      32.188  22.374  25.678  1.00  0.00     0.035 A 
ATOM     13  C   UNL A   1      34.396  23.045  24.079  1.00  0.00     0.022 A 
ATOM     14  C   UNL A   1      32.388  23.721  25.294  1.00  0.00    -0.005 A 
ATOM     15  C   UNL A   1      33.488  24.036  24.493  1.00  0.00     0.035 A 
ATOM     16  C   UNL A   1      31.657  24.895  25.650  1.00  0.00     0.036 A 
ATOM     17  S   UNL A   1      33.542  25.726  24.140  1.00  0.00    -0.128 S 
BRANCH  10  18
ATOM     18  N   UNL A   1      32.995  20.139  25.944  1.00  0.00    -0.326 N 
ATOM     19  C   UNL A   1      32.563  18.919  23.826  1.00  0.00     0.114 C 
ATOM     20  C   UNL A   1      32.610  18.977  25.333  1.00  0.00     0.221 C 
ATOM     21  O   UNL A   1      32.381  17.973  26.008  1.00  0.00    -0.275 OA
ATOM     22  H   UNL A   1      33.187  20.071  26.908  1.00  0.00     0.169 HD
ENDBRANCH  10  18
ENDBRANCH   7   9
ENDBRANCH   6   7
ENDBRANCH   5   6
ENDBRANCH   4   5
ENDBRANCH   3   4
ENDBRANCH   2   3
ENDBRANCH   1   2
BRANCH   1  23
ATOM     23  O   UNL A   1      34.517  32.540  30.026  1.00  0.00    -0.376 OA
BRANCH  23  24
ATOM     24  C   UNL A   1      35.767  32.799  30.645  1.00  0.00     0.202 C 
BRANCH  24  25
ATOM     25  C   UNL A   1      36.978  32.113  30.003  1.00  0.00     0.261 C 
BRANCH  25  26
ATOM     26  O   UNL A   1      37.217  30.756  30.409  1.00  0.00    -0.460 OA
BRANCH  26  27
ATOM     27  C   UNL A   1      37.047  29.795  29.473  1.00  0.00     0.338 C 
ATOM     28  O   UNL A   1      35.996  29.444  28.970  1.00  0.00    -0.246 OA
BRANCH  27  29
ATOM     29  C   UNL A   1      38.388  29.342  29.041  1.00  0.00     0.060 A 
ATOM     30  C   UNL A   1      39.266  28.811  29.992  1.00  0.00     0.016 A 
ATOM     31  C   UNL A   1      38.776  29.450  27.702  1.00  0.00     0.016 A 
ATOM     32  C   UNL A   1      40.551  28.417  29.610  1.00  0.00     0.010 A 
ATOM     33  C   UNL A   1      40.067  29.070  27.325  1.00  0.00     0.010 A 
ATOM     34  C   UNL A   1      40.973  28.580  28.282  1.00  0.00    -0.014 A 
BRANCH  34  35
ATOM     35  C   UNL A   1      42.407  28.420  27.928  1.00  0.00     0.031 A 
ATOM     36  C   UNL A   1      43.331  29.590  28.138  1.00  0.00     0.074 A 
ATOM     37  C   UNL A   1      42.886  27.263  27.439  1.00  0.00     0.049 A 
ATOM     38  N   UNL A   1      44.609  29.693  27.885  1.00  0.00    -0.248 NA
ATOM     39  C   UNL A   1      42.730  30.805  28.714  1.00  0.00     0.031 C 
ATOM     40  C   UNL A   1      42.108  26.046  27.219  1.00  0.00     0.029 A 
ATOM     41  N   UNL A   1      44.155  26.930  27.030  1.00  0.00    -0.354 N 
ATOM     42  C   UNL A   1      44.967  30.980  28.270  1.00  0.00     0.074 A 
ATOM     43  C   UNL A   1      43.765  31.630  28.746  1.00  0.00     0.031 C 
ATOM     44  C   UNL A   1      42.917  25.097  26.712  1.00  0.00     0.029 A 
ATOM     45  C   UNL A   1      44.261  25.648  26.544  1.00  0.00     0.049 A 
ATOM     46  H   UNL A   1      44.917  27.551  27.082  1.00  0.00     0.167 HD
ATOM     47  C   UNL A   1      46.185  31.571  28.237  1.00  0.00     0.031 A 
ATOM     48  C   UNL A   1      45.318  25.001  26.012  1.00  0.00     0.031 A 
ATOM     49  C   UNL A   1      47.377  30.942  27.736  1.00  0.00     0.049 A 
ATOM     50  C   UNL A   1      46.647  25.704  25.911  1.00  0.00     0.074 A 
ATOM     51  C   UNL A   1      48.657  31.462  27.655  1.00  0.00     0.029 A 
ATOM     52  N   UNL A   1      47.432  29.656  27.221  1.00  0.00    -0.354 N 
ATOM     53  N   UNL A   1      46.973  26.915  26.298  1.00  0.00    -0.248 NA
ATOM     54  C   UNL A   1      47.756  24.949  25.307  1.00  0.00     0.031 C 
ATOM     55  C   UNL A   1      49.478  30.504  27.048  1.00  0.00     0.029 A 
ATOM     56  C   UNL A   1      48.721  29.370  26.803  1.00  0.00     0.049 A 
ATOM     57  H   UNL A   1      46.669  29.038  27.161  1.00  0.00     0.167 HD
ATOM     58  C   UNL A   1      48.329  27.053  26.015  1.00  0.00     0.074 A 
ATOM     59  C   UNL A   1      48.764  25.802  25.430  1.00  0.00     0.031 C 
ATOM     60  C   UNL A   1      49.141  28.118  26.227  1.00  0.00     0.031 A 
BRANCH  47  61
ATOM     61  C   UNL A   1      46.271  32.989  28.733  1.00  0.00    -0.014 A 
ATOM     62  C   UNL A   1      46.585  33.270  30.075  1.00  0.00     0.010 A 
ATOM     63  C   UNL A   1      46.044  34.055  27.844  1.00  0.00     0.010 A 
ATOM     64  C   UNL A   1      46.623  34.590  30.531  1.00  0.00     0.020 A 
ATOM     65  C   UNL A   1      46.106  35.378  28.290  1.00  0.00     0.020 A 
ATOM     66  C   UNL A   1      46.374  35.635  29.636  1.00  0.00     0.054 A 
BRANCH  66  67
ATOM     67  S   UNL A   1      46.428  37.341  30.251  1.00  0.00     0.124 S 
ATOM     68  O   UNL A   1      45.383  37.324  31.272  1.00  0.00    -0.237 OA
ATOM     69  O   UNL A   1      47.794  37.459  30.755  1.00  0.00    -0.237 OA
ATOM     70  O   UNL A   1      46.131  38.146  29.070  1.00  0.00    -0.744 OA
ENDBRANCH  66  67
ENDBRANCH  47  61
BRANCH  48  71
ATOM     71  C   UNL A   1      45.167  23.602  25.525  1.00  0.00    -0.014 A 
ATOM     72  C   UNL A   1      44.455  23.328  24.344  1.00  0.00     0.010 A 
ATOM     73  C   UNL A   1      45.729  22.533  26.246  1.00  0.00     0.010 A 
ATOM     74  C   UNL A   1      44.293  22.012  23.902  1.00  0.00     0.020 A 
ATOM     75  C   UNL A   1      45.592  21.218  25.795  1.00  0.00     0.020 A 
ATOM     76  C   UNL A   1      44.864  20.964  24.630  1.00  0.00     0.054 A 
BRANCH  76  77
ATOM     77  S   UNL A   1      44.687  19.267  24.011  1.00  0.00     0.124 S 
ATOM     78  O   UNL A   1      44.631  19.475  22.568  1.00  0.00    -0.237 OA
ATOM     79  O   UNL A   1      45.898  18.621  24.511  1.00  0.00    -0.237 OA
ATOM     80  O   UNL A   1      43.445  18.807  24.628  1.00  0.00    -0.744 OA
ENDBRANCH  76  77
ENDBRANCH  48  71
BRANCH  60  81
ATOM     81  C   UNL A   1      50.597  27.966  25.872  1.00  0.00    -0.014 A 
ATOM     82  C   UNL A   1      51.069  28.246  24.577  1.00  0.00     0.010 A 
ATOM     83  C   UNL A   1      51.516  27.595  26.871  1.00  0.00     0.010 A 
ATOM     84  C   UNL A   1      52.430  28.126  24.280  1.00  0.00     0.020 A 
ATOM     85  C   UNL A   1      52.880  27.498  26.584  1.00  0.00     0.020 A 
ATOM     86  C   UNL A   1      53.327  27.750  25.286  1.00  0.00     0.054 A 
BRANCH  86  87
ATOM     87  S   UNL A   1      55.094  27.644  24.889  1.00  0.00     0.124 S 
ATOM     88  O   UNL A   1      55.452  29.049  24.721  1.00  0.00    -0.237 OA
ATOM     89  O   UNL A   1      55.652  26.990  26.070  1.00  0.00    -0.237 OA
ATOM     90  O   UNL A   1      55.127  26.842  23.668  1.00  0.00    -0.744 OA
ENDBRANCH  86  87
ENDBRANCH  60  81
ENDBRANCH  34  35
ENDBRANCH  27  29
ENDBRANCH  26  27
ENDBRANCH  25  26
ENDBRANCH  24  25
ENDBRANCH  23  24
ENDBRANCH   1  23
TORSDOF 21
ENDMDL
MODEL 3
REMARK VINA RESULT:      -8.6      2.472      4.394
REMARK SMILES CC(=O)Nc1ccc2sc(C(=O)OCCOCCOCCOC(=O)c3ccc(-c4c5nc(c(-c6ccc(S(=O)(=O)[O-])cc6)c6ccc([nH]6)c(-c6ccc(S(=O)(=O)[O-])cc6)c6nc(c(-c7ccc(S(=O)(=O)[O-])cc7)c7ccc4[nH]7)C=C6)C=C5)cc3)cc2c1
REMARK SMILES IDX 18 1 17 2 16 3 15 4 14 5 13 6 11 7 12 8 10 9 5 10 6 11 87 12
REMARK SMILES IDX 7 13 86 14 8 15 85 16 9 17 4 18 1 19 2 20 3 21 19 23 20 24
REMARK SMILES IDX 21 25 22 26 23 27 24 28 25 29 26 30 84 31 27 32 83 33 28 34
REMARK SMILES IDX 29 35 30 36 77 37 31 38 82 39 76 40 78 41 32 42 81 43 75 44
REMARK SMILES IDX 74 45 33 47 63 48 44 49 62 50 45 51 48 52 61 53 79 54 46 55
REMARK SMILES IDX 47 56 60 58 80 59 49 60 34 61 35 62 43 63 36 64 42 65 37 66
REMARK SMILES IDX 38 67 39 68 40 69 41 70 64 71 65 72 73 73 66 74 72 75 67 76
REMARK SMILES IDX 68 77 69 78 70 79 71 80 50 81 51 82 59 83 52 84 58 85 53 86
REMARK SMILES IDX 54 87 55 88 56 89 57 90
REMARK H PARENT 4 22 78 46 48 57
REMARK Flexibility Score: inf
ROOT
ATOM      1  C   UNL A   1      33.718  30.971  27.830  1.00  0.00     0.188 C 
ENDROOT
BRANCH   1   2
ATOM      2  C   UNL A   1      34.102  29.739  26.986  1.00  0.00     0.188 C 
BRANCH   2   3
ATOM      3  O   UNL A   1      33.279  29.315  25.903  1.00  0.00    -0.376 OA
BRANCH   3   4
ATOM      4  C   UNL A   1      33.695  28.259  25.052  1.00  0.00     0.202 C 
BRANCH   4   5
ATOM      5  C   UNL A   1      32.615  27.477  24.298  1.00  0.00     0.261 C 
BRANCH   5   6
ATOM      6  O   UNL A   1      31.913  26.527  25.113  1.00  0.00    -0.459 OA
BRANCH   6   7
ATOM      7  C   UNL A   1      31.747  25.294  24.553  1.00  0.00     0.348 C 
ATOM      8  O   UNL A   1      30.716  24.902  24.022  1.00  0.00    -0.245 OA
BRANCH   7   9
ATOM      9  C   UNL A   1      32.992  24.557  24.529  1.00  0.00     0.113 A 
ATOM     10  C   UNL A   1      37.250  22.763  25.614  1.00  0.00     0.041 A 
ATOM     11  C   UNL A   1      37.384  22.634  24.234  1.00  0.00     0.027 A 
ATOM     12  C   UNL A   1      36.026  23.151  26.160  1.00  0.00     0.035 A 
ATOM     13  C   UNL A   1      36.326  22.958  23.376  1.00  0.00     0.022 A 
ATOM     14  C   UNL A   1      34.978  23.583  25.313  1.00  0.00    -0.005 A 
ATOM     15  C   UNL A   1      35.141  23.474  23.931  1.00  0.00     0.035 A 
ATOM     16  C   UNL A   1      33.733  24.203  25.638  1.00  0.00     0.036 A 
ATOM     17  S   UNL A   1      33.749  24.052  23.088  1.00  0.00    -0.128 S 
BRANCH  10  18
ATOM     18  N   UNL A   1      38.308  22.524  26.501  1.00  0.00    -0.326 N 
ATOM     19  C   UNL A   1      39.193  24.842  26.556  1.00  0.00     0.114 C 
ATOM     20  C   UNL A   1      39.307  23.376  26.889  1.00  0.00     0.221 C 
ATOM     21  O   UNL A   1      40.243  22.956  27.570  1.00  0.00    -0.275 OA
ATOM     22  H   UNL A   1      38.337  21.623  26.899  1.00  0.00     0.169 HD
ENDBRANCH  10  18
ENDBRANCH   7   9
ENDBRANCH   6   7
ENDBRANCH   5   6
ENDBRANCH   4   5
ENDBRANCH   3   4
ENDBRANCH   2   3
ENDBRANCH   1   2
BRANCH   1  23
ATOM     23  O   UNL A   1      34.830  31.706  28.314  1.00  0.00    -0.376 OA
BRANCH  23  24
ATOM     24  C   UNL A   1      35.299  31.370  29.610  1.00  0.00     0.202 C 
BRANCH  24  25
ATOM     25  C   UNL A   1      36.720  31.838  29.941  1.00  0.00     0.261 C 
BRANCH  25  26
ATOM     26  O   UNL A   1      37.769  31.267  29.142  1.00  0.00    -0.460 OA
BRANCH  26  27
ATOM     27  C   UNL A   1      37.811  29.918  29.055  1.00  0.00     0.338 C 
ATOM     28  O   UNL A   1      36.870  29.151  29.140  1.00  0.00    -0.246 OA
BRANCH  27  29
ATOM     29  C   UNL A   1      39.188  29.532  28.676  1.00  0.00     0.060 A 
ATOM     30  C   UNL A   1      40.139  29.329  29.683  1.00  0.00     0.016 A 
ATOM     31  C   UNL A   1      39.538  29.377  27.331  1.00  0.00     0.016 A 
ATOM     32  C   UNL A   1      41.455  29.006  29.341  1.00  0.00     0.010 A 
ATOM     33  C   UNL A   1      40.858  29.069  26.991  1.00  0.00     0.010 A 
ATOM     34  C   UNL A   1      41.831  28.911  27.993  1.00  0.00    -0.014 A 
BRANCH  34  35
ATOM     35  C   UNL A   1      43.268  28.836  27.622  1.00  0.00     0.031 A 
ATOM     36  C   UNL A   1      43.806  27.530  27.102  1.00  0.00     0.074 A 
ATOM     37  C   UNL A   1      44.080  29.902  27.735  1.00  0.00     0.049 A 
ATOM     38  N   UNL A   1      45.022  27.220  26.737  1.00  0.00    -0.248 NA
ATOM     39  C   UNL A   1      42.838  26.427  26.975  1.00  0.00     0.031 C 
ATOM     40  C   UNL A   1      43.680  31.231  28.192  1.00  0.00     0.029 A 
ATOM     41  N   UNL A   1      45.424  30.024  27.476  1.00  0.00    -0.354 N 
ATOM     42  C   UNL A   1      44.968  25.890  26.336  1.00  0.00     0.074 A 
ATOM     43  C   UNL A   1      43.606  25.443  26.531  1.00  0.00     0.031 C 
ATOM     44  C   UNL A   1      44.759  32.037  28.184  1.00  0.00     0.029 A 
ATOM     45  C   UNL A   1      45.928  31.274  27.750  1.00  0.00     0.049 A 
ATOM     46  H   UNL A   1      45.974  29.287  27.125  1.00  0.00     0.167 HD
ATOM     47  C   UNL A   1      45.959  25.108  25.846  1.00  0.00     0.031 A 
ATOM     48  C   UNL A   1      47.191  31.742  27.672  1.00  0.00     0.031 A 
ATOM     49  C   UNL A   1      47.321  25.536  25.680  1.00  0.00     0.049 A 
ATOM     50  C   UNL A   1      48.295  30.831  27.199  1.00  0.00     0.074 A 
ATOM     51  C   UNL A   1      48.399  24.814  25.197  1.00  0.00     0.029 A 
ATOM     52  N   UNL A   1      47.796  26.798  26.002  1.00  0.00    -0.354 N 
ATOM     53  N   UNL A   1      48.222  29.581  26.806  1.00  0.00    -0.248 NA
ATOM     54  C   UNL A   1      49.651  31.398  27.153  1.00  0.00     0.031 C 
ATOM     55  C   UNL A   1      49.536  25.627  25.269  1.00  0.00     0.029 A 
ATOM     56  C   UNL A   1      49.155  26.871  25.746  1.00  0.00     0.049 A 
ATOM     57  H   UNL A   1      47.248  27.533  26.360  1.00  0.00     0.167 HD
ATOM     58  C   UNL A   1      49.516  29.225  26.434  1.00  0.00     0.074 A 
ATOM     59  C   UNL A   1      50.348  30.391  26.644  1.00  0.00     0.031 C 
ATOM     60  C   UNL A   1      49.970  28.040  25.955  1.00  0.00     0.031 A 
BRANCH  47  61
ATOM     61  C   UNL A   1      45.598  23.692  25.485  1.00  0.00    -0.014 A 
ATOM     62  C   UNL A   1      45.224  23.352  24.172  1.00  0.00     0.010 A 
ATOM     63  C   UNL A   1      45.642  22.688  26.468  1.00  0.00     0.010 A 
ATOM     64  C   UNL A   1      44.853  22.042  23.860  1.00  0.00     0.020 A 
ATOM     65  C   UNL A   1      45.296  21.371  26.154  1.00  0.00     0.020 A 
ATOM     66  C   UNL A   1      44.884  21.061  24.856  1.00  0.00     0.054 A 
BRANCH  66  67
ATOM     67  S   UNL A   1      44.397  19.367  24.428  1.00  0.00     0.124 S 
ATOM     68  O   UNL A   1      44.565  19.365  22.977  1.00  0.00    -0.237 OA
ATOM     69  O   UNL A   1      45.359  18.557  25.171  1.00  0.00    -0.237 OA
ATOM     70  O   UNL A   1      43.017  19.274  24.895  1.00  0.00    -0.744 OA
ENDBRANCH  66  67
ENDBRANCH  47  61
BRANCH  48  71
ATOM     71  C   UNL A   1      47.489  33.149  28.058  1.00  0.00    -0.014 A 
ATOM     72  C   UNL A   1      47.447  34.178  27.100  1.00  0.00     0.010 A 
ATOM     73  C   UNL A   1      47.826  33.467  29.386  1.00  0.00     0.010 A 
ATOM     74  C   UNL A   1      47.752  35.494  27.460  1.00  0.00     0.020 A 
ATOM     75  C   UNL A   1      48.107  34.785  29.755  1.00  0.00     0.020 A 
ATOM     76  C   UNL A   1      48.079  35.789  28.786  1.00  0.00     0.054 A 
BRANCH  76  77
ATOM     77  S   UNL A   1      48.421  37.513  29.243  1.00  0.00     0.124 S 
ATOM     78  O   UNL A   1      49.750  37.411  29.836  1.00  0.00    -0.237 OA
ATOM     79  O   UNL A   1      48.353  38.200  27.956  1.00  0.00    -0.237 OA
ATOM     80  O   UNL A   1      47.342  37.839  30.172  1.00  0.00    -0.744 OA
ENDBRANCH  76  77
ENDBRANCH  48  71
BRANCH  60  81
ATOM     81  C   UNL A   1      51.426  27.954  25.577  1.00  0.00    -0.014 A 
ATOM     82  C   UNL A   1      51.869  28.290  24.285  1.00  0.00     0.010 A 
ATOM     83  C   UNL A   1      52.372  27.585  26.551  1.00  0.00     0.010 A 
ATOM     84  C   UNL A   1      53.229  28.230  23.967  1.00  0.00     0.020 A 
ATOM     85  C   UNL A   1      53.734  27.548  26.244  1.00  0.00     0.020 A 
ATOM     86  C   UNL A   1      54.153  27.857  24.949  1.00  0.00     0.054 A 
BRANCH  86  87
ATOM     87  S   UNL A   1      55.917  27.828  24.526  1.00  0.00     0.124 S 
ATOM     88  O   UNL A   1      55.882  27.917  23.069  1.00  0.00    -0.237 OA
ATOM     89  O   UNL A   1      56.434  29.008  25.215  1.00  0.00    -0.237 OA
ATOM     90  O   UNL A   1      56.381  26.550  25.061  1.00  0.00    -0.744 OA
ENDBRANCH  86  87
ENDBRANCH  60  81
ENDBRANCH  34  35
ENDBRANCH  27  29
ENDBRANCH  26  27
ENDBRANCH  25  26
ENDBRANCH  24  25
ENDBRANCH  23  24
ENDBRANCH   1  23
TORSDOF 21
ENDMDL
