MODEL 1
REMARK VINA RESULT:     -10.2      0.000      0.000
REMARK SMILES Cc1ccc2occ(/C=N/NC(=O)CCC(=O)Nc3ccc(C(=O)OCCOCCOCCOC(=O)c4ccc(-c5c6nc(c(-c7ccc(S(=O)(=O)[O-])cc7)c7ccc([nH]7)c(-c7ccc(S(=O)(=O)[O-])cc7)c7nc(c(-c8ccc(S(=O)(=O)[O-])cc8)c8ccc5[nH]8)C=C7)C=C6)cc4)cc3)c(=O)c2c1
REMARK SMILES IDX 28 1 27 2 26 3 25 4 23 5 24 6 22 7 19 8 20 9 98 10 21 11
REMARK SMILES IDX 97 12 18 13 16 14 17 15 15 17 14 18 12 19 11 20 13 22 10 23
REMARK SMILES IDX 9 24 8 25 1 26 2 27 3 28 102 29 4 30 101 31 5 32 99 33 6 34
REMARK SMILES IDX 100 35 7 36 29 37 30 38 31 39 32 40 33 41 34 42 35 43 36 44
REMARK SMILES IDX 37 45 38 46 96 47 39 48 95 49 40 50 41 51 42 52 89 53 43 54
REMARK SMILES IDX 94 55 88 56 90 57 44 58 93 59 87 60 86 61 45 63 75 64 56 65
REMARK SMILES IDX 74 66 57 67 60 68 73 69 91 70 58 71 59 72 72 74 92 75 61 76
REMARK SMILES IDX 46 77 47 78 55 79 48 80 54 81 49 82 50 83 51 84 52 85 53 86
REMARK SMILES IDX 76 87 77 88 85 89 78 90 84 91 79 92 80 93 81 94 82 95 83 96
REMARK SMILES IDX 62 97 63 98 71 99 64 100 70 101 65 102 66 103 67 104 68 105
REMARK SMILES IDX 69 106
REMARK H PARENT 18 16 11 21 90 62 60 73
REMARK Flexibility Score: inf
ROOT
ATOM      1  O   UNL A   1      34.230  27.325  24.352  1.00  0.00    -0.376 OA
ENDROOT
BRANCH   1   2
ATOM      2  C   UNL A   1      34.288  26.119  25.094  1.00  0.00     0.202 C 
BRANCH   2   3
ATOM      3  C   UNL A   1      34.495  24.805  24.341  1.00  0.00     0.261 C 
BRANCH   3   4
ATOM      4  O   UNL A   1      35.123  23.757  25.075  1.00  0.00    -0.460 OA
BRANCH   4   5
ATOM      5  C   UNL A   1      36.247  23.167  24.596  1.00  0.00     0.338 C 
ATOM      6  O   UNL A   1      37.263  23.707  24.225  1.00  0.00    -0.246 OA
BRANCH   5   7
ATOM      7  C   UNL A   1      36.008  21.710  24.731  1.00  0.00     0.060 A 
ATOM      8  C   UNL A   1      35.380  18.981  24.984  1.00  0.00     0.041 A 
ATOM      9  C   UNL A   1      36.717  19.396  24.881  1.00  0.00     0.027 A 
ATOM     10  C   UNL A   1      34.399  19.958  25.014  1.00  0.00     0.027 A 
ATOM     11  C   UNL A   1      37.034  20.760  24.731  1.00  0.00     0.018 A 
ATOM     12  C   UNL A   1      34.696  21.301  24.906  1.00  0.00     0.018 A 
BRANCH   8  13
ATOM     13  N   UNL A   1      35.095  17.607  25.044  1.00  0.00    -0.326 N 
ATOM     14  C   UNL A   1      34.394  16.771  24.221  1.00  0.00     0.224 C 
ATOM     15  O   UNL A   1      34.352  15.572  24.529  1.00  0.00    -0.275 OA
ATOM     16  H   UNL A   1      35.475  17.159  25.834  1.00  0.00     0.169 HD
BRANCH  14  17
ATOM     17  C   UNL A   1      33.777  17.213  22.906  1.00  0.00     0.110 C 
BRANCH  17  18
ATOM     18  C   UNL A   1      32.554  18.142  22.881  1.00  0.00     0.112 C 
BRANCH  18  19
ATOM     19  C   UNL A   1      32.171  18.957  21.640  1.00  0.00     0.240 C 
ATOM     20  N   UNL A   1      31.831  20.285  21.728  1.00  0.00    -0.247 N 
ATOM     21  H   UNL A   1      31.620  20.747  20.885  1.00  0.00     0.193 HD
ATOM     22  O   UNL A   1      32.165  18.413  20.531  1.00  0.00    -0.273 OA
BRANCH  20  23
ATOM     23  N   UNL A   1      31.756  21.024  22.867  1.00  0.00    -0.180 NA
ATOM     24  C   UNL A   1      31.780  22.299  22.661  1.00  0.00     0.148 C 
BRANCH  24  25
ATOM     25  C   UNL A   1      31.394  23.319  23.638  1.00  0.00     0.078 A 
ATOM     26  C   UNL A   1      30.714  29.462  24.352  1.00  0.00     0.044 C 
ATOM     27  C   UNL A   1      30.758  28.025  24.772  1.00  0.00    -0.050 A 
ATOM     28  C   UNL A   1      30.783  27.649  26.123  1.00  0.00     0.007 A 
ATOM     29  C   UNL A   1      30.784  27.033  23.791  1.00  0.00     0.019 A 
ATOM     30  C   UNL A   1      30.835  26.298  26.491  1.00  0.00     0.048 A 
ATOM     31  C   UNL A   1      30.885  25.694  24.169  1.00  0.00     0.066 A 
ATOM     32  C   UNL A   1      30.895  25.316  25.509  1.00  0.00     0.137 A 
ATOM     33  C   UNL A   1      31.094  24.673  23.144  1.00  0.00     0.201 A 
ATOM     34  O   UNL A   1      30.995  24.005  25.913  1.00  0.00    -0.463 OA
ATOM     35  O   UNL A   1      31.079  24.943  21.948  1.00  0.00    -0.288 OA
ATOM     36  C   UNL A   1      31.292  23.068  24.946  1.00  0.00     0.209 A 
ENDBRANCH  24  25
ENDBRANCH  20  23
ENDBRANCH  18  19
ENDBRANCH  17  18
ENDBRANCH  14  17
ENDBRANCH   8  13
ENDBRANCH   5   7
ENDBRANCH   4   5
ENDBRANCH   3   4
ENDBRANCH   2   3
ENDBRANCH   1   2
BRANCH   1  37
ATOM     37  C   UNL A   1      34.069  28.537  25.065  1.00  0.00     0.188 C 
BRANCH  37  38
ATOM     38  C   UNL A   1      34.147  28.357  26.596  1.00  0.00     0.188 C 
BRANCH  38  39
ATOM     39  O   UNL A   1      33.524  29.298  27.459  1.00  0.00    -0.376 OA
BRANCH  39  40
ATOM     40  C   UNL A   1      33.388  30.651  27.051  1.00  0.00     0.202 C 
BRANCH  40  41
ATOM     41  C   UNL A   1      33.974  31.817  27.876  1.00  0.00     0.261 C 
BRANCH  41  42
ATOM     42  O   UNL A   1      33.661  33.154  27.455  1.00  0.00    -0.460 OA
BRANCH  42  43
ATOM     43  C   UNL A   1      33.569  34.082  28.439  1.00  0.00     0.338 C 
ATOM     44  O   UNL A   1      32.679  34.900  28.594  1.00  0.00    -0.246 OA
BRANCH  43  45
ATOM     45  C   UNL A   1      34.635  33.850  29.442  1.00  0.00     0.060 A 
ATOM     46  C   UNL A   1      35.959  34.146  29.087  1.00  0.00     0.016 A 
ATOM     47  C   UNL A   1      34.352  33.306  30.697  1.00  0.00     0.016 A 
ATOM     48  C   UNL A   1      37.006  33.867  29.966  1.00  0.00     0.010 A 
ATOM     49  C   UNL A   1      35.406  33.004  31.569  1.00  0.00     0.010 A 
ATOM     50  C   UNL A   1      36.740  33.246  31.193  1.00  0.00    -0.014 A 
BRANCH  50  51
ATOM     51  C   UNL A   1      37.863  32.665  31.977  1.00  0.00     0.031 A 
ATOM     52  C   UNL A   1      38.595  31.477  31.405  1.00  0.00     0.074 A 
ATOM     53  C   UNL A   1      38.254  33.193  33.152  1.00  0.00     0.049 A 
ATOM     54  N   UNL A   1      39.581  30.786  31.915  1.00  0.00    -0.248 NA
ATOM     55  C   UNL A   1      38.155  31.011  30.080  1.00  0.00     0.031 C 
ATOM     56  C   UNL A   1      37.666  34.368  33.793  1.00  0.00     0.029 A 
ATOM     57  N   UNL A   1      39.243  32.797  34.020  1.00  0.00    -0.354 N 
ATOM     58  C   UNL A   1      39.868  29.793  30.983  1.00  0.00     0.074 A 
ATOM     59  C   UNL A   1      38.935  29.957  29.891  1.00  0.00     0.031 C 
ATOM     60  C   UNL A   1      38.300  34.593  34.958  1.00  0.00     0.029 A 
ATOM     61  C   UNL A   1      39.314  33.559  35.163  1.00  0.00     0.049 A 
ATOM     62  H   UNL A   1      39.845  32.039  33.840  1.00  0.00     0.167 HD
ATOM     63  C   UNL A   1      40.823  28.835  31.028  1.00  0.00     0.031 A 
ATOM     64  C   UNL A   1      40.091  33.424  36.258  1.00  0.00     0.031 A 
ATOM     65  C   UNL A   1      41.745  28.665  32.121  1.00  0.00     0.049 A 
ATOM     66  C   UNL A   1      41.099  32.302  36.318  1.00  0.00     0.074 A 
ATOM     67  C   UNL A   1      42.758  27.731  32.252  1.00  0.00     0.029 A 
ATOM     68  N   UNL A   1      41.761  29.437  33.272  1.00  0.00    -0.354 N 
ATOM     69  N   UNL A   1      41.372  31.387  35.419  1.00  0.00    -0.248 NA
ATOM     70  C   UNL A   1      41.914  32.206  37.539  1.00  0.00     0.031 C 
ATOM     71  C   UNL A   1      43.344  27.897  33.510  1.00  0.00     0.029 A 
ATOM     72  C   UNL A   1      42.749  28.984  34.130  1.00  0.00     0.049 A 
ATOM     73  H   UNL A   1      41.159  30.195  33.453  1.00  0.00     0.167 HD
ATOM     74  C   UNL A   1      42.417  30.633  35.949  1.00  0.00     0.074 A 
ATOM     75  C   UNL A   1      42.733  31.207  37.240  1.00  0.00     0.031 C 
ATOM     76  C   UNL A   1      43.061  29.567  35.411  1.00  0.00     0.031 A 
BRANCH  63  77
ATOM     77  C   UNL A   1      40.899  27.868  29.874  1.00  0.00    -0.014 A 
ATOM     78  C   UNL A   1      42.073  27.729  29.111  1.00  0.00     0.010 A 
ATOM     79  C   UNL A   1      39.792  27.052  29.580  1.00  0.00     0.010 A 
ATOM     80  C   UNL A   1      42.124  26.814  28.054  1.00  0.00     0.020 A 
ATOM     81  C   UNL A   1      39.850  26.114  28.545  1.00  0.00     0.020 A 
ATOM     82  C   UNL A   1      41.012  26.012  27.780  1.00  0.00     0.054 A 
BRANCH  82  83
ATOM     83  S   UNL A   1      41.123  24.809  26.427  1.00  0.00     0.124 S 
ATOM     84  O   UNL A   1      41.252  25.679  25.260  1.00  0.00    -0.237 OA
ATOM     85  O   UNL A   1      42.317  24.044  26.777  1.00  0.00    -0.237 OA
ATOM     86  O   UNL A   1      39.865  24.071  26.514  1.00  0.00    -0.744 OA
ENDBRANCH  82  83
ENDBRANCH  63  77
BRANCH  64  87
ATOM     87  C   UNL A   1      39.939  34.364  37.405  1.00  0.00    -0.014 A 
ATOM     88  C   UNL A   1      40.736  35.519  37.503  1.00  0.00     0.010 A 
ATOM     89  C   UNL A   1      39.006  34.094  38.425  1.00  0.00     0.010 A 
ATOM     90  C   UNL A   1      40.621  36.370  38.607  1.00  0.00     0.020 A 
ATOM     91  C   UNL A   1      38.864  34.960  39.513  1.00  0.00     0.020 A 
ATOM     92  C   UNL A   1      39.683  36.087  39.604  1.00  0.00     0.054 A 
BRANCH  92  93
ATOM     93  S   UNL A   1      39.524  37.228  41.005  1.00  0.00     0.124 S 
ATOM     94  O   UNL A   1      38.594  38.224  40.482  1.00  0.00    -0.237 OA
ATOM     95  O   UNL A   1      38.996  36.361  42.057  1.00  0.00    -0.237 OA
ATOM     96  O   UNL A   1      40.891  37.697  41.221  1.00  0.00    -0.744 OA
ENDBRANCH  92  93
ENDBRANCH  64  87
BRANCH  76  97
ATOM     97  C   UNL A   1      44.219  28.982  36.184  1.00  0.00    -0.014 A 
ATOM     98  C   UNL A   1      44.087  27.802  36.938  1.00  0.00     0.010 A 
ATOM     99  C   UNL A   1      45.478  29.607  36.111  1.00  0.00     0.010 A 
ATOM    100  C   UNL A   1      45.181  27.284  37.638  1.00  0.00     0.020 A 
ATOM    101  C   UNL A   1      46.583  29.073  36.780  1.00  0.00     0.020 A 
ATOM    102  C   UNL A   1      46.422  27.924  37.555  1.00  0.00     0.054 A 
BRANCH 102 103
ATOM    103  S   UNL A   1      47.833  27.217  38.450  1.00  0.00     0.124 S 
ATOM    104  O   UNL A   1      47.558  27.627  39.824  1.00  0.00    -0.237 OA
ATOM    105  O   UNL A   1      47.698  25.787  38.181  1.00  0.00    -0.237 OA
ATOM    106  O   UNL A   1      48.993  27.854  37.829  1.00  0.00    -0.744 OA
ENDBRANCH 102 103
ENDBRANCH  76  97
ENDBRANCH  50  51
ENDBRANCH  43  45
ENDBRANCH  42  43
ENDBRANCH  41  42
ENDBRANCH  40  41
ENDBRANCH  39  40
ENDBRANCH  38  39
ENDBRANCH  37  38
ENDBRANCH   1  37
TORSDOF 26
ENDMDL
MODEL 2
REMARK VINA RESULT:      -9.1      5.005      6.443
REMARK SMILES Cc1ccc2occ(/C=N/NC(=O)CCC(=O)Nc3ccc(C(=O)OCCOCCOCCOC(=O)c4ccc(-c5c6nc(c(-c7ccc(S(=O)(=O)[O-])cc7)c7ccc([nH]7)c(-c7ccc(S(=O)(=O)[O-])cc7)c7nc(c(-c8ccc(S(=O)(=O)[O-])cc8)c8ccc5[nH]8)C=C7)C=C6)cc4)cc3)c(=O)c2c1
REMARK SMILES IDX 28 1 27 2 26 3 25 4 23 5 24 6 22 7 19 8 20 9 98 10 21 11
REMARK SMILES IDX 97 12 18 13 16 14 17 15 15 17 14 18 12 19 11 20 13 22 10 23
REMARK SMILES IDX 9 24 8 25 1 26 2 27 3 28 102 29 4 30 101 31 5 32 99 33 6 34
REMARK SMILES IDX 100 35 7 36 29 37 30 38 31 39 32 40 33 41 34 42 35 43 36 44
REMARK SMILES IDX 37 45 38 46 96 47 39 48 95 49 40 50 41 51 42 52 89 53 43 54
REMARK SMILES IDX 94 55 88 56 90 57 44 58 93 59 87 60 86 61 45 63 75 64 56 65
REMARK SMILES IDX 74 66 57 67 60 68 73 69 91 70 58 71 59 72 72 74 92 75 61 76
REMARK SMILES IDX 46 77 47 78 55 79 48 80 54 81 49 82 50 83 51 84 52 85 53 86
REMARK SMILES IDX 76 87 77 88 85 89 78 90 84 91 79 92 80 93 81 94 82 95 83 96
REMARK SMILES IDX 62 97 63 98 71 99 64 100 70 101 65 102 66 103 67 104 68 105
REMARK SMILES IDX 69 106
REMARK H PARENT 18 16 11 21 90 62 60 73
REMARK Flexibility Score: inf
ROOT
ATOM      1  O   UNL A   1      34.044  27.360  24.446  1.00  0.00    -0.376 OA
ENDROOT
BRANCH   1   2
ATOM      2  C   UNL A   1      34.270  26.138  25.128  1.00  0.00     0.202 C 
BRANCH   2   3
ATOM      3  C   UNL A   1      34.489  24.869  24.302  1.00  0.00     0.261 C 
BRANCH   3   4
ATOM      4  O   UNL A   1      35.013  23.748  25.010  1.00  0.00    -0.460 OA
BRANCH   4   5
ATOM      5  C   UNL A   1      36.184  23.184  24.622  1.00  0.00     0.338 C 
ATOM      6  O   UNL A   1      37.212  23.747  24.326  1.00  0.00    -0.246 OA
BRANCH   5   7
ATOM      7  C   UNL A   1      35.971  21.722  24.748  1.00  0.00     0.060 A 
ATOM      8  C   UNL A   1      35.391  18.981  24.989  1.00  0.00     0.041 A 
ATOM      9  C   UNL A   1      36.718  19.418  24.861  1.00  0.00     0.027 A 
ATOM     10  C   UNL A   1      34.395  19.942  25.049  1.00  0.00     0.027 A 
ATOM     11  C   UNL A   1      37.011  20.788  24.717  1.00  0.00     0.018 A 
ATOM     12  C   UNL A   1      34.669  21.291  24.948  1.00  0.00     0.018 A 
BRANCH   8  13
ATOM     13  N   UNL A   1      35.128  17.602  25.042  1.00  0.00    -0.326 N 
ATOM     14  C   UNL A   1      34.441  16.759  24.216  1.00  0.00     0.224 C 
ATOM     15  O   UNL A   1      34.418  15.558  24.517  1.00  0.00    -0.275 OA
ATOM     16  H   UNL A   1      35.516  17.156  25.829  1.00  0.00     0.169 HD
BRANCH  14  17
ATOM     17  C   UNL A   1      33.815  17.198  22.903  1.00  0.00     0.110 C 
BRANCH  17  18
ATOM     18  C   UNL A   1      32.585  18.117  22.884  1.00  0.00     0.112 C 
BRANCH  18  19
ATOM     19  C   UNL A   1      32.175  18.910  21.637  1.00  0.00     0.240 C 
ATOM     20  N   UNL A   1      31.862  20.246  21.704  1.00  0.00    -0.247 N 
ATOM     21  H   UNL A   1      31.632  20.692  20.857  1.00  0.00     0.193 HD
ATOM     22  O   UNL A   1      32.122  18.340  20.542  1.00  0.00    -0.273 OA
BRANCH  20  23
ATOM     23  N   UNL A   1      31.839  21.013  22.826  1.00  0.00    -0.180 NA
ATOM     24  C   UNL A   1      31.701  22.275  22.590  1.00  0.00     0.148 C 
BRANCH  24  25
ATOM     25  C   UNL A   1      31.321  23.283  23.582  1.00  0.00     0.078 A 
ATOM     26  C   UNL A   1      30.708  29.420  24.396  1.00  0.00     0.044 C 
ATOM     27  C   UNL A   1      30.734  27.976  24.792  1.00  0.00    -0.050 A 
ATOM     28  C   UNL A   1      30.747  27.577  26.137  1.00  0.00     0.007 A 
ATOM     29  C   UNL A   1      30.754  27.000  23.795  1.00  0.00     0.019 A 
ATOM     30  C   UNL A   1      30.782  26.219  26.482  1.00  0.00     0.048 A 
ATOM     31  C   UNL A   1      30.837  25.654  24.150  1.00  0.00     0.066 A 
ATOM     32  C   UNL A   1      30.835  25.253  25.483  1.00  0.00     0.137 A 
ATOM     33  C   UNL A   1      31.040  24.648  23.109  1.00  0.00     0.201 A 
ATOM     34  O   UNL A   1      30.918  23.935  25.866  1.00  0.00    -0.463 OA
ATOM     35  O   UNL A   1      31.034  24.939  21.918  1.00  0.00    -0.288 OA
ATOM     36  C   UNL A   1      31.210  23.011  24.885  1.00  0.00     0.209 A 
ENDBRANCH  24  25
ENDBRANCH  20  23
ENDBRANCH  18  19
ENDBRANCH  17  18
ENDBRANCH  14  17
ENDBRANCH   8  13
ENDBRANCH   5   7
ENDBRANCH   4   5
ENDBRANCH   3   4
ENDBRANCH   2   3
ENDBRANCH   1   2
BRANCH   1  37
ATOM     37  C   UNL A   1      34.096  28.559  25.197  1.00  0.00     0.188 C 
BRANCH  37  38
ATOM     38  C   UNL A   1      34.073  28.323  26.722  1.00  0.00     0.188 C 
BRANCH  38  39
ATOM     39  O   UNL A   1      33.270  29.141  27.560  1.00  0.00    -0.376 OA
BRANCH  39  40
ATOM     40  C   UNL A   1      33.197  30.540  27.325  1.00  0.00     0.202 C 
BRANCH  40  41
ATOM     41  C   UNL A   1      34.121  31.540  28.052  1.00  0.00     0.261 C 
BRANCH  41  42
ATOM     42  O   UNL A   1      33.777  32.933  27.987  1.00  0.00    -0.460 OA
BRANCH  42  43
ATOM     43  C   UNL A   1      34.134  33.685  29.056  1.00  0.00     0.338 C 
ATOM     44  O   UNL A   1      33.409  34.402  29.723  1.00  0.00    -0.246 OA
BRANCH  43  45
ATOM     45  C   UNL A   1      35.534  33.377  29.434  1.00  0.00     0.060 A 
ATOM     46  C   UNL A   1      35.971  33.737  30.718  1.00  0.00     0.016 A 
ATOM     47  C   UNL A   1      36.421  32.787  28.532  1.00  0.00     0.016 A 
ATOM     48  C   UNL A   1      37.302  33.543  31.091  1.00  0.00     0.010 A 
ATOM     49  C   UNL A   1      37.762  32.615  28.899  1.00  0.00     0.010 A 
ATOM     50  C   UNL A   1      38.218  33.029  30.165  1.00  0.00    -0.014 A 
BRANCH  50  51
ATOM     51  C   UNL A   1      39.675  33.122  30.450  1.00  0.00     0.031 A 
ATOM     52  C   UNL A   1      40.290  32.103  31.376  1.00  0.00     0.074 A 
ATOM     53  C   UNL A   1      40.450  34.062  29.876  1.00  0.00     0.049 A 
ATOM     54  N   UNL A   1      41.525  32.000  31.795  1.00  0.00    -0.248 NA
ATOM     55  C   UNL A   1      39.388  31.064  31.899  1.00  0.00     0.031 C 
ATOM     56  C   UNL A   1      39.994  35.074  28.925  1.00  0.00     0.029 A 
ATOM     57  N   UNL A   1      41.792  34.318  30.021  1.00  0.00    -0.354 N 
ATOM     58  C   UNL A   1      41.545  30.896  32.641  1.00  0.00     0.074 A 
ATOM     59  C   UNL A   1      40.196  30.381  32.698  1.00  0.00     0.031 C 
ATOM     60  C   UNL A   1      41.038  35.848  28.578  1.00  0.00     0.029 A 
ATOM     61  C   UNL A   1      42.227  35.411  29.307  1.00  0.00     0.049 A 
ATOM     62  H   UNL A   1      42.387  33.770  30.582  1.00  0.00     0.167 HD
ATOM     63  C   UNL A   1      42.592  30.355  33.308  1.00  0.00     0.031 A 
ATOM     64  C   UNL A   1      43.439  36.003  29.266  1.00  0.00     0.031 A 
ATOM     65  C   UNL A   1      43.934  30.875  33.261  1.00  0.00     0.049 A 
ATOM     66  C   UNL A   1      44.575  35.426  30.076  1.00  0.00     0.074 A 
ATOM     67  C   UNL A   1      45.066  30.388  33.892  1.00  0.00     0.029 A 
ATOM     68  N   UNL A   1      44.324  32.001  32.553  1.00  0.00    -0.354 N 
ATOM     69  N   UNL A   1      44.583  34.369  30.853  1.00  0.00    -0.248 NA
ATOM     70  C   UNL A   1      45.870  36.117  29.991  1.00  0.00     0.031 C 
ATOM     71  C   UNL A   1      46.126  31.256  33.617  1.00  0.00     0.029 A 
ATOM     72  C   UNL A   1      45.674  32.239  32.752  1.00  0.00     0.049 A 
ATOM     73  H   UNL A   1      43.730  32.549  31.991  1.00  0.00     0.167 HD
ATOM     74  C   UNL A   1      45.891  34.246  31.316  1.00  0.00     0.074 A 
ATOM     75  C   UNL A   1      46.647  35.329  30.722  1.00  0.00     0.031 C 
ATOM     76  C   UNL A   1      46.419  33.316  32.151  1.00  0.00     0.031 A 
BRANCH  63  77
ATOM     77  C   UNL A   1      42.322  29.155  34.179  1.00  0.00    -0.014 A 
ATOM     78  C   UNL A   1      42.089  27.883  33.623  1.00  0.00     0.010 A 
ATOM     79  C   UNL A   1      42.350  29.294  35.579  1.00  0.00     0.010 A 
ATOM     80  C   UNL A   1      41.856  26.782  34.452  1.00  0.00     0.020 A 
ATOM     81  C   UNL A   1      42.148  28.189  36.410  1.00  0.00     0.020 A 
ATOM     82  C   UNL A   1      41.889  26.943  35.840  1.00  0.00     0.054 A 
BRANCH  82  83
ATOM     83  S   UNL A   1      41.619  25.487  36.889  1.00  0.00     0.124 S 
ATOM     84  O   UNL A   1      40.494  25.916  37.717  1.00  0.00    -0.237 OA
ATOM     85  O   UNL A   1      41.319  24.443  35.913  1.00  0.00    -0.237 OA
ATOM     86  O   UNL A   1      42.886  25.329  37.598  1.00  0.00    -0.744 OA
ENDBRANCH  82  83
ENDBRANCH  63  77
BRANCH  64  87
ATOM     87  C   UNL A   1      43.647  37.227  28.441  1.00  0.00    -0.014 A 
ATOM     88  C   UNL A   1      44.516  37.213  27.334  1.00  0.00     0.010 A 
ATOM     89  C   UNL A   1      42.991  38.427  28.774  1.00  0.00     0.010 A 
ATOM     90  C   UNL A   1      44.743  38.379  26.594  1.00  0.00     0.020 A 
ATOM     91  C   UNL A   1      43.189  39.585  28.017  1.00  0.00     0.020 A 
ATOM     92  C   UNL A   1      44.075  39.557  26.939  1.00  0.00     0.054 A 
BRANCH  92  93
ATOM     93  S   UNL A   1      44.353  41.045  25.940  1.00  0.00     0.124 S 
ATOM     94  O   UNL A   1      44.485  42.078  26.963  1.00  0.00    -0.237 OA
ATOM     95  O   UNL A   1      45.578  40.711  25.216  1.00  0.00    -0.237 OA
ATOM     96  O   UNL A   1      43.152  41.131  25.112  1.00  0.00    -0.744 OA
ENDBRANCH  92  93
ENDBRANCH  64  87
BRANCH  76  97
ATOM     97  C   UNL A   1      47.902  33.384  32.428  1.00  0.00    -0.014 A 
ATOM     98  C   UNL A   1      48.835  32.676  31.650  1.00  0.00     0.010 A 
ATOM     99  C   UNL A   1      48.369  34.215  33.464  1.00  0.00     0.010 A 
ATOM    100  C   UNL A   1      50.202  32.765  31.931  1.00  0.00     0.020 A 
ATOM    101  C   UNL A   1      49.736  34.335  33.725  1.00  0.00     0.020 A 
ATOM    102  C   UNL A   1      50.644  33.593  32.968  1.00  0.00     0.054 A 
BRANCH 102 103
ATOM    103  S   UNL A   1      52.424  33.713  33.294  1.00  0.00     0.124 S 
ATOM    104  O   UNL A   1      52.590  32.796  34.418  1.00  0.00    -0.237 OA
ATOM    105  O   UNL A   1      53.011  33.273  32.031  1.00  0.00    -0.237 OA
ATOM    106  O   UNL A   1      52.626  35.127  33.608  1.00  0.00    -0.744 OA
ENDBRANCH 102 103
ENDBRANCH  76  97
ENDBRANCH  50  51
ENDBRANCH  43  45
ENDBRANCH  42  43
ENDBRANCH  41  42
ENDBRANCH  40  41
ENDBRANCH  39  40
ENDBRANCH  38  39
ENDBRANCH  37  38
ENDBRANCH   1  37
TORSDOF 26
ENDMDL
MODEL 3
REMARK VINA RESULT:      -9.1      4.053      6.425
REMARK SMILES Cc1ccc2occ(/C=N/NC(=O)CCC(=O)Nc3ccc(C(=O)OCCOCCOCCOC(=O)c4ccc(-c5c6nc(c(-c7ccc(S(=O)(=O)[O-])cc7)c7ccc([nH]7)c(-c7ccc(S(=O)(=O)[O-])cc7)c7nc(c(-c8ccc(S(=O)(=O)[O-])cc8)c8ccc5[nH]8)C=C7)C=C6)cc4)cc3)c(=O)c2c1
REMARK SMILES IDX 28 1 27 2 26 3 25 4 23 5 24 6 22 7 19 8 20 9 98 10 21 11
REMARK SMILES IDX 97 12 18 13 16 14 17 15 15 17 14 18 12 19 11 20 13 22 10 23
REMARK SMILES IDX 9 24 8 25 1 26 2 27 3 28 102 29 4 30 101 31 5 32 99 33 6 34
REMARK SMILES IDX 100 35 7 36 29 37 30 38 31 39 32 40 33 41 34 42 35 43 36 44
REMARK SMILES IDX 37 45 38 46 96 47 39 48 95 49 40 50 41 51 42 52 89 53 43 54
REMARK SMILES IDX 94 55 88 56 90 57 44 58 93 59 87 60 86 61 45 63 75 64 56 65
REMARK SMILES IDX 74 66 57 67 60 68 73 69 91 70 58 71 59 72 72 74 92 75 61 76
REMARK SMILES IDX 46 77 47 78 55 79 48 80 54 81 49 82 50 83 51 84 52 85 53 86
REMARK SMILES IDX 76 87 77 88 85 89 78 90 84 91 79 92 80 93 81 94 82 95 83 96
REMARK SMILES IDX 62 97 63 98 71 99 64 100 70 101 65 102 66 103 67 104 68 105
REMARK SMILES IDX 69 106
REMARK H PARENT 18 16 11 21 90 62 60 73
REMARK Flexibility Score: inf
ROOT
ATOM      1  O   UNL A   1      37.067  28.968  28.361  1.00  0.00    -0.376 OA
ENDROOT
BRANCH   1   2
ATOM      2  C   UNL A   1      38.411  29.288  28.678  1.00  0.00     0.202 C 
BRANCH   2   3
ATOM      3  C   UNL A   1      39.422  29.415  27.538  1.00  0.00     0.261 C 
BRANCH   3   4
ATOM      4  O   UNL A   1      40.391  28.373  27.444  1.00  0.00    -0.460 OA
BRANCH   4   5
ATOM      5  C   UNL A   1      41.684  28.612  27.778  1.00  0.00     0.338 C 
ATOM      6  O   UNL A   1      42.147  29.618  28.263  1.00  0.00    -0.246 OA
BRANCH   5   7
ATOM      7  C   UNL A   1      42.392  27.335  27.526  1.00  0.00     0.060 A 
ATOM      8  C   UNL A   1      43.741  24.955  26.873  1.00  0.00     0.041 A 
ATOM      9  C   UNL A   1      43.436  25.255  28.210  1.00  0.00     0.027 A 
ATOM     10  C   UNL A   1      43.307  25.835  25.896  1.00  0.00     0.027 A 
ATOM     11  C   UNL A   1      42.782  26.458  28.542  1.00  0.00     0.018 A 
ATOM     12  C   UNL A   1      42.630  26.998  26.202  1.00  0.00     0.018 A 
BRANCH   8  13
ATOM     13  N   UNL A   1      44.472  23.791  26.586  1.00  0.00    -0.326 N 
ATOM     14  C   UNL A   1      44.107  22.564  26.107  1.00  0.00     0.224 C 
ATOM     15  O   UNL A   1      45.008  21.736  25.917  1.00  0.00    -0.275 OA
ATOM     16  H   UNL A   1      45.437  23.876  26.763  1.00  0.00     0.169 HD
BRANCH  14  17
ATOM     17  C   UNL A   1      42.689  22.214  25.692  1.00  0.00     0.110 C 
BRANCH  17  18
ATOM     18  C   UNL A   1      41.541  22.231  26.713  1.00  0.00     0.112 C 
BRANCH  18  19
ATOM     19  C   UNL A   1      40.599  21.036  26.903  1.00  0.00     0.240 C 
ATOM     20  N   UNL A   1      39.370  20.985  26.291  1.00  0.00    -0.247 N 
ATOM     21  H   UNL A   1      38.831  20.175  26.442  1.00  0.00     0.193 HD
ATOM     22  O   UNL A   1      40.945  20.094  27.624  1.00  0.00    -0.273 OA
BRANCH  20  23
ATOM     23  N   UNL A   1      38.825  21.945  25.497  1.00  0.00    -0.180 NA
ATOM     24  C   UNL A   1      37.629  21.667  25.094  1.00  0.00     0.148 C 
BRANCH  24  25
ATOM     25  C   UNL A   1      36.689  22.629  24.516  1.00  0.00     0.078 A 
ATOM     26  C   UNL A   1      32.323  26.790  26.042  1.00  0.00     0.044 C 
ATOM     27  C   UNL A   1      33.158  25.943  25.130  1.00  0.00    -0.050 A 
ATOM     28  C   UNL A   1      32.843  25.783  23.773  1.00  0.00     0.007 A 
ATOM     29  C   UNL A   1      34.276  25.290  25.649  1.00  0.00     0.019 A 
ATOM     30  C   UNL A   1      33.633  24.977  22.944  1.00  0.00     0.048 A 
ATOM     31  C   UNL A   1      35.028  24.452  24.825  1.00  0.00     0.066 A 
ATOM     32  C   UNL A   1      34.727  24.302  23.474  1.00  0.00     0.137 A 
ATOM     33  C   UNL A   1      36.085  23.630  25.410  1.00  0.00     0.201 A 
ATOM     34  O   UNL A   1      35.446  23.483  22.636  1.00  0.00    -0.463 OA
ATOM     35  O   UNL A   1      36.406  23.730  26.589  1.00  0.00    -0.288 OA
ATOM     36  C   UNL A   1      36.371  22.642  23.218  1.00  0.00     0.209 A 
ENDBRANCH  24  25
ENDBRANCH  20  23
ENDBRANCH  18  19
ENDBRANCH  17  18
ENDBRANCH  14  17
ENDBRANCH   8  13
ENDBRANCH   5   7
ENDBRANCH   4   5
ENDBRANCH   3   4
ENDBRANCH   2   3
ENDBRANCH   1   2
BRANCH   1  37
ATOM     37  C   UNL A   1      36.053  29.851  28.803  1.00  0.00     0.188 C 
BRANCH  37  38
ATOM     38  C   UNL A   1      34.795  29.831  27.908  1.00  0.00     0.188 C 
BRANCH  38  39
ATOM     39  O   UNL A   1      34.427  30.986  27.167  1.00  0.00    -0.376 OA
BRANCH  39  40
ATOM     40  C   UNL A   1      33.074  31.416  27.154  1.00  0.00     0.202 C 
BRANCH  40  41
ATOM     41  C   UNL A   1      32.646  32.787  27.722  1.00  0.00     0.261 C 
BRANCH  41  42
ATOM     42  O   UNL A   1      33.685  33.694  28.124  1.00  0.00    -0.460 OA
BRANCH  42  43
ATOM     43  C   UNL A   1      33.395  34.504  29.170  1.00  0.00     0.338 C 
ATOM     44  O   UNL A   1      32.426  35.235  29.286  1.00  0.00    -0.246 OA
BRANCH  43  45
ATOM     45  C   UNL A   1      34.349  34.248  30.276  1.00  0.00     0.060 A 
ATOM     46  C   UNL A   1      34.588  35.276  31.200  1.00  0.00     0.016 A 
ATOM     47  C   UNL A   1      35.034  33.037  30.382  1.00  0.00     0.016 A 
ATOM     48  C   UNL A   1      35.539  35.112  32.208  1.00  0.00     0.010 A 
ATOM     49  C   UNL A   1      36.006  32.882  31.380  1.00  0.00     0.010 A 
ATOM     50  C   UNL A   1      36.291  33.932  32.273  1.00  0.00    -0.014 A 
BRANCH  50  51
ATOM     51  C   UNL A   1      37.505  33.885  33.130  1.00  0.00     0.031 A 
ATOM     52  C   UNL A   1      38.854  34.005  32.468  1.00  0.00     0.074 A 
ATOM     53  C   UNL A   1      37.423  33.775  34.470  1.00  0.00     0.049 A 
ATOM     54  N   UNL A   1      40.048  33.961  33.000  1.00  0.00    -0.248 NA
ATOM     55  C   UNL A   1      38.853  34.200  31.009  1.00  0.00     0.031 C 
ATOM     56  C   UNL A   1      36.183  33.701  35.241  1.00  0.00     0.029 A 
ATOM     57  N   UNL A   1      38.414  33.700  35.419  1.00  0.00    -0.354 N 
ATOM     58  C   UNL A   1      40.939  34.107  31.942  1.00  0.00     0.074 A 
ATOM     59  C   UNL A   1      40.150  34.213  30.735  1.00  0.00     0.031 C 
ATOM     60  C   UNL A   1      36.487  33.583  36.546  1.00  0.00     0.029 A 
ATOM     61  C   UNL A   1      37.941  33.536  36.701  1.00  0.00     0.049 A 
ATOM     62  H   UNL A   1      39.372  33.760  35.202  1.00  0.00     0.167 HD
ATOM     63  C   UNL A   1      42.292  34.154  31.970  1.00  0.00     0.031 A 
ATOM     64  C   UNL A   1      38.604  33.347  37.860  1.00  0.00     0.031 A 
ATOM     65  C   UNL A   1      43.079  34.038  33.170  1.00  0.00     0.049 A 
ATOM     66  C   UNL A   1      40.114  33.329  37.857  1.00  0.00     0.074 A 
ATOM     67  C   UNL A   1      44.457  34.087  33.302  1.00  0.00     0.029 A 
ATOM     68  N   UNL A   1      42.562  33.840  34.441  1.00  0.00    -0.354 N 
ATOM     69  N   UNL A   1      40.941  33.490  36.851  1.00  0.00    -0.248 NA
ATOM     70  C   UNL A   1      40.779  33.116  39.151  1.00  0.00     0.031 C 
ATOM     71  C   UNL A   1      44.775  33.854  34.642  1.00  0.00     0.029 A 
ATOM     72  C   UNL A   1      43.594  33.740  35.359  1.00  0.00     0.049 A 
ATOM     73  H   UNL A   1      41.604  33.780  34.659  1.00  0.00     0.167 HD
ATOM     74  C   UNL A   1      42.221  33.439  37.399  1.00  0.00     0.074 A 
ATOM     75  C   UNL A   1      42.057  33.244  38.824  1.00  0.00     0.031 C 
ATOM     76  C   UNL A   1      43.422  33.552  36.778  1.00  0.00     0.031 A 
BRANCH  63  77
ATOM     77  C   UNL A   1      43.014  34.304  30.655  1.00  0.00    -0.014 A 
ATOM     78  C   UNL A   1      43.173  33.215  29.778  1.00  0.00     0.010 A 
ATOM     79  C   UNL A   1      43.500  35.567  30.271  1.00  0.00     0.010 A 
ATOM     80  C   UNL A   1      43.833  33.381  28.557  1.00  0.00     0.020 A 
ATOM     81  C   UNL A   1      44.132  35.744  29.037  1.00  0.00     0.020 A 
ATOM     82  C   UNL A   1      44.307  34.645  28.195  1.00  0.00     0.054 A 
BRANCH  82  83
ATOM     83  S   UNL A   1      45.127  34.836  26.588  1.00  0.00     0.124 S 
ATOM     84  O   UNL A   1      46.359  34.076  26.785  1.00  0.00    -0.237 OA
ATOM     85  O   UNL A   1      44.163  34.243  25.665  1.00  0.00    -0.237 OA
ATOM     86  O   UNL A   1      45.303  36.281  26.457  1.00  0.00    -0.744 OA
ENDBRANCH  82  83
ENDBRANCH  63  77
BRANCH  64  87
ATOM     87  C   UNL A   1      37.850  33.139  39.129  1.00  0.00    -0.014 A 
ATOM     88  C   UNL A   1      37.040  32.003  39.310  1.00  0.00     0.010 A 
ATOM     89  C   UNL A   1      37.921  34.094  40.161  1.00  0.00     0.010 A 
ATOM     90  C   UNL A   1      36.298  31.839  40.485  1.00  0.00     0.020 A 
ATOM     91  C   UNL A   1      37.207  33.918  41.350  1.00  0.00     0.020 A 
ATOM     92  C   UNL A   1      36.389  32.797  41.499  1.00  0.00     0.054 A 
BRANCH  92  93
ATOM     93  S   UNL A   1      35.449  32.543  43.029  1.00  0.00     0.124 S 
ATOM     94  O   UNL A   1      34.910  33.876  43.281  1.00  0.00    -0.237 OA
ATOM     95  O   UNL A   1      34.473  31.530  42.633  1.00  0.00    -0.237 OA
ATOM     96  O   UNL A   1      36.460  32.085  43.980  1.00  0.00    -0.744 OA
ENDBRANCH  92  93
ENDBRANCH  64  87
BRANCH  76  97
ATOM     97  C   UNL A   1      44.662  33.531  37.638  1.00  0.00    -0.014 A 
ATOM     98  C   UNL A   1      45.205  34.707  38.185  1.00  0.00     0.010 A 
ATOM     99  C   UNL A   1      45.265  32.295  37.943  1.00  0.00     0.010 A 
ATOM    100  C   UNL A   1      46.352  34.651  38.983  1.00  0.00     0.020 A 
ATOM    101  C   UNL A   1      46.390  32.232  38.769  1.00  0.00     0.020 A 
ATOM    102  C   UNL A   1      46.938  33.414  39.269  1.00  0.00     0.054 A 
BRANCH 102 103
ATOM    103  S   UNL A   1      48.409  33.366  40.330  1.00  0.00     0.124 S 
ATOM    104  O   UNL A   1      48.856  34.755  40.293  1.00  0.00    -0.237 OA
ATOM    105  O   UNL A   1      47.866  32.913  41.608  1.00  0.00    -0.237 OA
ATOM    106  O   UNL A   1      49.289  32.410  39.660  1.00  0.00    -0.744 OA
ENDBRANCH 102 103
ENDBRANCH  76  97
ENDBRANCH  50  51
ENDBRANCH  43  45
ENDBRANCH  42  43
ENDBRANCH  41  42
ENDBRANCH  40  41
ENDBRANCH  39  40
ENDBRANCH  38  39
ENDBRANCH  37  38
ENDBRANCH   1  37
TORSDOF 26
ENDMDL
