MODEL 1
REMARK VINA RESULT:      -9.7      0.000      0.000
REMARK SMILES CCOc1ccc2nc(S[C@@H](C(=O)OCCOCCOCCOC(=O)c3ccc(-c4c5nc(c(-c6ccc(S(=O)(=O)[O-])cc6)c6ccc([nH]6)c(-c6ccc(S(=O)(=O)[O-])cc6)c6nc(c(-c7ccc(S(=O)(=O)[O-])cc7)c7ccc4[nH]7)C=C6)C=C5)cc3)c3ccccc3)[nH]c2c1
REMARK SMILES IDX 18 1 17 2 16 3 15 4 14 5 12 6 13 7 11 8 10 9 9 10 4 11 5 12
REMARK SMILES IDX 94 13 6 14 93 15 7 16 92 17 8 18 3 20 2 21 1 22 86 23 87 24
REMARK SMILES IDX 91 25 88 26 90 27 89 28 19 29 20 30 21 31 22 32 23 33 24 34
REMARK SMILES IDX 25 35 26 36 27 37 85 38 28 39 84 40 29 41 30 42 31 43 78 44
REMARK SMILES IDX 32 45 83 46 77 47 79 48 33 49 82 50 76 51 75 52 34 54 64 55
REMARK SMILES IDX 45 56 63 57 46 58 49 59 62 60 80 61 47 62 48 63 61 65 81 66
REMARK SMILES IDX 50 67 35 68 36 69 44 70 37 71 43 72 38 73 39 74 40 75 41 76
REMARK SMILES IDX 42 77 65 78 66 79 74 80 67 81 73 82 68 83 69 84 70 85 71 86
REMARK SMILES IDX 72 87 51 88 52 89 60 90 53 91 59 92 54 93 55 94 56 95 57 96
REMARK SMILES IDX 58 97
REMARK H PARENT 92 19 79 53 49 64
REMARK Flexibility Score: inf
ROOT
ATOM      1  C   UNL A   1      34.152  30.982  27.668  1.00  0.00     0.188 C 
ENDROOT
BRANCH   1   2
ATOM      2  O   UNL A   1      34.470  29.612  27.423  1.00  0.00    -0.376 OA
BRANCH   2   3
ATOM      3  C   UNL A   1      33.417  28.770  26.968  1.00  0.00     0.202 C 
BRANCH   3   4
ATOM      4  C   UNL A   1      33.859  27.682  25.988  1.00  0.00     0.261 C 
BRANCH   4   5
ATOM      5  O   UNL A   1      33.312  26.399  26.360  1.00  0.00    -0.462 OA
BRANCH   5   6
ATOM      6  C   UNL A   1      33.731  25.340  25.622  1.00  0.00     0.324 C 
ATOM      7  O   UNL A   1      34.917  25.067  25.463  1.00  0.00    -0.251 OA
BRANCH   6   8
ATOM      8  C   UNL A   1      32.584  24.440  25.123  1.00  0.00     0.194 C 
BRANCH   8   9
ATOM      9  S   UNL A   1      30.944  25.116  25.486  1.00  0.00    -0.068 SA
BRANCH   9  10
ATOM     10  C   UNL A   1      30.386  26.404  24.478  1.00  0.00     0.167 A 
ATOM     11  C   UNL A   1      28.522  29.799  22.115  1.00  0.00     0.121 A 
ATOM     12  C   UNL A   1      29.867  30.043  21.850  1.00  0.00     0.049 A 
ATOM     13  C   UNL A   1      28.113  28.625  22.763  1.00  0.00     0.074 A 
ATOM     14  C   UNL A   1      30.853  29.145  22.292  1.00  0.00     0.034 A 
ATOM     15  C   UNL A   1      29.118  27.817  23.311  1.00  0.00     0.070 A 
ATOM     16  C   UNL A   1      30.468  28.058  23.097  1.00  0.00     0.090 A 
ATOM     17  N   UNL A   1      29.094  26.745  24.179  1.00  0.00    -0.333 N 
ATOM     18  N   UNL A   1      31.231  27.155  23.797  1.00  0.00    -0.223 NA
ATOM     19  H   UNL A   1      28.286  26.301  24.526  1.00  0.00     0.169 HD
BRANCH  11  20
ATOM     20  O   UNL A   1      27.621  30.832  22.077  1.00  0.00    -0.494 OA
BRANCH  20  21
ATOM     21  C   UNL A   1      28.146  32.139  21.860  1.00  0.00     0.226 C 
ATOM     22  C   UNL A   1      27.687  32.716  20.535  1.00  0.00     0.049 C 
ENDBRANCH  20  21
ENDBRANCH  11  20
ENDBRANCH   9  10
ENDBRANCH   8   9
BRANCH   8  23
ATOM     23  C   UNL A   1      32.847  22.942  25.208  1.00  0.00    -0.023 A 
ATOM     24  C   UNL A   1      33.291  22.370  26.414  1.00  0.00     0.005 A 
ATOM     25  C   UNL A   1      32.488  22.063  24.168  1.00  0.00     0.005 A 
ATOM     26  C   UNL A   1      33.452  20.989  26.546  1.00  0.00     0.000 A 
ATOM     27  C   UNL A   1      32.606  20.678  24.317  1.00  0.00     0.000 A 
ATOM     28  C   UNL A   1      33.104  20.142  25.499  1.00  0.00     0.000 A 
ENDBRANCH   8  23
ENDBRANCH   6   8
ENDBRANCH   5   6
ENDBRANCH   4   5
ENDBRANCH   3   4
ENDBRANCH   2   3
ENDBRANCH   1   2
BRANCH   1  29
ATOM     29  C   UNL A   1      35.312  31.949  27.968  1.00  0.00     0.188 C 
BRANCH  29  30
ATOM     30  O   UNL A   1      34.921  33.034  28.804  1.00  0.00    -0.376 OA
BRANCH  30  31
ATOM     31  C   UNL A   1      33.668  33.602  28.439  1.00  0.00     0.202 C 
BRANCH  31  32
ATOM     32  C   UNL A   1      33.514  34.979  29.074  1.00  0.00     0.261 C 
BRANCH  32  33
ATOM     33  O   UNL A   1      32.645  34.896  30.222  1.00  0.00    -0.460 OA
BRANCH  33  34
ATOM     34  C   UNL A   1      32.984  35.630  31.302  1.00  0.00     0.338 C 
ATOM     35  O   UNL A   1      32.516  36.710  31.612  1.00  0.00    -0.246 OA
BRANCH  34  36
ATOM     36  C   UNL A   1      34.080  34.950  32.044  1.00  0.00     0.060 A 
ATOM     37  C   UNL A   1      35.406  35.401  32.023  1.00  0.00     0.016 A 
ATOM     38  C   UNL A   1      33.779  33.758  32.699  1.00  0.00     0.016 A 
ATOM     39  C   UNL A   1      36.434  34.619  32.564  1.00  0.00     0.010 A 
ATOM     40  C   UNL A   1      34.799  33.004  33.288  1.00  0.00     0.010 A 
ATOM     41  C   UNL A   1      36.144  33.400  33.187  1.00  0.00    -0.014 A 
BRANCH  41  42
ATOM     42  C   UNL A   1      37.210  32.480  33.672  1.00  0.00     0.031 A 
ATOM     43  C   UNL A   1      37.897  32.763  34.984  1.00  0.00     0.074 A 
ATOM     44  C   UNL A   1      37.602  31.412  32.952  1.00  0.00     0.049 A 
ATOM     45  N   UNL A   1      39.055  32.349  35.428  1.00  0.00    -0.248 NA
ATOM     46  C   UNL A   1      37.176  33.639  35.917  1.00  0.00     0.031 C 
ATOM     47  C   UNL A   1      36.974  30.931  31.723  1.00  0.00     0.029 A 
ATOM     48  N   UNL A   1      38.658  30.556  33.148  1.00  0.00    -0.354 N 
ATOM     49  C   UNL A   1      39.237  32.979  36.656  1.00  0.00     0.074 A 
ATOM     50  C   UNL A   1      38.057  33.781  36.898  1.00  0.00     0.031 C 
ATOM     51  C   UNL A   1      37.661  29.871  31.268  1.00  0.00     0.029 A 
ATOM     52  C   UNL A   1      38.833  29.669  32.114  1.00  0.00     0.049 A 
ATOM     53  H   UNL A   1      39.231  30.576  33.948  1.00  0.00     0.167 HD
ATOM     54  C   UNL A   1      40.300  32.906  37.493  1.00  0.00     0.031 A 
ATOM     55  C   UNL A   1      39.858  28.844  31.827  1.00  0.00     0.031 A 
ATOM     56  C   UNL A   1      41.446  32.065  37.264  1.00  0.00     0.049 A 
ATOM     57  C   UNL A   1      41.067  28.826  32.717  1.00  0.00     0.074 A 
ATOM     58  C   UNL A   1      42.581  31.920  38.042  1.00  0.00     0.029 A 
ATOM     59  N   UNL A   1      41.590  31.210  36.182  1.00  0.00    -0.354 N 
ATOM     60  N   UNL A   1      41.294  29.512  33.812  1.00  0.00    -0.248 NA
ATOM     61  C   UNL A   1      42.169  27.937  32.321  1.00  0.00     0.031 C 
ATOM     62  C   UNL A   1      43.429  31.001  37.410  1.00  0.00     0.029 A 
ATOM     63  C   UNL A   1      42.798  30.541  36.266  1.00  0.00     0.049 A 
ATOM     64  H   UNL A   1      40.930  31.095  35.461  1.00  0.00     0.167 HD
ATOM     65  C   UNL A   1      42.562  29.134  34.238  1.00  0.00     0.074 A 
ATOM     66  C   UNL A   1      43.044  28.146  33.295  1.00  0.00     0.031 C 
ATOM     67  C   UNL A   1      43.265  29.568  35.314  1.00  0.00     0.031 A 
BRANCH  54  68
ATOM     68  C   UNL A   1      40.311  33.801  38.703  1.00  0.00    -0.014 A 
ATOM     69  C   UNL A   1      40.919  35.068  38.684  1.00  0.00     0.010 A 
ATOM     70  C   UNL A   1      39.640  33.382  39.868  1.00  0.00     0.010 A 
ATOM     71  C   UNL A   1      40.881  35.886  39.819  1.00  0.00     0.020 A 
ATOM     72  C   UNL A   1      39.580  34.206  40.995  1.00  0.00     0.020 A 
ATOM     73  C   UNL A   1      40.215  35.448  40.968  1.00  0.00     0.054 A 
BRANCH  73  74
ATOM     74  S   UNL A   1      40.151  36.539  42.417  1.00  0.00     0.124 S 
ATOM     75  O   UNL A   1      41.550  36.940  42.549  1.00  0.00    -0.237 OA
ATOM     76  O   UNL A   1      39.235  37.592  41.988  1.00  0.00    -0.237 OA
ATOM     77  O   UNL A   1      39.647  35.675  43.480  1.00  0.00    -0.744 OA
ENDBRANCH  73  74
ENDBRANCH  54  68
BRANCH  55  78
ATOM     78  C   UNL A   1      39.809  28.035  30.580  1.00  0.00    -0.014 A 
ATOM     79  C   UNL A   1      40.535  28.430  29.444  1.00  0.00     0.010 A 
ATOM     80  C   UNL A   1      39.081  26.831  30.549  1.00  0.00     0.010 A 
ATOM     81  C   UNL A   1      40.546  27.623  28.303  1.00  0.00     0.020 A 
ATOM     82  C   UNL A   1      39.114  26.010  29.421  1.00  0.00     0.020 A 
ATOM     83  C   UNL A   1      39.844  26.414  28.303  1.00  0.00     0.054 A 
BRANCH  83  84
ATOM     84  S   UNL A   1      39.966  25.327  26.854  1.00  0.00     0.124 S 
ATOM     85  O   UNL A   1      40.611  26.197  25.877  1.00  0.00    -0.237 OA
ATOM     86  O   UNL A   1      40.779  24.222  27.354  1.00  0.00    -0.237 OA
ATOM     87  O   UNL A   1      38.574  24.985  26.571  1.00  0.00    -0.744 OA
ENDBRANCH  83  84
ENDBRANCH  55  78
BRANCH  67  88
ATOM     88  C   UNL A   1      44.619  28.954  35.542  1.00  0.00    -0.014 A 
ATOM     89  C   UNL A   1      44.765  27.791  36.316  1.00  0.00     0.010 A 
ATOM     90  C   UNL A   1      45.752  29.529  34.938  1.00  0.00     0.010 A 
ATOM     91  C   UNL A   1      46.031  27.229  36.510  1.00  0.00     0.020 A 
ATOM     92  C   UNL A   1      47.015  28.958  35.112  1.00  0.00     0.020 A 
ATOM     93  C   UNL A   1      47.148  27.820  35.910  1.00  0.00     0.054 A 
BRANCH  93  94
ATOM     94  S   UNL A   1      48.777  27.059  36.152  1.00  0.00     0.124 S 
ATOM     95  O   UNL A   1      49.169  27.590  37.454  1.00  0.00    -0.237 OA
ATOM     96  O   UNL A   1      48.474  25.631  36.121  1.00  0.00    -0.237 OA
ATOM     97  O   UNL A   1      49.557  27.549  35.018  1.00  0.00    -0.744 OA
ENDBRANCH  93  94
ENDBRANCH  67  88
ENDBRANCH  41  42
ENDBRANCH  34  36
ENDBRANCH  33  34
ENDBRANCH  32  33
ENDBRANCH  31  32
ENDBRANCH  30  31
ENDBRANCH  29  30
ENDBRANCH   1  29
TORSDOF 25
ENDMDL
MODEL 2
REMARK VINA RESULT:      -9.6      1.515      4.461
REMARK SMILES CCOc1ccc2nc(S[C@@H](C(=O)OCCOCCOCCOC(=O)c3ccc(-c4c5nc(c(-c6ccc(S(=O)(=O)[O-])cc6)c6ccc([nH]6)c(-c6ccc(S(=O)(=O)[O-])cc6)c6nc(c(-c7ccc(S(=O)(=O)[O-])cc7)c7ccc4[nH]7)C=C6)C=C5)cc3)c3ccccc3)[nH]c2c1
REMARK SMILES IDX 18 1 17 2 16 3 15 4 14 5 12 6 13 7 11 8 10 9 9 10 4 11 5 12
REMARK SMILES IDX 94 13 6 14 93 15 7 16 92 17 8 18 3 20 2 21 1 22 86 23 87 24
REMARK SMILES IDX 91 25 88 26 90 27 89 28 19 29 20 30 21 31 22 32 23 33 24 34
REMARK SMILES IDX 25 35 26 36 27 37 85 38 28 39 84 40 29 41 30 42 31 43 78 44
REMARK SMILES IDX 32 45 83 46 77 47 79 48 33 49 82 50 76 51 75 52 34 54 64 55
REMARK SMILES IDX 45 56 63 57 46 58 49 59 62 60 80 61 47 62 48 63 61 65 81 66
REMARK SMILES IDX 50 67 35 68 36 69 44 70 37 71 43 72 38 73 39 74 40 75 41 76
REMARK SMILES IDX 42 77 65 78 66 79 74 80 67 81 73 82 68 83 69 84 70 85 71 86
REMARK SMILES IDX 72 87 51 88 52 89 60 90 53 91 59 92 54 93 55 94 56 95 57 96
REMARK SMILES IDX 58 97
REMARK H PARENT 92 19 79 53 49 64
REMARK Flexibility Score: inf
ROOT
ATOM      1  C   UNL A   1      33.901  30.593  27.303  1.00  0.00     0.188 C 
ENDROOT
BRANCH   1   2
ATOM      2  O   UNL A   1      33.869  29.172  27.439  1.00  0.00    -0.376 OA
BRANCH   2   3
ATOM      3  C   UNL A   1      33.004  28.454  26.565  1.00  0.00     0.202 C 
BRANCH   3   4
ATOM      4  C   UNL A   1      32.106  29.340  25.700  1.00  0.00     0.261 C 
BRANCH   4   5
ATOM      5  O   UNL A   1      32.646  29.481  24.369  1.00  0.00    -0.462 OA
BRANCH   5   6
ATOM      6  C   UNL A   1      31.913  28.930  23.370  1.00  0.00     0.324 C 
ATOM      7  O   UNL A   1      32.418  28.459  22.355  1.00  0.00    -0.251 OA
BRANCH   6   8
ATOM      8  C   UNL A   1      30.409  28.826  23.689  1.00  0.00     0.194 C 
BRANCH   8   9
ATOM      9  S   UNL A   1      29.834  27.114  23.836  1.00  0.00    -0.068 SA
BRANCH   9  10
ATOM     10  C   UNL A   1      31.016  25.923  24.251  1.00  0.00     0.167 A 
ATOM     11  C   UNL A   1      34.387  22.971  24.965  1.00  0.00     0.121 A 
ATOM     12  C   UNL A   1      33.859  23.037  26.252  1.00  0.00     0.049 A 
ATOM     13  C   UNL A   1      33.726  23.565  23.881  1.00  0.00     0.074 A 
ATOM     14  C   UNL A   1      32.683  23.764  26.501  1.00  0.00     0.034 A 
ATOM     15  C   UNL A   1      32.636  24.394  24.175  1.00  0.00     0.070 A 
ATOM     16  C   UNL A   1      32.112  24.510  25.455  1.00  0.00     0.090 A 
ATOM     17  N   UNL A   1      31.905  25.292  23.423  1.00  0.00    -0.333 N 
ATOM     18  N   UNL A   1      31.094  25.432  25.473  1.00  0.00    -0.223 NA
ATOM     19  H   UNL A   1      32.006  25.451  22.456  1.00  0.00     0.169 HD
BRANCH  11  20
ATOM     20  O   UNL A   1      35.706  22.647  24.785  1.00  0.00    -0.494 OA
BRANCH  20  21
ATOM     21  C   UNL A   1      36.640  23.724  24.775  1.00  0.00     0.226 C 
ATOM     22  C   UNL A   1      37.573  23.670  25.969  1.00  0.00     0.049 C 
ENDBRANCH  20  21
ENDBRANCH  11  20
ENDBRANCH   9  10
ENDBRANCH   8   9
BRANCH   8  23
ATOM     23  C   UNL A   1      29.531  29.891  23.048  1.00  0.00    -0.023 A 
ATOM     24  C   UNL A   1      28.862  30.834  23.852  1.00  0.00     0.005 A 
ATOM     25  C   UNL A   1      29.499  30.091  21.655  1.00  0.00     0.005 A 
ATOM     26  C   UNL A   1      28.124  31.876  23.287  1.00  0.00     0.000 A 
ATOM     27  C   UNL A   1      28.798  31.161  21.092  1.00  0.00     0.000 A 
ATOM     28  C   UNL A   1      28.097  32.044  21.906  1.00  0.00     0.000 A 
ENDBRANCH   8  23
ENDBRANCH   6   8
ENDBRANCH   5   6
ENDBRANCH   4   5
ENDBRANCH   3   4
ENDBRANCH   2   3
ENDBRANCH   1   2
BRANCH   1  29
ATOM     29  C   UNL A   1      35.147  31.338  27.817  1.00  0.00     0.188 C 
BRANCH  29  30
ATOM     30  O   UNL A   1      35.026  32.753  27.706  1.00  0.00    -0.376 OA
BRANCH  30  31
ATOM     31  C   UNL A   1      33.708  33.226  27.957  1.00  0.00     0.202 C 
BRANCH  31  32
ATOM     32  C   UNL A   1      33.762  34.574  28.667  1.00  0.00     0.261 C 
BRANCH  32  33
ATOM     33  O   UNL A   1      32.792  34.607  29.733  1.00  0.00    -0.460 OA
BRANCH  33  34
ATOM     34  C   UNL A   1      33.091  35.361  30.811  1.00  0.00     0.338 C 
ATOM     35  O   UNL A   1      32.591  36.435  31.097  1.00  0.00    -0.246 OA
BRANCH  34  36
ATOM     36  C   UNL A   1      34.185  34.717  31.585  1.00  0.00     0.060 A 
ATOM     37  C   UNL A   1      35.362  35.388  31.940  1.00  0.00     0.016 A 
ATOM     38  C   UNL A   1      34.065  33.358  31.872  1.00  0.00     0.016 A 
ATOM     39  C   UNL A   1      36.446  34.687  32.486  1.00  0.00     0.010 A 
ATOM     40  C   UNL A   1      35.127  32.670  32.468  1.00  0.00     0.010 A 
ATOM     41  C   UNL A   1      36.347  33.314  32.738  1.00  0.00    -0.014 A 
BRANCH  41  42
ATOM     42  C   UNL A   1      37.507  32.505  33.206  1.00  0.00     0.031 A 
ATOM     43  C   UNL A   1      38.009  32.671  34.618  1.00  0.00     0.074 A 
ATOM     44  C   UNL A   1      38.143  31.647  32.388  1.00  0.00     0.049 A 
ATOM     45  N   UNL A   1      39.174  32.376  35.132  1.00  0.00    -0.248 NA
ATOM     46  C   UNL A   1      37.062  33.257  35.577  1.00  0.00     0.031 C 
ATOM     47  C   UNL A   1      37.727  31.283  31.035  1.00  0.00     0.029 A 
ATOM     48  N   UNL A   1      39.309  30.945  32.581  1.00  0.00    -0.354 N 
ATOM     49  C   UNL A   1      39.128  32.815  36.452  1.00  0.00     0.074 A 
ATOM     50  C   UNL A   1      37.810  33.370  36.667  1.00  0.00     0.031 C 
ATOM     51  C   UNL A   1      38.627  30.434  30.514  1.00  0.00     0.029 A 
ATOM     52  C   UNL A   1      39.731  30.280  31.456  1.00  0.00     0.049 A 
ATOM     53  H   UNL A   1      39.793  30.923  33.438  1.00  0.00     0.167 HD
ATOM     54  C   UNL A   1      40.105  32.772  37.390  1.00  0.00     0.031 A 
ATOM     55  C   UNL A   1      40.907  29.686  31.175  1.00  0.00     0.031 A 
ATOM     56  C   UNL A   1      41.396  32.170  37.178  1.00  0.00     0.049 A 
ATOM     57  C   UNL A   1      42.012  29.710  32.191  1.00  0.00     0.074 A 
ATOM     58  C   UNL A   1      42.461  32.078  38.056  1.00  0.00     0.029 A 
ATOM     59  N   UNL A   1      41.787  31.540  36.007  1.00  0.00    -0.354 N 
ATOM     60  N   UNL A   1      42.013  30.232  33.394  1.00  0.00    -0.248 NA
ATOM     61  C   UNL A   1      43.283  29.083  31.803  1.00  0.00     0.031 C 
ATOM     62  C   UNL A   1      43.511  31.421  37.403  1.00  0.00     0.029 A 
ATOM     63  C   UNL A   1      43.080  31.063  36.136  1.00  0.00     0.049 A 
ATOM     64  H   UNL A   1      41.227  31.443  35.203  1.00  0.00     0.167 HD
ATOM     65  C   UNL A   1      43.282  29.992  33.909  1.00  0.00     0.074 A 
ATOM     66  C   UNL A   1      44.014  29.262  32.895  1.00  0.00     0.031 C 
ATOM     67  C   UNL A   1      43.795  30.347  35.113  1.00  0.00     0.031 A 
BRANCH  54  68
ATOM     68  C   UNL A   1      39.847  33.444  38.712  1.00  0.00    -0.014 A 
ATOM     69  C   UNL A   1      39.698  34.838  38.819  1.00  0.00     0.010 A 
ATOM     70  C   UNL A   1      39.691  32.650  39.863  1.00  0.00     0.010 A 
ATOM     71  C   UNL A   1      39.425  35.425  40.060  1.00  0.00     0.020 A 
ATOM     72  C   UNL A   1      39.397  33.230  41.100  1.00  0.00     0.020 A 
ATOM     73  C   UNL A   1      39.281  34.617  41.193  1.00  0.00     0.054 A 
BRANCH  73  74
ATOM     74  S   UNL A   1      38.898  35.399  42.786  1.00  0.00     0.124 S 
ATOM     75  O   UNL A   1      37.441  35.302  42.822  1.00  0.00    -0.237 OA
ATOM     76  O   UNL A   1      39.607  34.551  43.740  1.00  0.00    -0.237 OA
ATOM     77  O   UNL A   1      39.430  36.752  42.645  1.00  0.00    -0.744 OA
ENDBRANCH  73  74
ENDBRANCH  54  68
BRANCH  55  78
ATOM     78  C   UNL A   1      41.116  29.097  29.825  1.00  0.00    -0.014 A 
ATOM     79  C   UNL A   1      41.752  29.836  28.815  1.00  0.00     0.010 A 
ATOM     80  C   UNL A   1      40.731  27.767  29.569  1.00  0.00     0.010 A 
ATOM     81  C   UNL A   1      42.015  29.248  27.574  1.00  0.00     0.020 A 
ATOM     82  C   UNL A   1      41.018  27.169  28.341  1.00  0.00     0.020 A 
ATOM     83  C   UNL A   1      41.656  27.916  27.349  1.00  0.00     0.054 A 
BRANCH  83  84
ATOM     84  S   UNL A   1      42.109  27.137  25.774  1.00  0.00     0.124 S 
ATOM     85  O   UNL A   1      42.223  28.291  24.889  1.00  0.00    -0.237 OA
ATOM     86  O   UNL A   1      43.363  26.463  26.103  1.00  0.00    -0.237 OA
ATOM     87  O   UNL A   1      40.985  26.243  25.503  1.00  0.00    -0.744 OA
ENDBRANCH  83  84
ENDBRANCH  55  78
BRANCH  67  88
ATOM     88  C   UNL A   1      45.208  29.923  35.409  1.00  0.00    -0.014 A 
ATOM     89  C   UNL A   1      46.292  30.766  35.117  1.00  0.00     0.010 A 
ATOM     90  C   UNL A   1      45.444  28.681  36.027  1.00  0.00     0.010 A 
ATOM     91  C   UNL A   1      47.598  30.360  35.408  1.00  0.00     0.020 A 
ATOM     92  C   UNL A   1      46.745  28.281  36.338  1.00  0.00     0.020 A 
ATOM     93  C   UNL A   1      47.816  29.117  36.012  1.00  0.00     0.054 A 
BRANCH  93  94
ATOM     94  S   UNL A   1      49.516  28.621  36.407  1.00  0.00     0.124 S 
ATOM     95  O   UNL A   1      50.113  28.505  35.079  1.00  0.00    -0.237 OA
ATOM     96  O   UNL A   1      49.997  29.735  37.218  1.00  0.00    -0.237 OA
ATOM     97  O   UNL A   1      49.348  27.360  37.126  1.00  0.00    -0.744 OA
ENDBRANCH  93  94
ENDBRANCH  67  88
ENDBRANCH  41  42
ENDBRANCH  34  36
ENDBRANCH  33  34
ENDBRANCH  32  33
ENDBRANCH  31  32
ENDBRANCH  30  31
ENDBRANCH  29  30
ENDBRANCH   1  29
TORSDOF 25
ENDMDL
MODEL 3
REMARK VINA RESULT:      -8.7      5.233      7.345
REMARK SMILES CCOc1ccc2nc(S[C@@H](C(=O)OCCOCCOCCOC(=O)c3ccc(-c4c5nc(c(-c6ccc(S(=O)(=O)[O-])cc6)c6ccc([nH]6)c(-c6ccc(S(=O)(=O)[O-])cc6)c6nc(c(-c7ccc(S(=O)(=O)[O-])cc7)c7ccc4[nH]7)C=C6)C=C5)cc3)c3ccccc3)[nH]c2c1
REMARK SMILES IDX 18 1 17 2 16 3 15 4 14 5 12 6 13 7 11 8 10 9 9 10 4 11 5 12
REMARK SMILES IDX 94 13 6 14 93 15 7 16 92 17 8 18 3 20 2 21 1 22 86 23 87 24
REMARK SMILES IDX 91 25 88 26 90 27 89 28 19 29 20 30 21 31 22 32 23 33 24 34
REMARK SMILES IDX 25 35 26 36 27 37 85 38 28 39 84 40 29 41 30 42 31 43 78 44
REMARK SMILES IDX 32 45 83 46 77 47 79 48 33 49 82 50 76 51 75 52 34 54 64 55
REMARK SMILES IDX 45 56 63 57 46 58 49 59 62 60 80 61 47 62 48 63 61 65 81 66
REMARK SMILES IDX 50 67 35 68 36 69 44 70 37 71 43 72 38 73 39 74 40 75 41 76
REMARK SMILES IDX 42 77 65 78 66 79 74 80 67 81 73 82 68 83 69 84 70 85 71 86
REMARK SMILES IDX 72 87 51 88 52 89 60 90 53 91 59 92 54 93 55 94 56 95 57 96
REMARK SMILES IDX 58 97
REMARK H PARENT 92 19 79 53 49 64
REMARK Flexibility Score: inf
ROOT
ATOM      1  C   UNL A   1      34.182  30.003  27.322  1.00  0.00     0.188 C 
ENDROOT
BRANCH   1   2
ATOM      2  O   UNL A   1      34.121  28.579  27.408  1.00  0.00    -0.376 OA
BRANCH   2   3
ATOM      3  C   UNL A   1      32.986  27.940  26.832  1.00  0.00     0.202 C 
BRANCH   3   4
ATOM      4  C   UNL A   1      32.449  28.625  25.573  1.00  0.00     0.261 C 
BRANCH   4   5
ATOM      5  O   UNL A   1      32.998  28.020  24.383  1.00  0.00    -0.462 OA
BRANCH   5   6
ATOM      6  C   UNL A   1      32.130  27.299  23.630  1.00  0.00     0.324 C 
ATOM      7  O   UNL A   1      32.497  26.510  22.764  1.00  0.00    -0.251 OA
BRANCH   6   8
ATOM      8  C   UNL A   1      30.658  27.459  24.057  1.00  0.00     0.194 C 
BRANCH   8   9
ATOM      9  S   UNL A   1      29.969  25.956  24.797  1.00  0.00    -0.068 SA
BRANCH   9  10
ATOM     10  C   UNL A   1      31.095  24.752  25.318  1.00  0.00     0.167 A 
ATOM     11  C   UNL A   1      34.336  21.737  26.312  1.00  0.00     0.121 A 
ATOM     12  C   UNL A   1      33.764  21.887  27.572  1.00  0.00     0.049 A 
ATOM     13  C   UNL A   1      33.736  22.293  25.174  1.00  0.00     0.074 A 
ATOM     14  C   UNL A   1      32.604  22.663  27.739  1.00  0.00     0.034 A 
ATOM     15  C   UNL A   1      32.664  23.171  25.383  1.00  0.00     0.070 A 
ATOM     16  C   UNL A   1      32.098  23.370  26.635  1.00  0.00     0.090 A 
ATOM     17  N   UNL A   1      31.992  24.050  24.558  1.00  0.00    -0.333 N 
ATOM     18  N   UNL A   1      31.111  24.323  26.565  1.00  0.00    -0.223 NA
ATOM     19  H   UNL A   1      32.134  24.155  23.589  1.00  0.00     0.169 HD
BRANCH  11  20
ATOM     20  O   UNL A   1      35.650  21.363  26.200  1.00  0.00    -0.494 OA
BRANCH  20  21
ATOM     21  C   UNL A   1      36.130  21.073  24.890  1.00  0.00     0.226 C 
ATOM     22  C   UNL A   1      37.042  19.862  24.880  1.00  0.00     0.049 C 
ENDBRANCH  20  21
ENDBRANCH  11  20
ENDBRANCH   9  10
ENDBRANCH   8   9
BRANCH   8  23
ATOM     23  C   UNL A   1      29.809  28.342  23.153  1.00  0.00    -0.023 A 
ATOM     24  C   UNL A   1      28.406  28.242  23.183  1.00  0.00     0.005 A 
ATOM     25  C   UNL A   1      30.366  29.400  22.408  1.00  0.00     0.005 A 
ATOM     26  C   UNL A   1      27.600  29.102  22.433  1.00  0.00     0.000 A 
ATOM     27  C   UNL A   1      29.558  30.288  21.694  1.00  0.00     0.000 A 
ATOM     28  C   UNL A   1      28.176  30.130  21.693  1.00  0.00     0.000 A 
ENDBRANCH   8  23
ENDBRANCH   6   8
ENDBRANCH   5   6
ENDBRANCH   4   5
ENDBRANCH   3   4
ENDBRANCH   2   3
ENDBRANCH   1   2
BRANCH   1  29
ATOM     29  C   UNL A   1      35.557  30.675  27.487  1.00  0.00     0.188 C 
BRANCH  29  30
ATOM     30  O   UNL A   1      35.467  31.978  28.056  1.00  0.00    -0.376 OA
BRANCH  30  31
ATOM     31  C   UNL A   1      34.325  32.150  28.888  1.00  0.00     0.202 C 
BRANCH  31  32
ATOM     32  C   UNL A   1      34.693  32.975  30.116  1.00  0.00     0.261 C 
BRANCH  32  33
ATOM     33  O   UNL A   1      34.580  32.164  31.303  1.00  0.00    -0.460 OA
BRANCH  33  34
ATOM     34  C   UNL A   1      34.387  32.811  32.471  1.00  0.00     0.338 C 
ATOM     35  O   UNL A   1      33.313  33.037  32.998  1.00  0.00    -0.246 OA
BRANCH  34  36
ATOM     36  C   UNL A   1      35.694  33.278  33.007  1.00  0.00     0.060 A 
ATOM     37  C   UNL A   1      36.124  34.607  32.910  1.00  0.00     0.016 A 
ATOM     38  C   UNL A   1      36.561  32.320  33.531  1.00  0.00     0.016 A 
ATOM     39  C   UNL A   1      37.440  34.957  33.241  1.00  0.00     0.010 A 
ATOM     40  C   UNL A   1      37.856  32.681  33.914  1.00  0.00     0.010 A 
ATOM     41  C   UNL A   1      38.328  33.992  33.729  1.00  0.00    -0.014 A 
BRANCH  41  42
ATOM     42  C   UNL A   1      39.766  34.289  33.984  1.00  0.00     0.031 A 
ATOM     43  C   UNL A   1      40.194  34.788  35.340  1.00  0.00     0.074 A 
ATOM     44  C   UNL A   1      40.695  34.154  33.019  1.00  0.00     0.049 A 
ATOM     45  N   UNL A   1      41.270  35.442  35.690  1.00  0.00    -0.248 NA
ATOM     46  C   UNL A   1      39.273  34.513  36.452  1.00  0.00     0.031 C 
ATOM     47  C   UNL A   1      40.475  33.583  31.692  1.00  0.00     0.029 A 
ATOM     48  N   UNL A   1      42.017  34.526  33.011  1.00  0.00    -0.354 N 
ATOM     49  C   UNL A   1      41.118  35.727  37.043  1.00  0.00     0.074 A 
ATOM     50  C   UNL A   1      39.858  35.150  37.458  1.00  0.00     0.031 C 
ATOM     51  C   UNL A   1      41.619  33.650  30.993  1.00  0.00     0.029 A 
ATOM     52  C   UNL A   1      42.616  34.362  31.786  1.00  0.00     0.049 A 
ATOM     53  H   UNL A   1      42.488  34.874  33.803  1.00  0.00     0.167 HD
ATOM     54  C   UNL A   1      41.948  36.422  37.858  1.00  0.00     0.031 A 
ATOM     55  C   UNL A   1      43.798  34.808  31.319  1.00  0.00     0.031 A 
ATOM     56  C   UNL A   1      43.224  36.947  37.446  1.00  0.00     0.049 A 
ATOM     57  C   UNL A   1      44.679  35.643  32.203  1.00  0.00     0.074 A 
ATOM     58  C   UNL A   1      44.141  37.672  38.187  1.00  0.00     0.029 A 
ATOM     59  N   UNL A   1      43.770  36.785  36.182  1.00  0.00    -0.354 N 
ATOM     60  N   UNL A   1      44.480  36.018  33.445  1.00  0.00    -0.248 NA
ATOM     61  C   UNL A   1      45.933  36.134  31.616  1.00  0.00     0.031 C 
ATOM     62  C   UNL A   1      45.227  37.978  37.359  1.00  0.00     0.029 A 
ATOM     63  C   UNL A   1      45.007  37.402  36.119  1.00  0.00     0.049 A 
ATOM     64  H   UNL A   1      43.342  36.300  35.440  1.00  0.00     0.167 HD
ATOM     65  C   UNL A   1      45.588  36.785  33.789  1.00  0.00     0.074 A 
ATOM     66  C   UNL A   1      46.460  36.804  32.632  1.00  0.00     0.031 C 
ATOM     67  C   UNL A   1      45.857  37.418  34.957  1.00  0.00     0.031 A 
BRANCH  54  68
ATOM     68  C   UNL A   1      41.484  36.713  39.260  1.00  0.00    -0.014 A 
ATOM     69  C   UNL A   1      40.540  37.717  39.536  1.00  0.00     0.010 A 
ATOM     70  C   UNL A   1      41.964  35.916  40.318  1.00  0.00     0.010 A 
ATOM     71  C   UNL A   1      40.107  37.936  40.850  1.00  0.00     0.020 A 
ATOM     72  C   UNL A   1      41.517  36.118  41.626  1.00  0.00     0.020 A 
ATOM     73  C   UNL A   1      40.601  37.138  41.885  1.00  0.00     0.054 A 
BRANCH  73  74
ATOM     74  S   UNL A   1      40.002  37.421  43.575  1.00  0.00     0.124 S 
ATOM     75  O   UNL A   1      41.148  36.992  44.373  1.00  0.00    -0.237 OA
ATOM     76  O   UNL A   1      39.733  38.857  43.585  1.00  0.00    -0.237 OA
ATOM     77  O   UNL A   1      38.821  36.569  43.671  1.00  0.00    -0.744 OA
ENDBRANCH  73  74
ENDBRANCH  54  68
BRANCH  55  78
ATOM     78  C   UNL A   1      44.165  34.538  29.903  1.00  0.00    -0.014 A 
ATOM     79  C   UNL A   1      44.797  33.336  29.546  1.00  0.00     0.010 A 
ATOM     80  C   UNL A   1      43.823  35.463  28.898  1.00  0.00     0.010 A 
ATOM     81  C   UNL A   1      45.067  33.056  28.204  1.00  0.00     0.020 A 
ATOM     82  C   UNL A   1      44.066  35.173  27.554  1.00  0.00     0.020 A 
ATOM     83  C   UNL A   1      44.690  33.971  27.216  1.00  0.00     0.054 A 
BRANCH  83  84
ATOM     84  S   UNL A   1      44.945  33.538  25.472  1.00  0.00     0.124 S 
ATOM     85  O   UNL A   1      43.574  33.406  24.990  1.00  0.00    -0.237 OA
ATOM     86  O   UNL A   1      45.688  34.688  24.965  1.00  0.00    -0.237 OA
ATOM     87  O   UNL A   1      45.711  32.295  25.541  1.00  0.00    -0.744 OA
ENDBRANCH  83  84
ENDBRANCH  55  78
BRANCH  67  88
ATOM     88  C   UNL A   1      47.161  38.161  35.051  1.00  0.00    -0.014 A 
ATOM     89  C   UNL A   1      48.336  37.512  35.464  1.00  0.00     0.010 A 
ATOM     90  C   UNL A   1      47.214  39.517  34.679  1.00  0.00     0.010 A 
ATOM     91  C   UNL A   1      49.541  38.217  35.536  1.00  0.00     0.020 A 
ATOM     92  C   UNL A   1      48.421  40.219  34.730  1.00  0.00     0.020 A 
ATOM     93  C   UNL A   1      49.574  39.568  35.173  1.00  0.00     0.054 A 
BRANCH  93  94
ATOM     94  S   UNL A   1      51.154  40.456  35.247  1.00  0.00     0.124 S 
ATOM     95  O   UNL A   1      50.959  41.324  36.405  1.00  0.00    -0.237 OA
ATOM     96  O   UNL A   1      52.123  39.378  35.427  1.00  0.00    -0.237 OA
ATOM     97  O   UNL A   1      51.225  41.141  33.959  1.00  0.00    -0.744 OA
ENDBRANCH  93  94
ENDBRANCH  67  88
ENDBRANCH  41  42
ENDBRANCH  34  36
ENDBRANCH  33  34
ENDBRANCH  32  33
ENDBRANCH  31  32
ENDBRANCH  30  31
ENDBRANCH  29  30
ENDBRANCH   1  29
TORSDOF 25
ENDMDL
