MODEL 1
REMARK VINA RESULT:     -11.3      0.000      0.000
REMARK SMILES Cc1c(CC(=O)OCCOCCOCCOC(=O)c2ccc(-c3c4nc(c(-c5ccc(S(=O)(=O)[O-])cc5)c5ccc([nH]5)c(-c5ccc(S(=O)(=O)[O-])cc5)c5nc(c(-c6ccc(S(=O)(=O)[O-])cc6)c6ccc3[nH]6)C=C5)C=C4)cc2)c2ccccc2n1C(=O)c1ccc(Cl)cc1
REMARK SMILES IDX 11 1 10 2 9 3 8 4 7 5 5 6 6 7 4 8 3 9 1 10 2 11 85 12 79 13
REMARK SMILES IDX 84 14 80 15 83 16 81 17 82 18 86 19 87 20 88 21 89 22 94 23
REMARK SMILES IDX 90 24 93 25 91 26 92 27 12 28 13 29 14 30 15 31 16 32 17 33
REMARK SMILES IDX 18 34 19 35 20 36 78 37 21 38 77 39 22 40 23 41 24 42 71 43
REMARK SMILES IDX 25 44 76 45 70 46 72 47 26 48 75 49 69 50 68 51 27 53 57 54
REMARK SMILES IDX 38 55 56 56 39 57 42 58 55 59 73 60 40 61 41 62 54 64 74 65
REMARK SMILES IDX 43 66 28 67 29 68 37 69 30 70 36 71 31 72 32 73 33 74 34 75
REMARK SMILES IDX 35 76 58 77 59 78 67 79 60 80 66 81 61 82 62 83 63 84 64 85
REMARK SMILES IDX 65 86 44 87 45 88 53 89 46 90 52 91 47 92 48 93 49 94 50 95
REMARK SMILES IDX 51 96
REMARK H PARENT 72 52 42 63
REMARK Flexibility Score: inf
ROOT
ATOM      1  C   UNL A   1      34.054  30.560  27.067  1.00  0.00     0.188 C 
ENDROOT
BRANCH   1   2
ATOM      2  O   UNL A   1      32.657  30.582  27.229  1.00  0.00    -0.376 OA
BRANCH   2   3
ATOM      3  C   UNL A   1      31.865  29.586  26.621  1.00  0.00     0.202 C 
BRANCH   3   4
ATOM      4  C   UNL A   1      32.198  28.108  26.889  1.00  0.00     0.261 C 
BRANCH   4   5
ATOM      5  O   UNL A   1      31.064  27.202  27.074  1.00  0.00    -0.463 OA
BRANCH   5   6
ATOM      6  C   UNL A   1      31.288  25.985  26.533  1.00  0.00     0.310 C 
ATOM      7  O   UNL A   1      30.521  25.060  26.790  1.00  0.00    -0.252 OA
BRANCH   6   8
ATOM      8  C   UNL A   1      32.438  25.737  25.584  1.00  0.00     0.160 C 
BRANCH   8   9
ATOM      9  C   UNL A   1      32.864  24.409  25.011  1.00  0.00    -0.008 A 
ATOM     10  C   UNL A   1      30.732  23.927  23.622  1.00  0.00     0.065 C 
ATOM     11  C   UNL A   1      32.118  23.658  24.109  1.00  0.00     0.028 A 
ATOM     12  N   UNL A   1      32.903  22.600  23.644  1.00  0.00    -0.280 N 
ATOM     13  C   UNL A   1      34.201  23.884  24.934  1.00  0.00     0.004 A 
ATOM     14  C   UNL A   1      34.232  22.877  23.978  1.00  0.00     0.056 A 
ATOM     15  C   UNL A   1      35.436  24.243  25.498  1.00  0.00     0.010 A 
ATOM     16  C   UNL A   1      35.474  22.342  23.537  1.00  0.00     0.027 A 
ATOM     17  C   UNL A   1      36.661  23.693  25.105  1.00  0.00     0.001 A 
ATOM     18  C   UNL A   1      36.678  22.752  24.107  1.00  0.00     0.002 A 
BRANCH  12  19
ATOM     19  C   UNL A   1      32.453  21.438  22.955  1.00  0.00     0.262 C 
ATOM     20  O   UNL A   1      32.094  21.501  21.807  1.00  0.00    -0.268 OA
BRANCH  19  21
ATOM     21  C   UNL A   1      32.366  20.134  23.659  1.00  0.00     0.040 A 
ATOM     22  C   UNL A   1      32.510  20.116  25.053  1.00  0.00     0.015 A 
ATOM     23  C   UNL A   1      32.422  18.960  22.902  1.00  0.00     0.015 A 
ATOM     24  C   UNL A   1      32.792  18.908  25.691  1.00  0.00     0.021 A 
ATOM     25  C   UNL A   1      32.719  17.758  23.550  1.00  0.00     0.021 A 
ATOM     26  C   UNL A   1      32.920  17.742  24.934  1.00  0.00     0.041 A 
ATOM     27  Cl  UNL A   1      33.410  16.284  25.706  1.00  0.00    -0.084 Cl
ENDBRANCH  19  21
ENDBRANCH  12  19
ENDBRANCH   8   9
ENDBRANCH   6   8
ENDBRANCH   5   6
ENDBRANCH   4   5
ENDBRANCH   3   4
ENDBRANCH   2   3
ENDBRANCH   1   2
BRANCH   1  28
ATOM     28  C   UNL A   1      34.964  31.478  27.897  1.00  0.00     0.188 C 
BRANCH  28  29
ATOM     29  O   UNL A   1      34.892  32.871  27.693  1.00  0.00    -0.376 OA
BRANCH  29  30
ATOM     30  C   UNL A   1      33.898  33.527  28.464  1.00  0.00     0.202 C 
BRANCH  30  31
ATOM     31  C   UNL A   1      34.409  34.411  29.633  1.00  0.00     0.261 C 
BRANCH  31  32
ATOM     32  O   UNL A   1      35.795  34.116  30.004  1.00  0.00    -0.460 OA
BRANCH  32  33
ATOM     33  C   UNL A   1      36.010  33.464  31.187  1.00  0.00     0.338 C 
ATOM     34  O   UNL A   1      35.398  33.710  32.217  1.00  0.00    -0.246 OA
BRANCH  33  35
ATOM     35  C   UNL A   1      36.745  32.149  30.986  1.00  0.00     0.060 A 
ATOM     36  C   UNL A   1      36.501  30.904  31.574  1.00  0.00     0.016 A 
ATOM     37  C   UNL A   1      37.909  32.260  30.230  1.00  0.00     0.016 A 
ATOM     38  C   UNL A   1      37.504  29.875  31.544  1.00  0.00     0.010 A 
ATOM     39  C   UNL A   1      38.920  31.288  30.265  1.00  0.00     0.010 A 
ATOM     40  C   UNL A   1      38.779  30.095  30.980  1.00  0.00    -0.014 A 
BRANCH  40  41
ATOM     41  C   UNL A   1      39.818  29.051  30.685  1.00  0.00     0.031 A 
ATOM     42  C   UNL A   1      40.504  28.710  31.934  1.00  0.00     0.074 A 
ATOM     43  C   UNL A   1      40.207  28.318  29.602  1.00  0.00     0.049 A 
ATOM     44  N   UNL A   1      41.462  29.440  32.399  1.00  0.00    -0.248 NA
ATOM     45  C   UNL A   1      40.002  27.687  32.854  1.00  0.00     0.031 C 
ATOM     46  C   UNL A   1      39.846  28.483  28.211  1.00  0.00     0.029 A 
ATOM     47  N   UNL A   1      41.041  27.210  29.513  1.00  0.00    -0.354 N 
ATOM     48  C   UNL A   1      41.897  28.763  33.510  1.00  0.00     0.074 A 
ATOM     49  C   UNL A   1      40.792  27.922  33.908  1.00  0.00     0.031 C 
ATOM     50  C   UNL A   1      40.171  27.411  27.458  1.00  0.00     0.029 A 
ATOM     51  C   UNL A   1      41.009  26.541  28.274  1.00  0.00     0.049 A 
ATOM     52  H   UNL A   1      41.612  26.915  30.258  1.00  0.00     0.167 HD
ATOM     53  C   UNL A   1      43.231  28.670  33.753  1.00  0.00     0.031 A 
ATOM     54  C   UNL A   1      41.967  25.810  27.640  1.00  0.00     0.031 A 
ATOM     55  C   UNL A   1      43.995  29.466  32.810  1.00  0.00     0.049 A 
ATOM     56  C   UNL A   1      43.275  26.306  28.095  1.00  0.00     0.074 A 
ATOM     57  C   UNL A   1      44.157  30.811  32.551  1.00  0.00     0.029 A 
ATOM     58  N   UNL A   1      44.383  28.786  31.677  1.00  0.00    -0.354 N 
ATOM     59  N   UNL A   1      43.755  27.468  27.758  1.00  0.00    -0.248 NA
ATOM     60  C   UNL A   1      43.935  25.643  29.210  1.00  0.00     0.031 C 
ATOM     61  C   UNL A   1      44.473  30.919  31.165  1.00  0.00     0.029 A 
ATOM     62  C   UNL A   1      44.549  29.640  30.614  1.00  0.00     0.049 A 
ATOM     63  H   UNL A   1      44.523  27.813  31.635  1.00  0.00     0.167 HD
ATOM     64  C   UNL A   1      44.453  27.873  28.879  1.00  0.00     0.074 A 
ATOM     65  C   UNL A   1      44.667  26.663  29.662  1.00  0.00     0.031 C 
ATOM     66  C   UNL A   1      44.520  29.185  29.232  1.00  0.00     0.031 A 
BRANCH  53  67
ATOM     67  C   UNL A   1      43.859  27.550  34.526  1.00  0.00    -0.014 A 
ATOM     68  C   UNL A   1      44.301  27.671  35.857  1.00  0.00     0.010 A 
ATOM     69  C   UNL A   1      43.848  26.258  33.969  1.00  0.00     0.010 A 
ATOM     70  C   UNL A   1      44.781  26.584  36.579  1.00  0.00     0.020 A 
ATOM     71  C   UNL A   1      44.285  25.147  34.700  1.00  0.00     0.020 A 
ATOM     72  C   UNL A   1      44.771  25.326  35.995  1.00  0.00     0.054 A 
BRANCH  72  73
ATOM     73  S   UNL A   1      45.368  23.940  36.983  1.00  0.00     0.124 S 
ATOM     74  O   UNL A   1      44.754  22.804  36.299  1.00  0.00    -0.237 OA
ATOM     75  O   UNL A   1      46.816  24.054  36.834  1.00  0.00    -0.237 OA
ATOM     76  O   UNL A   1      44.851  24.223  38.318  1.00  0.00    -0.744 OA
ENDBRANCH  72  73
ENDBRANCH  53  67
BRANCH  54  77
ATOM     77  C   UNL A   1      41.804  24.503  26.952  1.00  0.00    -0.014 A 
ATOM     78  C   UNL A   1      40.638  23.737  27.131  1.00  0.00     0.010 A 
ATOM     79  C   UNL A   1      42.902  23.890  26.308  1.00  0.00     0.010 A 
ATOM     80  C   UNL A   1      40.621  22.369  26.825  1.00  0.00     0.020 A 
ATOM     81  C   UNL A   1      42.891  22.520  25.997  1.00  0.00     0.020 A 
ATOM     82  C   UNL A   1      41.767  21.757  26.314  1.00  0.00     0.054 A 
BRANCH  82  83
ATOM     83  S   UNL A   1      41.802  19.944  26.194  1.00  0.00     0.124 S 
ATOM     84  O   UNL A   1      42.864  19.731  25.213  1.00  0.00    -0.237 OA
ATOM     85  O   UNL A   1      42.121  19.540  27.561  1.00  0.00    -0.237 OA
ATOM     86  O   UNL A   1      40.457  19.599  25.742  1.00  0.00    -0.744 OA
ENDBRANCH  82  83
ENDBRANCH  54  77
BRANCH  66  87
ATOM     87  C   UNL A   1      44.408  30.230  28.147  1.00  0.00    -0.014 A 
ATOM     88  C   UNL A   1      45.552  30.430  27.350  1.00  0.00     0.010 A 
ATOM     89  C   UNL A   1      43.303  31.076  27.950  1.00  0.00     0.010 A 
ATOM     90  C   UNL A   1      45.619  31.476  26.431  1.00  0.00     0.020 A 
ATOM     91  C   UNL A   1      43.354  32.119  27.008  1.00  0.00     0.020 A 
ATOM     92  C   UNL A   1      44.526  32.328  26.276  1.00  0.00     0.054 A 
BRANCH  92  93
ATOM     93  S   UNL A   1      44.687  33.714  25.117  1.00  0.00     0.124 S 
ATOM     94  O   UNL A   1      46.064  34.149  25.345  1.00  0.00    -0.237 OA
ATOM     95  O   UNL A   1      44.441  33.082  23.822  1.00  0.00    -0.237 OA
ATOM     96  O   UNL A   1      43.658  34.658  25.546  1.00  0.00    -0.744 OA
ENDBRANCH  92  93
ENDBRANCH  66  87
ENDBRANCH  40  41
ENDBRANCH  33  35
ENDBRANCH  32  33
ENDBRANCH  31  32
ENDBRANCH  30  31
ENDBRANCH  29  30
ENDBRANCH  28  29
ENDBRANCH   1  28
TORSDOF 23
ENDMDL
MODEL 2
REMARK VINA RESULT:     -10.5      1.554      2.085
REMARK SMILES Cc1c(CC(=O)OCCOCCOCCOC(=O)c2ccc(-c3c4nc(c(-c5ccc(S(=O)(=O)[O-])cc5)c5ccc([nH]5)c(-c5ccc(S(=O)(=O)[O-])cc5)c5nc(c(-c6ccc(S(=O)(=O)[O-])cc6)c6ccc3[nH]6)C=C5)C=C4)cc2)c2ccccc2n1C(=O)c1ccc(Cl)cc1
REMARK SMILES IDX 11 1 10 2 9 3 8 4 7 5 5 6 6 7 4 8 3 9 1 10 2 11 85 12 79 13
REMARK SMILES IDX 84 14 80 15 83 16 81 17 82 18 86 19 87 20 88 21 89 22 94 23
REMARK SMILES IDX 90 24 93 25 91 26 92 27 12 28 13 29 14 30 15 31 16 32 17 33
REMARK SMILES IDX 18 34 19 35 20 36 78 37 21 38 77 39 22 40 23 41 24 42 71 43
REMARK SMILES IDX 25 44 76 45 70 46 72 47 26 48 75 49 69 50 68 51 27 53 57 54
REMARK SMILES IDX 38 55 56 56 39 57 42 58 55 59 73 60 40 61 41 62 54 64 74 65
REMARK SMILES IDX 43 66 28 67 29 68 37 69 30 70 36 71 31 72 32 73 33 74 34 75
REMARK SMILES IDX 35 76 58 77 59 78 67 79 60 80 66 81 61 82 62 83 63 84 64 85
REMARK SMILES IDX 65 86 44 87 45 88 53 89 46 90 52 91 47 92 48 93 49 94 50 95
REMARK SMILES IDX 51 96
REMARK H PARENT 72 52 42 63
REMARK Flexibility Score: inf
ROOT
ATOM      1  C   UNL A   1      32.008  30.436  26.644  1.00  0.00     0.188 C 
ENDROOT
BRANCH   1   2
ATOM      2  O   UNL A   1      32.288  30.010  25.334  1.00  0.00    -0.376 OA
BRANCH   2   3
ATOM      3  C   UNL A   1      31.500  29.002  24.741  1.00  0.00     0.202 C 
BRANCH   3   4
ATOM      4  C   UNL A   1      32.045  28.268  23.502  1.00  0.00     0.261 C 
BRANCH   4   5
ATOM      5  O   UNL A   1      33.067  27.249  23.740  1.00  0.00    -0.463 OA
BRANCH   5   6
ATOM      6  C   UNL A   1      33.532  26.712  22.591  1.00  0.00     0.310 C 
ATOM      7  O   UNL A   1      33.879  27.453  21.675  1.00  0.00    -0.252 OA
BRANCH   6   8
ATOM      8  C   UNL A   1      33.676  25.217  22.415  1.00  0.00     0.160 C 
BRANCH   8   9
ATOM      9  C   UNL A   1      33.540  24.166  23.487  1.00  0.00    -0.008 A 
ATOM     10  C   UNL A   1      31.615  22.812  22.407  1.00  0.00     0.065 C 
ATOM     11  C   UNL A   1      32.662  23.088  23.435  1.00  0.00     0.028 A 
ATOM     12  N   UNL A   1      32.952  22.219  24.490  1.00  0.00    -0.280 N 
ATOM     13  C   UNL A   1      34.505  23.826  24.499  1.00  0.00     0.004 A 
ATOM     14  C   UNL A   1      34.211  22.562  24.992  1.00  0.00     0.056 A 
ATOM     15  C   UNL A   1      35.687  24.418  24.973  1.00  0.00     0.010 A 
ATOM     16  C   UNL A   1      35.133  21.887  25.838  1.00  0.00     0.027 A 
ATOM     17  C   UNL A   1      36.582  23.783  25.841  1.00  0.00     0.001 A 
ATOM     18  C   UNL A   1      36.309  22.505  26.259  1.00  0.00     0.002 A 
BRANCH  12  19
ATOM     19  C   UNL A   1      32.127  21.169  24.984  1.00  0.00     0.262 C 
ATOM     20  O   UNL A   1      31.229  21.399  25.753  1.00  0.00    -0.268 OA
BRANCH  19  21
ATOM     21  C   UNL A   1      32.395  19.761  24.601  1.00  0.00     0.040 A 
ATOM     22  C   UNL A   1      33.154  18.964  25.468  1.00  0.00     0.015 A 
ATOM     23  C   UNL A   1      32.127  19.361  23.289  1.00  0.00     0.015 A 
ATOM     24  C   UNL A   1      33.719  17.783  24.988  1.00  0.00     0.021 A 
ATOM     25  C   UNL A   1      32.708  18.183  22.812  1.00  0.00     0.021 A 
ATOM     26  C   UNL A   1      33.514  17.412  23.658  1.00  0.00     0.041 A 
ATOM     27  Cl  UNL A   1      34.331  16.033  23.030  1.00  0.00    -0.084 Cl
ENDBRANCH  19  21
ENDBRANCH  12  19
ENDBRANCH   8   9
ENDBRANCH   6   8
ENDBRANCH   5   6
ENDBRANCH   4   5
ENDBRANCH   3   4
ENDBRANCH   2   3
ENDBRANCH   1   2
BRANCH   1  28
ATOM     28  C   UNL A   1      31.830  31.926  26.974  1.00  0.00     0.188 C 
BRANCH  28  29
ATOM     29  O   UNL A   1      32.851  32.592  27.681  1.00  0.00    -0.376 OA
BRANCH  29  30
ATOM     30  C   UNL A   1      34.071  31.873  27.767  1.00  0.00     0.202 C 
BRANCH  30  31
ATOM     31  C   UNL A   1      35.283  32.646  28.353  1.00  0.00     0.261 C 
BRANCH  31  32
ATOM     32  O   UNL A   1      34.969  33.323  29.614  1.00  0.00    -0.460 OA
BRANCH  32  33
ATOM     33  C   UNL A   1      35.195  32.636  30.775  1.00  0.00     0.338 C 
ATOM     34  O   UNL A   1      34.307  32.297  31.545  1.00  0.00    -0.246 OA
BRANCH  33  35
ATOM     35  C   UNL A   1      36.563  31.976  30.787  1.00  0.00     0.060 A 
ATOM     36  C   UNL A   1      37.828  32.568  30.699  1.00  0.00     0.016 A 
ATOM     37  C   UNL A   1      36.524  30.586  30.722  1.00  0.00     0.016 A 
ATOM     38  C   UNL A   1      38.980  31.777  30.366  1.00  0.00     0.010 A 
ATOM     39  C   UNL A   1      37.631  29.823  30.322  1.00  0.00     0.010 A 
ATOM     40  C   UNL A   1      38.878  30.402  30.063  1.00  0.00    -0.014 A 
BRANCH  40  41
ATOM     41  C   UNL A   1      40.014  29.429  29.926  1.00  0.00     0.031 A 
ATOM     42  C   UNL A   1      40.440  29.019  31.268  1.00  0.00     0.074 A 
ATOM     43  C   UNL A   1      40.663  28.800  28.905  1.00  0.00     0.049 A 
ATOM     44  N   UNL A   1      41.234  29.749  31.976  1.00  0.00    -0.248 NA
ATOM     45  C   UNL A   1      39.814  27.907  31.987  1.00  0.00     0.031 C 
ATOM     46  C   UNL A   1      40.595  29.060  27.484  1.00  0.00     0.029 A 
ATOM     47  N   UNL A   1      41.559  27.738  28.921  1.00  0.00    -0.354 N 
ATOM     48  C   UNL A   1      41.463  29.005  33.105  1.00  0.00     0.074 A 
ATOM     49  C   UNL A   1      40.349  28.091  33.198  1.00  0.00     0.031 C 
ATOM     50  C   UNL A   1      41.131  28.065  26.746  1.00  0.00     0.029 A 
ATOM     51  C   UNL A   1      41.827  27.169  27.661  1.00  0.00     0.049 A 
ATOM     52  H   UNL A   1      41.976  27.410  29.750  1.00  0.00     0.167 HD
ATOM     53  C   UNL A   1      42.719  28.949  33.621  1.00  0.00     0.031 A 
ATOM     54  C   UNL A   1      42.937  26.530  27.199  1.00  0.00     0.031 A 
ATOM     55  C   UNL A   1      43.618  29.847  32.921  1.00  0.00     0.049 A 
ATOM     56  C   UNL A   1      44.090  27.042  27.956  1.00  0.00     0.074 A 
ATOM     57  C   UNL A   1      43.754  31.214  32.795  1.00  0.00     0.029 A 
ATOM     58  N   UNL A   1      44.274  29.275  31.854  1.00  0.00    -0.354 N 
ATOM     59  N   UNL A   1      44.563  28.245  27.811  1.00  0.00    -0.248 NA
ATOM     60  C   UNL A   1      44.536  26.321  29.139  1.00  0.00     0.031 C 
ATOM     61  C   UNL A   1      44.349  31.443  31.520  1.00  0.00     0.029 A 
ATOM     62  C   UNL A   1      44.612  30.217  30.912  1.00  0.00     0.049 A 
ATOM     63  H   UNL A   1      44.476  28.315  31.776  1.00  0.00     0.167 HD
ATOM     64  C   UNL A   1      44.984  28.589  29.080  1.00  0.00     0.074 A 
ATOM     65  C   UNL A   1      45.097  27.331  29.806  1.00  0.00     0.031 C 
ATOM     66  C   UNL A   1      44.900  29.871  29.528  1.00  0.00     0.031 A 
BRANCH  53  67
ATOM     67  C   UNL A   1      43.233  27.797  34.433  1.00  0.00    -0.014 A 
ATOM     68  C   UNL A   1      43.318  26.478  33.950  1.00  0.00     0.010 A 
ATOM     69  C   UNL A   1      43.832  28.065  35.678  1.00  0.00     0.010 A 
ATOM     70  C   UNL A   1      43.898  25.454  34.692  1.00  0.00     0.020 A 
ATOM     71  C   UNL A   1      44.461  27.054  36.414  1.00  0.00     0.020 A 
ATOM     72  C   UNL A   1      44.466  25.749  35.922  1.00  0.00     0.054 A 
BRANCH  72  73
ATOM     73  S   UNL A   1      45.240  24.397  36.831  1.00  0.00     0.124 S 
ATOM     74  O   UNL A   1      46.641  24.545  36.444  1.00  0.00    -0.237 OA
ATOM     75  O   UNL A   1      44.931  24.739  38.217  1.00  0.00    -0.237 OA
ATOM     76  O   UNL A   1      44.569  23.208  36.315  1.00  0.00    -0.744 OA
ENDBRANCH  72  73
ENDBRANCH  53  67
BRANCH  54  77
ATOM     77  C   UNL A   1      42.998  25.275  26.404  1.00  0.00    -0.014 A 
ATOM     78  C   UNL A   1      42.462  24.078  26.911  1.00  0.00     0.010 A 
ATOM     79  C   UNL A   1      43.803  25.198  25.246  1.00  0.00     0.010 A 
ATOM     80  C   UNL A   1      42.841  22.837  26.379  1.00  0.00     0.020 A 
ATOM     81  C   UNL A   1      44.186  23.960  24.707  1.00  0.00     0.020 A 
ATOM     82  C   UNL A   1      43.747  22.785  25.318  1.00  0.00     0.054 A 
BRANCH  82  83
ATOM     83  S   UNL A   1      44.431  21.169  24.839  1.00  0.00     0.124 S 
ATOM     84  O   UNL A   1      44.534  21.307  23.389  1.00  0.00    -0.237 OA
ATOM     85  O   UNL A   1      45.701  21.135  25.558  1.00  0.00    -0.237 OA
ATOM     86  O   UNL A   1      43.427  20.215  25.306  1.00  0.00    -0.744 OA
ENDBRANCH  82  83
ENDBRANCH  54  77
BRANCH  66  87
ATOM     87  C   UNL A   1      44.961  30.993  28.518  1.00  0.00    -0.014 A 
ATOM     88  C   UNL A   1      43.726  31.504  28.076  1.00  0.00     0.010 A 
ATOM     89  C   UNL A   1      46.136  31.478  27.918  1.00  0.00     0.010 A 
ATOM     90  C   UNL A   1      43.656  32.423  27.029  1.00  0.00     0.020 A 
ATOM     91  C   UNL A   1      46.075  32.422  26.877  1.00  0.00     0.020 A 
ATOM     92  C   UNL A   1      44.831  32.864  26.422  1.00  0.00     0.054 A 
BRANCH  92  93
ATOM     93  S   UNL A   1      44.684  34.007  25.020  1.00  0.00     0.124 S 
ATOM     94  O   UNL A   1      44.363  33.104  23.917  1.00  0.00    -0.237 OA
ATOM     95  O   UNL A   1      43.597  34.890  25.437  1.00  0.00    -0.237 OA
ATOM     96  O   UNL A   1      45.997  34.643  24.941  1.00  0.00    -0.744 OA
ENDBRANCH  92  93
ENDBRANCH  66  87
ENDBRANCH  40  41
ENDBRANCH  33  35
ENDBRANCH  32  33
ENDBRANCH  31  32
ENDBRANCH  30  31
ENDBRANCH  29  30
ENDBRANCH  28  29
ENDBRANCH   1  28
TORSDOF 23
ENDMDL
MODEL 3
REMARK VINA RESULT:      -9.5      3.934      6.938
REMARK SMILES Cc1c(CC(=O)OCCOCCOCCOC(=O)c2ccc(-c3c4nc(c(-c5ccc(S(=O)(=O)[O-])cc5)c5ccc([nH]5)c(-c5ccc(S(=O)(=O)[O-])cc5)c5nc(c(-c6ccc(S(=O)(=O)[O-])cc6)c6ccc3[nH]6)C=C5)C=C4)cc2)c2ccccc2n1C(=O)c1ccc(Cl)cc1
REMARK SMILES IDX 11 1 10 2 9 3 8 4 7 5 5 6 6 7 4 8 3 9 1 10 2 11 85 12 79 13
REMARK SMILES IDX 84 14 80 15 83 16 81 17 82 18 86 19 87 20 88 21 89 22 94 23
REMARK SMILES IDX 90 24 93 25 91 26 92 27 12 28 13 29 14 30 15 31 16 32 17 33
REMARK SMILES IDX 18 34 19 35 20 36 78 37 21 38 77 39 22 40 23 41 24 42 71 43
REMARK SMILES IDX 25 44 76 45 70 46 72 47 26 48 75 49 69 50 68 51 27 53 57 54
REMARK SMILES IDX 38 55 56 56 39 57 42 58 55 59 73 60 40 61 41 62 54 64 74 65
REMARK SMILES IDX 43 66 28 67 29 68 37 69 30 70 36 71 31 72 32 73 33 74 34 75
REMARK SMILES IDX 35 76 58 77 59 78 67 79 60 80 66 81 61 82 62 83 63 84 64 85
REMARK SMILES IDX 65 86 44 87 45 88 53 89 46 90 52 91 47 92 48 93 49 94 50 95
REMARK SMILES IDX 51 96
REMARK H PARENT 72 52 42 63
REMARK Flexibility Score: inf
ROOT
ATOM      1  C   UNL A   1      32.276  29.313  26.010  1.00  0.00     0.188 C 
ENDROOT
BRANCH   1   2
ATOM      2  O   UNL A   1      32.891  28.959  24.796  1.00  0.00    -0.376 OA
BRANCH   2   3
ATOM      3  C   UNL A   1      32.319  27.956  23.986  1.00  0.00     0.202 C 
BRANCH   3   4
ATOM      4  C   UNL A   1      33.166  27.343  22.857  1.00  0.00     0.261 C 
BRANCH   4   5
ATOM      5  O   UNL A   1      33.744  26.023  23.112  1.00  0.00    -0.463 OA
BRANCH   5   6
ATOM      6  C   UNL A   1      33.430  25.132  22.147  1.00  0.00     0.310 C 
ATOM      7  O   UNL A   1      33.198  25.531  21.008  1.00  0.00    -0.252 OA
BRANCH   6   8
ATOM      8  C   UNL A   1      33.397  23.645  22.419  1.00  0.00     0.160 C 
BRANCH   8   9
ATOM      9  C   UNL A   1      34.064  22.923  23.562  1.00  0.00    -0.008 A 
ATOM     10  C   UNL A   1      36.497  23.051  22.684  1.00  0.00     0.065 C 
ATOM     11  C   UNL A   1      35.435  22.720  23.680  1.00  0.00     0.028 A 
ATOM     12  N   UNL A   1      35.708  22.202  24.949  1.00  0.00    -0.280 N 
ATOM     13  C   UNL A   1      33.528  22.691  24.877  1.00  0.00     0.004 A 
ATOM     14  C   UNL A   1      34.573  22.400  25.743  1.00  0.00     0.056 A 
ATOM     15  C   UNL A   1      32.255  22.817  25.459  1.00  0.00     0.010 A 
ATOM     16  C   UNL A   1      34.353  22.352  27.147  1.00  0.00     0.027 A 
ATOM     17  C   UNL A   1      32.018  22.728  26.835  1.00  0.00     0.001 A 
ATOM     18  C   UNL A   1      33.076  22.512  27.681  1.00  0.00     0.002 A 
BRANCH  12  19
ATOM     19  C   UNL A   1      36.914  21.578  25.378  1.00  0.00     0.262 C 
ATOM     20  O   UNL A   1      37.001  20.378  25.434  1.00  0.00    -0.268 OA
BRANCH  19  21
ATOM     21  C   UNL A   1      38.069  22.399  25.817  1.00  0.00     0.040 A 
ATOM     22  C   UNL A   1      39.268  21.749  26.137  1.00  0.00     0.015 A 
ATOM     23  C   UNL A   1      37.848  23.736  26.159  1.00  0.00     0.015 A 
ATOM     24  C   UNL A   1      40.233  22.429  26.880  1.00  0.00     0.021 A 
ATOM     25  C   UNL A   1      38.815  24.404  26.915  1.00  0.00     0.021 A 
ATOM     26  C   UNL A   1      39.991  23.742  27.287  1.00  0.00     0.041 A 
ATOM     27  Cl  UNL A   1      41.117  24.527  28.325  1.00  0.00    -0.084 Cl
ENDBRANCH  19  21
ENDBRANCH  12  19
ENDBRANCH   8   9
ENDBRANCH   6   8
ENDBRANCH   5   6
ENDBRANCH   4   5
ENDBRANCH   3   4
ENDBRANCH   2   3
ENDBRANCH   1   2
BRANCH   1  28
ATOM     28  C   UNL A   1      31.866  30.765  26.298  1.00  0.00     0.188 C 
BRANCH  28  29
ATOM     29  O   UNL A   1      32.598  31.502  27.250  1.00  0.00    -0.376 OA
BRANCH  29  30
ATOM     30  C   UNL A   1      33.831  30.911  27.629  1.00  0.00     0.202 C 
BRANCH  30  31
ATOM     31  C   UNL A   1      34.734  31.752  28.570  1.00  0.00     0.261 C 
BRANCH  31  32
ATOM     32  O   UNL A   1      34.193  33.088  28.833  1.00  0.00    -0.460 OA
BRANCH  32  33
ATOM     33  C   UNL A   1      34.519  33.682  30.021  1.00  0.00     0.338 C 
ATOM     34  O   UNL A   1      33.695  34.002  30.866  1.00  0.00    -0.246 OA
BRANCH  33  35
ATOM     35  C   UNL A   1      35.990  33.504  30.359  1.00  0.00     0.060 A 
ATOM     36  C   UNL A   1      37.109  33.665  29.537  1.00  0.00     0.016 A 
ATOM     37  C   UNL A   1      36.220  32.956  31.619  1.00  0.00     0.016 A 
ATOM     38  C   UNL A   1      38.379  33.112  29.918  1.00  0.00     0.010 A 
ATOM     39  C   UNL A   1      37.437  32.348  31.960  1.00  0.00     0.010 A 
ATOM     40  C   UNL A   1      38.535  32.345  31.092  1.00  0.00    -0.014 A 
BRANCH  40  41
ATOM     41  C   UNL A   1      39.833  31.912  31.713  1.00  0.00     0.031 A 
ATOM     42  C   UNL A   1      40.563  33.106  32.148  1.00  0.00     0.074 A 
ATOM     43  C   UNL A   1      40.434  30.729  32.028  1.00  0.00     0.049 A 
ATOM     44  N   UNL A   1      41.265  33.806  31.323  1.00  0.00    -0.248 NA
ATOM     45  C   UNL A   1      40.352  33.721  33.461  1.00  0.00     0.031 C 
ATOM     46  C   UNL A   1      40.069  29.386  31.633  1.00  0.00     0.029 A 
ATOM     47  N   UNL A   1      41.549  30.463  32.813  1.00  0.00    -0.354 N 
ATOM     48  C   UNL A   1      41.851  34.767  32.106  1.00  0.00     0.074 A 
ATOM     49  C   UNL A   1      41.022  34.866  33.284  1.00  0.00     0.031 C 
ATOM     50  C   UNL A   1      40.698  28.440  32.362  1.00  0.00     0.029 A 
ATOM     51  C   UNL A   1      41.732  29.106  33.144  1.00  0.00     0.049 A 
ATOM     52  H   UNL A   1      42.166  31.169  33.114  1.00  0.00     0.167 HD
ATOM     53  C   UNL A   1      43.153  35.098  31.891  1.00  0.00     0.031 A 
ATOM     54  C   UNL A   1      42.870  28.408  33.413  1.00  0.00     0.031 A 
ATOM     55  C   UNL A   1      43.679  34.431  30.715  1.00  0.00     0.049 A 
ATOM     56  C   UNL A   1      43.975  29.076  32.708  1.00  0.00     0.074 A 
ATOM     57  C   UNL A   1      43.459  34.500  29.355  1.00  0.00     0.029 A 
ATOM     58  N   UNL A   1      44.265  33.211  30.968  1.00  0.00    -0.354 N 
ATOM     59  N   UNL A   1      44.114  29.056  31.414  1.00  0.00    -0.248 NA
ATOM     60  C   UNL A   1      44.773  30.064  33.419  1.00  0.00     0.031 C 
ATOM     61  C   UNL A   1      43.759  33.208  28.832  1.00  0.00     0.029 A 
ATOM     62  C   UNL A   1      44.204  32.389  29.869  1.00  0.00     0.049 A 
ATOM     63  H   UNL A   1      44.676  32.961  31.827  1.00  0.00     0.167 HD
ATOM     64  C   UNL A   1      44.646  30.295  31.121  1.00  0.00     0.074 A 
ATOM     65  C   UNL A   1      45.178  30.798  32.380  1.00  0.00     0.031 C 
ATOM     66  C   UNL A   1      44.332  30.943  29.966  1.00  0.00     0.031 A 
BRANCH  53  67
ATOM     67  C   UNL A   1      44.057  35.647  32.953  1.00  0.00    -0.014 A 
ATOM     68  C   UNL A   1      44.335  37.018  33.109  1.00  0.00     0.010 A 
ATOM     69  C   UNL A   1      44.514  34.781  33.963  1.00  0.00     0.010 A 
ATOM     70  C   UNL A   1      45.092  37.504  34.169  1.00  0.00     0.020 A 
ATOM     71  C   UNL A   1      45.237  35.262  35.060  1.00  0.00     0.020 A 
ATOM     72  C   UNL A   1      45.541  36.621  35.140  1.00  0.00     0.054 A 
BRANCH  72  73
ATOM     73  S   UNL A   1      46.488  37.301  36.517  1.00  0.00     0.124 S 
ATOM     74  O   UNL A   1      46.264  38.735  36.349  1.00  0.00    -0.237 OA
ATOM     75  O   UNL A   1      45.833  36.694  37.672  1.00  0.00    -0.237 OA
ATOM     76  O   UNL A   1      47.849  36.843  36.256  1.00  0.00    -0.744 OA
ENDBRANCH  72  73
ENDBRANCH  53  67
BRANCH  54  77
ATOM     77  C   UNL A   1      43.097  27.429  34.508  1.00  0.00    -0.014 A 
ATOM     78  C   UNL A   1      43.167  27.853  35.847  1.00  0.00     0.010 A 
ATOM     79  C   UNL A   1      43.491  26.104  34.215  1.00  0.00     0.010 A 
ATOM     80  C   UNL A   1      43.754  27.043  36.829  1.00  0.00     0.020 A 
ATOM     81  C   UNL A   1      44.079  25.287  35.194  1.00  0.00     0.020 A 
ATOM     82  C   UNL A   1      44.260  25.788  36.483  1.00  0.00     0.054 A 
BRANCH  82  83
ATOM     83  S   UNL A   1      45.259  24.888  37.706  1.00  0.00     0.124 S 
ATOM     84  O   UNL A   1      45.025  23.499  37.318  1.00  0.00    -0.237 OA
ATOM     85  O   UNL A   1      46.605  25.391  37.451  1.00  0.00    -0.237 OA
ATOM     86  O   UNL A   1      44.680  25.283  38.988  1.00  0.00    -0.744 OA
ENDBRANCH  82  83
ENDBRANCH  54  77
BRANCH  66  87
ATOM     87  C   UNL A   1      43.951  30.118  28.759  1.00  0.00    -0.014 A 
ATOM     88  C   UNL A   1      42.586  29.803  28.622  1.00  0.00     0.010 A 
ATOM     89  C   UNL A   1      44.859  29.562  27.840  1.00  0.00     0.010 A 
ATOM     90  C   UNL A   1      42.143  28.914  27.642  1.00  0.00     0.020 A 
ATOM     91  C   UNL A   1      44.417  28.683  26.835  1.00  0.00     0.020 A 
ATOM     92  C   UNL A   1      43.064  28.344  26.764  1.00  0.00     0.054 A 
BRANCH  92  93
ATOM     93  S   UNL A   1      42.448  27.143  25.551  1.00  0.00     0.124 S 
ATOM     94  O   UNL A   1      43.277  25.972  25.828  1.00  0.00    -0.237 OA
ATOM     95  O   UNL A   1      41.039  27.008  25.917  1.00  0.00    -0.237 OA
ATOM     96  O   UNL A   1      42.689  27.785  24.261  1.00  0.00    -0.744 OA
ENDBRANCH  92  93
ENDBRANCH  66  87
ENDBRANCH  40  41
ENDBRANCH  33  35
ENDBRANCH  32  33
ENDBRANCH  31  32
ENDBRANCH  30  31
ENDBRANCH  29  30
ENDBRANCH  28  29
ENDBRANCH   1  28
TORSDOF 23
ENDMDL
