MODEL 1
REMARK VINA RESULT:      -9.7      0.000      0.000
REMARK SMILES Cc1ccc(C(=O)N2CCCC[C@@H]2C(=O)OCCOCCOCCOC(=O)c2ccc(-c3c4nc(c(-c5ccc(S(=O)(=O)[O-])cc5)c5ccc([nH]5)c(-c5ccc(S(=O)(=O)[O-])cc5)c5nc(c(-c6ccc(S(=O)(=O)[O-])cc6)c6ccc3[nH]6)C=C5)C=C4)cc2)cc1S(=O)(=O)N1CCCCC1
REMARK SMILES IDX 20 1 19 2 18 3 17 4 16 5 14 6 15 7 13 8 8 9 9 10 10 11 12 12
REMARK SMILES IDX 11 13 6 14 7 15 5 16 1 17 2 18 3 19 89 20 4 21 88 22 90 23
REMARK SMILES IDX 91 24 92 25 93 26 94 27 98 28 95 29 97 30 96 31 21 32 22 33
REMARK SMILES IDX 23 34 24 35 25 36 26 37 27 38 28 39 29 40 87 41 30 42 86 43
REMARK SMILES IDX 31 44 32 45 33 46 80 47 34 48 85 49 79 50 81 51 35 52 84 53
REMARK SMILES IDX 78 54 77 55 36 57 66 58 47 59 65 60 48 61 51 62 64 63 82 64
REMARK SMILES IDX 49 65 50 66 63 68 83 69 52 70 37 71 38 72 46 73 39 74 45 75
REMARK SMILES IDX 40 76 41 77 42 78 43 79 44 80 67 81 68 82 76 83 69 84 75 85
REMARK SMILES IDX 70 86 71 87 72 88 73 89 74 90 53 91 54 92 62 93 55 94 61 95
REMARK SMILES IDX 56 96 57 97 58 98 59 99 60 100
REMARK H PARENT 81 56 51 67
REMARK Flexibility Score: inf
ROOT
ATOM      1  C   UNL A   1      34.124  26.944  26.006  1.00  0.00     0.188 C 
ENDROOT
BRANCH   1   2
ATOM      2  O   UNL A   1      33.020  27.515  26.789  1.00  0.00    -0.376 OA
BRANCH   2   3
ATOM      3  C   UNL A   1      32.760  28.914  27.255  1.00  0.00     0.202 C 
BRANCH   3   4
ATOM      4  C   UNL A   1      33.323  30.663  26.960  1.00  0.00     0.261 C 
BRANCH   4   5
ATOM      5  O   UNL A   1      34.797  31.619  27.594  1.00  0.00    -0.462 OA
BRANCH   5   6
ATOM      6  C   UNL A   1      35.120  33.085  28.205  1.00  0.00     0.328 C 
ATOM      7  O   UNL A   1      35.252  34.147  27.572  1.00  0.00    -0.250 OA
BRANCH   6   8
ATOM      8  C   UNL A   1      35.431  33.394  29.650  1.00  0.00     0.195 C 
ATOM      9  N   UNL A   1      36.408  32.472  30.358  1.00  0.00    -0.325 N 
ATOM     10  C   UNL A   1      36.298  32.388  31.808  1.00  0.00     0.121 C 
ATOM     11  C   UNL A   1      34.951  32.756  32.395  1.00  0.00     0.022 C 
ATOM     12  C   UNL A   1      34.199  33.896  30.359  1.00  0.00     0.037 C 
ATOM     13  C   UNL A   1      34.468  34.078  31.834  1.00  0.00     0.005 C 
BRANCH   9  14
ATOM     14  C   UNL A   1      37.764  32.130  29.966  1.00  0.00     0.254 C 
ATOM     15  O   UNL A   1      38.011  30.997  29.528  1.00  0.00    -0.269 OA
BRANCH  14  16
ATOM     16  C   UNL A   1      38.913  33.067  29.837  1.00  0.00     0.041 A 
ATOM     17  C   UNL A   1      42.027  37.075  28.289  1.00  0.00     0.046 C 
ATOM     18  C   UNL A   1      40.936  35.321  29.076  1.00  0.00    -0.031 A 
ATOM     19  C   UNL A   1      39.392  35.343  29.367  1.00  0.00     0.005 A 
ATOM     20  C   UNL A   1      41.351  33.841  29.462  1.00  0.00     0.086 A 
ATOM     21  C   UNL A   1      38.483  34.318  29.528  1.00  0.00     0.014 A 
ATOM     22  C   UNL A   1      40.314  32.818  29.803  1.00  0.00     0.035 A 
BRANCH  20  23
ATOM     23  S   UNL A   1      43.145  32.930  29.672  1.00  0.00     0.243 S 
ATOM     24  O   UNL A   1      43.333  32.801  31.102  1.00  0.00    -0.207 OA
ATOM     25  O   UNL A   1      42.990  31.730  28.868  1.00  0.00    -0.207 OA
BRANCH  23  26
ATOM     26  N   UNL A   1      44.623  33.708  29.064  1.00  0.00    -0.198 NA
ATOM     27  C   UNL A   1      44.600  34.154  27.650  1.00  0.00     0.102 C 
ATOM     28  C   UNL A   1      45.726  34.131  29.984  1.00  0.00     0.102 C 
ATOM     29  C   UNL A   1      45.544  35.298  27.254  1.00  0.00     0.017 C 
ATOM     30  C   UNL A   1      46.592  35.342  29.532  1.00  0.00     0.017 C 
ATOM     31  C   UNL A   1      46.111  36.182  28.351  1.00  0.00     0.003 C 
ENDBRANCH  23  26
ENDBRANCH  20  23
ENDBRANCH  14  16
ENDBRANCH   9  14
ENDBRANCH   6   8
ENDBRANCH   5   6
ENDBRANCH   4   5
ENDBRANCH   3   4
ENDBRANCH   2   3
ENDBRANCH   1   2
BRANCH   1  32
ATOM     32  C   UNL A   1      33.766  25.967  24.942  1.00  0.00     0.188 C 
BRANCH  32  33
ATOM     33  O   UNL A   1      33.702  24.770  25.657  1.00  0.00    -0.376 OA
BRANCH  33  34
ATOM     34  C   UNL A   1      33.906  23.562  25.020  1.00  0.00     0.202 C 
BRANCH  34  35
ATOM     35  C   UNL A   1      35.136  23.634  24.153  1.00  0.00     0.261 C 
BRANCH  35  36
ATOM     36  O   UNL A   1      36.207  22.638  24.377  1.00  0.00    -0.460 OA
BRANCH  36  37
ATOM     37  C   UNL A   1      36.846  22.190  25.520  1.00  0.00     0.338 C 
ATOM     38  O   UNL A   1      36.426  21.212  26.124  1.00  0.00    -0.246 OA
BRANCH  37  39
ATOM     39  C   UNL A   1      38.217  22.698  25.784  1.00  0.00     0.060 A 
ATOM     40  C   UNL A   1      39.392  22.010  26.120  1.00  0.00     0.016 A 
ATOM     41  C   UNL A   1      38.357  24.023  25.715  1.00  0.00     0.016 A 
ATOM     42  C   UNL A   1      40.483  22.612  26.913  1.00  0.00     0.010 A 
ATOM     43  C   UNL A   1      39.345  24.537  26.553  1.00  0.00     0.010 A 
ATOM     44  C   UNL A   1      40.434  23.919  27.409  1.00  0.00    -0.014 A 
BRANCH  44  45
ATOM     45  C   UNL A   1      41.657  24.812  28.543  1.00  0.00     0.031 A 
ATOM     46  C   UNL A   1      41.526  26.543  29.227  1.00  0.00     0.074 A 
ATOM     47  C   UNL A   1      42.765  24.226  29.067  1.00  0.00     0.049 A 
ATOM     48  N   UNL A   1      41.995  26.969  30.389  1.00  0.00    -0.248 NA
ATOM     49  C   UNL A   1      40.617  27.727  28.761  1.00  0.00     0.031 C 
ATOM     50  C   UNL A   1      43.513  24.559  30.295  1.00  0.00     0.029 A 
ATOM     51  N   UNL A   1      43.406  23.059  28.677  1.00  0.00    -0.354 N 
ATOM     52  C   UNL A   1      41.388  28.205  30.727  1.00  0.00     0.074 A 
ATOM     53  C   UNL A   1      40.348  28.467  29.817  1.00  0.00     0.031 C 
ATOM     54  C   UNL A   1      44.645  23.829  30.334  1.00  0.00     0.029 A 
ATOM     55  C   UNL A   1      44.739  23.176  29.053  1.00  0.00     0.049 A 
ATOM     56  H   UNL A   1      42.994  22.291  28.219  1.00  0.00     0.167 HD
ATOM     57  C   UNL A   1      41.904  29.203  31.483  1.00  0.00     0.031 A 
ATOM     58  C   UNL A   1      45.608  23.467  28.058  1.00  0.00     0.031 A 
ATOM     59  C   UNL A   1      43.312  29.026  31.621  1.00  0.00     0.049 A 
ATOM     60  C   UNL A   1      46.169  24.882  28.285  1.00  0.00     0.074 A 
ATOM     61  C   UNL A   1      44.044  28.212  32.449  1.00  0.00     0.029 A 
ATOM     62  N   UNL A   1      44.142  29.507  30.628  1.00  0.00    -0.354 N 
ATOM     63  N   UNL A   1      45.746  26.030  29.439  1.00  0.00    -0.248 NA
ATOM     64  C   UNL A   1      47.614  25.739  27.167  1.00  0.00     0.031 C 
ATOM     65  C   UNL A   1      45.314  28.072  31.853  1.00  0.00     0.029 A 
ATOM     66  C   UNL A   1      45.352  28.845  30.704  1.00  0.00     0.049 A 
ATOM     67  H   UNL A   1      43.909  30.205  29.975  1.00  0.00     0.167 HD
ATOM     68  C   UNL A   1      46.610  27.671  29.097  1.00  0.00     0.074 A 
ATOM     69  C   UNL A   1      47.768  27.333  27.588  1.00  0.00     0.031 C 
ATOM     70  C   UNL A   1      46.261  28.905  29.588  1.00  0.00     0.031 A 
BRANCH  57  71
ATOM     71  C   UNL A   1      41.132  30.302  32.190  1.00  0.00    -0.014 A 
ATOM     72  C   UNL A   1      41.940  31.250  32.847  1.00  0.00     0.010 A 
ATOM     73  C   UNL A   1      39.742  30.387  32.450  1.00  0.00     0.010 A 
ATOM     74  C   UNL A   1      41.439  32.111  33.820  1.00  0.00     0.020 A 
ATOM     75  C   UNL A   1      39.218  31.279  33.407  1.00  0.00     0.020 A 
ATOM     76  C   UNL A   1      40.085  32.094  34.125  1.00  0.00     0.054 A 
BRANCH  76  77
ATOM     77  S   UNL A   1      39.527  33.096  35.521  1.00  0.00     0.124 S 
ATOM     78  O   UNL A   1      40.142  32.409  36.654  1.00  0.00    -0.237 OA
ATOM     79  O   UNL A   1      40.081  34.409  35.206  1.00  0.00    -0.237 OA
ATOM     80  O   UNL A   1      38.070  33.003  35.458  1.00  0.00    -0.744 OA
ENDBRANCH  76  77
ENDBRANCH  57  71
BRANCH  58  81
ATOM     81  C   UNL A   1      45.154  22.791  26.751  1.00  0.00    -0.014 A 
ATOM     82  C   UNL A   1      46.090  22.611  25.695  1.00  0.00     0.010 A 
ATOM     83  C   UNL A   1      44.014  21.972  26.685  1.00  0.00     0.010 A 
ATOM     84  C   UNL A   1      45.941  21.596  24.718  1.00  0.00     0.020 A 
ATOM     85  C   UNL A   1      43.794  21.048  25.635  1.00  0.00     0.020 A 
ATOM     86  C   UNL A   1      44.801  20.799  24.710  1.00  0.00     0.054 A 
BRANCH  86  87
ATOM     87  S   UNL A   1      44.767  19.304  23.661  1.00  0.00     0.124 S 
ATOM     88  O   UNL A   1      43.759  18.469  24.304  1.00  0.00    -0.237 OA
ATOM     89  O   UNL A   1      44.384  19.853  22.359  1.00  0.00    -0.237 OA
ATOM     90  O   UNL A   1      46.131  18.788  23.740  1.00  0.00    -0.744 OA
ENDBRANCH  86  87
ENDBRANCH  58  81
BRANCH  70  91
ATOM     91  C   UNL A   1      46.719  30.193  28.932  1.00  0.00    -0.014 A 
ATOM     92  C   UNL A   1      46.212  30.694  27.718  1.00  0.00     0.010 A 
ATOM     93  C   UNL A   1      47.707  30.986  29.544  1.00  0.00     0.010 A 
ATOM     94  C   UNL A   1      46.867  31.686  26.986  1.00  0.00     0.020 A 
ATOM     95  C   UNL A   1      48.305  32.064  28.872  1.00  0.00     0.020 A 
ATOM     96  C   UNL A   1      47.954  32.331  27.553  1.00  0.00     0.054 A 
BRANCH  96  97
ATOM     97  S   UNL A   1      48.917  33.471  26.535  1.00  0.00     0.124 S 
ATOM     98  O   UNL A   1      47.934  33.872  25.530  1.00  0.00    -0.237 OA
ATOM     99  O   UNL A   1      49.301  34.514  27.481  1.00  0.00    -0.237 OA
ATOM    100  O   UNL A   1      50.016  32.647  26.038  1.00  0.00    -0.744 OA
ENDBRANCH  96  97
ENDBRANCH  70  91
ENDBRANCH  44  45
ENDBRANCH  37  39
ENDBRANCH  36  37
ENDBRANCH  35  36
ENDBRANCH  34  35
ENDBRANCH  33  34
ENDBRANCH  32  33
ENDBRANCH   1  32
TORSDOF 24
ENDMDL
MODEL 2
REMARK VINA RESULT:      -8.8      5.522     11.618
REMARK SMILES Cc1ccc(C(=O)N2CCCC[C@@H]2C(=O)OCCOCCOCCOC(=O)c2ccc(-c3c4nc(c(-c5ccc(S(=O)(=O)[O-])cc5)c5ccc([nH]5)c(-c5ccc(S(=O)(=O)[O-])cc5)c5nc(c(-c6ccc(S(=O)(=O)[O-])cc6)c6ccc3[nH]6)C=C5)C=C4)cc2)cc1S(=O)(=O)N1CCCCC1
REMARK SMILES IDX 20 1 19 2 18 3 17 4 16 5 14 6 15 7 13 8 8 9 9 10 10 11 12 12
REMARK SMILES IDX 11 13 6 14 7 15 5 16 1 17 2 18 3 19 89 20 4 21 88 22 90 23
REMARK SMILES IDX 91 24 92 25 93 26 94 27 98 28 95 29 97 30 96 31 21 32 22 33
REMARK SMILES IDX 23 34 24 35 25 36 26 37 27 38 28 39 29 40 87 41 30 42 86 43
REMARK SMILES IDX 31 44 32 45 33 46 80 47 34 48 85 49 79 50 81 51 35 52 84 53
REMARK SMILES IDX 78 54 77 55 36 57 66 58 47 59 65 60 48 61 51 62 64 63 82 64
REMARK SMILES IDX 49 65 50 66 63 68 83 69 52 70 37 71 38 72 46 73 39 74 45 75
REMARK SMILES IDX 40 76 41 77 42 78 43 79 44 80 67 81 68 82 76 83 69 84 75 85
REMARK SMILES IDX 70 86 71 87 72 88 73 89 74 90 53 91 54 92 62 93 55 94 61 95
REMARK SMILES IDX 56 96 57 97 58 98 59 99 60 100
REMARK H PARENT 81 56 51 67
REMARK Flexibility Score: inf
ROOT
ATOM      1  C   UNL A   1      38.017  29.442  28.045  1.00  0.00     0.188 C 
ENDROOT
BRANCH   1   2
ATOM      2  O   UNL A   1      36.796  29.380  28.859  1.00  0.00    -0.376 OA
BRANCH   2   3
ATOM      3  C   UNL A   1      35.351  29.515  28.488  1.00  0.00     0.202 C 
BRANCH   3   4
ATOM      4  C   UNL A   1      34.259  30.306  27.206  1.00  0.00     0.261 C 
BRANCH   4   5
ATOM      5  O   UNL A   1      33.561  29.664  25.598  1.00  0.00    -0.462 OA
BRANCH   5   6
ATOM      6  C   UNL A   1      33.473  28.264  24.786  1.00  0.00     0.328 C 
ATOM      7  O   UNL A   1      34.422  27.600  24.335  1.00  0.00    -0.250 OA
BRANCH   6   8
ATOM      8  C   UNL A   1      32.206  27.578  24.337  1.00  0.00     0.195 C 
ATOM      9  N   UNL A   1      32.192  27.002  22.932  1.00  0.00    -0.325 N 
ATOM     10  C   UNL A   1      30.891  26.858  22.292  1.00  0.00     0.121 C 
ATOM     11  C   UNL A   1      29.791  27.758  22.816  1.00  0.00     0.022 C 
ATOM     12  C   UNL A   1      30.996  28.294  24.883  1.00  0.00     0.037 C 
ATOM     13  C   UNL A   1      29.725  27.695  24.328  1.00  0.00     0.005 C 
BRANCH   9  14
ATOM     14  C   UNL A   1      33.115  26.045  22.346  1.00  0.00     0.254 C 
ATOM     15  O   UNL A   1      33.928  26.420  21.488  1.00  0.00    -0.269 OA
BRANCH  14  16
ATOM     16  C   UNL A   1      33.351  24.647  22.800  1.00  0.00     0.041 A 
ATOM     17  C   UNL A   1      32.657  19.515  23.955  1.00  0.00     0.046 C 
ATOM     18  C   UNL A   1      33.183  21.631  23.589  1.00  0.00    -0.031 A 
ATOM     19  C   UNL A   1      32.697  22.418  22.318  1.00  0.00     0.005 A 
ATOM     20  C   UNL A   1      34.021  22.716  24.382  1.00  0.00     0.086 A 
ATOM     21  C   UNL A   1      32.621  23.771  22.062  1.00  0.00     0.014 A 
ATOM     22  C   UNL A   1      34.038  24.146  23.941  1.00  0.00     0.035 A 
BRANCH  20  23
ATOM     23  S   UNL A   1      35.241  22.600  25.992  1.00  0.00     0.243 S 
ATOM     24  O   UNL A   1      34.776  23.637  26.889  1.00  0.00    -0.207 OA
ATOM     25  O   UNL A   1      35.111  21.209  26.390  1.00  0.00    -0.207 OA
BRANCH  23  26
ATOM     26  N   UNL A   1      36.989  22.871  25.814  1.00  0.00    -0.198 NA
ATOM     27  C   UNL A   1      37.489  24.216  26.186  1.00  0.00     0.102 C 
ATOM     28  C   UNL A   1      37.939  21.741  25.561  1.00  0.00     0.102 C 
ATOM     29  C   UNL A   1      38.960  24.331  26.612  1.00  0.00     0.017 C 
ATOM     30  C   UNL A   1      39.394  21.917  26.085  1.00  0.00     0.017 C 
ATOM     31  C   UNL A   1      39.690  23.071  27.041  1.00  0.00     0.003 C 
ENDBRANCH  23  26
ENDBRANCH  20  23
ENDBRANCH  14  16
ENDBRANCH   9  14
ENDBRANCH   6   8
ENDBRANCH   5   6
ENDBRANCH   4   5
ENDBRANCH   3   4
ENDBRANCH   2   3
ENDBRANCH   1   2
BRANCH   1  32
ATOM     32  C   UNL A   1      39.167  28.607  28.483  1.00  0.00     0.188 C 
BRANCH  32  33
ATOM     33  O   UNL A   1      39.496  29.186  29.710  1.00  0.00    -0.376 OA
BRANCH  33  34
ATOM     34  C   UNL A   1      39.675  30.550  29.815  1.00  0.00     0.202 C 
BRANCH  34  35
ATOM     35  C   UNL A   1      41.126  30.901  29.610  1.00  0.00     0.261 C 
BRANCH  35  36
ATOM     36  O   UNL A   1      41.549  32.296  29.862  1.00  0.00    -0.460 OA
BRANCH  36  37
ATOM     37  C   UNL A   1      42.766  32.944  29.735  1.00  0.00     0.338 C 
ATOM     38  O   UNL A   1      43.008  33.946  30.395  1.00  0.00    -0.246 OA
BRANCH  37  39
ATOM     39  C   UNL A   1      43.868  32.210  29.062  1.00  0.00     0.060 A 
ATOM     40  C   UNL A   1      44.699  31.184  29.534  1.00  0.00     0.016 A 
ATOM     41  C   UNL A   1      44.132  32.599  27.812  1.00  0.00     0.016 A 
ATOM     42  C   UNL A   1      46.072  30.963  29.038  1.00  0.00     0.010 A 
ATOM     43  C   UNL A   1      45.464  32.444  27.436  1.00  0.00     0.010 A 
ATOM     44  C   UNL A   1      46.669  31.764  28.060  1.00  0.00    -0.014 A 
BRANCH  44  45
ATOM     45  C   UNL A   1      48.440  31.723  27.399  1.00  0.00     0.031 A 
ATOM     46  C   UNL A   1      49.340  33.056  26.453  1.00  0.00     0.074 A 
ATOM     47  C   UNL A   1      49.308  30.702  27.630  1.00  0.00     0.049 A 
ATOM     48  N   UNL A   1      50.639  33.306  26.483  1.00  0.00    -0.248 NA
ATOM     49  C   UNL A   1      48.761  34.302  25.705  1.00  0.00     0.031 C 
ATOM     50  C   UNL A   1      50.783  30.707  27.646  1.00  0.00     0.029 A 
ATOM     51  N   UNL A   1      49.045  29.412  28.068  1.00  0.00    -0.354 N 
ATOM     52  C   UNL A   1      50.892  34.596  25.953  1.00  0.00     0.074 A 
ATOM     53  C   UNL A   1      49.667  35.258  25.757  1.00  0.00     0.031 C 
ATOM     54  C   UNL A   1      51.229  29.439  27.746  1.00  0.00     0.029 A 
ATOM     55  C   UNL A   1      50.067  28.599  27.593  1.00  0.00     0.049 A 
ATOM     56  H   UNL A   1      48.277  29.125  28.613  1.00  0.00     0.167 HD
ATOM     57  C   UNL A   1      52.013  35.031  25.330  1.00  0.00     0.031 A 
ATOM     58  C   UNL A   1      49.760  27.830  26.524  1.00  0.00     0.031 A 
ATOM     59  C   UNL A   1      52.810  33.917  24.935  1.00  0.00     0.049 A 
ATOM     60  C   UNL A   1      50.564  28.325  25.308  1.00  0.00     0.074 A 
ATOM     61  C   UNL A   1      53.681  33.131  25.647  1.00  0.00     0.029 A 
ATOM     62  N   UNL A   1      52.527  33.291  23.738  1.00  0.00    -0.354 N 
ATOM     63  N   UNL A   1      51.565  29.667  25.158  1.00  0.00    -0.248 NA
ATOM     64  C   UNL A   1      50.582  27.427  23.500  1.00  0.00     0.031 C 
ATOM     65  C   UNL A   1      53.810  31.924  24.930  1.00  0.00     0.029 A 
ATOM     66  C   UNL A   1      53.059  32.016  23.769  1.00  0.00     0.049 A 
ATOM     67  H   UNL A   1      52.030  33.687  22.987  1.00  0.00     0.167 HD
ATOM     68  C   UNL A   1      52.106  29.901  23.367  1.00  0.00     0.074 A 
ATOM     69  C   UNL A   1      51.377  28.388  22.412  1.00  0.00     0.031 C 
ATOM     70  C   UNL A   1      52.618  31.043  22.802  1.00  0.00     0.031 A 
BRANCH  57  71
ATOM     71  C   UNL A   1      52.455  36.473  25.152  1.00  0.00    -0.014 A 
ATOM     72  C   UNL A   1      52.964  36.770  23.874  1.00  0.00     0.010 A 
ATOM     73  C   UNL A   1      52.616  37.481  26.134  1.00  0.00     0.010 A 
ATOM     74  C   UNL A   1      53.727  37.908  23.622  1.00  0.00     0.020 A 
ATOM     75  C   UNL A   1      53.356  38.654  25.881  1.00  0.00     0.020 A 
ATOM     76  C   UNL A   1      53.954  38.826  24.638  1.00  0.00     0.054 A 
BRANCH  76  77
ATOM     77  S   UNL A   1      55.101  40.181  24.304  1.00  0.00     0.124 S 
ATOM     78  O   UNL A   1      54.201  41.237  23.847  1.00  0.00    -0.237 OA
ATOM     79  O   UNL A   1      55.717  40.400  25.610  1.00  0.00    -0.237 OA
ATOM     80  O   UNL A   1      55.991  39.641  23.278  1.00  0.00    -0.744 OA
ENDBRANCH  76  77
ENDBRANCH  57  71
BRANCH  58  81
ATOM     81  C   UNL A   1      48.291  27.378  26.609  1.00  0.00    -0.014 A 
ATOM     82  C   UNL A   1      47.357  27.846  25.642  1.00  0.00     0.010 A 
ATOM     83  C   UNL A   1      47.900  26.222  27.306  1.00  0.00     0.010 A 
ATOM     84  C   UNL A   1      46.178  27.131  25.323  1.00  0.00     0.020 A 
ATOM     85  C   UNL A   1      46.658  25.577  27.085  1.00  0.00     0.020 A 
ATOM     86  C   UNL A   1      45.847  25.980  26.031  1.00  0.00     0.054 A 
BRANCH  86  87
ATOM     87  S   UNL A   1      44.511  24.902  25.405  1.00  0.00     0.124 S 
ATOM     88  O   UNL A   1      43.511  25.854  24.935  1.00  0.00    -0.237 OA
ATOM     89  O   UNL A   1      45.195  24.146  24.355  1.00  0.00    -0.237 OA
ATOM     90  O   UNL A   1      44.113  24.121  26.574  1.00  0.00    -0.744 OA
ENDBRANCH  86  87
ENDBRANCH  58  81
BRANCH  70  91
ATOM     91  C   UNL A   1      52.611  31.276  21.304  1.00  0.00    -0.014 A 
ATOM     92  C   UNL A   1      51.666  30.725  20.417  1.00  0.00     0.010 A 
ATOM     93  C   UNL A   1      53.585  32.100  20.711  1.00  0.00     0.010 A 
ATOM     94  C   UNL A   1      51.871  30.686  19.036  1.00  0.00     0.020 A 
ATOM     95  C   UNL A   1      53.740  32.169  19.317  1.00  0.00     0.020 A 
ATOM     96  C   UNL A   1      52.949  31.370  18.498  1.00  0.00     0.054 A 
BRANCH  96  97
ATOM     97  S   UNL A   1      53.325  31.160  16.744  1.00  0.00     0.124 S 
ATOM     98  O   UNL A   1      54.231  30.012  16.771  1.00  0.00    -0.237 OA
ATOM     99  O   UNL A   1      52.015  30.904  16.153  1.00  0.00    -0.237 OA
ATOM    100  O   UNL A   1      53.940  32.429  16.367  1.00  0.00    -0.744 OA
ENDBRANCH  96  97
ENDBRANCH  70  91
ENDBRANCH  44  45
ENDBRANCH  37  39
ENDBRANCH  36  37
ENDBRANCH  35  36
ENDBRANCH  34  35
ENDBRANCH  33  34
ENDBRANCH  32  33
ENDBRANCH   1  32
TORSDOF 24
ENDMDL
MODEL 3
REMARK VINA RESULT:      -8.7      6.415     14.362
REMARK SMILES Cc1ccc(C(=O)N2CCCC[C@@H]2C(=O)OCCOCCOCCOC(=O)c2ccc(-c3c4nc(c(-c5ccc(S(=O)(=O)[O-])cc5)c5ccc([nH]5)c(-c5ccc(S(=O)(=O)[O-])cc5)c5nc(c(-c6ccc(S(=O)(=O)[O-])cc6)c6ccc3[nH]6)C=C5)C=C4)cc2)cc1S(=O)(=O)N1CCCCC1
REMARK SMILES IDX 20 1 19 2 18 3 17 4 16 5 14 6 15 7 13 8 8 9 9 10 10 11 12 12
REMARK SMILES IDX 11 13 6 14 7 15 5 16 1 17 2 18 3 19 89 20 4 21 88 22 90 23
REMARK SMILES IDX 91 24 92 25 93 26 94 27 98 28 95 29 97 30 96 31 21 32 22 33
REMARK SMILES IDX 23 34 24 35 25 36 26 37 27 38 28 39 29 40 87 41 30 42 86 43
REMARK SMILES IDX 31 44 32 45 33 46 80 47 34 48 85 49 79 50 81 51 35 52 84 53
REMARK SMILES IDX 78 54 77 55 36 57 66 58 47 59 65 60 48 61 51 62 64 63 82 64
REMARK SMILES IDX 49 65 50 66 63 68 83 69 52 70 37 71 38 72 46 73 39 74 45 75
REMARK SMILES IDX 40 76 41 77 42 78 43 79 44 80 67 81 68 82 76 83 69 84 75 85
REMARK SMILES IDX 70 86 71 87 72 88 73 89 74 90 53 91 54 92 62 93 55 94 61 95
REMARK SMILES IDX 56 96 57 97 58 98 59 99 60 100
REMARK H PARENT 81 56 51 67
REMARK Flexibility Score: inf
ROOT
ATOM      1  C   UNL A   1      49.192  38.886  29.819  1.00  0.00     0.188 C 
ENDROOT
BRANCH   1   2
ATOM      2  O   UNL A   1      48.537  39.385  31.035  1.00  0.00    -0.376 OA
BRANCH   2   3
ATOM      3  C   UNL A   1      48.095  40.762  31.426  1.00  0.00     0.202 C 
BRANCH   3   4
ATOM      4  C   UNL A   1      47.014  42.154  30.832  1.00  0.00     0.261 C 
BRANCH   4   5
ATOM      5  O   UNL A   1      46.851  42.979  29.164  1.00  0.00    -0.462 OA
BRANCH   5   6
ATOM      6  C   UNL A   1      47.707  43.977  28.216  1.00  0.00     0.328 C 
ATOM      7  O   UNL A   1      48.885  43.832  27.848  1.00  0.00    -0.250 OA
BRANCH   6   8
ATOM      8  C   UNL A   1      47.250  45.322  27.704  1.00  0.00     0.195 C 
ATOM      9  N   UNL A   1      48.294  46.422  27.623  1.00  0.00    -0.325 N 
ATOM     10  C   UNL A   1      47.809  47.794  27.686  1.00  0.00     0.121 C 
ATOM     11  C   UNL A   1      46.464  47.994  28.353  1.00  0.00     0.022 C 
ATOM     12  C   UNL A   1      45.854  45.625  28.189  1.00  0.00     0.037 C 
ATOM     13  C   UNL A   1      45.443  47.024  27.796  1.00  0.00     0.005 C 
BRANCH   9  14
ATOM     14  C   UNL A   1      49.565  46.401  26.921  1.00  0.00     0.254 C 
ATOM     15  O   UNL A   1      50.618  46.256  27.560  1.00  0.00    -0.269 OA
BRANCH  14  16
ATOM     16  C   UNL A   1      49.765  46.337  25.447  1.00  0.00     0.041 A 
ATOM     17  C   UNL A   1      50.719  47.688  20.406  1.00  0.00     0.046 C 
ATOM     18  C   UNL A   1      50.263  46.884  22.414  1.00  0.00    -0.031 A 
ATOM     19  C   UNL A   1      51.011  47.365  23.710  1.00  0.00     0.005 A 
ATOM     20  C   UNL A   1      49.231  45.819  22.972  1.00  0.00     0.086 A 
ATOM     21  C   UNL A   1      50.676  47.260  25.044  1.00  0.00     0.014 A 
ATOM     22  C   UNL A   1      49.046  45.628  24.444  1.00  0.00     0.035 A 
BRANCH  20  23
ATOM     23  S   UNL A   1      48.016  44.481  22.064  1.00  0.00     0.243 S 
ATOM     24  O   UNL A   1      47.560  45.146  20.862  1.00  0.00    -0.207 OA
ATOM     25  O   UNL A   1      48.864  43.309  21.945  1.00  0.00    -0.207 OA
BRANCH  23  26
ATOM     26  N   UNL A   1      46.544  43.908  22.880  1.00  0.00    -0.198 NA
ATOM     27  C   UNL A   1      46.736  42.918  23.968  1.00  0.00     0.102 C 
ATOM     28  C   UNL A   1      45.219  44.572  22.672  1.00  0.00     0.102 C 
ATOM     29  C   UNL A   1      45.651  42.839  25.052  1.00  0.00     0.017 C 
ATOM     30  C   UNL A   1      44.203  44.497  23.849  1.00  0.00     0.017 C 
ATOM     31  C   UNL A   1      44.699  44.011  25.210  1.00  0.00     0.003 C 
ENDBRANCH  23  26
ENDBRANCH  20  23
ENDBRANCH  14  16
ENDBRANCH   9  14
ENDBRANCH   6   8
ENDBRANCH   5   6
ENDBRANCH   4   5
ENDBRANCH   3   4
ENDBRANCH   2   3
ENDBRANCH   1   2
BRANCH   1  32
ATOM     32  C   UNL A   1      48.367  38.822  28.582  1.00  0.00     0.188 C 
BRANCH  32  33
ATOM     33  O   UNL A   1      48.377  37.456  28.296  1.00  0.00    -0.376 OA
BRANCH  33  34
ATOM     34  C   UNL A   1      48.511  36.529  29.310  1.00  0.00     0.202 C 
BRANCH  34  35
ATOM     35  C   UNL A   1      48.639  35.143  28.734  1.00  0.00     0.261 C 
BRANCH  35  36
ATOM     36  O   UNL A   1      49.285  34.994  27.411  1.00  0.00    -0.460 OA
BRANCH  36  37
ATOM     37  C   UNL A   1      48.909  34.334  26.253  1.00  0.00     0.338 C 
ATOM     38  O   UNL A   1      49.692  34.225  25.318  1.00  0.00    -0.246 OA
BRANCH  37  39
ATOM     39  C   UNL A   1      47.694  33.482  26.312  1.00  0.00     0.060 A 
ATOM     40  C   UNL A   1      46.415  33.684  25.775  1.00  0.00     0.016 A 
ATOM     41  C   UNL A   1      47.826  32.350  27.006  1.00  0.00     0.016 A 
ATOM     42  C   UNL A   1      45.189  33.115  26.370  1.00  0.00     0.010 A 
ATOM     43  C   UNL A   1      46.650  31.913  27.614  1.00  0.00     0.010 A 
ATOM     44  C   UNL A   1      45.195  32.333  27.528  1.00  0.00    -0.014 A 
BRANCH  44  45
ATOM     45  C   UNL A   1      43.734  31.634  28.506  1.00  0.00     0.031 A 
ATOM     46  C   UNL A   1      42.730  30.107  28.127  1.00  0.00     0.074 A 
ATOM     47  C   UNL A   1      43.300  32.151  29.685  1.00  0.00     0.049 A 
ATOM     48  N   UNL A   1      42.145  29.310  29.006  1.00  0.00    -0.248 NA
ATOM     49  C   UNL A   1      42.625  29.296  26.794  1.00  0.00     0.031 C 
ATOM     50  C   UNL A   1      42.567  31.496  30.786  1.00  0.00     0.029 A 
ATOM     51  N   UNL A   1      43.561  33.393  30.246  1.00  0.00    -0.354 N 
ATOM     52  C   UNL A   1      41.811  28.079  28.389  1.00  0.00     0.074 A 
ATOM     53  C   UNL A   1      42.388  28.038  27.107  1.00  0.00     0.031 C 
ATOM     54  C   UNL A   1      42.189  32.429  31.683  1.00  0.00     0.029 A 
ATOM     55  C   UNL A   1      42.492  33.702  31.079  1.00  0.00     0.049 A 
ATOM     56  H   UNL A   1      44.355  33.951  30.084  1.00  0.00     0.167 HD
ATOM     57  C   UNL A   1      40.799  27.237  28.711  1.00  0.00     0.031 A 
ATOM     58  C   UNL A   1      41.604  34.597  30.590  1.00  0.00     0.031 A 
ATOM     59  C   UNL A   1      39.856  27.910  29.541  1.00  0.00     0.049 A 
ATOM     60  C   UNL A   1      40.265  33.882  30.336  1.00  0.00     0.074 A 
ATOM     61  C   UNL A   1      39.868  28.183  30.886  1.00  0.00     0.029 A 
ATOM     62  N   UNL A   1      38.874  28.675  28.944  1.00  0.00    -0.354 N 
ATOM     63  N   UNL A   1      39.883  32.249  30.455  1.00  0.00    -0.248 NA
ATOM     64  C   UNL A   1      38.567  34.798  29.745  1.00  0.00     0.031 C 
ATOM     65  C   UNL A   1      38.975  29.255  31.086  1.00  0.00     0.029 A 
ATOM     66  C   UNL A   1      38.394  29.580  29.870  1.00  0.00     0.049 A 
ATOM     67  H   UNL A   1      38.567  28.589  28.013  1.00  0.00     0.167 HD
ATOM     68  C   UNL A   1      38.144  31.920  29.804  1.00  0.00     0.074 A 
ATOM     69  C   UNL A   1      37.427  33.660  29.364  1.00  0.00     0.031 C 
ATOM     70  C   UNL A   1      37.622  30.710  29.420  1.00  0.00     0.031 A 
BRANCH  57  71
ATOM     71  C   UNL A   1      40.694  25.763  28.360  1.00  0.00    -0.014 A 
ATOM     72  C   UNL A   1      41.731  24.967  28.882  1.00  0.00     0.010 A 
ATOM     73  C   UNL A   1      39.834  25.130  27.431  1.00  0.00     0.010 A 
ATOM     74  C   UNL A   1      42.006  23.690  28.398  1.00  0.00     0.020 A 
ATOM     75  C   UNL A   1      40.081  23.825  26.959  1.00  0.00     0.020 A 
ATOM     76  C   UNL A   1      41.203  23.140  27.409  1.00  0.00     0.054 A 
BRANCH  76  77
ATOM     77  S   UNL A   1      41.718  21.564  26.691  1.00  0.00     0.124 S 
ATOM     78  O   UNL A   1      43.166  21.731  26.596  1.00  0.00    -0.237 OA
ATOM     79  O   UNL A   1      41.260  20.600  27.688  1.00  0.00    -0.237 OA
ATOM     80  O   UNL A   1      41.016  21.517  25.410  1.00  0.00    -0.744 OA
ENDBRANCH  76  77
ENDBRANCH  57  71
BRANCH  58  81
ATOM     81  C   UNL A   1      42.335  35.644  29.729  1.00  0.00    -0.014 A 
ATOM     82  C   UNL A   1      41.803  35.999  28.458  1.00  0.00     0.010 A 
ATOM     83  C   UNL A   1      43.241  36.568  30.277  1.00  0.00     0.010 A 
ATOM     84  C   UNL A   1      42.073  37.248  27.848  1.00  0.00     0.020 A 
ATOM     85  C   UNL A   1      43.619  37.758  29.609  1.00  0.00     0.020 A 
ATOM     86  C   UNL A   1      42.963  38.136  28.444  1.00  0.00     0.054 A 
BRANCH  86  87
ATOM     87  S   UNL A   1      43.056  39.852  27.825  1.00  0.00     0.124 S 
ATOM     88  O   UNL A   1      43.282  39.677  26.395  1.00  0.00    -0.237 OA
ATOM     89  O   UNL A   1      41.740  40.381  28.188  1.00  0.00    -0.237 OA
ATOM     90  O   UNL A   1      44.181  40.430  28.556  1.00  0.00    -0.744 OA
ENDBRANCH  86  87
ENDBRANCH  58  81
BRANCH  70  91
ATOM     91  C   UNL A   1      36.407  30.604  28.519  1.00  0.00    -0.014 A 
ATOM     92  C   UNL A   1      35.301  31.474  28.568  1.00  0.00     0.010 A 
ATOM     93  C   UNL A   1      36.336  29.595  27.542  1.00  0.00     0.010 A 
ATOM     94  C   UNL A   1      34.078  31.164  27.968  1.00  0.00     0.020 A 
ATOM     95  C   UNL A   1      35.149  29.334  26.838  1.00  0.00     0.020 A 
ATOM     96  C   UNL A   1      33.998  30.053  27.144  1.00  0.00     0.054 A 
BRANCH  96  97
ATOM     97  S   UNL A   1      32.379  29.543  26.527  1.00  0.00     0.124 S 
ATOM     98  O   UNL A   1      31.722  30.832  26.319  1.00  0.00    -0.237 OA
ATOM     99  O   UNL A   1      32.706  28.807  25.309  1.00  0.00    -0.237 OA
ATOM    100  O   UNL A   1      31.833  28.735  27.615  1.00  0.00    -0.744 OA
ENDBRANCH  96  97
ENDBRANCH  70  91
ENDBRANCH  44  45
ENDBRANCH  37  39
ENDBRANCH  36  37
ENDBRANCH  35  36
ENDBRANCH  34  35
ENDBRANCH  33  34
ENDBRANCH  32  33
ENDBRANCH   1  32
TORSDOF 24
ENDMDL
