MODEL 1
REMARK VINA RESULT:      -8.2      0.000      0.000
REMARK SMILES CC(C)[C@](C)(CC(=O)NC#N)C(=O)OCCOCCOCCOC(=O)c1ccc(-c2c3nc(c(-c4ccc(S(=O)(=O)[O-])cc4)c4ccc([nH]4)c(-c4ccc(S(=O)(=O)[O-])cc4)c4nc(c(-c5ccc(S(=O)(=O)[O-])cc5)c5ccc2[nH]5)C=C4)C=C3)cc1
REMARK SMILES IDX 18 1 17 2 16 3 15 4 14 5 12 6 13 7 4 8 5 9 2 10 1 11 3 12
REMARK SMILES IDX 6 13 7 14 8 15 9 16 10 18 11 19 19 20 20 21 21 22 22 23
REMARK SMILES IDX 23 24 24 25 25 26 26 27 27 28 85 29 28 30 84 31 29 32 30 33
REMARK SMILES IDX 31 34 78 35 32 36 83 37 77 38 79 39 33 40 82 41 76 42 75 43
REMARK SMILES IDX 34 45 64 46 45 47 63 48 46 49 49 50 62 51 80 52 47 53 48 54
REMARK SMILES IDX 61 56 81 57 50 58 35 59 36 60 44 61 37 62 43 63 38 64 39 65
REMARK SMILES IDX 40 66 41 67 42 68 65 69 66 70 74 71 67 72 73 73 68 74 69 75
REMARK SMILES IDX 70 76 71 77 72 78 51 79 52 80 60 81 53 82 59 83 54 84 55 85
REMARK SMILES IDX 56 86 57 87 58 88
REMARK H PARENT 9 17 79 44 49 55
REMARK Flexibility Score: inf
ROOT
ATOM      1  C   UNL A   1      33.341  21.959  25.259  1.00  0.00     0.188 C 
ENDROOT
BRANCH   1   2
ATOM      2  O   UNL A   1      32.785  21.590  24.008  1.00  0.00    -0.376 OA
BRANCH   2   3
ATOM      3  C   UNL A   1      32.685  22.545  22.962  1.00  0.00     0.202 C 
BRANCH   3   4
ATOM      4  C   UNL A   1      33.929  23.331  22.479  1.00  0.00     0.261 C 
BRANCH   4   5
ATOM      5  O   UNL A   1      34.121  24.714  22.898  1.00  0.00    -0.463 OA
BRANCH   5   6
ATOM      6  C   UNL A   1      33.074  25.533  22.623  1.00  0.00     0.312 C 
ATOM      7  O   UNL A   1      32.633  25.651  21.480  1.00  0.00    -0.252 OA
BRANCH   6   8
ATOM      8  C   UNL A   1      32.500  26.384  23.804  1.00  0.00     0.076 C 
ATOM      9  C   UNL A   1      33.755  26.690  24.656  1.00  0.00     0.024 C 
BRANCH   8  10
ATOM     10  C   UNL A   1      31.537  25.426  24.660  1.00  0.00     0.000 C 
ATOM     11  C   UNL A   1      31.089  25.987  26.025  1.00  0.00     0.008 C 
ATOM     12  C   UNL A   1      30.261  24.971  23.932  1.00  0.00     0.008 C 
ENDBRANCH   8  10
BRANCH   8  13
ATOM     13  C   UNL A   1      31.731  27.728  23.546  1.00  0.00     0.119 C 
BRANCH  13  14
ATOM     14  C   UNL A   1      32.138  28.957  22.726  1.00  0.00     0.234 C 
ATOM     15  O   UNL A   1      33.335  29.230  22.585  1.00  0.00    -0.274 OA
ATOM     16  N   UNL A   1      31.267  29.704  22.009  1.00  0.00    -0.263 N 
ATOM     17  H   UNL A   1      31.732  30.412  21.505  1.00  0.00     0.182 HD
BRANCH  16  18
ATOM     18  C   UNL A   1      29.952  29.742  21.798  1.00  0.00     0.183 C 
ATOM     19  N   UNL A   1      28.808  29.704  21.618  1.00  0.00    -0.172 NA
ENDBRANCH  16  18
ENDBRANCH  13  14
ENDBRANCH   8  13
ENDBRANCH   6   8
ENDBRANCH   5   6
ENDBRANCH   4   5
ENDBRANCH   3   4
ENDBRANCH   2   3
ENDBRANCH   1   2
BRANCH   1  20
ATOM     20  C   UNL A   1      34.626  21.277  25.735  1.00  0.00     0.188 C 
BRANCH  20  21
ATOM     21  O   UNL A   1      35.554  20.965  24.731  1.00  0.00    -0.376 OA
BRANCH  21  22
ATOM     22  C   UNL A   1      36.804  20.445  25.124  1.00  0.00     0.202 C 
BRANCH  22  23
ATOM     23  C   UNL A   1      38.094  21.286  25.022  1.00  0.00     0.261 C 
BRANCH  23  24
ATOM     24  O   UNL A   1      38.366  22.257  26.051  1.00  0.00    -0.460 OA
BRANCH  24  25
ATOM     25  C   UNL A   1      38.003  23.540  25.810  1.00  0.00     0.338 C 
ATOM     26  O   UNL A   1      37.037  23.916  25.171  1.00  0.00    -0.246 OA
BRANCH  25  27
ATOM     27  C   UNL A   1      38.850  24.451  26.622  1.00  0.00     0.060 A 
ATOM     28  C   UNL A   1      38.594  24.585  27.994  1.00  0.00     0.016 A 
ATOM     29  C   UNL A   1      39.833  25.232  26.024  1.00  0.00     0.016 A 
ATOM     30  C   UNL A   1      39.277  25.525  28.766  1.00  0.00     0.010 A 
ATOM     31  C   UNL A   1      40.517  26.180  26.797  1.00  0.00     0.010 A 
ATOM     32  C   UNL A   1      40.220  26.359  28.163  1.00  0.00    -0.014 A 
BRANCH  32  33
ATOM     33  C   UNL A   1      40.785  27.511  28.912  1.00  0.00     0.031 A 
ATOM     34  C   UNL A   1      39.933  28.739  29.102  1.00  0.00     0.074 A 
ATOM     35  C   UNL A   1      42.024  27.468  29.438  1.00  0.00     0.049 A 
ATOM     36  N   UNL A   1      40.263  29.915  29.570  1.00  0.00    -0.248 NA
ATOM     37  C   UNL A   1      38.520  28.624  28.706  1.00  0.00     0.031 C 
ATOM     38  C   UNL A   1      42.917  26.310  29.409  1.00  0.00     0.029 A 
ATOM     39  N   UNL A   1      42.750  28.434  30.092  1.00  0.00    -0.354 N 
ATOM     40  C   UNL A   1      39.110  30.688  29.495  1.00  0.00     0.074 A 
ATOM     41  C   UNL A   1      38.079  29.857  28.913  1.00  0.00     0.031 C 
ATOM     42  C   UNL A   1      44.076  26.637  30.005  1.00  0.00     0.029 A 
ATOM     43  C   UNL A   1      44.034  28.044  30.396  1.00  0.00     0.049 A 
ATOM     44  H   UNL A   1      42.387  29.320  30.320  1.00  0.00     0.167 HD
ATOM     45  C   UNL A   1      38.926  31.974  29.880  1.00  0.00     0.031 A 
ATOM     46  C   UNL A   1      45.072  28.750  30.887  1.00  0.00     0.031 A 
ATOM     47  C   UNL A   1      39.961  32.793  30.455  1.00  0.00     0.049 A 
ATOM     48  C   UNL A   1      44.880  30.209  31.209  1.00  0.00     0.074 A 
ATOM     49  C   UNL A   1      39.885  34.113  30.865  1.00  0.00     0.029 A 
ATOM     50  N   UNL A   1      41.259  32.372  30.705  1.00  0.00    -0.354 N 
ATOM     51  N   UNL A   1      43.797  30.942  31.096  1.00  0.00    -0.248 NA
ATOM     52  C   UNL A   1      46.046  30.935  31.727  1.00  0.00     0.031 C 
ATOM     53  C   UNL A   1      41.155  34.509  31.298  1.00  0.00     0.029 A 
ATOM     54  C   UNL A   1      42.001  33.413  31.239  1.00  0.00     0.049 A 
ATOM     55  H   UNL A   1      41.604  31.467  30.529  1.00  0.00     0.167 HD
ATOM     56  C   UNL A   1      44.145  32.207  31.559  1.00  0.00     0.074 A 
ATOM     57  C   UNL A   1      45.533  32.134  31.967  1.00  0.00     0.031 C 
ATOM     58  C   UNL A   1      43.384  33.327  31.642  1.00  0.00     0.031 A 
BRANCH  45  59
ATOM     59  C   UNL A   1      37.567  32.586  29.654  1.00  0.00    -0.014 A 
ATOM     60  C   UNL A   1      36.635  32.711  30.699  1.00  0.00     0.010 A 
ATOM     61  C   UNL A   1      37.232  33.084  28.380  1.00  0.00     0.010 A 
ATOM     62  C   UNL A   1      35.383  33.289  30.468  1.00  0.00     0.020 A 
ATOM     63  C   UNL A   1      35.995  33.695  28.154  1.00  0.00     0.020 A 
ATOM     64  C   UNL A   1      35.073  33.781  29.198  1.00  0.00     0.054 A 
BRANCH  64  65
ATOM     65  S   UNL A   1      33.455  34.558  28.940  1.00  0.00     0.124 S 
ATOM     66  O   UNL A   1      32.819  33.630  28.008  1.00  0.00    -0.237 OA
ATOM     67  O   UNL A   1      32.894  34.577  30.288  1.00  0.00    -0.237 OA
ATOM     68  O   UNL A   1      33.782  35.869  28.384  1.00  0.00    -0.744 OA
ENDBRANCH  64  65
ENDBRANCH  45  59
BRANCH  46  69
ATOM     69  C   UNL A   1      46.402  28.095  31.056  1.00  0.00    -0.014 A 
ATOM     70  C   UNL A   1      47.324  28.041  29.996  1.00  0.00     0.010 A 
ATOM     71  C   UNL A   1      46.757  27.526  32.294  1.00  0.00     0.010 A 
ATOM     72  C   UNL A   1      48.568  27.428  30.170  1.00  0.00     0.020 A 
ATOM     73  C   UNL A   1      48.013  26.946  32.483  1.00  0.00     0.020 A 
ATOM     74  C   UNL A   1      48.910  26.894  31.416  1.00  0.00     0.054 A 
BRANCH  74  75
ATOM     75  S   UNL A   1      50.558  26.166  31.633  1.00  0.00     0.124 S 
ATOM     76  O   UNL A   1      50.994  25.979  30.253  1.00  0.00    -0.237 OA
ATOM     77  O   UNL A   1      51.261  27.203  32.385  1.00  0.00    -0.237 OA
ATOM     78  O   UNL A   1      50.295  24.936  32.377  1.00  0.00    -0.744 OA
ENDBRANCH  74  75
ENDBRANCH  46  69
BRANCH  58  79
ATOM     79  C   UNL A   1      44.014  34.559  32.243  1.00  0.00    -0.014 A 
ATOM     80  C   UNL A   1      43.991  34.799  33.627  1.00  0.00     0.010 A 
ATOM     81  C   UNL A   1      44.694  35.462  31.404  1.00  0.00     0.010 A 
ATOM     82  C   UNL A   1      44.608  35.936  34.158  1.00  0.00     0.020 A 
ATOM     83  C   UNL A   1      45.343  36.580  31.934  1.00  0.00     0.020 A 
ATOM     84  C   UNL A   1      45.283  36.818  33.307  1.00  0.00     0.054 A 
BRANCH  84  85
ATOM     85  S   UNL A   1      46.114  38.260  34.029  1.00  0.00     0.124 S 
ATOM     86  O   UNL A   1      45.770  39.316  33.081  1.00  0.00    -0.237 OA
ATOM     87  O   UNL A   1      45.484  38.365  35.343  1.00  0.00    -0.237 OA
ATOM     88  O   UNL A   1      47.524  37.876  34.048  1.00  0.00    -0.744 OA
ENDBRANCH  84  85
ENDBRANCH  58  79
ENDBRANCH  32  33
ENDBRANCH  25  27
ENDBRANCH  24  25
ENDBRANCH  23  24
ENDBRANCH  22  23
ENDBRANCH  21  22
ENDBRANCH  20  21
ENDBRANCH   1  20
TORSDOF 24
ENDMDL
MODEL 2
REMARK VINA RESULT:      -7.8      3.536      9.528
REMARK SMILES CC(C)[C@](C)(CC(=O)NC#N)C(=O)OCCOCCOCCOC(=O)c1ccc(-c2c3nc(c(-c4ccc(S(=O)(=O)[O-])cc4)c4ccc([nH]4)c(-c4ccc(S(=O)(=O)[O-])cc4)c4nc(c(-c5ccc(S(=O)(=O)[O-])cc5)c5ccc2[nH]5)C=C4)C=C3)cc1
REMARK SMILES IDX 18 1 17 2 16 3 15 4 14 5 12 6 13 7 4 8 5 9 2 10 1 11 3 12
REMARK SMILES IDX 6 13 7 14 8 15 9 16 10 18 11 19 19 20 20 21 21 22 22 23
REMARK SMILES IDX 23 24 24 25 25 26 26 27 27 28 85 29 28 30 84 31 29 32 30 33
REMARK SMILES IDX 31 34 78 35 32 36 83 37 77 38 79 39 33 40 82 41 76 42 75 43
REMARK SMILES IDX 34 45 64 46 45 47 63 48 46 49 49 50 62 51 80 52 47 53 48 54
REMARK SMILES IDX 61 56 81 57 50 58 35 59 36 60 44 61 37 62 43 63 38 64 39 65
REMARK SMILES IDX 40 66 41 67 42 68 65 69 66 70 74 71 67 72 73 73 68 74 69 75
REMARK SMILES IDX 70 76 71 77 72 78 51 79 52 80 60 81 53 82 59 83 54 84 55 85
REMARK SMILES IDX 56 86 57 87 58 88
REMARK H PARENT 9 17 79 44 49 55
REMARK Flexibility Score: inf
ROOT
ATOM      1  C   UNL A   1      40.757  20.993  27.039  1.00  0.00     0.188 C 
ENDROOT
BRANCH   1   2
ATOM      2  O   UNL A   1      39.483  21.602  26.910  1.00  0.00    -0.376 OA
BRANCH   2   3
ATOM      3  C   UNL A   1      38.757  21.486  25.695  1.00  0.00     0.202 C 
BRANCH   3   4
ATOM      4  C   UNL A   1      37.226  21.724  25.657  1.00  0.00     0.261 C 
BRANCH   4   5
ATOM      5  O   UNL A   1      36.640  22.507  24.577  1.00  0.00    -0.463 OA
BRANCH   5   6
ATOM      6  C   UNL A   1      35.824  23.510  24.992  1.00  0.00     0.312 C 
ATOM      7  O   UNL A   1      36.264  24.489  25.594  1.00  0.00    -0.252 OA
BRANCH   6   8
ATOM      8  C   UNL A   1      34.289  23.334  24.744  1.00  0.00     0.076 C 
ATOM      9  C   UNL A   1      34.236  22.586  23.391  1.00  0.00     0.024 C 
BRANCH   8  10
ATOM     10  C   UNL A   1      33.668  24.800  24.530  1.00  0.00     0.000 C 
ATOM     11  C   UNL A   1      33.681  25.316  23.077  1.00  0.00     0.008 C 
ATOM     12  C   UNL A   1      32.231  24.978  25.046  1.00  0.00     0.008 C 
ENDBRANCH   8  10
BRANCH   8  13
ATOM     13  C   UNL A   1      33.377  22.574  25.771  1.00  0.00     0.119 C 
BRANCH  13  14
ATOM     14  C   UNL A   1      33.696  21.385  26.684  1.00  0.00     0.234 C 
ATOM     15  O   UNL A   1      34.191  21.584  27.799  1.00  0.00    -0.274 OA
ATOM     16  N   UNL A   1      33.336  20.110  26.411  1.00  0.00    -0.263 N 
ATOM     17  H   UNL A   1      33.579  19.502  27.147  1.00  0.00     0.182 HD
BRANCH  16  18
ATOM     18  C   UNL A   1      32.741  19.452  25.416  1.00  0.00     0.183 C 
ATOM     19  N   UNL A   1      32.277  18.902  24.507  1.00  0.00    -0.172 NA
ENDBRANCH  16  18
ENDBRANCH  13  14
ENDBRANCH   8  13
ENDBRANCH   6   8
ENDBRANCH   5   6
ENDBRANCH   4   5
ENDBRANCH   3   4
ENDBRANCH   2   3
ENDBRANCH   1   2
BRANCH   1  20
ATOM     20  C   UNL A   1      41.113  19.809  26.136  1.00  0.00     0.188 C 
BRANCH  20  21
ATOM     21  O   UNL A   1      42.327  19.171  26.424  1.00  0.00    -0.376 OA
BRANCH  21  22
ATOM     22  C   UNL A   1      43.267  19.034  25.381  1.00  0.00     0.202 C 
BRANCH  22  23
ATOM     23  C   UNL A   1      44.265  20.161  25.044  1.00  0.00     0.261 C 
BRANCH  23  24
ATOM     24  O   UNL A   1      44.186  21.395  25.784  1.00  0.00    -0.460 OA
BRANCH  24  25
ATOM     25  C   UNL A   1      43.951  22.530  25.081  1.00  0.00     0.338 C 
ATOM     26  O   UNL A   1      43.871  22.634  23.870  1.00  0.00    -0.246 OA
BRANCH  25  27
ATOM     27  C   UNL A   1      43.593  23.623  26.019  1.00  0.00     0.060 A 
ATOM     28  C   UNL A   1      44.020  24.931  25.746  1.00  0.00     0.016 A 
ATOM     29  C   UNL A   1      42.916  23.353  27.204  1.00  0.00     0.016 A 
ATOM     30  C   UNL A   1      43.820  25.962  26.663  1.00  0.00     0.010 A 
ATOM     31  C   UNL A   1      42.718  24.387  28.129  1.00  0.00     0.010 A 
ATOM     32  C   UNL A   1      43.199  25.689  27.883  1.00  0.00    -0.014 A 
BRANCH  32  33
ATOM     33  C   UNL A   1      43.184  26.713  28.960  1.00  0.00     0.031 A 
ATOM     34  C   UNL A   1      44.299  26.717  29.972  1.00  0.00     0.074 A 
ATOM     35  C   UNL A   1      42.213  27.644  29.030  1.00  0.00     0.049 A 
ATOM     36  N   UNL A   1      44.412  27.398  31.082  1.00  0.00    -0.248 NA
ATOM     37  C   UNL A   1      45.439  25.826  29.695  1.00  0.00     0.031 C 
ATOM     38  C   UNL A   1      41.129  27.813  28.064  1.00  0.00     0.029 A 
ATOM     39  N   UNL A   1      41.978  28.618  29.970  1.00  0.00    -0.354 N 
ATOM     40  C   UNL A   1      45.615  26.996  31.651  1.00  0.00     0.074 A 
ATOM     41  C   UNL A   1      46.183  25.993  30.778  1.00  0.00     0.031 C 
ATOM     42  C   UNL A   1      40.336  28.819  28.467  1.00  0.00     0.029 A 
ATOM     43  C   UNL A   1      40.815  29.321  29.753  1.00  0.00     0.049 A 
ATOM     44  H   UNL A   1      42.582  28.796  30.726  1.00  0.00     0.167 HD
ATOM     45  C   UNL A   1      46.196  27.428  32.796  1.00  0.00     0.031 A 
ATOM     46  C   UNL A   1      40.182  30.228  30.523  1.00  0.00     0.031 A 
ATOM     47  C   UNL A   1      45.619  28.425  33.661  1.00  0.00     0.049 A 
ATOM     48  C   UNL A   1      40.788  30.618  31.846  1.00  0.00     0.074 A 
ATOM     49  C   UNL A   1      46.116  28.922  34.853  1.00  0.00     0.029 A 
ATOM     50  N   UNL A   1      44.418  29.079  33.425  1.00  0.00    -0.354 N 
ATOM     51  N   UNL A   1      41.905  30.202  32.395  1.00  0.00    -0.248 NA
ATOM     52  C   UNL A   1      40.050  31.599  32.652  1.00  0.00     0.031 C 
ATOM     53  C   UNL A   1      45.183  29.825  35.371  1.00  0.00     0.029 A 
ATOM     54  C   UNL A   1      44.145  29.957  34.462  1.00  0.00     0.049 A 
ATOM     55  H   UNL A   1      43.844  28.942  32.638  1.00  0.00     0.167 HD
ATOM     56  C   UNL A   1      42.019  30.896  33.596  1.00  0.00     0.074 A 
ATOM     57  C   UNL A   1      40.866  31.768  33.684  1.00  0.00     0.031 C 
ATOM     58  C   UNL A   1      42.993  30.820  34.538  1.00  0.00     0.031 A 
BRANCH  45  59
ATOM     59  C   UNL A   1      47.502  26.794  33.202  1.00  0.00    -0.014 A 
ATOM     60  C   UNL A   1      47.539  25.609  33.958  1.00  0.00     0.010 A 
ATOM     61  C   UNL A   1      48.715  27.372  32.783  1.00  0.00     0.010 A 
ATOM     62  C   UNL A   1      48.762  25.034  34.316  1.00  0.00     0.020 A 
ATOM     63  C   UNL A   1      49.940  26.780  33.109  1.00  0.00     0.020 A 
ATOM     64  C   UNL A   1      49.954  25.621  33.886  1.00  0.00     0.054 A 
BRANCH  64  65
ATOM     65  S   UNL A   1      51.523  24.830  34.336  1.00  0.00     0.124 S 
ATOM     66  O   UNL A   1      52.316  25.019  33.124  1.00  0.00    -0.237 OA
ATOM     67  O   UNL A   1      51.951  25.612  35.493  1.00  0.00    -0.237 OA
ATOM     68  O   UNL A   1      51.147  23.448  34.624  1.00  0.00    -0.744 OA
ENDBRANCH  64  65
ENDBRANCH  45  59
BRANCH  46  69
ATOM     69  C   UNL A   1      38.874  30.794  30.081  1.00  0.00    -0.014 A 
ATOM     70  C   UNL A   1      38.753  32.149  29.727  1.00  0.00     0.010 A 
ATOM     71  C   UNL A   1      37.738  29.967  30.000  1.00  0.00     0.010 A 
ATOM     72  C   UNL A   1      37.522  32.665  29.310  1.00  0.00     0.020 A 
ATOM     73  C   UNL A   1      36.515  30.470  29.547  1.00  0.00     0.020 A 
ATOM     74  C   UNL A   1      36.414  31.820  29.212  1.00  0.00     0.054 A 
BRANCH  74  75
ATOM     75  S   UNL A   1      34.846  32.500  28.600  1.00  0.00     0.124 S 
ATOM     76  O   UNL A   1      34.328  33.182  29.782  1.00  0.00    -0.237 OA
ATOM     77  O   UNL A   1      35.286  33.368  27.510  1.00  0.00    -0.237 OA
ATOM     78  O   UNL A   1      34.098  31.317  28.183  1.00  0.00    -0.744 OA
ENDBRANCH  74  75
ENDBRANCH  46  69
BRANCH  58  79
ATOM     79  C   UNL A   1      42.886  31.740  35.730  1.00  0.00    -0.014 A 
ATOM     80  C   UNL A   1      42.264  31.333  36.922  1.00  0.00     0.010 A 
ATOM     81  C   UNL A   1      43.477  33.016  35.668  1.00  0.00     0.010 A 
ATOM     82  C   UNL A   1      42.204  32.198  38.019  1.00  0.00     0.020 A 
ATOM     83  C   UNL A   1      43.452  33.869  36.774  1.00  0.00     0.020 A 
ATOM     84  C   UNL A   1      42.803  33.459  37.939  1.00  0.00     0.054 A 
BRANCH  84  85
ATOM     85  S   UNL A   1      42.751  34.542  39.393  1.00  0.00     0.124 S 
ATOM     86  O   UNL A   1      42.270  35.797  38.823  1.00  0.00    -0.237 OA
ATOM     87  O   UNL A   1      41.811  33.849  40.272  1.00  0.00    -0.237 OA
ATOM     88  O   UNL A   1      44.135  34.561  39.862  1.00  0.00    -0.744 OA
ENDBRANCH  84  85
ENDBRANCH  58  79
ENDBRANCH  32  33
ENDBRANCH  25  27
ENDBRANCH  24  25
ENDBRANCH  23  24
ENDBRANCH  22  23
ENDBRANCH  21  22
ENDBRANCH  20  21
ENDBRANCH   1  20
TORSDOF 24
ENDMDL
MODEL 3
REMARK VINA RESULT:      -7.8      2.309      3.088
REMARK SMILES CC(C)[C@](C)(CC(=O)NC#N)C(=O)OCCOCCOCCOC(=O)c1ccc(-c2c3nc(c(-c4ccc(S(=O)(=O)[O-])cc4)c4ccc([nH]4)c(-c4ccc(S(=O)(=O)[O-])cc4)c4nc(c(-c5ccc(S(=O)(=O)[O-])cc5)c5ccc2[nH]5)C=C4)C=C3)cc1
REMARK SMILES IDX 18 1 17 2 16 3 15 4 14 5 12 6 13 7 4 8 5 9 2 10 1 11 3 12
REMARK SMILES IDX 6 13 7 14 8 15 9 16 10 18 11 19 19 20 20 21 21 22 22 23
REMARK SMILES IDX 23 24 24 25 25 26 26 27 27 28 85 29 28 30 84 31 29 32 30 33
REMARK SMILES IDX 31 34 78 35 32 36 83 37 77 38 79 39 33 40 82 41 76 42 75 43
REMARK SMILES IDX 34 45 64 46 45 47 63 48 46 49 49 50 62 51 80 52 47 53 48 54
REMARK SMILES IDX 61 56 81 57 50 58 35 59 36 60 44 61 37 62 43 63 38 64 39 65
REMARK SMILES IDX 40 66 41 67 42 68 65 69 66 70 74 71 67 72 73 73 68 74 69 75
REMARK SMILES IDX 70 76 71 77 72 78 51 79 52 80 60 81 53 82 59 83 54 84 55 85
REMARK SMILES IDX 56 86 57 87 58 88
REMARK H PARENT 9 17 79 44 49 55
REMARK Flexibility Score: inf
ROOT
ATOM      1  C   UNL A   1      33.079  21.746  25.511  1.00  0.00     0.188 C 
ENDROOT
BRANCH   1   2
ATOM      2  O   UNL A   1      32.587  21.463  24.212  1.00  0.00    -0.376 OA
BRANCH   2   3
ATOM      3  C   UNL A   1      32.747  22.410  23.167  1.00  0.00     0.202 C 
BRANCH   3   4
ATOM      4  C   UNL A   1      31.951  23.739  23.167  1.00  0.00     0.261 C 
BRANCH   4   5
ATOM      5  O   UNL A   1      32.635  24.994  22.883  1.00  0.00    -0.463 OA
BRANCH   5   6
ATOM      6  C   UNL A   1      31.805  26.049  22.671  1.00  0.00     0.312 C 
ATOM      7  O   UNL A   1      31.449  26.369  21.538  1.00  0.00    -0.252 OA
BRANCH   6   8
ATOM      8  C   UNL A   1      31.383  26.891  23.921  1.00  0.00     0.076 C 
ATOM      9  C   UNL A   1      29.870  26.594  24.049  1.00  0.00     0.024 C 
BRANCH   8  10
ATOM     10  C   UNL A   1      31.557  28.440  23.533  1.00  0.00     0.000 C 
ATOM     11  C   UNL A   1      31.032  29.446  24.579  1.00  0.00     0.008 C 
ATOM     12  C   UNL A   1      32.995  28.868  23.197  1.00  0.00     0.008 C 
ENDBRANCH   8  10
BRANCH   8  13
ATOM     13  C   UNL A   1      32.057  26.670  25.321  1.00  0.00     0.119 C 
BRANCH  13  14
ATOM     14  C   UNL A   1      33.538  26.650  25.713  1.00  0.00     0.234 C 
ATOM     15  O   UNL A   1      34.254  25.709  25.352  1.00  0.00    -0.274 OA
ATOM     16  N   UNL A   1      34.170  27.682  26.318  1.00  0.00    -0.263 N 
ATOM     17  H   UNL A   1      35.131  27.499  26.431  1.00  0.00     0.182 HD
BRANCH  16  18
ATOM     18  C   UNL A   1      33.845  28.880  26.802  1.00  0.00     0.183 C 
ATOM     19  N   UNL A   1      33.533  29.889  27.280  1.00  0.00    -0.172 NA
ENDBRANCH  16  18
ENDBRANCH  13  14
ENDBRANCH   8  13
ENDBRANCH   6   8
ENDBRANCH   5   6
ENDBRANCH   4   5
ENDBRANCH   3   4
ENDBRANCH   2   3
ENDBRANCH   1   2
BRANCH   1  20
ATOM     20  C   UNL A   1      34.388  21.099  25.970  1.00  0.00     0.188 C 
BRANCH  20  21
ATOM     21  O   UNL A   1      35.104  20.410  24.981  1.00  0.00    -0.376 OA
BRANCH  21  22
ATOM     22  C   UNL A   1      36.512  20.427  25.049  1.00  0.00     0.202 C 
BRANCH  22  23
ATOM     23  C   UNL A   1      37.329  21.630  24.533  1.00  0.00     0.261 C 
BRANCH  23  24
ATOM     24  O   UNL A   1      38.172  22.339  25.463  1.00  0.00    -0.460 OA
BRANCH  24  25
ATOM     25  C   UNL A   1      37.605  23.337  26.183  1.00  0.00     0.338 C 
ATOM     26  O   UNL A   1      36.435  23.426  26.510  1.00  0.00    -0.246 OA
BRANCH  25  27
ATOM     27  C   UNL A   1      38.669  24.229  26.708  1.00  0.00     0.060 A 
ATOM     28  C   UNL A   1      38.664  24.580  28.066  1.00  0.00     0.016 A 
ATOM     29  C   UNL A   1      39.617  24.786  25.857  1.00  0.00     0.016 A 
ATOM     30  C   UNL A   1      39.565  25.517  28.573  1.00  0.00     0.010 A 
ATOM     31  C   UNL A   1      40.520  25.732  26.363  1.00  0.00     0.010 A 
ATOM     32  C   UNL A   1      40.478  26.130  27.714  1.00  0.00    -0.014 A 
BRANCH  32  33
ATOM     33  C   UNL A   1      41.282  27.288  28.182  1.00  0.00     0.031 A 
ATOM     34  C   UNL A   1      40.566  28.486  28.750  1.00  0.00     0.074 A 
ATOM     35  C   UNL A   1      42.628  27.275  28.132  1.00  0.00     0.049 A 
ATOM     36  N   UNL A   1      41.038  29.664  29.064  1.00  0.00    -0.248 NA
ATOM     37  C   UNL A   1      39.121  28.333  28.989  1.00  0.00     0.031 C 
ATOM     38  C   UNL A   1      43.449  26.147  27.695  1.00  0.00     0.029 A 
ATOM     39  N   UNL A   1      43.541  28.254  28.441  1.00  0.00    -0.354 N 
ATOM     40  C   UNL A   1      39.945  30.401  29.507  1.00  0.00     0.074 A 
ATOM     41  C   UNL A   1      38.783  29.547  29.396  1.00  0.00     0.031 C 
ATOM     42  C   UNL A   1      44.744  26.501  27.750  1.00  0.00     0.029 A 
ATOM     43  C   UNL A   1      44.841  27.899  28.160  1.00  0.00     0.049 A 
ATOM     44  H   UNL A   1      43.291  29.124  28.825  1.00  0.00     0.167 HD
ATOM     45  C   UNL A   1      39.915  31.675  29.969  1.00  0.00     0.031 A 
ATOM     46  C   UNL A   1      45.974  28.631  28.182  1.00  0.00     0.031 A 
ATOM     47  C   UNL A   1      41.078  32.518  30.071  1.00  0.00     0.049 A 
ATOM     48  C   UNL A   1      45.905  30.078  28.595  1.00  0.00     0.074 A 
ATOM     49  C   UNL A   1      41.154  33.828  30.511  1.00  0.00     0.029 A 
ATOM     50  N   UNL A   1      42.368  32.134  29.735  1.00  0.00    -0.354 N 
ATOM     51  N   UNL A   1      44.862  30.778  28.972  1.00  0.00    -0.248 NA
ATOM     52  C   UNL A   1      47.165  30.832  28.588  1.00  0.00     0.031 C 
ATOM     53  C   UNL A   1      42.478  34.257  30.374  1.00  0.00     0.029 A 
ATOM     54  C   UNL A   1      43.243  33.189  29.931  1.00  0.00     0.049 A 
ATOM     55  H   UNL A   1      42.624  31.243  29.405  1.00  0.00     0.167 HD
ATOM     56  C   UNL A   1      45.346  32.046  29.278  1.00  0.00     0.074 A 
ATOM     57  C   UNL A   1      46.777  32.010  29.056  1.00  0.00     0.031 C 
ATOM     58  C   UNL A   1      44.667  33.141  29.706  1.00  0.00     0.031 A 
BRANCH  45  59
ATOM     59  C   UNL A   1      38.575  32.247  30.358  1.00  0.00    -0.014 A 
ATOM     60  C   UNL A   1      37.789  32.965  29.439  1.00  0.00     0.010 A 
ATOM     61  C   UNL A   1      38.075  32.026  31.655  1.00  0.00     0.010 A 
ATOM     62  C   UNL A   1      36.547  33.481  29.819  1.00  0.00     0.020 A 
ATOM     63  C   UNL A   1      36.817  32.509  32.028  1.00  0.00     0.020 A 
ATOM     64  C   UNL A   1      36.067  33.245  31.110  1.00  0.00     0.054 A 
BRANCH  64  65
ATOM     65  S   UNL A   1      34.435  33.896  31.560  1.00  0.00     0.124 S 
ATOM     66  O   UNL A   1      34.775  35.197  32.131  1.00  0.00    -0.237 OA
ATOM     67  O   UNL A   1      33.744  33.936  30.274  1.00  0.00    -0.237 OA
ATOM     68  O   UNL A   1      33.919  32.916  32.513  1.00  0.00    -0.744 OA
ENDBRANCH  64  65
ENDBRANCH  45  59
BRANCH  46  69
ATOM     69  C   UNL A   1      47.263  28.015  27.753  1.00  0.00    -0.014 A 
ATOM     70  C   UNL A   1      47.635  27.982  26.397  1.00  0.00     0.010 A 
ATOM     71  C   UNL A   1      48.136  27.464  28.710  1.00  0.00     0.010 A 
ATOM     72  C   UNL A   1      48.849  27.406  26.009  1.00  0.00     0.020 A 
ATOM     73  C   UNL A   1      49.366  26.921  28.331  1.00  0.00     0.020 A 
ATOM     74  C   UNL A   1      49.712  26.888  26.980  1.00  0.00     0.054 A 
BRANCH  74  75
ATOM     75  S   UNL A   1      51.311  26.210  26.455  1.00  0.00     0.124 S 
ATOM     76  O   UNL A   1      51.184  24.805  26.831  1.00  0.00    -0.237 OA
ATOM     77  O   UNL A   1      51.312  26.484  25.020  1.00  0.00    -0.237 OA
ATOM     78  O   UNL A   1      52.282  26.978  27.230  1.00  0.00    -0.744 OA
ENDBRANCH  74  75
ENDBRANCH  46  69
BRANCH  58  79
ATOM     79  C   UNL A   1      45.466  34.383  30.015  1.00  0.00    -0.014 A 
ATOM     80  C   UNL A   1      45.888  35.259  29.001  1.00  0.00     0.010 A 
ATOM     81  C   UNL A   1      45.745  34.705  31.357  1.00  0.00     0.010 A 
ATOM     82  C   UNL A   1      46.604  36.417  29.321  1.00  0.00     0.020 A 
ATOM     83  C   UNL A   1      46.427  35.880  31.683  1.00  0.00     0.020 A 
ATOM     84  C   UNL A   1      46.865  36.722  30.661  1.00  0.00     0.054 A 
BRANCH  84  85
ATOM     85  S   UNL A   1      47.755  38.254  31.048  1.00  0.00     0.124 S 
ATOM     86  O   UNL A   1      47.978  38.122  32.486  1.00  0.00    -0.237 OA
ATOM     87  O   UNL A   1      48.950  38.148  30.214  1.00  0.00    -0.237 OA
ATOM     88  O   UNL A   1      46.820  39.307  30.657  1.00  0.00    -0.744 OA
ENDBRANCH  84  85
ENDBRANCH  58  79
ENDBRANCH  32  33
ENDBRANCH  25  27
ENDBRANCH  24  25
ENDBRANCH  23  24
ENDBRANCH  22  23
ENDBRANCH  21  22
ENDBRANCH  20  21
ENDBRANCH   1  20
TORSDOF 24
ENDMDL
