MODEL 1
REMARK VINA RESULT:      -9.1      0.000      0.000
REMARK SMILES C[C@@H](C(=O)OCCOCCOCCOC(=O)c1ccc(-c2c3nc(c(-c4ccc(S(=O)(=O)[O-])cc4)c4ccc([nH]4)c(-c4ccc(S(=O)(=O)[O-])cc4)c4nc(c(-c5ccc(S(=O)(=O)[O-])cc5)c5ccc2[nH]5)C=C4)C=C3)cc1)c1ccn(C(F)F)c(=O)c1
REMARK SMILES IDX 10 1 9 2 8 3 7 4 6 5 5 6 3 7 4 8 2 9 1 10 77 11 78 12 86 13
REMARK SMILES IDX 79 14 84 15 80 16 85 17 81 18 82 19 83 20 11 21 12 22 13 23
REMARK SMILES IDX 14 24 15 25 16 26 17 27 18 28 76 29 19 30 75 31 20 32 21 33
REMARK SMILES IDX 22 34 69 35 23 36 74 37 68 38 70 39 24 40 73 41 67 42 66 43
REMARK SMILES IDX 25 45 55 46 36 47 54 48 37 49 40 50 53 51 71 52 38 53 39 54
REMARK SMILES IDX 52 56 72 57 41 58 26 59 27 60 35 61 28 62 34 63 29 64 30 65
REMARK SMILES IDX 31 66 32 67 33 68 56 69 57 70 65 71 58 72 64 73 59 74 60 75
REMARK SMILES IDX 61 76 62 77 63 78 42 79 43 80 51 81 44 82 50 83 45 84 46 85
REMARK SMILES IDX 47 86 48 87 49 88
REMARK H PARENT 70 44 40 55
REMARK Flexibility Score: inf
ROOT
ATOM      1  C   UNL A   1      34.059  23.207  26.529  1.00  0.00     0.188 C 
ENDROOT
BRANCH   1   2
ATOM      2  C   UNL A   1      33.574  24.091  25.365  1.00  0.00     0.188 C 
BRANCH   2   3
ATOM      3  O   UNL A   1      32.257  24.629  25.417  1.00  0.00    -0.376 OA
BRANCH   3   4
ATOM      4  C   UNL A   1      31.239  24.033  24.618  1.00  0.00     0.202 C 
BRANCH   4   5
ATOM      5  C   UNL A   1      30.793  24.738  23.323  1.00  0.00     0.261 C 
BRANCH   5   6
ATOM      6  O   UNL A   1      30.204  26.042  23.515  1.00  0.00    -0.463 OA
BRANCH   6   7
ATOM      7  C   UNL A   1      30.643  27.036  22.700  1.00  0.00     0.313 C 
ATOM      8  O   UNL A   1      31.218  26.834  21.635  1.00  0.00    -0.252 OA
BRANCH   7   9
ATOM      9  C   UNL A   1      30.321  28.464  23.206  1.00  0.00     0.126 C 
ATOM     10  C   UNL A   1      29.862  29.424  22.092  1.00  0.00     0.025 C 
BRANCH   9  11
ATOM     11  C   UNL A   1      31.344  29.034  24.206  1.00  0.00    -0.027 A 
ATOM     12  C   UNL A   1      32.607  28.333  24.401  1.00  0.00     0.023 A 
ATOM     13  C   UNL A   1      31.107  30.097  25.003  1.00  0.00     0.076 A 
ATOM     14  C   UNL A   1      33.457  28.679  25.377  1.00  0.00     0.095 A 
ATOM     15  C   UNL A   1      32.045  30.500  26.096  1.00  0.00     0.255 A 
ATOM     16  N   UNL A   1      33.184  29.730  26.228  1.00  0.00    -0.258 N 
ATOM     17  O   UNL A   1      31.727  31.456  26.797  1.00  0.00    -0.269 OA
BRANCH  16  18
ATOM     18  C   UNL A   1      34.031  29.982  27.373  1.00  0.00     0.451 C 
ATOM     19  F   UNL A   1      34.808  28.913  27.658  1.00  0.00    -0.185 F 
ATOM     20  F   UNL A   1      34.851  31.032  27.111  1.00  0.00    -0.185 F 
ENDBRANCH  16  18
ENDBRANCH   9  11
ENDBRANCH   7   9
ENDBRANCH   6   7
ENDBRANCH   5   6
ENDBRANCH   4   5
ENDBRANCH   3   4
ENDBRANCH   2   3
ENDBRANCH   1   2
BRANCH   1  21
ATOM     21  O   UNL A   1      35.437  22.914  26.508  1.00  0.00    -0.376 OA
BRANCH  21  22
ATOM     22  C   UNL A   1      35.916  21.962  25.574  1.00  0.00     0.202 C 
BRANCH  22  23
ATOM     23  C   UNL A   1      37.427  21.768  25.339  1.00  0.00     0.261 C 
BRANCH  23  24
ATOM     24  O   UNL A   1      38.274  22.917  25.490  1.00  0.00    -0.460 OA
BRANCH  24  25
ATOM     25  C   UNL A   1      39.295  22.824  26.374  1.00  0.00     0.338 C 
ATOM     26  O   UNL A   1      40.050  21.873  26.515  1.00  0.00    -0.246 OA
BRANCH  25  27
ATOM     27  C   UNL A   1      39.499  24.167  26.963  1.00  0.00     0.060 A 
ATOM     28  C   UNL A   1      40.185  25.143  26.222  1.00  0.00     0.016 A 
ATOM     29  C   UNL A   1      38.993  24.473  28.227  1.00  0.00     0.016 A 
ATOM     30  C   UNL A   1      40.377  26.422  26.750  1.00  0.00     0.010 A 
ATOM     31  C   UNL A   1      39.210  25.745  28.766  1.00  0.00     0.010 A 
ATOM     32  C   UNL A   1      39.924  26.719  28.040  1.00  0.00    -0.014 A 
BRANCH  32  33
ATOM     33  C   UNL A   1      40.362  27.967  28.713  1.00  0.00     0.031 A 
ATOM     34  C   UNL A   1      41.760  28.021  29.269  1.00  0.00     0.074 A 
ATOM     35  C   UNL A   1      39.546  29.030  28.833  1.00  0.00     0.049 A 
ATOM     36  N   UNL A   1      42.340  28.959  29.973  1.00  0.00    -0.248 NA
ATOM     37  C   UNL A   1      42.615  26.852  29.002  1.00  0.00     0.031 C 
ATOM     38  C   UNL A   1      38.191  29.127  28.294  1.00  0.00     0.029 A 
ATOM     39  N   UNL A   1      39.746  30.235  29.460  1.00  0.00    -0.354 N 
ATOM     40  C   UNL A   1      43.618  28.486  30.247  1.00  0.00     0.074 A 
ATOM     41  C   UNL A   1      43.721  27.170  29.658  1.00  0.00     0.031 C 
ATOM     42  C   UNL A   1      37.678  30.328  28.620  1.00  0.00     0.029 A 
ATOM     43  C   UNL A   1      38.653  31.067  29.423  1.00  0.00     0.049 A 
ATOM     44  H   UNL A   1      40.593  30.481  29.897  1.00  0.00     0.167 HD
ATOM     45  C   UNL A   1      44.619  29.094  30.927  1.00  0.00     0.031 A 
ATOM     46  C   UNL A   1      38.454  32.273  29.994  1.00  0.00     0.031 A 
ATOM     47  C   UNL A   1      44.514  30.402  31.517  1.00  0.00     0.049 A 
ATOM     48  C   UNL A   1      39.556  32.897  30.818  1.00  0.00     0.074 A 
ATOM     49  C   UNL A   1      45.477  31.110  32.215  1.00  0.00     0.029 A 
ATOM     50  N   UNL A   1      43.377  31.196  31.487  1.00  0.00    -0.354 N 
ATOM     51  N   UNL A   1      40.764  32.446  31.060  1.00  0.00    -0.248 NA
ATOM     52  C   UNL A   1      39.264  34.194  31.445  1.00  0.00     0.031 C 
ATOM     53  C   UNL A   1      44.900  32.300  32.668  1.00  0.00     0.029 A 
ATOM     54  C   UNL A   1      43.603  32.371  32.186  1.00  0.00     0.049 A 
ATOM     55  H   UNL A   1      42.535  30.960  31.037  1.00  0.00     0.167 HD
ATOM     56  C   UNL A   1      41.385  33.420  31.836  1.00  0.00     0.074 A 
ATOM     57  C   UNL A   1      40.425  34.489  32.014  1.00  0.00     0.031 C 
ATOM     58  C   UNL A   1      42.640  33.431  32.354  1.00  0.00     0.031 A 
BRANCH  45  59
ATOM     59  C   UNL A   1      45.903  28.327  31.114  1.00  0.00    -0.014 A 
ATOM     60  C   UNL A   1      46.993  28.489  30.240  1.00  0.00     0.010 A 
ATOM     61  C   UNL A   1      46.030  27.452  32.209  1.00  0.00     0.010 A 
ATOM     62  C   UNL A   1      48.171  27.762  30.437  1.00  0.00     0.020 A 
ATOM     63  C   UNL A   1      47.216  26.748  32.427  1.00  0.00     0.020 A 
ATOM     64  C   UNL A   1      48.274  26.896  31.530  1.00  0.00     0.054 A 
BRANCH  64  65
ATOM     65  S   UNL A   1      49.822  25.984  31.774  1.00  0.00     0.124 S 
ATOM     66  O   UNL A   1      50.809  27.061  31.786  1.00  0.00    -0.237 OA
ATOM     67  O   UNL A   1      49.603  25.319  33.056  1.00  0.00    -0.237 OA
ATOM     68  O   UNL A   1      49.888  25.094  30.618  1.00  0.00    -0.744 OA
ENDBRANCH  64  65
ENDBRANCH  45  59
BRANCH  46  69
ATOM     69  C   UNL A   1      37.148  32.972  29.828  1.00  0.00    -0.014 A 
ATOM     70  C   UNL A   1      36.853  33.670  28.644  1.00  0.00     0.010 A 
ATOM     71  C   UNL A   1      36.197  32.955  30.865  1.00  0.00     0.010 A 
ATOM     72  C   UNL A   1      35.638  34.348  28.505  1.00  0.00     0.020 A 
ATOM     73  C   UNL A   1      34.967  33.604  30.717  1.00  0.00     0.020 A 
ATOM     74  C   UNL A   1      34.700  34.305  29.540  1.00  0.00     0.054 A 
BRANCH  74  75
ATOM     75  S   UNL A   1      33.106  35.140  29.310  1.00  0.00     0.124 S 
ATOM     76  O   UNL A   1      32.506  35.023  30.634  1.00  0.00    -0.237 OA
ATOM     77  O   UNL A   1      33.517  36.485  28.914  1.00  0.00    -0.237 OA
ATOM     78  O   UNL A   1      32.461  34.360  28.256  1.00  0.00    -0.744 OA
ENDBRANCH  74  75
ENDBRANCH  46  69
BRANCH  58  79
ATOM     79  C   UNL A   1      43.073  34.653  33.125  1.00  0.00    -0.014 A 
ATOM     80  C   UNL A   1      42.962  34.718  34.525  1.00  0.00     0.010 A 
ATOM     81  C   UNL A   1      43.662  35.731  32.437  1.00  0.00     0.010 A 
ATOM     82  C   UNL A   1      43.401  35.851  35.218  1.00  0.00     0.020 A 
ATOM     83  C   UNL A   1      44.132  36.850  33.128  1.00  0.00     0.020 A 
ATOM     84  C   UNL A   1      43.985  36.909  34.515  1.00  0.00     0.054 A 
BRANCH  84  85
ATOM     85  S   UNL A   1      44.587  38.348  35.443  1.00  0.00     0.124 S 
ATOM     86  O   UNL A   1      46.018  38.072  35.537  1.00  0.00    -0.237 OA
ATOM     87  O   UNL A   1      44.219  39.465  34.576  1.00  0.00    -0.237 OA
ATOM     88  O   UNL A   1      43.855  38.278  36.705  1.00  0.00    -0.744 OA
ENDBRANCH  84  85
ENDBRANCH  58  79
ENDBRANCH  32  33
ENDBRANCH  25  27
ENDBRANCH  24  25
ENDBRANCH  23  24
ENDBRANCH  22  23
ENDBRANCH  21  22
ENDBRANCH   1  21
TORSDOF 22
ENDMDL
MODEL 2
REMARK VINA RESULT:      -8.7      2.383      3.003
REMARK SMILES C[C@@H](C(=O)OCCOCCOCCOC(=O)c1ccc(-c2c3nc(c(-c4ccc(S(=O)(=O)[O-])cc4)c4ccc([nH]4)c(-c4ccc(S(=O)(=O)[O-])cc4)c4nc(c(-c5ccc(S(=O)(=O)[O-])cc5)c5ccc2[nH]5)C=C4)C=C3)cc1)c1ccn(C(F)F)c(=O)c1
REMARK SMILES IDX 10 1 9 2 8 3 7 4 6 5 5 6 3 7 4 8 2 9 1 10 77 11 78 12 86 13
REMARK SMILES IDX 79 14 84 15 80 16 85 17 81 18 82 19 83 20 11 21 12 22 13 23
REMARK SMILES IDX 14 24 15 25 16 26 17 27 18 28 76 29 19 30 75 31 20 32 21 33
REMARK SMILES IDX 22 34 69 35 23 36 74 37 68 38 70 39 24 40 73 41 67 42 66 43
REMARK SMILES IDX 25 45 55 46 36 47 54 48 37 49 40 50 53 51 71 52 38 53 39 54
REMARK SMILES IDX 52 56 72 57 41 58 26 59 27 60 35 61 28 62 34 63 29 64 30 65
REMARK SMILES IDX 31 66 32 67 33 68 56 69 57 70 65 71 58 72 64 73 59 74 60 75
REMARK SMILES IDX 61 76 62 77 63 78 42 79 43 80 51 81 44 82 50 83 45 84 46 85
REMARK SMILES IDX 47 86 48 87 49 88
REMARK H PARENT 70 44 40 55
REMARK Flexibility Score: inf
ROOT
ATOM      1  C   UNL A   1      35.418  23.611  24.961  1.00  0.00     0.188 C 
ENDROOT
BRANCH   1   2
ATOM      2  C   UNL A   1      34.399  22.459  24.885  1.00  0.00     0.188 C 
BRANCH   2   3
ATOM      3  O   UNL A   1      33.061  22.753  24.497  1.00  0.00    -0.376 OA
BRANCH   3   4
ATOM      4  C   UNL A   1      32.530  24.043  24.786  1.00  0.00     0.202 C 
BRANCH   4   5
ATOM      5  C   UNL A   1      31.046  24.173  25.178  1.00  0.00     0.261 C 
BRANCH   5   6
ATOM      6  O   UNL A   1      30.428  25.424  24.805  1.00  0.00    -0.463 OA
BRANCH   6   7
ATOM      7  C   UNL A   1      30.668  26.488  25.614  1.00  0.00     0.313 C 
ATOM      8  O   UNL A   1      30.648  26.425  26.840  1.00  0.00    -0.252 OA
BRANCH   7   9
ATOM      9  C   UNL A   1      31.014  27.796  24.861  1.00  0.00     0.126 C 
ATOM     10  C   UNL A   1      31.191  27.605  23.342  1.00  0.00     0.025 C 
BRANCH   9  11
ATOM     11  C   UNL A   1      32.071  28.674  25.555  1.00  0.00    -0.027 A 
ATOM     12  C   UNL A   1      33.381  28.104  25.847  1.00  0.00     0.023 A 
ATOM     13  C   UNL A   1      31.833  29.921  26.012  1.00  0.00     0.076 A 
ATOM     14  C   UNL A   1      34.276  28.756  26.601  1.00  0.00     0.095 A 
ATOM     15  C   UNL A   1      32.821  30.666  26.853  1.00  0.00     0.255 A 
ATOM     16  N   UNL A   1      34.006  30.007  27.116  1.00  0.00    -0.258 N 
ATOM     17  O   UNL A   1      32.501  31.779  27.257  1.00  0.00    -0.269 OA
BRANCH  16  18
ATOM     18  C   UNL A   1      34.916  30.621  28.058  1.00  0.00     0.451 C 
ATOM     19  F   UNL A   1      35.583  29.691  28.778  1.00  0.00    -0.185 F 
ATOM     20  F   UNL A   1      35.834  31.364  27.388  1.00  0.00    -0.185 F 
ENDBRANCH  16  18
ENDBRANCH   9  11
ENDBRANCH   7   9
ENDBRANCH   6   7
ENDBRANCH   5   6
ENDBRANCH   4   5
ENDBRANCH   3   4
ENDBRANCH   2   3
ENDBRANCH   1   2
BRANCH   1  21
ATOM     21  O   UNL A   1      36.692  23.302  24.447  1.00  0.00    -0.376 OA
BRANCH  21  22
ATOM     22  C   UNL A   1      37.035  21.942  24.247  1.00  0.00     0.202 C 
BRANCH  22  23
ATOM     23  C   UNL A   1      38.085  21.247  25.134  1.00  0.00     0.261 C 
BRANCH  23  24
ATOM     24  O   UNL A   1      38.547  21.954  26.294  1.00  0.00    -0.460 OA
BRANCH  24  25
ATOM     25  C   UNL A   1      39.881  21.968  26.523  1.00  0.00     0.338 C 
ATOM     26  O   UNL A   1      40.685  21.108  26.192  1.00  0.00    -0.246 OA
BRANCH  25  27
ATOM     27  C   UNL A   1      40.235  23.318  27.018  1.00  0.00     0.060 A 
ATOM     28  C   UNL A   1      39.634  24.443  26.430  1.00  0.00     0.016 A 
ATOM     29  C   UNL A   1      41.133  23.475  28.075  1.00  0.00     0.016 A 
ATOM     30  C   UNL A   1      39.940  25.726  26.889  1.00  0.00     0.010 A 
ATOM     31  C   UNL A   1      41.460  24.762  28.515  1.00  0.00     0.010 A 
ATOM     32  C   UNL A   1      40.883  25.894  27.908  1.00  0.00    -0.014 A 
BRANCH  32  33
ATOM     33  C   UNL A   1      41.419  27.245  28.209  1.00  0.00     0.031 A 
ATOM     34  C   UNL A   1      42.897  27.478  28.038  1.00  0.00     0.074 A 
ATOM     35  C   UNL A   1      40.622  28.247  28.624  1.00  0.00     0.049 A 
ATOM     36  N   UNL A   1      43.611  28.537  28.320  1.00  0.00    -0.248 NA
ATOM     37  C   UNL A   1      43.674  26.357  27.483  1.00  0.00     0.031 C 
ATOM     38  C   UNL A   1      39.171  28.170  28.779  1.00  0.00     0.029 A 
ATOM     39  N   UNL A   1      40.933  29.531  28.999  1.00  0.00    -0.354 N 
ATOM     40  C   UNL A   1      44.921  28.204  27.994  1.00  0.00     0.074 A 
ATOM     41  C   UNL A   1      44.908  26.838  27.519  1.00  0.00     0.031 C 
ATOM     42  C   UNL A   1      38.718  29.356  29.223  1.00  0.00     0.029 A 
ATOM     43  C   UNL A   1      39.849  30.262  29.422  1.00  0.00     0.049 A 
ATOM     44  H   UNL A   1      41.847  29.894  28.969  1.00  0.00     0.167 HD
ATOM     45  C   UNL A   1      46.036  28.967  28.082  1.00  0.00     0.031 A 
ATOM     46  C   UNL A   1      39.784  31.509  29.934  1.00  0.00     0.031 A 
ATOM     47  C   UNL A   1      46.049  30.324  28.560  1.00  0.00     0.049 A 
ATOM     48  C   UNL A   1      41.052  32.312  30.099  1.00  0.00     0.074 A 
ATOM     49  C   UNL A   1      47.126  31.185  28.674  1.00  0.00     0.029 A 
ATOM     50  N   UNL A   1      44.935  31.015  29.012  1.00  0.00    -0.354 N 
ATOM     51  N   UNL A   1      42.282  31.992  29.776  1.00  0.00    -0.248 NA
ATOM     52  C   UNL A   1      40.918  33.649  30.699  1.00  0.00     0.031 C 
ATOM     53  C   UNL A   1      46.676  32.371  29.260  1.00  0.00     0.029 A 
ATOM     54  C   UNL A   1      45.305  32.279  29.440  1.00  0.00     0.049 A 
ATOM     55  H   UNL A   1      44.017  30.660  29.027  1.00  0.00     0.167 HD
ATOM     56  C   UNL A   1      43.061  33.099  30.101  1.00  0.00     0.074 A 
ATOM     57  C   UNL A   1      42.163  34.101  30.634  1.00  0.00     0.031 C 
ATOM     58  C   UNL A   1      44.401  33.272  29.967  1.00  0.00     0.031 A 
BRANCH  45  59
ATOM     59  C   UNL A   1      47.348  28.333  27.697  1.00  0.00    -0.014 A 
ATOM     60  C   UNL A   1      47.805  28.334  26.366  1.00  0.00     0.010 A 
ATOM     61  C   UNL A   1      48.154  27.755  28.696  1.00  0.00     0.010 A 
ATOM     62  C   UNL A   1      49.026  27.735  26.039  1.00  0.00     0.020 A 
ATOM     63  C   UNL A   1      49.388  27.185  28.377  1.00  0.00     0.020 A 
ATOM     64  C   UNL A   1      49.809  27.165  27.047  1.00  0.00     0.054 A 
BRANCH  64  65
ATOM     65  S   UNL A   1      51.399  26.417  26.595  1.00  0.00     0.124 S 
ATOM     66  O   UNL A   1      52.166  27.580  26.156  1.00  0.00    -0.237 OA
ATOM     67  O   UNL A   1      51.836  25.814  27.853  1.00  0.00    -0.237 OA
ATOM     68  O   UNL A   1      51.050  25.468  25.541  1.00  0.00    -0.744 OA
ENDBRANCH  64  65
ENDBRANCH  45  59
BRANCH  46  69
ATOM     69  C   UNL A   1      38.471  32.076  30.353  1.00  0.00    -0.014 A 
ATOM     70  C   UNL A   1      37.896  31.719  31.586  1.00  0.00     0.010 A 
ATOM     71  C   UNL A   1      37.779  32.965  29.511  1.00  0.00     0.010 A 
ATOM     72  C   UNL A   1      36.651  32.231  31.962  1.00  0.00     0.020 A 
ATOM     73  C   UNL A   1      36.549  33.505  29.896  1.00  0.00     0.020 A 
ATOM     74  C   UNL A   1      35.988  33.126  31.117  1.00  0.00     0.054 A 
BRANCH  74  75
ATOM     75  S   UNL A   1      34.403  33.825  31.656  1.00  0.00     0.124 S 
ATOM     76  O   UNL A   1      33.887  32.776  32.529  1.00  0.00    -0.237 OA
ATOM     77  O   UNL A   1      34.819  35.058  32.321  1.00  0.00    -0.237 OA
ATOM     78  O   UNL A   1      33.672  34.018  30.406  1.00  0.00    -0.744 OA
ENDBRANCH  74  75
ENDBRANCH  46  69
BRANCH  58  79
ATOM     79  C   UNL A   1      44.981  34.609  30.358  1.00  0.00    -0.014 A 
ATOM     80  C   UNL A   1      45.032  35.683  29.453  1.00  0.00     0.010 A 
ATOM     81  C   UNL A   1      45.423  34.810  31.680  1.00  0.00     0.010 A 
ATOM     82  C   UNL A   1      45.545  36.921  29.852  1.00  0.00     0.020 A 
ATOM     83  C   UNL A   1      45.905  36.054  32.092  1.00  0.00     0.020 A 
ATOM     84  C   UNL A   1      45.977  37.100  31.170  1.00  0.00     0.054 A 
BRANCH  84  85
ATOM     85  S   UNL A   1      46.596  38.729  31.673  1.00  0.00     0.124 S 
ATOM     86  O   UNL A   1      45.547  39.618  31.182  1.00  0.00    -0.237 OA
ATOM     87  O   UNL A   1      46.684  38.603  33.126  1.00  0.00    -0.237 OA
ATOM     88  O   UNL A   1      47.880  38.841  30.984  1.00  0.00    -0.744 OA
ENDBRANCH  84  85
ENDBRANCH  58  79
ENDBRANCH  32  33
ENDBRANCH  25  27
ENDBRANCH  24  25
ENDBRANCH  23  24
ENDBRANCH  22  23
ENDBRANCH  21  22
ENDBRANCH   1  21
TORSDOF 22
ENDMDL
MODEL 3
REMARK VINA RESULT:      -8.4      3.441      5.135
REMARK SMILES C[C@@H](C(=O)OCCOCCOCCOC(=O)c1ccc(-c2c3nc(c(-c4ccc(S(=O)(=O)[O-])cc4)c4ccc([nH]4)c(-c4ccc(S(=O)(=O)[O-])cc4)c4nc(c(-c5ccc(S(=O)(=O)[O-])cc5)c5ccc2[nH]5)C=C4)C=C3)cc1)c1ccn(C(F)F)c(=O)c1
REMARK SMILES IDX 10 1 9 2 8 3 7 4 6 5 5 6 3 7 4 8 2 9 1 10 77 11 78 12 86 13
REMARK SMILES IDX 79 14 84 15 80 16 85 17 81 18 82 19 83 20 11 21 12 22 13 23
REMARK SMILES IDX 14 24 15 25 16 26 17 27 18 28 76 29 19 30 75 31 20 32 21 33
REMARK SMILES IDX 22 34 69 35 23 36 74 37 68 38 70 39 24 40 73 41 67 42 66 43
REMARK SMILES IDX 25 45 55 46 36 47 54 48 37 49 40 50 53 51 71 52 38 53 39 54
REMARK SMILES IDX 52 56 72 57 41 58 26 59 27 60 35 61 28 62 34 63 29 64 30 65
REMARK SMILES IDX 31 66 32 67 33 68 56 69 57 70 65 71 58 72 64 73 59 74 60 75
REMARK SMILES IDX 61 76 62 77 63 78 42 79 43 80 51 81 44 82 50 83 45 84 46 85
REMARK SMILES IDX 47 86 48 87 49 88
REMARK H PARENT 70 44 40 55
REMARK Flexibility Score: inf
ROOT
ATOM      1  C   UNL A   1      41.737  20.358  26.024  1.00  0.00     0.188 C 
ENDROOT
BRANCH   1   2
ATOM      2  C   UNL A   1      40.239  20.498  26.348  1.00  0.00     0.188 C 
BRANCH   2   3
ATOM      3  O   UNL A   1      39.352  19.458  25.951  1.00  0.00    -0.376 OA
BRANCH   3   4
ATOM      4  C   UNL A   1      38.394  19.725  24.931  1.00  0.00     0.202 C 
BRANCH   4   5
ATOM      5  C   UNL A   1      37.771  21.131  24.835  1.00  0.00     0.261 C 
BRANCH   5   6
ATOM      6  O   UNL A   1      36.650  21.358  25.717  1.00  0.00    -0.463 OA
BRANCH   6   7
ATOM      7  C   UNL A   1      36.184  22.631  25.796  1.00  0.00     0.313 C 
ATOM      8  O   UNL A   1      36.679  23.489  26.522  1.00  0.00    -0.252 OA
BRANCH   7   9
ATOM      9  C   UNL A   1      34.991  22.933  24.857  1.00  0.00     0.126 C 
ATOM     10  C   UNL A   1      35.372  22.957  23.364  1.00  0.00     0.025 C 
BRANCH   9  11
ATOM     11  C   UNL A   1      34.073  24.074  25.335  1.00  0.00    -0.027 A 
ATOM     12  C   UNL A   1      32.871  23.742  26.091  1.00  0.00     0.023 A 
ATOM     13  C   UNL A   1      34.251  25.370  25.011  1.00  0.00     0.076 A 
ATOM     14  C   UNL A   1      31.949  24.669  26.381  1.00  0.00     0.095 A 
ATOM     15  C   UNL A   1      33.234  26.420  25.327  1.00  0.00     0.255 A 
ATOM     16  N   UNL A   1      32.106  25.984  25.996  1.00  0.00    -0.258 N 
ATOM     17  O   UNL A   1      33.463  27.567  24.957  1.00  0.00    -0.269 OA
BRANCH  16  18
ATOM     18  C   UNL A   1      31.028  26.933  26.173  1.00  0.00     0.451 C 
ATOM     19  F   UNL A   1      29.843  26.305  26.346  1.00  0.00    -0.185 F 
ATOM     20  F   UNL A   1      31.262  27.687  27.277  1.00  0.00    -0.185 F 
ENDBRANCH  16  18
ENDBRANCH   9  11
ENDBRANCH   7   9
ENDBRANCH   6   7
ENDBRANCH   5   6
ENDBRANCH   4   5
ENDBRANCH   3   4
ENDBRANCH   2   3
ENDBRANCH   1   2
BRANCH   1  21
ATOM     21  O   UNL A   1      42.560  21.338  26.613  1.00  0.00    -0.376 OA
BRANCH  21  22
ATOM     22  C   UNL A   1      42.744  22.568  25.934  1.00  0.00     0.202 C 
BRANCH  22  23
ATOM     23  C   UNL A   1      42.559  23.914  26.661  1.00  0.00     0.261 C 
BRANCH  23  24
ATOM     24  O   UNL A   1      41.762  24.915  26.010  1.00  0.00    -0.460 OA
BRANCH  24  25
ATOM     25  C   UNL A   1      40.496  25.089  26.458  1.00  0.00     0.338 C 
ATOM     26  O   UNL A   1      39.510  24.453  26.115  1.00  0.00    -0.246 OA
BRANCH  25  27
ATOM     27  C   UNL A   1      40.555  26.007  27.619  1.00  0.00     0.060 A 
ATOM     28  C   UNL A   1      39.585  25.899  28.627  1.00  0.00     0.016 A 
ATOM     29  C   UNL A   1      41.579  26.950  27.728  1.00  0.00     0.016 A 
ATOM     30  C   UNL A   1      39.628  26.744  29.739  1.00  0.00     0.010 A 
ATOM     31  C   UNL A   1      41.605  27.813  28.828  1.00  0.00     0.010 A 
ATOM     32  C   UNL A   1      40.616  27.730  29.827  1.00  0.00    -0.014 A 
BRANCH  32  33
ATOM     33  C   UNL A   1      40.508  28.802  30.848  1.00  0.00     0.031 A 
ATOM     34  C   UNL A   1      41.431  28.747  32.037  1.00  0.00     0.074 A 
ATOM     35  C   UNL A   1      39.616  29.803  30.732  1.00  0.00     0.049 A 
ATOM     36  N   UNL A   1      41.467  29.510  33.098  1.00  0.00    -0.248 NA
ATOM     37  C   UNL A   1      42.441  27.675  32.029  1.00  0.00     0.031 C 
ATOM     38  C   UNL A   1      38.703  30.002  29.608  1.00  0.00     0.029 A 
ATOM     39  N   UNL A   1      39.331  30.840  31.586  1.00  0.00    -0.354 N 
ATOM     40  C   UNL A   1      42.490  29.002  33.891  1.00  0.00     0.074 A 
ATOM     41  C   UNL A   1      43.030  27.851  33.202  1.00  0.00     0.031 C 
ATOM     42  C   UNL A   1      37.954  31.095  29.845  1.00  0.00     0.029 A 
ATOM     43  C   UNL A   1      38.306  31.647  31.154  1.00  0.00     0.049 A 
ATOM     44  H   UNL A   1      39.814  30.991  32.429  1.00  0.00     0.167 HD
ATOM     45  C   UNL A   1      42.941  29.454  35.085  1.00  0.00     0.031 A 
ATOM     46  C   UNL A   1      37.706  32.694  31.757  1.00  0.00     0.031 A 
ATOM     47  C   UNL A   1      42.399  30.596  35.771  1.00  0.00     0.049 A 
ATOM     48  C   UNL A   1      38.170  33.129  33.127  1.00  0.00     0.074 A 
ATOM     49  C   UNL A   1      42.796  31.141  36.980  1.00  0.00     0.029 A 
ATOM     50  N   UNL A   1      41.338  31.364  35.316  1.00  0.00    -0.354 N 
ATOM     51  N   UNL A   1      39.146  32.650  33.860  1.00  0.00    -0.248 NA
ATOM     52  C   UNL A   1      37.450  34.252  33.747  1.00  0.00     0.031 C 
ATOM     53  C   UNL A   1      41.931  32.194  37.289  1.00  0.00     0.029 A 
ATOM     54  C   UNL A   1      41.043  32.356  36.237  1.00  0.00     0.049 A 
ATOM     55  H   UNL A   1      40.864  31.225  34.464  1.00  0.00     0.167 HD
ATOM     56  C   UNL A   1      39.178  33.433  35.010  1.00  0.00     0.074 A 
ATOM     57  C   UNL A   1      38.133  34.425  34.871  1.00  0.00     0.031 C 
ATOM     58  C   UNL A   1      40.002  33.341  36.086  1.00  0.00     0.031 A 
BRANCH  45  59
ATOM     59  C   UNL A   1      44.048  28.678  35.752  1.00  0.00    -0.014 A 
ATOM     60  C   UNL A   1      43.777  27.607  36.623  1.00  0.00     0.010 A 
ATOM     61  C   UNL A   1      45.387  29.008  35.471  1.00  0.00     0.010 A 
ATOM     62  C   UNL A   1      44.824  26.907  37.229  1.00  0.00     0.020 A 
ATOM     63  C   UNL A   1      46.436  28.290  36.050  1.00  0.00     0.020 A 
ATOM     64  C   UNL A   1      46.147  27.254  36.938  1.00  0.00     0.054 A 
BRANCH  64  65
ATOM     65  S   UNL A   1      47.485  26.313  37.721  1.00  0.00     0.124 S 
ATOM     66  O   UNL A   1      47.300  24.984  37.142  1.00  0.00    -0.237 OA
ATOM     67  O   UNL A   1      48.680  27.028  37.279  1.00  0.00    -0.237 OA
ATOM     68  O   UNL A   1      47.194  26.414  39.149  1.00  0.00    -0.744 OA
ENDBRANCH  64  65
ENDBRANCH  45  59
BRANCH  46  69
ATOM     69  C   UNL A   1      36.578  33.397  31.084  1.00  0.00    -0.014 A 
ATOM     70  C   UNL A   1      36.745  33.966  29.809  1.00  0.00     0.010 A 
ATOM     71  C   UNL A   1      35.330  33.516  31.724  1.00  0.00     0.010 A 
ATOM     72  C   UNL A   1      35.693  34.650  29.193  1.00  0.00     0.020 A 
ATOM     73  C   UNL A   1      34.265  34.171  31.099  1.00  0.00     0.020 A 
ATOM     74  C   UNL A   1      34.457  34.742  29.840  1.00  0.00     0.054 A 
BRANCH  74  75
ATOM     75  S   UNL A   1      33.088  35.581  28.993  1.00  0.00     0.124 S 
ATOM     76  O   UNL A   1      32.526  34.506  28.183  1.00  0.00    -0.237 OA
ATOM     77  O   UNL A   1      32.264  36.032  30.112  1.00  0.00    -0.237 OA
ATOM     78  O   UNL A   1      33.751  36.648  28.248  1.00  0.00    -0.744 OA
ENDBRANCH  74  75
ENDBRANCH  46  69
BRANCH  58  79
ATOM     79  C   UNL A   1      39.844  34.366  37.182  1.00  0.00    -0.014 A 
ATOM     80  C   UNL A   1      39.053  34.114  38.317  1.00  0.00     0.010 A 
ATOM     81  C   UNL A   1      40.555  35.579  37.102  1.00  0.00     0.010 A 
ATOM     82  C   UNL A   1      38.950  35.069  39.334  1.00  0.00     0.020 A 
ATOM     83  C   UNL A   1      40.481  36.521  38.131  1.00  0.00     0.020 A 
ATOM     84  C   UNL A   1      39.667  36.266  39.235  1.00  0.00     0.054 A 
BRANCH  84  85
ATOM     85  S   UNL A   1      39.550  37.468  40.589  1.00  0.00     0.124 S 
ATOM     86  O   UNL A   1      38.820  36.713  41.603  1.00  0.00    -0.237 OA
ATOM     87  O   UNL A   1      40.952  37.740  40.897  1.00  0.00    -0.237 OA
ATOM     88  O   UNL A   1      38.818  38.587  39.999  1.00  0.00    -0.744 OA
ENDBRANCH  84  85
ENDBRANCH  58  79
ENDBRANCH  32  33
ENDBRANCH  25  27
ENDBRANCH  24  25
ENDBRANCH  23  24
ENDBRANCH  22  23
ENDBRANCH  21  22
ENDBRANCH   1  21
TORSDOF 22
ENDMDL
