MODEL 1
REMARK VINA RESULT:     -11.7      0.000      0.000
REMARK SMILES Cc1cc([N+](=O)[O-])ccc1-c1ccc(/C=C/C(=O)Nc2ccc(O)c(C(=O)OCCOCCOCCOC(=O)c3ccc(-c4c5nc(c(-c6ccc(S(=O)(=O)[O-])cc6)c6ccc([nH]6)c(-c6ccc(S(=O)(=O)[O-])cc6)c6nc(c(-c7ccc(S(=O)(=O)[O-])cc7)c7ccc4[nH]7)C=C6)C=C5)cc3)c2)o1
REMARK SMILES IDX 32 1 31 2 30 3 29 4 28 5 26 6 27 7 25 8 20 9 21 10 100 11
REMARK SMILES IDX 22 12 23 13 19 14 17 15 18 16 16 18 15 19 14 20 11 21 12 22
REMARK SMILES IDX 101 23 13 24 10 25 1 26 2 27 3 28 4 29 9 30 8 31 5 32 6 33
REMARK SMILES IDX 7 34 24 35 33 37 34 38 35 39 36 40 37 41 38 42 39 43 40 44
REMARK SMILES IDX 41 45 99 46 42 47 98 48 43 49 44 50 45 51 92 52 46 53 97 54
REMARK SMILES IDX 91 55 93 56 47 57 96 58 90 59 89 60 48 62 78 63 59 64 77 65
REMARK SMILES IDX 60 66 63 67 76 68 94 69 61 70 62 71 75 73 95 74 64 75 49 76
REMARK SMILES IDX 50 77 58 78 51 79 57 80 52 81 53 82 54 83 55 84 56 85 79 86
REMARK SMILES IDX 80 87 88 88 81 89 87 90 82 91 83 92 84 93 85 94 86 95 65 96
REMARK SMILES IDX 66 97 74 98 67 99 73 100 68 101 69 102 70 103 71 104 72 105
REMARK H PARENT 19 17 24 36 93 61 63 72
REMARK Flexibility Score: inf
ROOT
ATOM      1  C   UNL A   1      34.237  31.078  27.522  1.00  0.00     0.188 C 
ENDROOT
BRANCH   1   2
ATOM      2  O   UNL A   1      34.321  29.670  27.754  1.00  0.00    -0.376 OA
BRANCH   2   3
ATOM      3  C   UNL A   1      33.412  28.756  27.134  1.00  0.00     0.202 C 
BRANCH   3   4
ATOM      4  C   UNL A   1      33.134  28.816  25.583  1.00  0.00     0.261 C 
BRANCH   4   5
ATOM      5  O   UNL A   1      32.135  29.667  24.822  1.00  0.00    -0.460 OA
BRANCH   5   6
ATOM      6  C   UNL A   1      31.120  29.019  24.188  1.00  0.00     0.342 C 
ATOM      7  O   UNL A   1      30.185  29.749  23.836  1.00  0.00    -0.246 OA
BRANCH   6   8
ATOM      8  C   UNL A   1      31.109  27.387  23.983  1.00  0.00     0.103 A 
ATOM      9  C   UNL A   1      30.483  25.061  25.011  1.00  0.00     0.042 A 
ATOM     10  C   UNL A   1      30.673  24.462  23.804  1.00  0.00     0.030 A 
ATOM     11  C   UNL A   1      30.734  26.452  25.017  1.00  0.00     0.045 A 
ATOM     12  C   UNL A   1      31.059  25.291  22.713  1.00  0.00     0.049 A 
ATOM     13  C   UNL A   1      31.274  26.715  22.796  1.00  0.00     0.130 A 
BRANCH   9  14
ATOM     14  N   UNL A   1      29.967  24.446  26.204  1.00  0.00    -0.322 N 
ATOM     15  C   UNL A   1      30.319  23.312  26.908  1.00  0.00     0.248 C 
ATOM     16  O   UNL A   1      29.600  22.803  27.765  1.00  0.00    -0.270 OA
ATOM     17  H   UNL A   1      29.210  24.935  26.601  1.00  0.00     0.170 HD
BRANCH  15  18
ATOM     18  C   UNL A   1      31.698  22.847  26.733  1.00  0.00     0.075 C 
ATOM     19  C   UNL A   1      32.570  23.853  26.593  1.00  0.00     0.053 C 
BRANCH  19  20
ATOM     20  C   UNL A   1      33.724  23.647  25.823  1.00  0.00     0.127 A 
ATOM     21  C   UNL A   1      35.693  22.939  25.193  1.00  0.00     0.135 A 
ATOM     22  C   UNL A   1      35.281  23.791  24.199  1.00  0.00     0.051 A 
ATOM     23  O   UNL A   1      34.740  22.800  26.147  1.00  0.00    -0.457 OA
ATOM     24  C   UNL A   1      34.023  24.257  24.611  1.00  0.00     0.051 A 
BRANCH  21  25
ATOM     25  C   UNL A   1      36.929  22.255  25.465  1.00  0.00     0.021 A 
ATOM     26  C   UNL A   1      37.898  24.347  26.584  1.00  0.00     0.045 C 
ATOM     27  C   UNL A   1      37.993  22.919  26.108  1.00  0.00    -0.033 A 
ATOM     28  C   UNL A   1      39.194  22.224  26.309  1.00  0.00     0.089 A 
ATOM     29  C   UNL A   1      39.308  20.885  25.908  1.00  0.00     0.269 A 
ATOM     30  C   UNL A   1      37.044  20.909  25.090  1.00  0.00     0.019 A 
ATOM     31  C   UNL A   1      38.232  20.219  25.309  1.00  0.00     0.086 A 
BRANCH  29  32
ATOM     32  N   UNL A   1      40.572  20.171  26.110  1.00  0.00     0.062 N 
ATOM     33  O   UNL A   1      41.297  20.525  27.050  1.00  0.00    -0.258 OA
ATOM     34  O   UNL A   1      40.851  19.258  25.317  1.00  0.00    -0.258 OA
ENDBRANCH  29  32
ENDBRANCH  21  25
ENDBRANCH  19  20
ENDBRANCH  15  18
ENDBRANCH   9  14
BRANCH  13  35
ATOM     35  O   UNL A   1      31.611  27.356  21.643  1.00  0.00    -0.507 OA
ATOM     36  H   UNL A   1      31.107  27.218  20.866  1.00  0.00     0.293 HD
ENDBRANCH  13  35
ENDBRANCH   6   8
ENDBRANCH   5   6
ENDBRANCH   4   5
ENDBRANCH   3   4
ENDBRANCH   2   3
ENDBRANCH   1   2
BRANCH   1  37
ATOM     37  C   UNL A   1      34.718  32.134  28.484  1.00  0.00     0.188 C 
BRANCH  37  38
ATOM     38  O   UNL A   1      35.902  31.903  29.268  1.00  0.00    -0.376 OA
BRANCH  38  39
ATOM     39  C   UNL A   1      37.145  31.138  29.048  1.00  0.00     0.202 C 
BRANCH  39  40
ATOM     40  C   UNL A   1      37.825  29.762  27.982  1.00  0.00     0.261 C 
BRANCH  40  41
ATOM     41  O   UNL A   1      38.846  28.294  28.075  1.00  0.00    -0.460 OA
BRANCH  41  42
ATOM     42  C   UNL A   1      39.375  26.851  28.284  1.00  0.00     0.338 C 
ATOM     43  O   UNL A   1      38.987  26.328  29.343  1.00  0.00    -0.246 OA
BRANCH  42  44
ATOM     44  C   UNL A   1      40.712  25.904  27.488  1.00  0.00     0.060 A 
ATOM     45  C   UNL A   1      41.713  25.182  28.198  1.00  0.00     0.016 A 
ATOM     46  C   UNL A   1      41.301  26.181  26.288  1.00  0.00     0.016 A 
ATOM     47  C   UNL A   1      43.227  25.463  28.043  1.00  0.00     0.010 A 
ATOM     48  C   UNL A   1      42.699  26.610  26.235  1.00  0.00     0.010 A 
ATOM     49  C   UNL A   1      43.750  26.441  27.168  1.00  0.00    -0.014 A 
BRANCH  49  50
ATOM     50  C   UNL A   1      45.304  27.230  27.097  1.00  0.00     0.031 A 
ATOM     51  C   UNL A   1      46.726  26.800  26.441  1.00  0.00     0.074 A 
ATOM     52  C   UNL A   1      45.425  28.585  27.282  1.00  0.00     0.049 A 
ATOM     53  N   UNL A   1      47.434  27.622  25.701  1.00  0.00    -0.248 NA
ATOM     54  C   UNL A   1      47.433  25.499  26.415  1.00  0.00     0.031 C 
ATOM     55  C   UNL A   1      46.573  29.531  27.384  1.00  0.00     0.029 A 
ATOM     56  N   UNL A   1      44.478  29.443  27.732  1.00  0.00    -0.354 N 
ATOM     57  C   UNL A   1      48.555  27.045  25.123  1.00  0.00     0.074 A 
ATOM     58  C   UNL A   1      48.407  25.652  25.492  1.00  0.00     0.031 C 
ATOM     59  C   UNL A   1      46.325  30.429  28.369  1.00  0.00     0.029 A 
ATOM     60  C   UNL A   1      44.994  30.139  28.837  1.00  0.00     0.049 A 
ATOM     61  H   UNL A   1      43.578  29.557  27.349  1.00  0.00     0.167 HD
ATOM     62  C   UNL A   1      49.777  27.672  25.196  1.00  0.00     0.031 A 
ATOM     63  C   UNL A   1      44.501  29.648  30.002  1.00  0.00     0.031 A 
ATOM     64  C   UNL A   1      49.913  28.387  26.457  1.00  0.00     0.049 A 
ATOM     65  C   UNL A   1      45.693  28.683  30.510  1.00  0.00     0.074 A 
ATOM     66  C   UNL A   1      50.090  29.683  26.896  1.00  0.00     0.029 A 
ATOM     67  N   UNL A   1      49.621  27.645  27.592  1.00  0.00    -0.354 N 
ATOM     68  N   UNL A   1      46.745  28.357  29.772  1.00  0.00    -0.248 NA
ATOM     69  C   UNL A   1      45.945  28.216  31.877  1.00  0.00     0.031 C 
ATOM     70  C   UNL A   1      49.761  29.704  28.300  1.00  0.00     0.029 A 
ATOM     71  C   UNL A   1      49.411  28.422  28.704  1.00  0.00     0.049 A 
ATOM     72  H   UNL A   1      49.570  26.662  27.599  1.00  0.00     0.167 HD
ATOM     73  C   UNL A   1      47.808  27.882  30.495  1.00  0.00     0.074 A 
ATOM     74  C   UNL A   1      47.195  27.690  31.802  1.00  0.00     0.031 C 
ATOM     75  C   UNL A   1      49.092  27.760  29.983  1.00  0.00     0.031 A 
BRANCH  62  76
ATOM     76  C   UNL A   1      50.814  27.611  24.072  1.00  0.00    -0.014 A 
ATOM     77  C   UNL A   1      50.437  27.261  22.754  1.00  0.00     0.010 A 
ATOM     78  C   UNL A   1      52.202  27.816  24.272  1.00  0.00     0.010 A 
ATOM     79  C   UNL A   1      51.374  27.126  21.701  1.00  0.00     0.020 A 
ATOM     80  C   UNL A   1      53.149  27.694  23.222  1.00  0.00     0.020 A 
ATOM     81  C   UNL A   1      52.730  27.342  21.939  1.00  0.00     0.054 A 
BRANCH  81  82
ATOM     82  S   UNL A   1      53.919  27.136  20.567  1.00  0.00     0.124 S 
ATOM     83  O   UNL A   1      54.045  28.497  20.049  1.00  0.00    -0.237 OA
ATOM     84  O   UNL A   1      55.104  26.612  21.242  1.00  0.00    -0.237 OA
ATOM     85  O   UNL A   1      53.256  26.193  19.667  1.00  0.00    -0.744 OA
ENDBRANCH  81  82
ENDBRANCH  62  76
BRANCH  63  86
ATOM     86  C   UNL A   1      42.942  29.534  29.620  1.00  0.00    -0.014 A 
ATOM     87  C   UNL A   1      42.161  28.432  30.108  1.00  0.00     0.010 A 
ATOM     88  C   UNL A   1      42.084  30.569  29.528  1.00  0.00     0.010 A 
ATOM     89  C   UNL A   1      40.954  28.575  31.044  1.00  0.00     0.020 A 
ATOM     90  C   UNL A   1      40.800  30.550  30.292  1.00  0.00     0.020 A 
ATOM     91  C   UNL A   1      40.304  29.772  31.378  1.00  0.00     0.054 A 
BRANCH  91  92
ATOM     92  S   UNL A   1      38.579  30.256  32.788  1.00  0.00     0.124 S 
ATOM     93  O   UNL A   1      38.450  31.698  33.019  1.00  0.00    -0.237 OA
ATOM     94  O   UNL A   1      37.293  29.859  32.281  1.00  0.00    -0.237 OA
ATOM     95  O   UNL A   1      38.895  29.574  34.047  1.00  0.00    -0.744 OA
ENDBRANCH  91  92
ENDBRANCH  63  86
BRANCH  75  96
ATOM     96  C   UNL A   1      50.273  27.014  30.614  1.00  0.00    -0.014 A 
ATOM     97  C   UNL A   1      51.487  27.605  30.961  1.00  0.00     0.010 A 
ATOM     98  C   UNL A   1      50.186  25.607  30.849  1.00  0.00     0.010 A 
ATOM     99  C   UNL A   1      52.504  26.869  31.597  1.00  0.00     0.020 A 
ATOM    100  C   UNL A   1      51.190  24.858  31.468  1.00  0.00     0.020 A 
ATOM    101  C   UNL A   1      52.341  25.507  31.866  1.00  0.00     0.054 A 
BRANCH 101 102
ATOM    102  S   UNL A   1      53.655  24.602  32.714  1.00  0.00     0.124 S 
ATOM    103  O   UNL A   1      53.223  23.216  32.562  1.00  0.00    -0.237 OA
ATOM    104  O   UNL A   1      54.832  24.985  31.938  1.00  0.00    -0.237 OA
ATOM    105  O   UNL A   1      53.615  25.120  34.079  1.00  0.00    -0.744 OA
ENDBRANCH 101 102
ENDBRANCH  75  96
ENDBRANCH  49  50
ENDBRANCH  42  44
ENDBRANCH  41  42
ENDBRANCH  40  41
ENDBRANCH  39  40
ENDBRANCH  38  39
ENDBRANCH  37  38
ENDBRANCH   1  37
TORSDOF 26
ENDMDL
MODEL 2
REMARK VINA RESULT:     -11.1      2.568      3.407
REMARK SMILES Cc1cc([N+](=O)[O-])ccc1-c1ccc(/C=C/C(=O)Nc2ccc(O)c(C(=O)OCCOCCOCCOC(=O)c3ccc(-c4c5nc(c(-c6ccc(S(=O)(=O)[O-])cc6)c6ccc([nH]6)c(-c6ccc(S(=O)(=O)[O-])cc6)c6nc(c(-c7ccc(S(=O)(=O)[O-])cc7)c7ccc4[nH]7)C=C6)C=C5)cc3)c2)o1
REMARK SMILES IDX 32 1 31 2 30 3 29 4 28 5 26 6 27 7 25 8 20 9 21 10 100 11
REMARK SMILES IDX 22 12 23 13 19 14 17 15 18 16 16 18 15 19 14 20 11 21 12 22
REMARK SMILES IDX 101 23 13 24 10 25 1 26 2 27 3 28 4 29 9 30 8 31 5 32 6 33
REMARK SMILES IDX 7 34 24 35 33 37 34 38 35 39 36 40 37 41 38 42 39 43 40 44
REMARK SMILES IDX 41 45 99 46 42 47 98 48 43 49 44 50 45 51 92 52 46 53 97 54
REMARK SMILES IDX 91 55 93 56 47 57 96 58 90 59 89 60 48 62 78 63 59 64 77 65
REMARK SMILES IDX 60 66 63 67 76 68 94 69 61 70 62 71 75 73 95 74 64 75 49 76
REMARK SMILES IDX 50 77 58 78 51 79 57 80 52 81 53 82 54 83 55 84 56 85 79 86
REMARK SMILES IDX 80 87 88 88 81 89 87 90 82 91 83 92 84 93 85 94 86 95 65 96
REMARK SMILES IDX 66 97 74 98 67 99 73 100 68 101 69 102 70 103 71 104 72 105
REMARK H PARENT 19 17 24 36 93 61 63 72
REMARK Flexibility Score: inf
ROOT
ATOM      1  C   UNL A   1      32.655  31.608  27.019  1.00  0.00     0.188 C 
ENDROOT
BRANCH   1   2
ATOM      2  O   UNL A   1      32.627  30.322  27.644  1.00  0.00    -0.376 OA
BRANCH   2   3
ATOM      3  C   UNL A   1      32.176  29.161  26.941  1.00  0.00     0.202 C 
BRANCH   3   4
ATOM      4  C   UNL A   1      32.563  28.925  25.431  1.00  0.00     0.261 C 
BRANCH   4   5
ATOM      5  O   UNL A   1      31.954  29.532  24.181  1.00  0.00    -0.460 OA
BRANCH   5   6
ATOM      6  C   UNL A   1      31.012  28.799  23.528  1.00  0.00     0.342 C 
ATOM      7  O   UNL A   1      30.097  29.466  23.029  1.00  0.00    -0.246 OA
BRANCH   6   8
ATOM      8  C   UNL A   1      31.055  27.156  23.477  1.00  0.00     0.103 A 
ATOM      9  C   UNL A   1      30.610  24.919  24.765  1.00  0.00     0.042 A 
ATOM     10  C   UNL A   1      30.731  24.214  23.608  1.00  0.00     0.030 A 
ATOM     11  C   UNL A   1      30.801  26.312  24.621  1.00  0.00     0.045 A 
ATOM     12  C   UNL A   1      30.996  24.947  22.416  1.00  0.00     0.049 A 
ATOM     13  C   UNL A   1      31.156  26.378  22.349  1.00  0.00     0.130 A 
BRANCH   9  14
ATOM     14  N   UNL A   1      30.214  24.405  26.048  1.00  0.00    -0.322 N 
ATOM     15  C   UNL A   1      30.561  23.272  26.758  1.00  0.00     0.248 C 
ATOM     16  O   UNL A   1      29.928  22.868  27.731  1.00  0.00    -0.270 OA
ATOM     17  H   UNL A   1      29.565  24.977  26.517  1.00  0.00     0.170 HD
BRANCH  15  18
ATOM     18  C   UNL A   1      31.857  22.674  26.423  1.00  0.00     0.075 C 
ATOM     19  C   UNL A   1      32.892  23.417  26.833  1.00  0.00     0.053 C 
BRANCH  19  20
ATOM     20  C   UNL A   1      34.089  23.373  26.103  1.00  0.00     0.127 A 
ATOM     21  C   UNL A   1      36.208  23.156  25.614  1.00  0.00     0.135 A 
ATOM     22  C   UNL A   1      35.604  23.540  24.442  1.00  0.00     0.051 A 
ATOM     23  O   UNL A   1      35.298  22.997  26.606  1.00  0.00    -0.457 OA
ATOM     24  C   UNL A   1      34.246  23.694  24.761  1.00  0.00     0.051 A 
BRANCH  21  25
ATOM     25  C   UNL A   1      37.579  22.981  26.014  1.00  0.00     0.021 A 
ATOM     26  C   UNL A   1      37.650  20.658  24.934  1.00  0.00     0.045 C 
ATOM     27  C   UNL A   1      38.270  21.791  25.715  1.00  0.00    -0.033 A 
ATOM     28  C   UNL A   1      39.590  21.650  26.167  1.00  0.00     0.089 A 
ATOM     29  C   UNL A   1      40.209  22.694  26.870  1.00  0.00     0.269 A 
ATOM     30  C   UNL A   1      38.213  24.030  26.695  1.00  0.00     0.019 A 
ATOM     31  C   UNL A   1      39.529  23.891  27.125  1.00  0.00     0.086 A 
BRANCH  29  32
ATOM     32  N   UNL A   1      41.583  22.531  27.350  1.00  0.00     0.062 N 
ATOM     33  O   UNL A   1      42.002  23.330  28.199  1.00  0.00    -0.258 OA
ATOM     34  O   UNL A   1      42.257  21.607  26.868  1.00  0.00    -0.258 OA
ENDBRANCH  29  32
ENDBRANCH  21  25
ENDBRANCH  19  20
ENDBRANCH  15  18
ENDBRANCH   9  14
BRANCH  13  35
ATOM     35  O   UNL A   1      31.375  26.917  21.117  1.00  0.00    -0.507 OA
ATOM     36  H   UNL A   1      31.496  26.356  20.377  1.00  0.00     0.293 HD
ENDBRANCH  13  35
ENDBRANCH   6   8
ENDBRANCH   5   6
ENDBRANCH   4   5
ENDBRANCH   3   4
ENDBRANCH   2   3
ENDBRANCH   1   2
BRANCH   1  37
ATOM     37  C   UNL A   1      33.110  32.876  27.692  1.00  0.00     0.188 C 
BRANCH  37  38
ATOM     38  O   UNL A   1      34.194  32.837  28.637  1.00  0.00    -0.376 OA
BRANCH  38  39
ATOM     39  C   UNL A   1      35.421  32.025  28.758  1.00  0.00     0.202 C 
BRANCH  39  40
ATOM     40  C   UNL A   1      36.083  30.333  28.321  1.00  0.00     0.261 C 
BRANCH  40  41
ATOM     41  O   UNL A   1      37.623  29.456  28.063  1.00  0.00    -0.460 OA
BRANCH  41  42
ATOM     42  C   UNL A   1      38.820  28.475  28.163  1.00  0.00     0.338 C 
ATOM     43  O   UNL A   1      38.972  27.991  29.298  1.00  0.00    -0.246 OA
BRANCH  42  44
ATOM     44  C   UNL A   1      40.243  28.157  27.073  1.00  0.00     0.060 A 
ATOM     45  C   UNL A   1      40.921  26.908  26.986  1.00  0.00     0.016 A 
ATOM     46  C   UNL A   1      41.184  29.065  26.680  1.00  0.00     0.016 A 
ATOM     47  C   UNL A   1      42.431  26.743  27.281  1.00  0.00     0.010 A 
ATOM     48  C   UNL A   1      42.567  28.940  27.143  1.00  0.00     0.010 A 
ATOM     49  C   UNL A   1      43.275  27.819  27.639  1.00  0.00    -0.014 A 
BRANCH  49  50
ATOM     50  C   UNL A   1      44.842  27.866  28.402  1.00  0.00     0.031 A 
ATOM     51  C   UNL A   1      46.162  26.930  28.260  1.00  0.00     0.074 A 
ATOM     52  C   UNL A   1      45.316  29.014  28.988  1.00  0.00     0.049 A 
ATOM     53  N   UNL A   1      47.366  27.434  28.115  1.00  0.00    -0.248 NA
ATOM     54  C   UNL A   1      46.307  25.460  28.153  1.00  0.00     0.031 C 
ATOM     55  C   UNL A   1      46.526  29.361  29.787  1.00  0.00     0.029 A 
ATOM     56  N   UNL A   1      44.625  30.149  29.252  1.00  0.00    -0.354 N 
ATOM     57  C   UNL A   1      48.354  26.488  27.885  1.00  0.00     0.074 A 
ATOM     58  C   UNL A   1      47.586  25.266  27.764  1.00  0.00     0.031 C 
ATOM     59  C   UNL A   1      46.167  30.182  30.805  1.00  0.00     0.029 A 
ATOM     60  C   UNL A   1      44.764  30.450  30.616  1.00  0.00     0.049 A 
ATOM     61  H   UNL A   1      44.111  30.674  28.596  1.00  0.00     0.167 HD
ATOM     62  C   UNL A   1      49.529  26.519  28.599  1.00  0.00     0.031 A 
ATOM     63  C   UNL A   1      43.649  30.111  31.311  1.00  0.00     0.031 A 
ATOM     64  C   UNL A   1      49.291  26.985  29.957  1.00  0.00     0.049 A 
ATOM     65  C   UNL A   1      44.052  28.686  31.953  1.00  0.00     0.074 A 
ATOM     66  C   UNL A   1      49.671  28.032  30.772  1.00  0.00     0.029 A 
ATOM     67  N   UNL A   1      48.268  26.338  30.634  1.00  0.00    -0.354 N 
ATOM     68  N   UNL A   1      45.144  28.010  31.625  1.00  0.00    -0.248 NA
ATOM     69  C   UNL A   1      43.456  28.030  33.122  1.00  0.00     0.031 C 
ATOM     70  C   UNL A   1      48.751  28.061  31.882  1.00  0.00     0.029 A 
ATOM     71  C   UNL A   1      47.839  27.022  31.745  1.00  0.00     0.049 A 
ATOM     72  H   UNL A   1      47.888  25.477  30.347  1.00  0.00     0.167 HD
ATOM     73  C   UNL A   1      45.509  27.059  32.542  1.00  0.00     0.074 A 
ATOM     74  C   UNL A   1      44.331  27.028  33.397  1.00  0.00     0.031 C 
ATOM     75  C   UNL A   1      46.753  26.445  32.559  1.00  0.00     0.031 A 
BRANCH  62  76
ATOM     76  C   UNL A   1      50.881  26.123  28.000  1.00  0.00    -0.014 A 
ATOM     77  C   UNL A   1      52.091  26.498  28.630  1.00  0.00     0.010 A 
ATOM     78  C   UNL A   1      51.024  25.442  26.766  1.00  0.00     0.010 A 
ATOM     79  C   UNL A   1      53.362  26.214  28.074  1.00  0.00     0.020 A 
ATOM     80  C   UNL A   1      52.293  25.142  26.205  1.00  0.00     0.020 A 
ATOM     81  C   UNL A   1      53.459  25.536  26.860  1.00  0.00     0.054 A 
BRANCH  81  82
ATOM     82  S   UNL A   1      55.112  25.205  26.156  1.00  0.00     0.124 S 
ATOM     83  O   UNL A   1      54.792  24.569  24.879  1.00  0.00    -0.237 OA
ATOM     84  O   UNL A   1      55.696  26.540  26.058  1.00  0.00    -0.237 OA
ATOM     85  O   UNL A   1      55.744  24.328  27.140  1.00  0.00    -0.744 OA
ENDBRANCH  81  82
ENDBRANCH  62  76
BRANCH  63  86
ATOM     86  C   UNL A   1      42.519  30.715  30.336  1.00  0.00    -0.014 A 
ATOM     87  C   UNL A   1      41.192  30.166  30.348  1.00  0.00     0.010 A 
ATOM     88  C   UNL A   1      42.366  32.019  30.033  1.00  0.00     0.010 A 
ATOM     89  C   UNL A   1      39.936  30.953  30.744  1.00  0.00     0.020 A 
ATOM     90  C   UNL A   1      41.042  32.684  30.222  1.00  0.00     0.020 A 
ATOM     91  C   UNL A   1      39.853  32.341  30.929  1.00  0.00     0.054 A 
BRANCH  91  92
ATOM     92  S   UNL A   1      38.160  33.717  31.592  1.00  0.00     0.124 S 
ATOM     93  O   UNL A   1      36.947  32.966  31.930  1.00  0.00    -0.237 OA
ATOM     94  O   UNL A   1      38.461  34.466  32.783  1.00  0.00    -0.237 OA
ATOM     95  O   UNL A   1      37.900  34.601  30.452  1.00  0.00    -0.744 OA
ENDBRANCH  91  92
ENDBRANCH  63  86
BRANCH  75  96
ATOM     96  C   UNL A   1      47.165  25.209  33.367  1.00  0.00    -0.014 A 
ATOM     97  C   UNL A   1      48.476  24.896  33.721  1.00  0.00     0.010 A 
ATOM     98  C   UNL A   1      46.175  24.263  33.778  1.00  0.00     0.010 A 
ATOM     99  C   UNL A   1      48.771  23.776  34.520  1.00  0.00     0.020 A 
ATOM    100  C   UNL A   1      46.451  23.139  34.561  1.00  0.00     0.020 A 
ATOM    101  C   UNL A   1      47.756  22.918  34.953  1.00  0.00     0.054 A 
BRANCH 101 102
ATOM    102  S   UNL A   1      48.168  21.509  36.006  1.00  0.00     0.124 S 
ATOM    103  O   UNL A   1      46.914  21.277  36.716  1.00  0.00    -0.237 OA
ATOM    104  O   UNL A   1      48.532  20.494  35.020  1.00  0.00    -0.237 OA
ATOM    105  O   UNL A   1      49.270  21.996  36.832  1.00  0.00    -0.744 OA
ENDBRANCH 101 102
ENDBRANCH  75  96
ENDBRANCH  49  50
ENDBRANCH  42  44
ENDBRANCH  41  42
ENDBRANCH  40  41
ENDBRANCH  39  40
ENDBRANCH  38  39
ENDBRANCH  37  38
ENDBRANCH   1  37
TORSDOF 26
ENDMDL
MODEL 3
REMARK VINA RESULT:     -10.8      4.024      5.661
REMARK SMILES Cc1cc([N+](=O)[O-])ccc1-c1ccc(/C=C/C(=O)Nc2ccc(O)c(C(=O)OCCOCCOCCOC(=O)c3ccc(-c4c5nc(c(-c6ccc(S(=O)(=O)[O-])cc6)c6ccc([nH]6)c(-c6ccc(S(=O)(=O)[O-])cc6)c6nc(c(-c7ccc(S(=O)(=O)[O-])cc7)c7ccc4[nH]7)C=C6)C=C5)cc3)c2)o1
REMARK SMILES IDX 32 1 31 2 30 3 29 4 28 5 26 6 27 7 25 8 20 9 21 10 100 11
REMARK SMILES IDX 22 12 23 13 19 14 17 15 18 16 16 18 15 19 14 20 11 21 12 22
REMARK SMILES IDX 101 23 13 24 10 25 1 26 2 27 3 28 4 29 9 30 8 31 5 32 6 33
REMARK SMILES IDX 7 34 24 35 33 37 34 38 35 39 36 40 37 41 38 42 39 43 40 44
REMARK SMILES IDX 41 45 99 46 42 47 98 48 43 49 44 50 45 51 92 52 46 53 97 54
REMARK SMILES IDX 91 55 93 56 47 57 96 58 90 59 89 60 48 62 78 63 59 64 77 65
REMARK SMILES IDX 60 66 63 67 76 68 94 69 61 70 62 71 75 73 95 74 64 75 49 76
REMARK SMILES IDX 50 77 58 78 51 79 57 80 52 81 53 82 54 83 55 84 56 85 79 86
REMARK SMILES IDX 80 87 88 88 81 89 87 90 82 91 83 92 84 93 85 94 86 95 65 96
REMARK SMILES IDX 66 97 74 98 67 99 73 100 68 101 69 102 70 103 71 104 72 105
REMARK H PARENT 19 17 24 36 93 61 63 72
REMARK Flexibility Score: inf
ROOT
ATOM      1  C   UNL A   1      33.276  31.682  27.267  1.00  0.00     0.188 C 
ENDROOT
BRANCH   1   2
ATOM      2  O   UNL A   1      33.288  30.350  27.786  1.00  0.00    -0.376 OA
BRANCH   2   3
ATOM      3  C   UNL A   1      32.692  29.265  27.070  1.00  0.00     0.202 C 
BRANCH   3   4
ATOM      4  C   UNL A   1      32.254  29.430  25.564  1.00  0.00     0.261 C 
BRANCH   4   5
ATOM      5  O   UNL A   1      30.873  29.692  24.992  1.00  0.00    -0.460 OA
BRANCH   5   6
ATOM      6  C   UNL A   1      30.516  28.992  23.881  1.00  0.00     0.342 C 
ATOM      7  O   UNL A   1      30.005  29.676  22.985  1.00  0.00    -0.246 OA
BRANCH   6   8
ATOM      8  C   UNL A   1      30.681  27.359  23.778  1.00  0.00     0.103 A 
ATOM      9  C   UNL A   1      30.307  25.048  24.953  1.00  0.00     0.042 A 
ATOM     10  C   UNL A   1      30.563  24.399  23.785  1.00  0.00     0.030 A 
ATOM     11  C   UNL A   1      30.407  26.456  24.870  1.00  0.00     0.045 A 
ATOM     12  C   UNL A   1      30.860  25.194  22.642  1.00  0.00     0.049 A 
ATOM     13  C   UNL A   1      30.920  26.635  22.635  1.00  0.00     0.130 A 
BRANCH   9  14
ATOM     14  N   UNL A   1      29.858  24.457  26.184  1.00  0.00    -0.322 N 
ATOM     15  C   UNL A   1      30.299  23.382  26.930  1.00  0.00     0.248 C 
ATOM     16  O   UNL A   1      29.633  22.869  27.827  1.00  0.00    -0.270 OA
ATOM     17  H   UNL A   1      29.079  24.913  26.576  1.00  0.00     0.170 HD
BRANCH  15  18
ATOM     18  C   UNL A   1      31.702  23.001  26.744  1.00  0.00     0.075 C 
ATOM     19  C   UNL A   1      32.534  24.048  26.798  1.00  0.00     0.053 C 
BRANCH  19  20
ATOM     20  C   UNL A   1      33.724  24.007  26.054  1.00  0.00     0.127 A 
ATOM     21  C   UNL A   1      35.801  23.630  25.492  1.00  0.00     0.135 A 
ATOM     22  C   UNL A   1      35.263  24.328  24.439  1.00  0.00     0.051 A 
ATOM     23  O   UNL A   1      34.869  23.382  26.444  1.00  0.00    -0.457 OA
ATOM     24  C   UNL A   1      33.933  24.582  24.807  1.00  0.00     0.051 A 
BRANCH  21  25
ATOM     25  C   UNL A   1      37.134  23.201  25.822  1.00  0.00     0.021 A 
ATOM     26  C   UNL A   1      36.690  20.883  24.825  1.00  0.00     0.045 C 
ATOM     27  C   UNL A   1      37.564  21.892  25.529  1.00  0.00    -0.033 A 
ATOM     28  C   UNL A   1      38.856  21.507  25.912  1.00  0.00     0.089 A 
ATOM     29  C   UNL A   1      39.707  22.428  26.541  1.00  0.00     0.269 A 
ATOM     30  C   UNL A   1      38.000  24.123  26.429  1.00  0.00     0.019 A 
ATOM     31  C   UNL A   1      39.288  23.740  26.790  1.00  0.00     0.086 A 
BRANCH  29  32
ATOM     32  N   UNL A   1      41.051  22.012  26.950  1.00  0.00     0.062 N 
ATOM     33  O   UNL A   1      41.152  21.087  27.768  1.00  0.00    -0.258 OA
ATOM     34  O   UNL A   1      42.016  22.622  26.463  1.00  0.00    -0.258 OA
ENDBRANCH  29  32
ENDBRANCH  21  25
ENDBRANCH  19  20
ENDBRANCH  15  18
ENDBRANCH   9  14
BRANCH  13  35
ATOM     35  O   UNL A   1      31.189  27.236  21.443  1.00  0.00    -0.507 OA
ATOM     36  H   UNL A   1      31.174  28.170  21.376  1.00  0.00     0.293 HD
ENDBRANCH  13  35
ENDBRANCH   6   8
ENDBRANCH   5   6
ENDBRANCH   4   5
ENDBRANCH   3   4
ENDBRANCH   2   3
ENDBRANCH   1   2
BRANCH   1  37
ATOM     37  C   UNL A   1      33.738  32.899  28.024  1.00  0.00     0.188 C 
BRANCH  37  38
ATOM     38  O   UNL A   1      34.495  32.744  29.237  1.00  0.00    -0.376 OA
BRANCH  38  39
ATOM     39  C   UNL A   1      35.510  31.776  29.697  1.00  0.00     0.202 C 
BRANCH  39  40
ATOM     40  C   UNL A   1      36.152  30.064  29.310  1.00  0.00     0.261 C 
BRANCH  40  41
ATOM     41  O   UNL A   1      37.679  29.136  29.189  1.00  0.00    -0.460 OA
BRANCH  41  42
ATOM     42  C   UNL A   1      38.827  28.113  29.389  1.00  0.00     0.338 C 
ATOM     43  O   UNL A   1      38.630  27.322  30.327  1.00  0.00    -0.246 OA
BRANCH  42  44
ATOM     44  C   UNL A   1      40.540  28.052  28.774  1.00  0.00     0.060 A 
ATOM     45  C   UNL A   1      41.333  26.870  28.732  1.00  0.00     0.016 A 
ATOM     46  C   UNL A   1      41.461  29.059  28.831  1.00  0.00     0.016 A 
ATOM     47  C   UNL A   1      42.689  26.736  29.465  1.00  0.00     0.010 A 
ATOM     48  C   UNL A   1      42.642  28.930  29.687  1.00  0.00     0.010 A 
ATOM     49  C   UNL A   1      43.271  27.779  30.220  1.00  0.00    -0.014 A 
BRANCH  49  50
ATOM     50  C   UNL A   1      44.518  27.780  31.439  1.00  0.00     0.031 A 
ATOM     51  C   UNL A   1      45.977  27.071  31.520  1.00  0.00     0.074 A 
ATOM     52  C   UNL A   1      44.577  28.761  32.398  1.00  0.00     0.049 A 
ATOM     53  N   UNL A   1      47.053  27.723  31.896  1.00  0.00    -0.248 NA
ATOM     54  C   UNL A   1      46.425  25.716  31.125  1.00  0.00     0.031 C 
ATOM     55  C   UNL A   1      45.420  28.999  33.605  1.00  0.00     0.029 A 
ATOM     56  N   UNL A   1      43.637  29.694  32.681  1.00  0.00    -0.354 N 
ATOM     57  C   UNL A   1      48.227  26.993  31.785  1.00  0.00     0.074 A 
ATOM     58  C   UNL A   1      47.774  25.779  31.139  1.00  0.00     0.031 C 
ATOM     59  C   UNL A   1      44.637  29.456  34.613  1.00  0.00     0.029 A 
ATOM     60  C   UNL A   1      43.322  29.612  34.047  1.00  0.00     0.049 A 
ATOM     61  H   UNL A   1      43.240  30.324  32.036  1.00  0.00     0.167 HD
ATOM     62  C   UNL A   1      49.123  26.949  32.828  1.00  0.00     0.031 A 
ATOM     63  C   UNL A   1      42.141  28.973  34.241  1.00  0.00     0.031 A 
ATOM     64  C   UNL A   1      48.423  26.985  34.105  1.00  0.00     0.049 A 
ATOM     65  C   UNL A   1      42.609  27.477  34.629  1.00  0.00     0.074 A 
ATOM     66  C   UNL A   1      48.349  27.795  35.220  1.00  0.00     0.029 A 
ATOM     67  N   UNL A   1      47.393  26.067  34.242  1.00  0.00    -0.354 N 
ATOM     68  N   UNL A   1      43.858  27.043  34.525  1.00  0.00    -0.248 NA
ATOM     69  C   UNL A   1      41.842  26.458  35.353  1.00  0.00     0.031 C 
ATOM     70  C   UNL A   1      47.163  27.411  35.945  1.00  0.00     0.029 A 
ATOM     71  C   UNL A   1      46.544  26.360  35.280  1.00  0.00     0.049 A 
ATOM     72  H   UNL A   1      47.282  25.285  33.654  1.00  0.00     0.167 HD
ATOM     73  C   UNL A   1      44.120  25.918  35.262  1.00  0.00     0.074 A 
ATOM     74  C   UNL A   1      42.776  25.520  35.655  1.00  0.00     0.031 C 
ATOM     75  C   UNL A   1      45.402  25.463  35.538  1.00  0.00     0.031 A 
BRANCH  62  76
ATOM     76  C   UNL A   1      50.638  26.888  32.627  1.00  0.00    -0.014 A 
ATOM     77  C   UNL A   1      51.317  25.647  32.598  1.00  0.00     0.010 A 
ATOM     78  C   UNL A   1      51.465  28.034  32.535  1.00  0.00     0.010 A 
ATOM     79  C   UNL A   1      52.725  25.548  32.484  1.00  0.00     0.020 A 
ATOM     80  C   UNL A   1      52.877  27.947  32.409  1.00  0.00     0.020 A 
ATOM     81  C   UNL A   1      53.502  26.701  32.391  1.00  0.00     0.054 A 
BRANCH  81  82
ATOM     82  S   UNL A   1      55.318  26.542  32.268  1.00  0.00     0.124 S 
ATOM     83  O   UNL A   1      55.647  25.737  33.443  1.00  0.00    -0.237 OA
ATOM     84  O   UNL A   1      55.498  25.872  30.983  1.00  0.00    -0.237 OA
ATOM     85  O   UNL A   1      55.795  27.924  32.314  1.00  0.00    -0.744 OA
ENDBRANCH  81  82
ENDBRANCH  62  76
BRANCH  63  86
ATOM     86  C   UNL A   1      41.241  29.700  33.122  1.00  0.00    -0.014 A 
ATOM     87  C   UNL A   1      39.916  29.222  32.844  1.00  0.00     0.010 A 
ATOM     88  C   UNL A   1      41.200  31.028  32.896  1.00  0.00     0.010 A 
ATOM     89  C   UNL A   1      38.639  30.045  33.057  1.00  0.00     0.020 A 
ATOM     90  C   UNL A   1      39.890  31.747  32.885  1.00  0.00     0.020 A 
ATOM     91  C   UNL A   1      38.576  31.420  33.329  1.00  0.00     0.054 A 
BRANCH  91  92
ATOM     92  S   UNL A   1      36.843  32.835  33.767  1.00  0.00     0.124 S 
ATOM     93  O   UNL A   1      35.609  32.410  33.098  1.00  0.00    -0.237 OA
ATOM     94  O   UNL A   1      36.491  32.898  35.160  1.00  0.00    -0.237 OA
ATOM     95  O   UNL A   1      37.263  34.144  33.259  1.00  0.00    -0.744 OA
ENDBRANCH  91  92
ENDBRANCH  63  86
BRANCH  75  96
ATOM     96  C   UNL A   1      45.795  24.102  36.125  1.00  0.00    -0.014 A 
ATOM     97  C   UNL A   1      46.454  23.097  35.419  1.00  0.00     0.010 A 
ATOM     98  C   UNL A   1      45.450  23.780  37.474  1.00  0.00     0.010 A 
ATOM     99  C   UNL A   1      46.840  21.896  36.044  1.00  0.00     0.020 A 
ATOM    100  C   UNL A   1      45.814  22.589  38.107  1.00  0.00     0.020 A 
ATOM    101  C   UNL A   1      46.537  21.659  37.387  1.00  0.00     0.054 A 
BRANCH 101 102
ATOM    102  S   UNL A   1      47.078  20.120  38.164  1.00  0.00     0.124 S 
ATOM    103  O   UNL A   1      48.109  19.654  37.242  1.00  0.00    -0.237 OA
ATOM    104  O   UNL A   1      47.557  20.591  39.461  1.00  0.00    -0.237 OA
ATOM    105  O   UNL A   1      45.867  19.303  38.208  1.00  0.00    -0.744 OA
ENDBRANCH 101 102
ENDBRANCH  75  96
ENDBRANCH  49  50
ENDBRANCH  42  44
ENDBRANCH  41  42
ENDBRANCH  40  41
ENDBRANCH  39  40
ENDBRANCH  38  39
ENDBRANCH  37  38
ENDBRANCH   1  37
TORSDOF 26
ENDMDL
