MODEL 1
REMARK VINA RESULT:      -9.8      0.000      0.000
REMARK SMILES N#C[C@H]1CN(c2cc(C(=O)OCCOCCOCCOC(=O)c3ccc(-c4c5nc(c(-c6ccc(S(=O)(=O)[O-])cc6)c6ccc([nH]6)c(-c6ccc(S(=O)(=O)[O-])cc6)c6nc(c(-c7ccc(S(=O)(=O)[O-])cc7)c7ccc4[nH]7)C=C6)C=C5)cc3)c(N)cc2F)CCO1
REMARK SMILES IDX 16 1 15 2 14 3 13 4 12 5 11 6 9 7 10 8 8 9 6 10 7 11 86 12
REMARK SMILES IDX 85 13 87 14 83 15 5 16 3 17 4 18 90 19 89 20 88 21 2 22 1 23
REMARK SMILES IDX 84 24 17 27 18 28 19 29 20 30 21 31 22 32 23 33 24 34 82 35
REMARK SMILES IDX 25 36 81 37 26 38 27 39 28 40 75 41 29 42 80 43 74 44 76 45
REMARK SMILES IDX 30 46 79 47 73 48 72 49 31 51 61 52 42 53 60 54 43 55 46 56
REMARK SMILES IDX 59 57 77 58 44 59 45 60 58 62 78 63 47 64 32 65 33 66 41 67
REMARK SMILES IDX 34 68 40 69 35 70 36 71 37 72 38 73 39 74 62 75 63 76 71 77
REMARK SMILES IDX 64 78 70 79 65 80 66 81 67 82 68 83 69 84 48 85 49 86 57 87
REMARK SMILES IDX 50 88 56 89 51 90 52 91 53 92 54 93 55 94
REMARK H PARENT 84 25 84 26 76 50 46 61
REMARK Flexibility Score: inf
ROOT
ATOM      1  C   UNL A   1      42.326  20.104  26.314  1.00  0.00     0.188 C 
ENDROOT
BRANCH   1   2
ATOM      2  C   UNL A   1      40.799  20.196  26.507  1.00  0.00     0.188 C 
BRANCH   2   3
ATOM      3  O   UNL A   1      40.251  21.406  26.985  1.00  0.00    -0.376 OA
BRANCH   3   4
ATOM      4  C   UNL A   1      39.303  22.126  26.214  1.00  0.00     0.202 C 
BRANCH   4   5
ATOM      5  C   UNL A   1      38.116  21.492  25.457  1.00  0.00     0.261 C 
BRANCH   5   6
ATOM      6  O   UNL A   1      37.209  22.381  24.796  1.00  0.00    -0.460 OA
BRANCH   6   7
ATOM      7  C   UNL A   1      36.065  22.674  25.472  1.00  0.00     0.340 C 
ATOM      8  O   UNL A   1      35.991  23.326  26.501  1.00  0.00    -0.246 OA
BRANCH   7   9
ATOM      9  C   UNL A   1      34.871  22.266  24.683  1.00  0.00     0.085 A 
ATOM     10  C   UNL A   1      32.985  23.046  23.327  1.00  0.00     0.074 A 
ATOM     11  C   UNL A   1      34.154  23.305  24.047  1.00  0.00     0.047 A 
ATOM     12  C   UNL A   1      32.542  21.718  23.287  1.00  0.00     0.148 A 
ATOM     13  C   UNL A   1      33.262  20.677  23.873  1.00  0.00     0.067 A 
ATOM     14  F   UNL A   1      31.394  21.420  22.657  1.00  0.00    -0.205 F 
ATOM     15  C   UNL A   1      34.474  20.925  24.525  1.00  0.00     0.049 A 
BRANCH  10  16
ATOM     16  N   UNL A   1      32.270  24.063  22.743  1.00  0.00    -0.363 N 
ATOM     17  C   UNL A   1      30.867  25.996  23.392  1.00  0.00     0.240 C 
ATOM     18  C   UNL A   1      30.921  24.462  23.171  1.00  0.00     0.164 C 
ATOM     19  O   UNL A   1      31.372  26.711  22.242  1.00  0.00    -0.360 OA
ATOM     20  C   UNL A   1      32.735  26.343  21.976  1.00  0.00     0.183 C 
ATOM     21  C   UNL A   1      32.862  24.847  21.658  1.00  0.00     0.145 C 
BRANCH  17  22
ATOM     22  C   UNL A   1      29.496  26.421  23.708  1.00  0.00     0.096 C 
ATOM     23  N   UNL A   1      28.398  26.767  23.877  1.00  0.00    -0.195 NA
ENDBRANCH  17  22
ENDBRANCH  10  16
BRANCH  15  24
ATOM     24  N   UNL A   1      35.156  19.852  25.102  1.00  0.00    -0.398 N 
ATOM     25  H   UNL A   1      35.025  18.941  24.753  1.00  0.00     0.156 HD
ATOM     26  H   UNL A   1      35.768  20.008  25.857  1.00  0.00     0.156 HD
ENDBRANCH  15  24
ENDBRANCH   7   9
ENDBRANCH   6   7
ENDBRANCH   5   6
ENDBRANCH   4   5
ENDBRANCH   3   4
ENDBRANCH   2   3
ENDBRANCH   1   2
BRANCH   1  27
ATOM     27  O   UNL A   1      42.890  20.969  25.357  1.00  0.00    -0.376 OA
BRANCH  27  28
ATOM     28  C   UNL A   1      43.529  22.161  25.785  1.00  0.00     0.202 C 
BRANCH  28  29
ATOM     29  C   UNL A   1      43.048  23.611  25.523  1.00  0.00     0.261 C 
BRANCH  29  30
ATOM     30  O   UNL A   1      42.098  24.211  26.410  1.00  0.00    -0.460 OA
BRANCH  30  31
ATOM     31  C   UNL A   1      41.810  25.516  26.177  1.00  0.00     0.338 C 
ATOM     32  O   UNL A   1      41.420  26.000  25.129  1.00  0.00    -0.246 OA
BRANCH  31  33
ATOM     33  C   UNL A   1      41.828  26.257  27.457  1.00  0.00     0.060 A 
ATOM     34  C   UNL A   1      40.762  26.076  28.347  1.00  0.00     0.016 A 
ATOM     35  C   UNL A   1      42.850  27.160  27.757  1.00  0.00     0.016 A 
ATOM     36  C   UNL A   1      40.706  26.813  29.527  1.00  0.00     0.010 A 
ATOM     37  C   UNL A   1      42.781  27.909  28.940  1.00  0.00     0.010 A 
ATOM     38  C   UNL A   1      41.696  27.756  29.823  1.00  0.00    -0.014 A 
BRANCH  38  39
ATOM     39  C   UNL A   1      41.494  28.668  30.980  1.00  0.00     0.031 A 
ATOM     40  C   UNL A   1      40.384  29.683  30.926  1.00  0.00     0.074 A 
ATOM     41  C   UNL A   1      42.235  28.541  32.096  1.00  0.00     0.049 A 
ATOM     42  N   UNL A   1      40.021  30.569  31.818  1.00  0.00    -0.248 NA
ATOM     43  C   UNL A   1      39.581  29.708  29.693  1.00  0.00     0.031 C 
ATOM     44  C   UNL A   1      43.297  27.557  32.302  1.00  0.00     0.029 A 
ATOM     45  N   UNL A   1      42.190  29.239  33.278  1.00  0.00    -0.354 N 
ATOM     46  C   UNL A   1      38.945  31.251  31.261  1.00  0.00     0.074 A 
ATOM     47  C   UNL A   1      38.752  30.714  29.931  1.00  0.00     0.031 C 
ATOM     48  C   UNL A   1      43.794  27.706  33.543  1.00  0.00     0.029 A 
ATOM     49  C   UNL A   1      43.116  28.822  34.202  1.00  0.00     0.049 A 
ATOM     50  H   UNL A   1      41.553  29.969  33.446  1.00  0.00     0.167 HD
ATOM     51  C   UNL A   1      38.179  32.227  31.807  1.00  0.00     0.031 A 
ATOM     52  C   UNL A   1      43.398  29.295  35.434  1.00  0.00     0.031 A 
ATOM     53  C   UNL A   1      38.383  32.768  33.128  1.00  0.00     0.049 A 
ATOM     54  C   UNL A   1      42.600  30.450  35.983  1.00  0.00     0.074 A 
ATOM     55  C   UNL A   1      37.668  33.763  33.771  1.00  0.00     0.029 A 
ATOM     56  N   UNL A   1      39.376  32.361  34.009  1.00  0.00    -0.354 N 
ATOM     57  N   UNL A   1      41.591  31.092  35.443  1.00  0.00    -0.248 NA
ATOM     58  C   UNL A   1      42.978  30.939  37.316  1.00  0.00     0.031 C 
ATOM     59  C   UNL A   1      38.278  34.016  35.004  1.00  0.00     0.029 A 
ATOM     60  C   UNL A   1      39.322  33.119  35.170  1.00  0.00     0.049 A 
ATOM     61  H   UNL A   1      40.023  31.640  33.836  1.00  0.00     0.167 HD
ATOM     62  C   UNL A   1      41.193  32.038  36.383  1.00  0.00     0.074 A 
ATOM     63  C   UNL A   1      42.057  31.867  37.534  1.00  0.00     0.031 C 
ATOM     64  C   UNL A   1      40.201  32.961  36.303  1.00  0.00     0.031 A 
BRANCH  51  65
ATOM     65  C   UNL A   1      37.085  32.814  30.949  1.00  0.00    -0.014 A 
ATOM     66  C   UNL A   1      37.373  33.642  29.847  1.00  0.00     0.010 A 
ATOM     67  C   UNL A   1      35.742  32.519  31.244  1.00  0.00     0.010 A 
ATOM     68  C   UNL A   1      36.337  34.206  29.094  1.00  0.00     0.020 A 
ATOM     69  C   UNL A   1      34.705  33.049  30.471  1.00  0.00     0.020 A 
ATOM     70  C   UNL A   1      35.009  33.908  29.413  1.00  0.00     0.054 A 
BRANCH  70  71
ATOM     71  S   UNL A   1      33.686  34.650  28.418  1.00  0.00     0.124 S 
ATOM     72  O   UNL A   1      34.223  35.981  28.147  1.00  0.00    -0.237 OA
ATOM     73  O   UNL A   1      33.614  33.757  27.266  1.00  0.00    -0.237 OA
ATOM     74  O   UNL A   1      32.524  34.618  29.304  1.00  0.00    -0.744 OA
ENDBRANCH  70  71
ENDBRANCH  51  65
BRANCH  52  75
ATOM     75  C   UNL A   1      44.502  28.686  36.230  1.00  0.00    -0.014 A 
ATOM     76  C   UNL A   1      45.812  29.192  36.155  1.00  0.00     0.010 A 
ATOM     77  C   UNL A   1      44.244  27.588  37.072  1.00  0.00     0.010 A 
ATOM     78  C   UNL A   1      46.841  28.610  36.902  1.00  0.00     0.020 A 
ATOM     79  C   UNL A   1      45.263  27.026  37.847  1.00  0.00     0.020 A 
ATOM     80  C   UNL A   1      46.558  27.538  37.751  1.00  0.00     0.054 A 
BRANCH  80  81
ATOM     81  S   UNL A   1      47.895  26.852  38.768  1.00  0.00     0.124 S 
ATOM     82  O   UNL A   1      47.962  25.473  38.296  1.00  0.00    -0.237 OA
ATOM     83  O   UNL A   1      49.027  27.701  38.405  1.00  0.00    -0.237 OA
ATOM     84  O   UNL A   1      47.410  27.024  40.135  1.00  0.00    -0.744 OA
ENDBRANCH  80  81
ENDBRANCH  52  75
BRANCH  64  85
ATOM     85  C   UNL A   1      39.981  33.845  37.509  1.00  0.00    -0.014 A 
ATOM     86  C   UNL A   1      39.128  33.460  38.561  1.00  0.00     0.010 A 
ATOM     87  C   UNL A   1      40.647  35.082  37.596  1.00  0.00     0.010 A 
ATOM     88  C   UNL A   1      38.894  34.321  39.637  1.00  0.00     0.020 A 
ATOM     89  C   UNL A   1      40.449  35.928  38.692  1.00  0.00     0.020 A 
ATOM     90  C   UNL A   1      39.553  35.552  39.693  1.00  0.00     0.054 A 
BRANCH  90  91
ATOM     91  S   UNL A   1      39.227  36.653  41.098  1.00  0.00     0.124 S 
ATOM     92  O   UNL A   1      38.715  37.849  40.436  1.00  0.00    -0.237 OA
ATOM     93  O   UNL A   1      38.248  35.897  41.875  1.00  0.00    -0.237 OA
ATOM     94  O   UNL A   1      40.535  36.804  41.733  1.00  0.00    -0.744 OA
ENDBRANCH  90  91
ENDBRANCH  64  85
ENDBRANCH  38  39
ENDBRANCH  31  33
ENDBRANCH  30  31
ENDBRANCH  29  30
ENDBRANCH  28  29
ENDBRANCH  27  28
ENDBRANCH   1  27
TORSDOF 23
ENDMDL
MODEL 2
REMARK VINA RESULT:      -9.8      5.971     11.905
REMARK SMILES N#C[C@H]1CN(c2cc(C(=O)OCCOCCOCCOC(=O)c3ccc(-c4c5nc(c(-c6ccc(S(=O)(=O)[O-])cc6)c6ccc([nH]6)c(-c6ccc(S(=O)(=O)[O-])cc6)c6nc(c(-c7ccc(S(=O)(=O)[O-])cc7)c7ccc4[nH]7)C=C6)C=C5)cc3)c(N)cc2F)CCO1
REMARK SMILES IDX 16 1 15 2 14 3 13 4 12 5 11 6 9 7 10 8 8 9 6 10 7 11 86 12
REMARK SMILES IDX 85 13 87 14 83 15 5 16 3 17 4 18 90 19 89 20 88 21 2 22 1 23
REMARK SMILES IDX 84 24 17 27 18 28 19 29 20 30 21 31 22 32 23 33 24 34 82 35
REMARK SMILES IDX 25 36 81 37 26 38 27 39 28 40 75 41 29 42 80 43 74 44 76 45
REMARK SMILES IDX 30 46 79 47 73 48 72 49 31 51 61 52 42 53 60 54 43 55 46 56
REMARK SMILES IDX 59 57 77 58 44 59 45 60 58 62 78 63 47 64 32 65 33 66 41 67
REMARK SMILES IDX 34 68 40 69 35 70 36 71 37 72 38 73 39 74 62 75 63 76 71 77
REMARK SMILES IDX 64 78 70 79 65 80 66 81 67 82 68 83 69 84 48 85 49 86 57 87
REMARK SMILES IDX 50 88 56 89 51 90 52 91 53 92 54 93 55 94
REMARK H PARENT 84 25 84 26 76 50 46 61
REMARK Flexibility Score: inf
ROOT
ATOM      1  C   UNL A   1      33.917  33.259  28.017  1.00  0.00     0.188 C 
ENDROOT
BRANCH   1   2
ATOM      2  C   UNL A   1      33.488  31.804  27.739  1.00  0.00     0.188 C 
BRANCH   2   3
ATOM      3  O   UNL A   1      34.399  30.946  27.086  1.00  0.00    -0.376 OA
BRANCH   3   4
ATOM      4  C   UNL A   1      34.488  29.576  27.444  1.00  0.00     0.202 C 
BRANCH   4   5
ATOM      5  C   UNL A   1      34.087  28.398  26.530  1.00  0.00     0.261 C 
BRANCH   5   6
ATOM      6  O   UNL A   1      33.453  28.717  25.287  1.00  0.00    -0.460 OA
BRANCH   6   7
ATOM      7  C   UNL A   1      32.348  27.985  24.977  1.00  0.00     0.340 C 
ATOM      8  O   UNL A   1      31.192  28.355  25.092  1.00  0.00    -0.246 OA
BRANCH   7   9
ATOM      9  C   UNL A   1      32.732  26.728  24.279  1.00  0.00     0.085 A 
ATOM     10  C   UNL A   1      33.037  24.308  24.504  1.00  0.00     0.074 A 
ATOM     11  C   UNL A   1      32.648  25.539  25.038  1.00  0.00     0.047 A 
ATOM     12  C   UNL A   1      33.539  24.309  23.197  1.00  0.00     0.148 A 
ATOM     13  C   UNL A   1      33.587  25.468  22.421  1.00  0.00     0.067 A 
ATOM     14  F   UNL A   1      33.980  23.163  22.654  1.00  0.00    -0.205 F 
ATOM     15  C   UNL A   1      33.123  26.685  22.927  1.00  0.00     0.049 A 
BRANCH  10  16
ATOM     16  N   UNL A   1      32.990  23.160  25.257  1.00  0.00    -0.363 N 
ATOM     17  C   UNL A   1      33.317  20.720  24.998  1.00  0.00     0.240 C 
ATOM     18  C   UNL A   1      32.348  21.915  24.807  1.00  0.00     0.164 C 
ATOM     19  O   UNL A   1      33.841  20.677  26.344  1.00  0.00    -0.360 OA
ATOM     20  C   UNL A   1      34.555  21.886  26.648  1.00  0.00     0.183 C 
ATOM     21  C   UNL A   1      33.638  23.115  26.569  1.00  0.00     0.145 C 
BRANCH  17  22
ATOM     22  C   UNL A   1      32.646  19.456  24.660  1.00  0.00     0.096 C 
ATOM     23  N   UNL A   1      32.068  18.467  24.459  1.00  0.00    -0.195 NA
ENDBRANCH  17  22
ENDBRANCH  10  16
BRANCH  15  24
ATOM     24  N   UNL A   1      33.197  27.820  22.117  1.00  0.00    -0.398 N 
ATOM     25  H   UNL A   1      32.696  28.631  22.360  1.00  0.00     0.156 HD
ATOM     26  H   UNL A   1      33.750  27.807  21.302  1.00  0.00     0.156 HD
ENDBRANCH  15  24
ENDBRANCH   7   9
ENDBRANCH   6   7
ENDBRANCH   5   6
ENDBRANCH   4   5
ENDBRANCH   3   4
ENDBRANCH   2   3
ENDBRANCH   1   2
BRANCH   1  27
ATOM     27  O   UNL A   1      33.626  33.765  29.299  1.00  0.00    -0.376 OA
BRANCH  27  28
ATOM     28  C   UNL A   1      34.629  33.742  30.301  1.00  0.00     0.202 C 
BRANCH  28  29
ATOM     29  C   UNL A   1      35.149  32.494  31.058  1.00  0.00     0.261 C 
BRANCH  29  30
ATOM     30  O   UNL A   1      36.019  31.574  30.390  1.00  0.00    -0.460 OA
BRANCH  30  31
ATOM     31  C   UNL A   1      36.628  30.653  31.178  1.00  0.00     0.338 C 
ATOM     32  O   UNL A   1      36.099  29.954  32.024  1.00  0.00    -0.246 OA
BRANCH  31  33
ATOM     33  C   UNL A   1      38.018  30.454  30.713  1.00  0.00     0.060 A 
ATOM     34  C   UNL A   1      38.275  30.511  29.337  1.00  0.00     0.016 A 
ATOM     35  C   UNL A   1      39.047  30.160  31.610  1.00  0.00     0.016 A 
ATOM     36  C   UNL A   1      39.556  30.253  28.856  1.00  0.00     0.010 A 
ATOM     37  C   UNL A   1      40.332  29.888  31.119  1.00  0.00     0.010 A 
ATOM     38  C   UNL A   1      40.589  29.911  29.736  1.00  0.00    -0.014 A 
BRANCH  38  39
ATOM     39  C   UNL A   1      41.882  29.440  29.173  1.00  0.00     0.031 A 
ATOM     40  C   UNL A   1      43.050  30.390  29.129  1.00  0.00     0.074 A 
ATOM     41  C   UNL A   1      42.040  28.163  28.780  1.00  0.00     0.049 A 
ATOM     42  N   UNL A   1      44.268  30.193  28.691  1.00  0.00    -0.248 NA
ATOM     43  C   UNL A   1      42.807  31.748  29.640  1.00  0.00     0.031 C 
ATOM     44  C   UNL A   1      41.009  27.127  28.830  1.00  0.00     0.029 A 
ATOM     45  N   UNL A   1      43.141  27.516  28.275  1.00  0.00    -0.354 N 
ATOM     46  C   UNL A   1      44.939  31.396  28.880  1.00  0.00     0.074 A 
ATOM     47  C   UNL A   1      43.975  32.333  29.418  1.00  0.00     0.031 C 
ATOM     48  C   UNL A   1      41.533  25.970  28.387  1.00  0.00     0.029 A 
ATOM     49  C   UNL A   1      42.920  26.193  27.982  1.00  0.00     0.049 A 
ATOM     50  H   UNL A   1      44.008  27.960  28.137  1.00  0.00     0.167 HD
ATOM     51  C   UNL A   1      46.239  31.694  28.638  1.00  0.00     0.031 A 
ATOM     52  C   UNL A   1      43.737  25.269  27.434  1.00  0.00     0.031 A 
ATOM     53  C   UNL A   1      47.192  30.761  28.090  1.00  0.00     0.049 A 
ATOM     54  C   UNL A   1      45.151  25.651  27.078  1.00  0.00     0.074 A 
ATOM     55  C   UNL A   1      48.529  30.967  27.800  1.00  0.00     0.029 A 
ATOM     56  N   UNL A   1      46.909  29.446  27.745  1.00  0.00    -0.354 N 
ATOM     57  N   UNL A   1      45.771  26.794  27.253  1.00  0.00    -0.248 NA
ATOM     58  C   UNL A   1      45.979  24.609  26.456  1.00  0.00     0.031 C 
ATOM     59  C   UNL A   1      49.033  29.806  27.204  1.00  0.00     0.029 A 
ATOM     60  C   UNL A   1      48.035  28.845  27.202  1.00  0.00     0.049 A 
ATOM     61  H   UNL A   1      46.038  29.005  27.870  1.00  0.00     0.167 HD
ATOM     62  C   UNL A   1      47.070  26.598  26.793  1.00  0.00     0.074 A 
ATOM     63  C   UNL A   1      47.150  25.220  26.353  1.00  0.00     0.031 C 
ATOM     64  C   UNL A   1      48.102  27.479  26.742  1.00  0.00     0.031 A 
BRANCH  51  65
ATOM     65  C   UNL A   1      46.689  33.108  28.912  1.00  0.00    -0.014 A 
ATOM     66  C   UNL A   1      46.596  34.118  27.935  1.00  0.00     0.010 A 
ATOM     67  C   UNL A   1      47.205  33.436  30.179  1.00  0.00     0.010 A 
ATOM     68  C   UNL A   1      47.060  35.410  28.203  1.00  0.00     0.020 A 
ATOM     69  C   UNL A   1      47.635  34.735  30.464  1.00  0.00     0.020 A 
ATOM     70  C   UNL A   1      47.580  35.709  29.465  1.00  0.00     0.054 A 
BRANCH  70  71
ATOM     71  S   UNL A   1      48.172  37.394  29.787  1.00  0.00     0.124 S 
ATOM     72  O   UNL A   1      47.032  38.201  29.359  1.00  0.00    -0.237 OA
ATOM     73  O   UNL A   1      48.422  37.375  31.225  1.00  0.00    -0.237 OA
ATOM     74  O   UNL A   1      49.364  37.510  28.950  1.00  0.00    -0.744 OA
ENDBRANCH  70  71
ENDBRANCH  51  65
BRANCH  52  75
ATOM     75  C   UNL A   1      43.231  23.891  27.172  1.00  0.00    -0.014 A 
ATOM     76  C   UNL A   1      42.660  23.556  25.931  1.00  0.00     0.010 A 
ATOM     77  C   UNL A   1      43.319  22.903  28.169  1.00  0.00     0.010 A 
ATOM     78  C   UNL A   1      42.183  22.262  25.696  1.00  0.00     0.020 A 
ATOM     79  C   UNL A   1      42.876  21.600  27.926  1.00  0.00     0.020 A 
ATOM     80  C   UNL A   1      42.305  21.289  26.692  1.00  0.00     0.054 A 
BRANCH  80  81
ATOM     81  S   UNL A   1      41.750  19.599  26.334  1.00  0.00     0.124 S 
ATOM     82  O   UNL A   1      42.132  18.888  27.549  1.00  0.00    -0.237 OA
ATOM     83  O   UNL A   1      40.315  19.781  26.129  1.00  0.00    -0.237 OA
ATOM     84  O   UNL A   1      42.502  19.238  25.134  1.00  0.00    -0.744 OA
ENDBRANCH  80  81
ENDBRANCH  52  75
BRANCH  64  85
ATOM     85  C   UNL A   1      49.421  26.966  26.211  1.00  0.00    -0.014 A 
ATOM     86  C   UNL A   1      50.408  26.442  27.068  1.00  0.00     0.010 A 
ATOM     87  C   UNL A   1      49.675  27.001  24.827  1.00  0.00     0.010 A 
ATOM     88  C   UNL A   1      51.643  26.029  26.559  1.00  0.00     0.020 A 
ATOM     89  C   UNL A   1      50.893  26.550  24.309  1.00  0.00     0.020 A 
ATOM     90  C   UNL A   1      51.880  26.091  25.183  1.00  0.00     0.054 A 
BRANCH  90  91
ATOM     91  S   UNL A   1      53.493  25.555  24.550  1.00  0.00     0.124 S 
ATOM     92  O   UNL A   1      53.456  26.037  23.172  1.00  0.00    -0.237 OA
ATOM     93  O   UNL A   1      54.429  26.246  25.433  1.00  0.00    -0.237 OA
ATOM     94  O   UNL A   1      53.461  24.101  24.701  1.00  0.00    -0.744 OA
ENDBRANCH  90  91
ENDBRANCH  64  85
ENDBRANCH  38  39
ENDBRANCH  31  33
ENDBRANCH  30  31
ENDBRANCH  29  30
ENDBRANCH  28  29
ENDBRANCH  27  28
ENDBRANCH   1  27
TORSDOF 23
ENDMDL
MODEL 3
REMARK VINA RESULT:      -9.7      6.659     11.979
REMARK SMILES N#C[C@H]1CN(c2cc(C(=O)OCCOCCOCCOC(=O)c3ccc(-c4c5nc(c(-c6ccc(S(=O)(=O)[O-])cc6)c6ccc([nH]6)c(-c6ccc(S(=O)(=O)[O-])cc6)c6nc(c(-c7ccc(S(=O)(=O)[O-])cc7)c7ccc4[nH]7)C=C6)C=C5)cc3)c(N)cc2F)CCO1
REMARK SMILES IDX 16 1 15 2 14 3 13 4 12 5 11 6 9 7 10 8 8 9 6 10 7 11 86 12
REMARK SMILES IDX 85 13 87 14 83 15 5 16 3 17 4 18 90 19 89 20 88 21 2 22 1 23
REMARK SMILES IDX 84 24 17 27 18 28 19 29 20 30 21 31 22 32 23 33 24 34 82 35
REMARK SMILES IDX 25 36 81 37 26 38 27 39 28 40 75 41 29 42 80 43 74 44 76 45
REMARK SMILES IDX 30 46 79 47 73 48 72 49 31 51 61 52 42 53 60 54 43 55 46 56
REMARK SMILES IDX 59 57 77 58 44 59 45 60 58 62 78 63 47 64 32 65 33 66 41 67
REMARK SMILES IDX 34 68 40 69 35 70 36 71 37 72 38 73 39 74 62 75 63 76 71 77
REMARK SMILES IDX 64 78 70 79 65 80 66 81 67 82 68 83 69 84 48 85 49 86 57 87
REMARK SMILES IDX 50 88 56 89 51 90 52 91 53 92 54 93 55 94
REMARK H PARENT 84 25 84 26 76 50 46 61
REMARK Flexibility Score: inf
ROOT
ATOM      1  C   UNL A   1      33.451  28.145  25.377  1.00  0.00     0.188 C 
ENDROOT
BRANCH   1   2
ATOM      2  C   UNL A   1      33.452  29.192  24.246  1.00  0.00     0.188 C 
BRANCH   2   3
ATOM      3  O   UNL A   1      32.988  28.807  22.969  1.00  0.00    -0.376 OA
BRANCH   3   4
ATOM      4  C   UNL A   1      31.600  28.789  22.678  1.00  0.00     0.202 C 
BRANCH   4   5
ATOM      5  C   UNL A   1      30.777  27.516  22.386  1.00  0.00     0.261 C 
BRANCH   5   6
ATOM      6  O   UNL A   1      31.157  26.316  23.069  1.00  0.00    -0.460 OA
BRANCH   6   7
ATOM      7  C   UNL A   1      30.341  25.927  24.086  1.00  0.00     0.340 C 
ATOM      8  O   UNL A   1      29.150  26.170  24.179  1.00  0.00    -0.246 OA
BRANCH   7   9
ATOM      9  C   UNL A   1      31.049  24.980  24.992  1.00  0.00     0.085 A 
ATOM     10  C   UNL A   1      33.105  23.703  25.368  1.00  0.00     0.074 A 
ATOM     11  C   UNL A   1      32.366  24.628  24.624  1.00  0.00     0.047 A 
ATOM     12  C   UNL A   1      32.472  23.123  26.475  1.00  0.00     0.148 A 
ATOM     13  C   UNL A   1      31.187  23.494  26.874  1.00  0.00     0.067 A 
ATOM     14  F   UNL A   1      33.114  22.187  27.192  1.00  0.00    -0.205 F 
ATOM     15  C   UNL A   1      30.479  24.478  26.177  1.00  0.00     0.049 A 
BRANCH  10  16
ATOM     16  N   UNL A   1      34.372  23.334  24.986  1.00  0.00    -0.363 N 
ATOM     17  C   UNL A   1      36.645  23.130  25.944  1.00  0.00     0.240 C 
ATOM     18  C   UNL A   1      35.583  24.088  25.343  1.00  0.00     0.164 C 
ATOM     19  O   UNL A   1      36.874  21.992  25.083  1.00  0.00    -0.360 OA
ATOM     20  C   UNL A   1      35.658  21.251  24.892  1.00  0.00     0.183 C 
ATOM     21  C   UNL A   1      34.578  22.106  24.217  1.00  0.00     0.145 C 
BRANCH  17  22
ATOM     22  C   UNL A   1      37.901  23.851  26.197  1.00  0.00     0.096 C 
ATOM     23  N   UNL A   1      38.883  24.408  26.477  1.00  0.00    -0.195 NA
ENDBRANCH  17  22
ENDBRANCH  10  16
BRANCH  15  24
ATOM     24  N   UNL A   1      29.194  24.812  26.610  1.00  0.00    -0.398 N 
ATOM     25  H   UNL A   1      28.664  24.161  27.124  1.00  0.00     0.156 HD
ATOM     26  H   UNL A   1      28.820  25.697  26.401  1.00  0.00     0.156 HD
ENDBRANCH  15  24
ENDBRANCH   7   9
ENDBRANCH   6   7
ENDBRANCH   5   6
ENDBRANCH   4   5
ENDBRANCH   3   4
ENDBRANCH   2   3
ENDBRANCH   1   2
BRANCH   1  27
ATOM     27  O   UNL A   1      33.284  28.635  26.686  1.00  0.00    -0.376 OA
BRANCH  27  28
ATOM     28  C   UNL A   1      33.777  29.923  27.016  1.00  0.00     0.202 C 
BRANCH  28  29
ATOM     29  C   UNL A   1      34.867  30.252  28.067  1.00  0.00     0.261 C 
BRANCH  29  30
ATOM     30  O   UNL A   1      36.124  29.569  28.019  1.00  0.00    -0.460 OA
BRANCH  30  31
ATOM     31  C   UNL A   1      37.010  29.885  28.997  1.00  0.00     0.338 C 
ATOM     32  O   UNL A   1      36.747  30.300  30.112  1.00  0.00    -0.246 OA
BRANCH  31  33
ATOM     33  C   UNL A   1      38.362  29.444  28.593  1.00  0.00     0.060 A 
ATOM     34  C   UNL A   1      39.312  29.203  29.594  1.00  0.00     0.016 A 
ATOM     35  C   UNL A   1      38.712  29.322  27.246  1.00  0.00     0.016 A 
ATOM     36  C   UNL A   1      40.617  28.860  29.249  1.00  0.00     0.010 A 
ATOM     37  C   UNL A   1      40.031  28.990  26.905  1.00  0.00     0.010 A 
ATOM     38  C   UNL A   1      40.998  28.779  27.905  1.00  0.00    -0.014 A 
BRANCH  38  39
ATOM     39  C   UNL A   1      42.439  28.618  27.579  1.00  0.00     0.031 A 
ATOM     40  C   UNL A   1      43.379  29.766  27.835  1.00  0.00     0.074 A 
ATOM     41  C   UNL A   1      42.920  27.442  27.136  1.00  0.00     0.049 A 
ATOM     42  N   UNL A   1      44.670  29.847  27.635  1.00  0.00    -0.248 NA
ATOM     43  C   UNL A   1      42.778  30.993  28.381  1.00  0.00     0.031 C 
ATOM     44  C   UNL A   1      42.128  26.234  26.908  1.00  0.00     0.029 A 
ATOM     45  N   UNL A   1      44.203  27.068  26.817  1.00  0.00    -0.354 N 
ATOM     46  C   UNL A   1      45.038  31.126  28.038  1.00  0.00     0.074 A 
ATOM     47  C   UNL A   1      43.824  31.804  28.438  1.00  0.00     0.031 C 
ATOM     48  C   UNL A   1      42.946  25.249  26.498  1.00  0.00     0.029 A 
ATOM     49  C   UNL A   1      44.310  25.766  26.394  1.00  0.00     0.049 A 
ATOM     50  H   UNL A   1      44.972  27.677  26.885  1.00  0.00     0.167 HD
ATOM     51  C   UNL A   1      46.273  31.683  28.081  1.00  0.00     0.031 A 
ATOM     52  C   UNL A   1      45.382  25.074  25.955  1.00  0.00     0.031 A 
ATOM     53  C   UNL A   1      47.478  31.007  27.669  1.00  0.00     0.049 A 
ATOM     54  C   UNL A   1      46.731  25.747  25.915  1.00  0.00     0.074 A 
ATOM     55  C   UNL A   1      48.777  31.486  27.666  1.00  0.00     0.029 A 
ATOM     56  N   UNL A   1      47.535  29.707  27.184  1.00  0.00    -0.354 N 
ATOM     57  N   UNL A   1      47.065  26.959  26.290  1.00  0.00    -0.248 NA
ATOM     58  C   UNL A   1      47.851  24.949  25.398  1.00  0.00     0.031 C 
ATOM     59  C   UNL A   1      49.604  30.510  27.102  1.00  0.00     0.029 A 
ATOM     60  C   UNL A   1      48.838  29.387  26.834  1.00  0.00     0.049 A 
ATOM     61  H   UNL A   1      46.763  29.102  27.101  1.00  0.00     0.167 HD
ATOM     62  C   UNL A   1      48.438  27.058  26.085  1.00  0.00     0.074 A 
ATOM     63  C   UNL A   1      48.873  25.774  25.574  1.00  0.00     0.031 C 
ATOM     64  C   UNL A   1      49.263  28.114  26.302  1.00  0.00     0.031 A 
BRANCH  51  65
ATOM     65  C   UNL A   1      46.371  33.118  28.537  1.00  0.00    -0.014 A 
ATOM     66  C   UNL A   1      46.730  33.453  29.857  1.00  0.00     0.010 A 
ATOM     67  C   UNL A   1      46.111  34.154  27.622  1.00  0.00     0.010 A 
ATOM     68  C   UNL A   1      46.772  34.790  30.263  1.00  0.00     0.020 A 
ATOM     69  C   UNL A   1      46.189  35.493  28.013  1.00  0.00     0.020 A 
ATOM     70  C   UNL A   1      46.498  35.802  29.339  1.00  0.00     0.054 A 
BRANCH  70  71
ATOM     71  S   UNL A   1      46.562  37.529  29.893  1.00  0.00     0.124 S 
ATOM     72  O   UNL A   1      46.404  37.389  31.338  1.00  0.00    -0.237 OA
ATOM     73  O   UNL A   1      47.884  37.958  29.446  1.00  0.00    -0.237 OA
ATOM     74  O   UNL A   1      45.439  38.158  29.203  1.00  0.00    -0.744 OA
ENDBRANCH  70  71
ENDBRANCH  51  65
BRANCH  52  75
ATOM     75  C   UNL A   1      45.221  23.663  25.501  1.00  0.00    -0.014 A 
ATOM     76  C   UNL A   1      44.852  23.368  24.177  1.00  0.00     0.010 A 
ATOM     77  C   UNL A   1      45.439  22.601  26.399  1.00  0.00     0.010 A 
ATOM     78  C   UNL A   1      44.698  22.041  23.762  1.00  0.00     0.020 A 
ATOM     79  C   UNL A   1      45.321  21.273  25.979  1.00  0.00     0.020 A 
ATOM     80  C   UNL A   1      44.945  21.002  24.663  1.00  0.00     0.054 A 
BRANCH  80  81
ATOM     81  S   UNL A   1      44.815  19.290  24.078  1.00  0.00     0.124 S 
ATOM     82  O   UNL A   1      46.118  18.742  24.440  1.00  0.00    -0.237 OA
ATOM     83  O   UNL A   1      43.679  18.785  24.846  1.00  0.00    -0.237 OA
ATOM     84  O   UNL A   1      44.572  19.434  22.644  1.00  0.00    -0.744 OA
ENDBRANCH  80  81
ENDBRANCH  52  75
BRANCH  64  85
ATOM     85  C   UNL A   1      50.732  27.914  26.009  1.00  0.00    -0.014 A 
ATOM     86  C   UNL A   1      51.619  27.423  26.986  1.00  0.00     0.010 A 
ATOM     87  C   UNL A   1      51.234  28.216  24.729  1.00  0.00     0.010 A 
ATOM     88  C   UNL A   1      52.984  27.303  26.709  1.00  0.00     0.020 A 
ATOM     89  C   UNL A   1      52.591  28.058  24.435  1.00  0.00     0.020 A 
ATOM     90  C   UNL A   1      53.462  27.627  25.437  1.00  0.00     0.054 A 
BRANCH  90  91
ATOM     91  S   UNL A   1      55.239  27.468  25.106  1.00  0.00     0.124 S 
ATOM     92  O   UNL A   1      55.325  27.862  23.703  1.00  0.00    -0.237 OA
ATOM     93  O   UNL A   1      55.827  28.406  26.059  1.00  0.00    -0.237 OA
ATOM     94  O   UNL A   1      55.519  26.058  25.375  1.00  0.00    -0.744 OA
ENDBRANCH  90  91
ENDBRANCH  64  85
ENDBRANCH  38  39
ENDBRANCH  31  33
ENDBRANCH  30  31
ENDBRANCH  29  30
ENDBRANCH  28  29
ENDBRANCH  27  28
ENDBRANCH   1  27
TORSDOF 23
ENDMDL
