MODEL 1
REMARK VINA RESULT:     -10.6      0.000      0.000
REMARK SMILES COc1cc2c(CC(=O)OCCOCCOCCOC(=O)c3ccc(-c4c5nc(c(-c6ccc(S(=O)(=O)[O-])cc6)c6ccc([nH]6)c(-c6ccc(S(=O)(=O)[O-])cc6)c6nc(c(-c7ccc(S(=O)(=O)[O-])cc7)c7ccc4[nH]7)C=C6)C=C5)cc3)c(C)n(C(=O)c3ccc(Cl)cc3)c2cc1Cl
REMARK SMILES IDX 14 1 13 2 12 3 11 4 10 5 8 6 9 7 7 8 6 9 3 10 4 11 96 12
REMARK SMILES IDX 5 13 95 14 97 15 94 16 82 17 84 18 83 19 2 20 1 21 85 22
REMARK SMILES IDX 86 23 87 24 88 25 93 26 89 27 92 28 90 29 91 30 15 31 16 32
REMARK SMILES IDX 17 33 18 34 19 35 20 36 21 37 22 38 23 39 81 40 24 41 80 42
REMARK SMILES IDX 25 43 26 44 27 45 74 46 28 47 79 48 73 49 75 50 29 51 78 52
REMARK SMILES IDX 72 53 71 54 30 56 60 57 41 58 59 59 42 60 45 61 58 62 76 63
REMARK SMILES IDX 43 64 44 65 57 67 77 68 46 69 31 70 32 71 40 72 33 73 39 74
REMARK SMILES IDX 34 75 35 76 36 77 37 78 38 79 61 80 62 81 70 82 63 83 69 84
REMARK SMILES IDX 64 85 65 86 66 87 67 88 68 89 47 90 48 91 56 92 49 93 55 94
REMARK SMILES IDX 50 95 51 96 52 97 53 98 54 99
REMARK H PARENT 75 55 45 66
REMARK Flexibility Score: inf
ROOT
ATOM      1  C   UNL A   1      37.775  23.279  25.714  1.00  0.00     0.188 C 
ENDROOT
BRANCH   1   2
ATOM      2  O   UNL A   1      36.412  23.314  25.367  1.00  0.00    -0.376 OA
BRANCH   2   3
ATOM      3  C   UNL A   1      36.029  22.492  24.276  1.00  0.00     0.202 C 
BRANCH   3   4
ATOM      4  C   UNL A   1      34.808  21.582  24.506  1.00  0.00     0.261 C 
BRANCH   4   5
ATOM      5  O   UNL A   1      33.558  22.233  24.120  1.00  0.00    -0.463 OA
BRANCH   5   6
ATOM      6  C   UNL A   1      32.665  22.452  25.123  1.00  0.00     0.310 C 
ATOM      7  O   UNL A   1      32.050  21.528  25.650  1.00  0.00    -0.252 OA
BRANCH   6   8
ATOM      8  C   UNL A   1      32.663  23.858  25.742  1.00  0.00     0.160 C 
BRANCH   8   9
ATOM      9  C   UNL A   1      32.384  25.161  25.008  1.00  0.00    -0.008 A 
ATOM     10  C   UNL A   1      33.406  28.512  26.778  1.00  0.00     0.138 A 
ATOM     11  C   UNL A   1      33.505  27.176  26.332  1.00  0.00     0.058 A 
ATOM     12  C   UNL A   1      32.498  29.308  26.132  1.00  0.00     0.085 A 
ATOM     13  C   UNL A   1      32.669  26.524  25.407  1.00  0.00     0.008 A 
ATOM     14  C   UNL A   1      31.718  28.751  25.098  1.00  0.00     0.051 A 
ATOM     15  Cl  UNL A   1      32.348  31.009  26.391  1.00  0.00    -0.080 Cl
ATOM     16  C   UNL A   1      31.817  27.374  24.718  1.00  0.00     0.058 A 
ATOM     17  C   UNL A   1      31.436  25.266  23.998  1.00  0.00     0.028 A 
ATOM     18  N   UNL A   1      31.285  26.613  23.664  1.00  0.00    -0.280 N 
ATOM     19  C   UNL A   1      30.673  24.129  23.397  1.00  0.00     0.065 C 
BRANCH  10  20
ATOM     20  O   UNL A   1      34.281  28.777  27.788  1.00  0.00    -0.495 OA
ATOM     21  C   UNL A   1      35.435  29.592  27.651  1.00  0.00     0.278 C 
ENDBRANCH  10  20
BRANCH  18  22
ATOM     22  C   UNL A   1      30.771  27.155  22.464  1.00  0.00     0.262 C 
ATOM     23  O   UNL A   1      31.208  26.783  21.374  1.00  0.00    -0.268 OA
BRANCH  22  24
ATOM     24  C   UNL A   1      29.770  28.229  22.473  1.00  0.00     0.040 A 
ATOM     25  C   UNL A   1      30.168  29.519  22.094  1.00  0.00     0.015 A 
ATOM     26  C   UNL A   1      28.548  27.996  23.108  1.00  0.00     0.015 A 
ATOM     27  C   UNL A   1      29.352  30.602  22.415  1.00  0.00     0.021 A 
ATOM     28  C   UNL A   1      27.743  29.088  23.434  1.00  0.00     0.021 A 
ATOM     29  C   UNL A   1      28.155  30.383  23.101  1.00  0.00     0.041 A 
ATOM     30  Cl  UNL A   1      27.211  31.730  23.605  1.00  0.00    -0.084 Cl
ENDBRANCH  22  24
ENDBRANCH  18  22
ENDBRANCH   8   9
ENDBRANCH   6   8
ENDBRANCH   5   6
ENDBRANCH   4   5
ENDBRANCH   3   4
ENDBRANCH   2   3
ENDBRANCH   1   2
BRANCH   1  31
ATOM     31  C   UNL A   1      38.502  21.937  25.570  1.00  0.00     0.188 C 
BRANCH  31  32
ATOM     32  O   UNL A   1      39.164  21.350  26.660  1.00  0.00    -0.376 OA
BRANCH  32  33
ATOM     33  C   UNL A   1      40.404  21.931  27.022  1.00  0.00     0.202 C 
BRANCH  33  34
ATOM     34  C   UNL A   1      41.699  21.561  26.238  1.00  0.00     0.261 C 
BRANCH  34  35
ATOM     35  O   UNL A   1      42.952  21.807  26.952  1.00  0.00    -0.460 OA
BRANCH  35  36
ATOM     36  C   UNL A   1      43.708  22.882  26.555  1.00  0.00     0.338 C 
ATOM     37  O   UNL A   1      44.585  22.823  25.705  1.00  0.00    -0.246 OA
BRANCH  36  38
ATOM     38  C   UNL A   1      43.082  24.197  26.984  1.00  0.00     0.060 A 
ATOM     39  C   UNL A   1      42.354  25.093  26.210  1.00  0.00     0.016 A 
ATOM     40  C   UNL A   1      43.343  24.589  28.298  1.00  0.00     0.016 A 
ATOM     41  C   UNL A   1      42.037  26.384  26.738  1.00  0.00     0.010 A 
ATOM     42  C   UNL A   1      43.056  25.852  28.826  1.00  0.00     0.010 A 
ATOM     43  C   UNL A   1      42.448  26.804  28.032  1.00  0.00    -0.014 A 
BRANCH  43  44
ATOM     44  C   UNL A   1      41.906  28.010  28.714  1.00  0.00     0.031 A 
ATOM     45  C   UNL A   1      42.726  29.173  28.365  1.00  0.00     0.074 A 
ATOM     46  C   UNL A   1      40.817  28.302  29.471  1.00  0.00     0.049 A 
ATOM     47  N   UNL A   1      43.761  29.510  29.047  1.00  0.00    -0.248 NA
ATOM     48  C   UNL A   1      42.555  29.877  27.093  1.00  0.00     0.031 C 
ATOM     49  C   UNL A   1      39.735  27.442  29.908  1.00  0.00     0.029 A 
ATOM     50  N   UNL A   1      40.452  29.506  30.040  1.00  0.00    -0.354 N 
ATOM     51  C   UNL A   1      44.255  30.630  28.426  1.00  0.00     0.074 A 
ATOM     52  C   UNL A   1      43.629  30.672  27.123  1.00  0.00     0.031 C 
ATOM     53  C   UNL A   1      38.735  28.154  30.488  1.00  0.00     0.029 A 
ATOM     54  C   UNL A   1      39.191  29.526  30.644  1.00  0.00     0.049 A 
ATOM     55  H   UNL A   1      41.040  30.295  30.022  1.00  0.00     0.167 HD
ATOM     56  C   UNL A   1      44.945  31.547  29.150  1.00  0.00     0.031 A 
ATOM     57  C   UNL A   1      38.653  30.432  31.512  1.00  0.00     0.031 A 
ATOM     58  C   UNL A   1      45.282  31.050  30.469  1.00  0.00     0.049 A 
ATOM     59  C   UNL A   1      39.792  31.119  32.159  1.00  0.00     0.074 A 
ATOM     60  C   UNL A   1      45.936  29.918  30.928  1.00  0.00     0.029 A 
ATOM     61  N   UNL A   1      44.534  31.504  31.534  1.00  0.00    -0.354 N 
ATOM     62  N   UNL A   1      40.555  30.560  33.053  1.00  0.00    -0.248 NA
ATOM     63  C   UNL A   1      40.331  32.304  31.516  1.00  0.00     0.031 C 
ATOM     64  C   UNL A   1      45.190  29.486  32.063  1.00  0.00     0.029 A 
ATOM     65  C   UNL A   1      44.178  30.417  32.298  1.00  0.00     0.049 A 
ATOM     66  H   UNL A   1      44.296  32.441  31.716  1.00  0.00     0.167 HD
ATOM     67  C   UNL A   1      41.824  31.030  32.759  1.00  0.00     0.074 A 
ATOM     68  C   UNL A   1      41.611  32.166  31.864  1.00  0.00     0.031 C 
ATOM     69  C   UNL A   1      42.938  30.301  33.049  1.00  0.00     0.031 A 
BRANCH  56  70
ATOM     70  C   UNL A   1      45.002  32.986  28.760  1.00  0.00    -0.014 A 
ATOM     71  C   UNL A   1      43.853  33.790  28.616  1.00  0.00     0.010 A 
ATOM     72  C   UNL A   1      46.253  33.620  28.691  1.00  0.00     0.010 A 
ATOM     73  C   UNL A   1      43.936  35.146  28.320  1.00  0.00     0.020 A 
ATOM     74  C   UNL A   1      46.348  34.993  28.448  1.00  0.00     0.020 A 
ATOM     75  C   UNL A   1      45.188  35.739  28.235  1.00  0.00     0.054 A 
BRANCH  75  76
ATOM     76  S   UNL A   1      45.260  37.504  27.870  1.00  0.00     0.124 S 
ATOM     77  O   UNL A   1      43.854  37.887  27.981  1.00  0.00    -0.237 OA
ATOM     78  O   UNL A   1      46.136  38.005  28.924  1.00  0.00    -0.237 OA
ATOM     79  O   UNL A   1      45.815  37.550  26.520  1.00  0.00    -0.744 OA
ENDBRANCH  75  76
ENDBRANCH  56  70
BRANCH  57  80
ATOM     80  C   UNL A   1      37.321  31.109  31.414  1.00  0.00    -0.014 A 
ATOM     81  C   UNL A   1      37.006  31.942  30.327  1.00  0.00     0.010 A 
ATOM     82  C   UNL A   1      36.475  31.169  32.549  1.00  0.00     0.010 A 
ATOM     83  C   UNL A   1      35.989  32.903  30.425  1.00  0.00     0.020 A 
ATOM     84  C   UNL A   1      35.460  32.134  32.657  1.00  0.00     0.020 A 
ATOM     85  C   UNL A   1      35.263  33.034  31.611  1.00  0.00     0.054 A 
BRANCH  85  86
ATOM     86  S   UNL A   1      34.160  34.468  31.801  1.00  0.00     0.124 S 
ATOM     87  O   UNL A   1      33.246  34.007  32.842  1.00  0.00    -0.237 OA
ATOM     88  O   UNL A   1      35.082  35.527  32.203  1.00  0.00    -0.237 OA
ATOM     89  O   UNL A   1      33.567  34.631  30.477  1.00  0.00    -0.744 OA
ENDBRANCH  85  86
ENDBRANCH  57  80
BRANCH  69  90
ATOM     90  C   UNL A   1      42.846  29.136  34.021  1.00  0.00    -0.014 A 
ATOM     91  C   UNL A   1      42.330  27.929  33.510  1.00  0.00     0.010 A 
ATOM     92  C   UNL A   1      43.066  29.223  35.411  1.00  0.00     0.010 A 
ATOM     93  C   UNL A   1      41.985  26.870  34.351  1.00  0.00     0.020 A 
ATOM     94  C   UNL A   1      42.749  28.148  36.262  1.00  0.00     0.020 A 
ATOM     95  C   UNL A   1      42.179  26.991  35.727  1.00  0.00     0.054 A 
BRANCH  95  96
ATOM     96  S   UNL A   1      41.633  25.619  36.783  1.00  0.00     0.124 S 
ATOM     97  O   UNL A   1      40.537  26.227  37.536  1.00  0.00    -0.237 OA
ATOM     98  O   UNL A   1      41.229  24.604  35.811  1.00  0.00    -0.237 OA
ATOM     99  O   UNL A   1      42.815  25.283  37.571  1.00  0.00    -0.744 OA
ENDBRANCH  95  96
ENDBRANCH  69  90
ENDBRANCH  43  44
ENDBRANCH  36  38
ENDBRANCH  35  36
ENDBRANCH  34  35
ENDBRANCH  33  34
ENDBRANCH  32  33
ENDBRANCH  31  32
ENDBRANCH   1  31
TORSDOF 24
ENDMDL
MODEL 2
REMARK VINA RESULT:     -10.5      1.240      3.137
REMARK SMILES COc1cc2c(CC(=O)OCCOCCOCCOC(=O)c3ccc(-c4c5nc(c(-c6ccc(S(=O)(=O)[O-])cc6)c6ccc([nH]6)c(-c6ccc(S(=O)(=O)[O-])cc6)c6nc(c(-c7ccc(S(=O)(=O)[O-])cc7)c7ccc4[nH]7)C=C6)C=C5)cc3)c(C)n(C(=O)c3ccc(Cl)cc3)c2cc1Cl
REMARK SMILES IDX 14 1 13 2 12 3 11 4 10 5 8 6 9 7 7 8 6 9 3 10 4 11 96 12
REMARK SMILES IDX 5 13 95 14 97 15 94 16 82 17 84 18 83 19 2 20 1 21 85 22
REMARK SMILES IDX 86 23 87 24 88 25 93 26 89 27 92 28 90 29 91 30 15 31 16 32
REMARK SMILES IDX 17 33 18 34 19 35 20 36 21 37 22 38 23 39 81 40 24 41 80 42
REMARK SMILES IDX 25 43 26 44 27 45 74 46 28 47 79 48 73 49 75 50 29 51 78 52
REMARK SMILES IDX 72 53 71 54 30 56 60 57 41 58 59 59 42 60 45 61 58 62 76 63
REMARK SMILES IDX 43 64 44 65 57 67 77 68 46 69 31 70 32 71 40 72 33 73 39 74
REMARK SMILES IDX 34 75 35 76 36 77 37 78 38 79 61 80 62 81 70 82 63 83 69 84
REMARK SMILES IDX 64 85 65 86 66 87 67 88 68 89 47 90 48 91 56 92 49 93 55 94
REMARK SMILES IDX 50 95 51 96 52 97 53 98 54 99
REMARK H PARENT 75 55 45 66
REMARK Flexibility Score: inf
ROOT
ATOM      1  C   UNL A   1      37.401  23.296  25.009  1.00  0.00     0.188 C 
ENDROOT
BRANCH   1   2
ATOM      2  O   UNL A   1      36.080  23.512  24.573  1.00  0.00    -0.376 OA
BRANCH   2   3
ATOM      3  C   UNL A   1      35.733  22.918  23.331  1.00  0.00     0.202 C 
BRANCH   3   4
ATOM      4  C   UNL A   1      34.233  22.885  22.989  1.00  0.00     0.261 C 
BRANCH   4   5
ATOM      5  O   UNL A   1      33.839  24.005  22.138  1.00  0.00    -0.463 OA
BRANCH   5   6
ATOM      6  C   UNL A   1      32.548  24.418  22.254  1.00  0.00     0.310 C 
ATOM      7  O   UNL A   1      31.655  23.650  22.603  1.00  0.00    -0.252 OA
BRANCH   6   8
ATOM      8  C   UNL A   1      32.307  25.935  22.197  1.00  0.00     0.160 C 
BRANCH   8   9
ATOM      9  C   UNL A   1      31.814  26.808  23.340  1.00  0.00    -0.008 A 
ATOM     10  C   UNL A   1      29.199  29.613  22.502  1.00  0.00     0.138 A 
ATOM     11  C   UNL A   1      29.825  28.348  22.479  1.00  0.00     0.058 A 
ATOM     12  C   UNL A   1      29.512  30.432  23.555  1.00  0.00     0.085 A 
ATOM     13  C   UNL A   1      30.851  27.889  23.326  1.00  0.00     0.008 A 
ATOM     14  C   UNL A   1      30.437  29.979  24.519  1.00  0.00     0.051 A 
ATOM     15  Cl  UNL A   1      28.726  31.937  23.875  1.00  0.00    -0.080 Cl
ATOM     16  C   UNL A   1      31.085  28.707  24.422  1.00  0.00     0.058 A 
ATOM     17  C   UNL A   1      32.523  26.966  24.525  1.00  0.00     0.028 A 
ATOM     18  N   UNL A   1      31.911  27.965  25.283  1.00  0.00    -0.280 N 
ATOM     19  C   UNL A   1      33.760  26.218  24.907  1.00  0.00     0.065 C 
BRANCH  10  20
ATOM     20  O   UNL A   1      28.353  29.781  21.448  1.00  0.00    -0.495 OA
ATOM     21  C   UNL A   1      28.242  30.981  20.698  1.00  0.00     0.278 C 
ENDBRANCH  10  20
BRANCH  18  22
ATOM     22  C   UNL A   1      32.012  28.180  26.677  1.00  0.00     0.262 C 
ATOM     23  O   UNL A   1      31.257  27.594  27.454  1.00  0.00    -0.268 OA
BRANCH  22  24
ATOM     24  C   UNL A   1      32.951  29.159  27.237  1.00  0.00     0.040 A 
ATOM     25  C   UNL A   1      32.568  30.508  27.276  1.00  0.00     0.015 A 
ATOM     26  C   UNL A   1      34.273  28.766  27.458  1.00  0.00     0.015 A 
ATOM     27  C   UNL A   1      33.542  31.483  27.475  1.00  0.00     0.021 A 
ATOM     28  C   UNL A   1      35.242  29.752  27.645  1.00  0.00     0.021 A 
ATOM     29  C   UNL A   1      34.876  31.102  27.638  1.00  0.00     0.041 A 
ATOM     30  Cl  UNL A   1      36.093  32.312  27.760  1.00  0.00    -0.084 Cl
ENDBRANCH  22  24
ENDBRANCH  18  22
ENDBRANCH   8   9
ENDBRANCH   6   8
ENDBRANCH   5   6
ENDBRANCH   4   5
ENDBRANCH   3   4
ENDBRANCH   2   3
ENDBRANCH   1   2
BRANCH   1  31
ATOM     31  C   UNL A   1      37.887  21.845  25.084  1.00  0.00     0.188 C 
BRANCH  31  32
ATOM     32  O   UNL A   1      38.467  21.334  26.255  1.00  0.00    -0.376 OA
BRANCH  32  33
ATOM     33  C   UNL A   1      39.650  21.976  26.696  1.00  0.00     0.202 C 
BRANCH  33  34
ATOM     34  C   UNL A   1      40.978  21.803  25.898  1.00  0.00     0.261 C 
BRANCH  34  35
ATOM     35  O   UNL A   1      42.200  21.860  26.699  1.00  0.00    -0.460 OA
BRANCH  35  36
ATOM     36  C   UNL A   1      43.119  22.831  26.385  1.00  0.00     0.338 C 
ATOM     37  O   UNL A   1      44.041  22.669  25.598  1.00  0.00    -0.246 OA
BRANCH  36  38
ATOM     38  C   UNL A   1      42.643  24.211  26.803  1.00  0.00     0.060 A 
ATOM     39  C   UNL A   1      42.134  25.223  25.998  1.00  0.00     0.016 A 
ATOM     40  C   UNL A   1      42.818  24.526  28.151  1.00  0.00     0.016 A 
ATOM     41  C   UNL A   1      41.949  26.531  26.543  1.00  0.00     0.010 A 
ATOM     42  C   UNL A   1      42.658  25.803  28.699  1.00  0.00     0.010 A 
ATOM     43  C   UNL A   1      42.277  26.854  27.888  1.00  0.00    -0.014 A 
BRANCH  43  44
ATOM     44  C   UNL A   1      41.842  28.107  28.562  1.00  0.00     0.031 A 
ATOM     45  C   UNL A   1      42.805  29.173  28.270  1.00  0.00     0.074 A 
ATOM     46  C   UNL A   1      40.757  28.514  29.271  1.00  0.00     0.049 A 
ATOM     47  N   UNL A   1      43.837  29.384  29.005  1.00  0.00    -0.248 NA
ATOM     48  C   UNL A   1      42.777  29.903  27.002  1.00  0.00     0.031 C 
ATOM     49  C   UNL A   1      39.565  27.778  29.643  1.00  0.00     0.029 A 
ATOM     50  N   UNL A   1      40.504  29.746  29.839  1.00  0.00    -0.354 N 
ATOM     51  C   UNL A   1      44.483  30.445  28.425  1.00  0.00     0.074 A 
ATOM     52  C   UNL A   1      43.931  30.571  27.095  1.00  0.00     0.031 C 
ATOM     53  C   UNL A   1      38.625  28.593  30.185  1.00  0.00     0.029 A 
ATOM     54  C   UNL A   1      39.224  29.904  30.383  1.00  0.00     0.049 A 
ATOM     55  H   UNL A   1      41.177  30.463  29.862  1.00  0.00     0.167 HD
ATOM     56  C   UNL A   1      45.236  31.271  29.195  1.00  0.00     0.031 A 
ATOM     57  C   UNL A   1      38.751  30.856  31.238  1.00  0.00     0.031 A 
ATOM     58  C   UNL A   1      45.451  30.727  30.521  1.00  0.00     0.049 A 
ATOM     59  C   UNL A   1      39.927  31.403  31.949  1.00  0.00     0.074 A 
ATOM     60  C   UNL A   1      45.949  29.524  30.993  1.00  0.00     0.029 A 
ATOM     61  N   UNL A   1      44.707  31.253  31.555  1.00  0.00    -0.354 N 
ATOM     62  N   UNL A   1      40.577  30.753  32.869  1.00  0.00    -0.248 NA
ATOM     63  C   UNL A   1      40.628  32.525  31.349  1.00  0.00     0.031 C 
ATOM     64  C   UNL A   1      45.104  29.169  32.085  1.00  0.00     0.029 A 
ATOM     65  C   UNL A   1      44.193  30.206  32.286  1.00  0.00     0.049 A 
ATOM     66  H   UNL A   1      44.568  32.210  31.740  1.00  0.00     0.167 HD
ATOM     67  C   UNL A   1      41.904  31.078  32.643  1.00  0.00     0.074 A 
ATOM     68  C   UNL A   1      41.865  32.239  31.756  1.00  0.00     0.031 C 
ATOM     69  C   UNL A   1      42.914  30.225  32.974  1.00  0.00     0.031 A 
BRANCH  56  70
ATOM     70  C   UNL A   1      45.475  32.698  28.829  1.00  0.00    -0.014 A 
ATOM     71  C   UNL A   1      44.636  33.419  27.954  1.00  0.00     0.010 A 
ATOM     72  C   UNL A   1      46.478  33.413  29.504  1.00  0.00     0.010 A 
ATOM     73  C   UNL A   1      44.840  34.767  27.684  1.00  0.00     0.020 A 
ATOM     74  C   UNL A   1      46.657  34.781  29.282  1.00  0.00     0.020 A 
ATOM     75  C   UNL A   1      45.854  35.440  28.350  1.00  0.00     0.054 A 
BRANCH  75  76
ATOM     76  S   UNL A   1      46.078  37.193  27.991  1.00  0.00     0.124 S 
ATOM     77  O   UNL A   1      46.901  37.146  26.785  1.00  0.00    -0.237 OA
ATOM     78  O   UNL A   1      44.705  37.650  27.800  1.00  0.00    -0.237 OA
ATOM     79  O   UNL A   1      46.746  37.702  29.185  1.00  0.00    -0.744 OA
ENDBRANCH  75  76
ENDBRANCH  56  70
BRANCH  57  80
ATOM     80  C   UNL A   1      37.511  31.681  31.087  1.00  0.00    -0.014 A 
ATOM     81  C   UNL A   1      37.562  32.984  30.562  1.00  0.00     0.010 A 
ATOM     82  C   UNL A   1      36.318  31.288  31.742  1.00  0.00     0.010 A 
ATOM     83  C   UNL A   1      36.534  33.905  30.816  1.00  0.00     0.020 A 
ATOM     84  C   UNL A   1      35.288  32.207  32.006  1.00  0.00     0.020 A 
ATOM     85  C   UNL A   1      35.432  33.528  31.587  1.00  0.00     0.054 A 
BRANCH  85  86
ATOM     86  S   UNL A   1      34.272  34.818  32.133  1.00  0.00     0.124 S 
ATOM     87  O   UNL A   1      35.119  35.639  32.993  1.00  0.00    -0.237 OA
ATOM     88  O   UNL A   1      33.872  35.440  30.873  1.00  0.00    -0.237 OA
ATOM     89  O   UNL A   1      33.218  34.074  32.818  1.00  0.00    -0.744 OA
ENDBRANCH  85  86
ENDBRANCH  57  80
BRANCH  69  90
ATOM     90  C   UNL A   1      42.643  29.069  33.924  1.00  0.00    -0.014 A 
ATOM     91  C   UNL A   1      42.709  29.358  35.301  1.00  0.00     0.010 A 
ATOM     92  C   UNL A   1      42.510  27.719  33.538  1.00  0.00     0.010 A 
ATOM     93  C   UNL A   1      42.707  28.342  36.260  1.00  0.00     0.020 A 
ATOM     94  C   UNL A   1      42.476  26.692  34.500  1.00  0.00     0.020 A 
ATOM     95  C   UNL A   1      42.609  27.012  35.854  1.00  0.00     0.054 A 
BRANCH  95  96
ATOM     96  S   UNL A   1      42.699  25.727  37.133  1.00  0.00     0.124 S 
ATOM     97  O   UNL A   1      43.690  24.807  36.578  1.00  0.00    -0.237 OA
ATOM     98  O   UNL A   1      43.137  26.474  38.311  1.00  0.00    -0.237 OA
ATOM     99  O   UNL A   1      41.338  25.202  37.207  1.00  0.00    -0.744 OA
ENDBRANCH  95  96
ENDBRANCH  69  90
ENDBRANCH  43  44
ENDBRANCH  36  38
ENDBRANCH  35  36
ENDBRANCH  34  35
ENDBRANCH  33  34
ENDBRANCH  32  33
ENDBRANCH  31  32
ENDBRANCH   1  31
TORSDOF 24
ENDMDL
MODEL 3
REMARK VINA RESULT:      -9.7      3.722     10.253
REMARK SMILES COc1cc2c(CC(=O)OCCOCCOCCOC(=O)c3ccc(-c4c5nc(c(-c6ccc(S(=O)(=O)[O-])cc6)c6ccc([nH]6)c(-c6ccc(S(=O)(=O)[O-])cc6)c6nc(c(-c7ccc(S(=O)(=O)[O-])cc7)c7ccc4[nH]7)C=C6)C=C5)cc3)c(C)n(C(=O)c3ccc(Cl)cc3)c2cc1Cl
REMARK SMILES IDX 14 1 13 2 12 3 11 4 10 5 8 6 9 7 7 8 6 9 3 10 4 11 96 12
REMARK SMILES IDX 5 13 95 14 97 15 94 16 82 17 84 18 83 19 2 20 1 21 85 22
REMARK SMILES IDX 86 23 87 24 88 25 93 26 89 27 92 28 90 29 91 30 15 31 16 32
REMARK SMILES IDX 17 33 18 34 19 35 20 36 21 37 22 38 23 39 81 40 24 41 80 42
REMARK SMILES IDX 25 43 26 44 27 45 74 46 28 47 79 48 73 49 75 50 29 51 78 52
REMARK SMILES IDX 72 53 71 54 30 56 60 57 41 58 59 59 42 60 45 61 58 62 76 63
REMARK SMILES IDX 43 64 44 65 57 67 77 68 46 69 31 70 32 71 40 72 33 73 39 74
REMARK SMILES IDX 34 75 35 76 36 77 37 78 38 79 61 80 62 81 70 82 63 83 69 84
REMARK SMILES IDX 64 85 65 86 66 87 67 88 68 89 47 90 48 91 56 92 49 93 55 94
REMARK SMILES IDX 50 95 51 96 52 97 53 98 54 99
REMARK H PARENT 75 55 45 66
REMARK Flexibility Score: inf
ROOT
ATOM      1  C   UNL A   1      33.977  32.174  28.422  1.00  0.00     0.188 C 
ENDROOT
BRANCH   1   2
ATOM      2  O   UNL A   1      34.369  31.422  27.298  1.00  0.00    -0.376 OA
BRANCH   2   3
ATOM      3  C   UNL A   1      34.181  30.019  27.397  1.00  0.00     0.202 C 
BRANCH   3   4
ATOM      4  C   UNL A   1      34.408  29.211  26.106  1.00  0.00     0.261 C 
BRANCH   4   5
ATOM      5  O   UNL A   1      33.204  28.497  25.686  1.00  0.00    -0.463 OA
BRANCH   5   6
ATOM      6  C   UNL A   1      33.101  27.205  26.099  1.00  0.00     0.310 C 
ATOM      7  O   UNL A   1      32.311  26.873  26.980  1.00  0.00    -0.252 OA
BRANCH   6   8
ATOM      8  C   UNL A   1      33.810  26.152  25.235  1.00  0.00     0.160 C 
BRANCH   8   9
ATOM      9  C   UNL A   1      33.706  24.643  25.396  1.00  0.00    -0.008 A 
ATOM     10  C   UNL A   1      37.047  22.591  25.601  1.00  0.00     0.138 A 
ATOM     11  C   UNL A   1      36.126  23.635  25.841  1.00  0.00     0.058 A 
ATOM     12  C   UNL A   1      36.527  21.409  25.144  1.00  0.00     0.085 A 
ATOM     13  C   UNL A   1      34.756  23.653  25.516  1.00  0.00     0.008 A 
ATOM     14  C   UNL A   1      35.137  21.316  24.924  1.00  0.00     0.051 A 
ATOM     15  Cl  UNL A   1      37.444  19.957  24.964  1.00  0.00    -0.080 Cl
ATOM     16  C   UNL A   1      34.251  22.420  25.131  1.00  0.00     0.058 A 
ATOM     17  C   UNL A   1      32.568  23.926  25.046  1.00  0.00     0.028 A 
ATOM     18  N   UNL A   1      32.854  22.563  25.131  1.00  0.00    -0.280 N 
ATOM     19  C   UNL A   1      31.266  24.518  24.611  1.00  0.00     0.065 C 
BRANCH  10  20
ATOM     20  O   UNL A   1      38.323  22.960  25.902  1.00  0.00    -0.495 OA
ATOM     21  C   UNL A   1      38.666  24.149  26.598  1.00  0.00     0.278 C 
ENDBRANCH  10  20
BRANCH  18  22
ATOM     22  C   UNL A   1      31.939  21.494  25.272  1.00  0.00     0.262 C 
ATOM     23  O   UNL A   1      30.915  21.634  25.942  1.00  0.00    -0.268 OA
BRANCH  22  24
ATOM     24  C   UNL A   1      32.213  20.169  24.703  1.00  0.00     0.040 A 
ATOM     25  C   UNL A   1      32.729  19.172  25.544  1.00  0.00     0.015 A 
ATOM     26  C   UNL A   1      32.209  20.025  23.314  1.00  0.00     0.015 A 
ATOM     27  C   UNL A   1      33.310  18.040  24.977  1.00  0.00     0.021 A 
ATOM     28  C   UNL A   1      32.803  18.893  22.755  1.00  0.00     0.021 A 
ATOM     29  C   UNL A   1      33.362  17.917  23.586  1.00  0.00     0.041 A 
ATOM     30  Cl  UNL A   1      34.189  16.579  22.887  1.00  0.00    -0.084 Cl
ENDBRANCH  22  24
ENDBRANCH  18  22
ENDBRANCH   8   9
ENDBRANCH   6   8
ENDBRANCH   5   6
ENDBRANCH   4   5
ENDBRANCH   3   4
ENDBRANCH   2   3
ENDBRANCH   1   2
BRANCH   1  31
ATOM     31  C   UNL A   1      33.505  33.611  28.176  1.00  0.00     0.188 C 
BRANCH  31  32
ATOM     32  O   UNL A   1      32.880  34.353  29.190  1.00  0.00    -0.376 OA
BRANCH  32  33
ATOM     33  C   UNL A   1      33.307  35.696  29.333  1.00  0.00     0.202 C 
BRANCH  33  34
ATOM     34  C   UNL A   1      33.025  36.469  30.656  1.00  0.00     0.261 C 
BRANCH  34  35
ATOM     35  O   UNL A   1      33.913  36.142  31.772  1.00  0.00    -0.460 OA
BRANCH  35  36
ATOM     36  C   UNL A   1      33.702  34.950  32.421  1.00  0.00     0.338 C 
ATOM     37  O   UNL A   1      32.596  34.512  32.702  1.00  0.00    -0.246 OA
BRANCH  36  38
ATOM     38  C   UNL A   1      34.939  34.071  32.395  1.00  0.00     0.060 A 
ATOM     39  C   UNL A   1      35.017  32.694  32.570  1.00  0.00     0.016 A 
ATOM     40  C   UNL A   1      36.155  34.743  32.259  1.00  0.00     0.016 A 
ATOM     41  C   UNL A   1      36.296  32.076  32.733  1.00  0.00     0.010 A 
ATOM     42  C   UNL A   1      37.414  34.159  32.432  1.00  0.00     0.010 A 
ATOM     43  C   UNL A   1      37.510  32.815  32.736  1.00  0.00    -0.014 A 
BRANCH  43  44
ATOM     44  C   UNL A   1      38.854  32.189  32.621  1.00  0.00     0.031 A 
ATOM     45  C   UNL A   1      39.493  32.168  33.940  1.00  0.00     0.074 A 
ATOM     46  C   UNL A   1      39.564  31.561  31.648  1.00  0.00     0.049 A 
ATOM     47  N   UNL A   1      40.215  33.142  34.366  1.00  0.00    -0.248 NA
ATOM     48  C   UNL A   1      39.159  31.151  34.938  1.00  0.00     0.031 C 
ATOM     49  C   UNL A   1      39.204  31.288  30.270  1.00  0.00     0.029 A 
ATOM     50  N   UNL A   1      40.832  31.021  31.709  1.00  0.00    -0.354 N 
ATOM     51  C   UNL A   1      40.634  32.762  35.615  1.00  0.00     0.074 A 
ATOM     52  C   UNL A   1      39.783  31.660  36.004  1.00  0.00     0.031 C 
ATOM     53  C   UNL A   1      40.108  30.470  29.673  1.00  0.00     0.029 A 
ATOM     54  C   UNL A   1      41.236  30.307  30.576  1.00  0.00     0.049 A 
ATOM     55  H   UNL A   1      41.414  31.133  32.496  1.00  0.00     0.167 HD
ATOM     56  C   UNL A   1      41.809  33.237  36.099  1.00  0.00     0.031 A 
ATOM     57  C   UNL A   1      42.483  29.897  30.200  1.00  0.00     0.031 A 
ATOM     58  C   UNL A   1      42.331  34.317  35.286  1.00  0.00     0.049 A 
ATOM     59  C   UNL A   1      43.441  30.786  30.892  1.00  0.00     0.074 A 
ATOM     60  C   UNL A   1      41.809  35.522  34.843  1.00  0.00     0.029 A 
ATOM     61  N   UNL A   1      43.372  34.027  34.430  1.00  0.00    -0.354 N 
ATOM     62  N   UNL A   1      43.637  32.028  30.561  1.00  0.00    -0.248 NA
ATOM     63  C   UNL A   1      43.895  30.402  32.218  1.00  0.00     0.031 C 
ATOM     64  C   UNL A   1      42.241  35.646  33.491  1.00  0.00     0.029 A 
ATOM     65  C   UNL A   1      43.075  34.566  33.199  1.00  0.00     0.049 A 
ATOM     66  H   UNL A   1      44.186  33.523  34.659  1.00  0.00     0.167 HD
ATOM     67  C   UNL A   1      43.806  32.680  31.771  1.00  0.00     0.074 A 
ATOM     68  C   UNL A   1      44.044  31.618  32.746  1.00  0.00     0.031 C 
ATOM     69  C   UNL A   1      43.475  33.994  31.925  1.00  0.00     0.031 A 
BRANCH  56  70
ATOM     70  C   UNL A   1      42.615  32.487  37.106  1.00  0.00    -0.014 A 
ATOM     71  C   UNL A   1      43.449  31.401  36.769  1.00  0.00     0.010 A 
ATOM     72  C   UNL A   1      42.682  32.974  38.421  1.00  0.00     0.010 A 
ATOM     73  C   UNL A   1      44.243  30.761  37.714  1.00  0.00     0.020 A 
ATOM     74  C   UNL A   1      43.518  32.373  39.366  1.00  0.00     0.020 A 
ATOM     75  C   UNL A   1      44.270  31.253  39.012  1.00  0.00     0.054 A 
BRANCH  75  76
ATOM     76  S   UNL A   1      45.327  30.413  40.208  1.00  0.00     0.124 S 
ATOM     77  O   UNL A   1      44.342  29.826  41.112  1.00  0.00    -0.237 OA
ATOM     78  O   UNL A   1      46.057  29.467  39.369  1.00  0.00    -0.237 OA
ATOM     79  O   UNL A   1      46.128  31.495  40.773  1.00  0.00    -0.744 OA
ENDBRANCH  75  76
ENDBRANCH  56  70
BRANCH  57  80
ATOM     80  C   UNL A   1      42.900  28.525  29.773  1.00  0.00    -0.014 A 
ATOM     81  C   UNL A   1      43.159  27.515  30.715  1.00  0.00     0.010 A 
ATOM     82  C   UNL A   1      43.333  28.302  28.442  1.00  0.00     0.010 A 
ATOM     83  C   UNL A   1      43.951  26.404  30.384  1.00  0.00     0.020 A 
ATOM     84  C   UNL A   1      44.132  27.196  28.105  1.00  0.00     0.020 A 
ATOM     85  C   UNL A   1      44.482  26.284  29.098  1.00  0.00     0.054 A 
BRANCH  85  86
ATOM     86  S   UNL A   1      45.728  24.995  28.791  1.00  0.00     0.124 S 
ATOM     87  O   UNL A   1      44.985  23.778  29.104  1.00  0.00    -0.237 OA
ATOM     88  O   UNL A   1      46.045  25.188  27.378  1.00  0.00    -0.237 OA
ATOM     89  O   UNL A   1      46.808  25.323  29.718  1.00  0.00    -0.744 OA
ENDBRANCH  85  86
ENDBRANCH  57  80
BRANCH  69  90
ATOM     90  C   UNL A   1      43.263  34.867  30.698  1.00  0.00    -0.014 A 
ATOM     91  C   UNL A   1      44.242  35.849  30.449  1.00  0.00     0.010 A 
ATOM     92  C   UNL A   1      42.095  34.884  29.910  1.00  0.00     0.010 A 
ATOM     93  C   UNL A   1      44.042  36.851  29.497  1.00  0.00     0.020 A 
ATOM     94  C   UNL A   1      41.900  35.872  28.926  1.00  0.00     0.020 A 
ATOM     95  C   UNL A   1      42.863  36.869  28.752  1.00  0.00     0.054 A 
BRANCH  95  96
ATOM     96  S   UNL A   1      42.616  38.242  27.591  1.00  0.00     0.124 S 
ATOM     97  O   UNL A   1      43.988  38.574  27.210  1.00  0.00    -0.237 OA
ATOM     98  O   UNL A   1      41.810  37.631  26.535  1.00  0.00    -0.237 OA
ATOM     99  O   UNL A   1      41.928  39.259  28.381  1.00  0.00    -0.744 OA
ENDBRANCH  95  96
ENDBRANCH  69  90
ENDBRANCH  43  44
ENDBRANCH  36  38
ENDBRANCH  35  36
ENDBRANCH  34  35
ENDBRANCH  33  34
ENDBRANCH  32  33
ENDBRANCH  31  32
ENDBRANCH   1  31
TORSDOF 24
ENDMDL
