MODEL 1
REMARK VINA RESULT:     -10.1      0.000      0.000
REMARK SMILES C[C@](Nc1ccc(C(N)=O)nn1)(C(=O)OCCOCCOCCOC(=O)c1ccc(-c2c3nc(c(-c4ccc(S(=O)(=O)[O-])cc4)c4ccc([nH]4)c(-c4ccc(S(=O)(=O)[O-])cc4)c4nc(c(-c5ccc(S(=O)(=O)[O-])cc5)c5ccc2[nH]5)C=C4)C=C3)cc1)c1ccccc1
REMARK SMILES IDX 19 1 18 2 17 3 16 4 15 5 13 6 14 7 2 8 1 9 87 10 88 11 92 12
REMARK SMILES IDX 89 13 91 14 90 15 3 16 4 18 5 19 12 20 6 21 11 22 7 23 8 24
REMARK SMILES IDX 9 25 10 26 20 29 21 30 22 31 23 32 24 33 25 34 26 35 27 36
REMARK SMILES IDX 28 37 86 38 29 39 85 40 30 41 31 42 32 43 79 44 33 45 84 46
REMARK SMILES IDX 78 47 80 48 34 49 83 50 77 51 76 52 35 54 65 55 46 56 64 57
REMARK SMILES IDX 47 58 50 59 63 60 81 61 48 62 49 63 62 65 82 66 51 67 36 68
REMARK SMILES IDX 37 69 45 70 38 71 44 72 39 73 40 74 41 75 42 76 43 77 66 78
REMARK SMILES IDX 67 79 75 80 68 81 74 82 69 83 70 84 71 85 72 86 73 87 52 88
REMARK SMILES IDX 53 89 61 90 54 91 60 92 55 93 56 94 57 95 58 96 59 97
REMARK H PARENT 3 17 9 27 9 28 80 53 50 64
REMARK Flexibility Score: inf
ROOT
ATOM      1  C   UNL A   1      31.783  26.769  26.153  1.00  0.00     0.188 C 
ENDROOT
BRANCH   1   2
ATOM      2  O   UNL A   1      31.408  25.561  26.794  1.00  0.00    -0.376 OA
BRANCH   2   3
ATOM      3  C   UNL A   1      30.353  24.790  26.238  1.00  0.00     0.202 C 
BRANCH   3   4
ATOM      4  C   UNL A   1      30.609  23.358  25.724  1.00  0.00     0.261 C 
BRANCH   4   5
ATOM      5  O   UNL A   1      31.722  22.620  26.289  1.00  0.00    -0.461 OA
BRANCH   5   6
ATOM      6  C   UNL A   1      32.110  21.516  25.585  1.00  0.00     0.336 C 
ATOM      7  O   UNL A   1      31.305  20.791  24.999  1.00  0.00    -0.249 OA
BRANCH   6   8
ATOM      8  C   UNL A   1      33.655  21.178  25.624  1.00  0.00     0.160 C 
ATOM      9  C   UNL A   1      34.017  21.465  27.096  1.00  0.00     0.053 C 
BRANCH   8  10
ATOM     10  C   UNL A   1      33.802  19.685  25.227  1.00  0.00    -0.012 A 
ATOM     11  C   UNL A   1      34.937  19.189  24.564  1.00  0.00     0.007 A 
ATOM     12  C   UNL A   1      32.824  18.740  25.607  1.00  0.00     0.007 A 
ATOM     13  C   UNL A   1      35.097  17.822  24.314  1.00  0.00     0.000 A 
ATOM     14  C   UNL A   1      32.997  17.373  25.381  1.00  0.00     0.000 A 
ATOM     15  C   UNL A   1      34.134  16.912  24.733  1.00  0.00     0.000 A 
ENDBRANCH   8  10
BRANCH   8  16
ATOM     16  N   UNL A   1      34.518  21.951  24.685  1.00  0.00    -0.350 N 
ATOM     17  H   UNL A   1      35.395  21.551  24.485  1.00  0.00     0.163 HD
BRANCH  16  18
ATOM     18  C   UNL A   1      34.251  23.146  24.065  1.00  0.00     0.149 A 
ATOM     19  C   UNL A   1      34.514  24.370  24.658  1.00  0.00     0.051 A 
ATOM     20  N   UNL A   1      33.794  23.115  22.794  1.00  0.00    -0.132 NA
ATOM     21  C   UNL A   1      34.228  25.555  23.984  1.00  0.00     0.040 A 
ATOM     22  N   UNL A   1      33.496  24.281  22.107  1.00  0.00    -0.143 NA
ATOM     23  C   UNL A   1      33.700  25.470  22.713  1.00  0.00     0.150 A 
BRANCH  23  24
ATOM     24  C   UNL A   1      33.327  26.705  21.968  1.00  0.00     0.269 C 
ATOM     25  N   UNL A   1      32.004  26.864  21.655  1.00  0.00    -0.364 N 
ATOM     26  O   UNL A   1      34.159  27.547  21.649  1.00  0.00    -0.268 OA
ATOM     27  H   UNL A   1      31.351  26.177  21.918  1.00  0.00     0.160 HD
ATOM     28  H   UNL A   1      31.708  27.664  21.166  1.00  0.00     0.160 HD
ENDBRANCH  23  24
ENDBRANCH  16  18
ENDBRANCH   8  16
ENDBRANCH   6   8
ENDBRANCH   5   6
ENDBRANCH   4   5
ENDBRANCH   3   4
ENDBRANCH   2   3
ENDBRANCH   1   2
BRANCH   1  29
ATOM     29  C   UNL A   1      30.909  27.293  24.999  1.00  0.00     0.188 C 
BRANCH  29  30
ATOM     30  O   UNL A   1      31.351  28.500  24.437  1.00  0.00    -0.376 OA
BRANCH  30  31
ATOM     31  C   UNL A   1      32.606  29.020  24.810  1.00  0.00     0.202 C 
BRANCH  31  32
ATOM     32  C   UNL A   1      32.774  30.054  25.938  1.00  0.00     0.261 C 
BRANCH  32  33
ATOM     33  O   UNL A   1      33.937  29.970  26.771  1.00  0.00    -0.460 OA
BRANCH  33  34
ATOM     34  C   UNL A   1      34.324  31.100  27.407  1.00  0.00     0.338 C 
ATOM     35  O   UNL A   1      33.629  32.077  27.651  1.00  0.00    -0.246 OA
BRANCH  34  36
ATOM     36  C   UNL A   1      35.677  30.876  27.960  1.00  0.00     0.060 A 
ATOM     37  C   UNL A   1      36.193  29.573  28.000  1.00  0.00     0.016 A 
ATOM     38  C   UNL A   1      36.440  31.949  28.428  1.00  0.00     0.016 A 
ATOM     39  C   UNL A   1      37.473  29.342  28.513  1.00  0.00     0.010 A 
ATOM     40  C   UNL A   1      37.712  31.711  28.956  1.00  0.00     0.010 A 
ATOM     41  C   UNL A   1      38.234  30.406  29.009  1.00  0.00    -0.014 A 
BRANCH  41  42
ATOM     42  C   UNL A   1      39.494  30.157  29.753  1.00  0.00     0.031 A 
ATOM     43  C   UNL A   1      40.360  29.011  29.317  1.00  0.00     0.074 A 
ATOM     44  C   UNL A   1      39.845  30.895  30.822  1.00  0.00     0.049 A 
ATOM     45  N   UNL A   1      41.407  28.490  29.902  1.00  0.00    -0.248 NA
ATOM     46  C   UNL A   1      39.989  28.367  28.048  1.00  0.00     0.031 C 
ATOM     47  C   UNL A   1      39.140  32.081  31.302  1.00  0.00     0.029 A 
ATOM     48  N   UNL A   1      40.877  30.729  31.716  1.00  0.00    -0.354 N 
ATOM     49  C   UNL A   1      41.804  27.437  29.088  1.00  0.00     0.074 A 
ATOM     50  C   UNL A   1      40.888  27.398  27.969  1.00  0.00     0.031 C 
ATOM     51  C   UNL A   1      39.739  32.515  32.426  1.00  0.00     0.029 A 
ATOM     52  C   UNL A   1      40.831  31.605  32.775  1.00  0.00     0.049 A 
ATOM     53  H   UNL A   1      41.581  30.049  31.607  1.00  0.00     0.167 HD
ATOM     54  C   UNL A   1      42.825  26.566  29.268  1.00  0.00     0.031 A 
ATOM     55  C   UNL A   1      41.546  31.636  33.920  1.00  0.00     0.031 A 
ATOM     56  C   UNL A   1      43.696  26.574  30.412  1.00  0.00     0.049 A 
ATOM     57  C   UNL A   1      42.612  30.593  34.159  1.00  0.00     0.074 A 
ATOM     58  C   UNL A   1      44.748  25.723  30.696  1.00  0.00     0.029 A 
ATOM     59  N   UNL A   1      43.597  27.461  31.475  1.00  0.00    -0.354 N 
ATOM     60  N   UNL A   1      42.984  29.602  33.384  1.00  0.00    -0.248 NA
ATOM     61  C   UNL A   1      43.353  30.669  35.428  1.00  0.00     0.031 C 
ATOM     62  C   UNL A   1      45.239  26.048  31.965  1.00  0.00     0.029 A 
ATOM     63  C   UNL A   1      44.548  27.156  32.433  1.00  0.00     0.049 A 
ATOM     64  H   UNL A   1      42.949  28.198  31.538  1.00  0.00     0.167 HD
ATOM     65  C   UNL A   1      44.019  28.957  34.055  1.00  0.00     0.074 A 
ATOM     66  C   UNL A   1      44.217  29.669  35.300  1.00  0.00     0.031 C 
ATOM     67  C   UNL A   1      44.743  27.876  33.669  1.00  0.00     0.031 A 
BRANCH  54  68
ATOM     68  C   UNL A   1      42.974  25.472  28.245  1.00  0.00    -0.014 A 
ATOM     69  C   UNL A   1      42.313  24.238  28.379  1.00  0.00     0.010 A 
ATOM     70  C   UNL A   1      43.824  25.676  27.143  1.00  0.00     0.010 A 
ATOM     71  C   UNL A   1      42.557  23.204  27.470  1.00  0.00     0.020 A 
ATOM     72  C   UNL A   1      44.044  24.659  26.212  1.00  0.00     0.020 A 
ATOM     73  C   UNL A   1      43.432  23.419  26.399  1.00  0.00     0.054 A 
BRANCH  73  74
ATOM     74  S   UNL A   1      43.763  22.050  25.257  1.00  0.00     0.124 S 
ATOM     75  O   UNL A   1      43.737  22.726  23.962  1.00  0.00    -0.237 OA
ATOM     76  O   UNL A   1      45.076  21.581  25.693  1.00  0.00    -0.237 OA
ATOM     77  O   UNL A   1      42.660  21.122  25.498  1.00  0.00    -0.744 OA
ENDBRANCH  73  74
ENDBRANCH  54  68
BRANCH  55  78
ATOM     78  C   UNL A   1      41.231  32.660  34.958  1.00  0.00    -0.014 A 
ATOM     79  C   UNL A   1      40.364  32.370  36.025  1.00  0.00     0.010 A 
ATOM     80  C   UNL A   1      41.830  33.933  34.896  1.00  0.00     0.010 A 
ATOM     81  C   UNL A   1      40.110  33.327  37.014  1.00  0.00     0.020 A 
ATOM     82  C   UNL A   1      41.603  34.882  35.897  1.00  0.00     0.020 A 
ATOM     83  C   UNL A   1      40.742  34.574  36.949  1.00  0.00     0.054 A 
BRANCH  83  84
ATOM     84  S   UNL A   1      40.471  35.763  38.294  1.00  0.00     0.124 S 
ATOM     85  O   UNL A   1      39.652  36.780  37.642  1.00  0.00    -0.237 OA
ATOM     86  O   UNL A   1      39.790  34.951  39.298  1.00  0.00    -0.237 OA
ATOM     87  O   UNL A   1      41.823  36.185  38.655  1.00  0.00    -0.744 OA
ENDBRANCH  83  84
ENDBRANCH  55  78
BRANCH  67  88
ATOM     88  C   UNL A   1      45.867  27.411  34.563  1.00  0.00    -0.014 A 
ATOM     89  C   UNL A   1      45.676  26.410  35.532  1.00  0.00     0.010 A 
ATOM     90  C   UNL A   1      47.166  27.905  34.339  1.00  0.00     0.010 A 
ATOM     91  C   UNL A   1      46.763  25.919  36.263  1.00  0.00     0.020 A 
ATOM     92  C   UNL A   1      48.259  27.396  35.046  1.00  0.00     0.020 A 
ATOM     93  C   UNL A   1      48.049  26.407  36.008  1.00  0.00     0.054 A 
BRANCH  93  94
ATOM     94  S   UNL A   1      49.454  25.689  36.905  1.00  0.00     0.124 S 
ATOM     95  O   UNL A   1      50.518  25.750  35.907  1.00  0.00    -0.237 OA
ATOM     96  O   UNL A   1      49.604  26.596  38.041  1.00  0.00    -0.237 OA
ATOM     97  O   UNL A   1      48.998  24.344  37.248  1.00  0.00    -0.744 OA
ENDBRANCH  93  94
ENDBRANCH  67  88
ENDBRANCH  41  42
ENDBRANCH  34  36
ENDBRANCH  33  34
ENDBRANCH  32  33
ENDBRANCH  31  32
ENDBRANCH  30  31
ENDBRANCH  29  30
ENDBRANCH   1  29
TORSDOF 24
ENDMDL
MODEL 2
REMARK VINA RESULT:      -8.8      2.417      3.057
REMARK SMILES C[C@](Nc1ccc(C(N)=O)nn1)(C(=O)OCCOCCOCCOC(=O)c1ccc(-c2c3nc(c(-c4ccc(S(=O)(=O)[O-])cc4)c4ccc([nH]4)c(-c4ccc(S(=O)(=O)[O-])cc4)c4nc(c(-c5ccc(S(=O)(=O)[O-])cc5)c5ccc2[nH]5)C=C4)C=C3)cc1)c1ccccc1
REMARK SMILES IDX 19 1 18 2 17 3 16 4 15 5 13 6 14 7 2 8 1 9 87 10 88 11 92 12
REMARK SMILES IDX 89 13 91 14 90 15 3 16 4 18 5 19 12 20 6 21 11 22 7 23 8 24
REMARK SMILES IDX 9 25 10 26 20 29 21 30 22 31 23 32 24 33 25 34 26 35 27 36
REMARK SMILES IDX 28 37 86 38 29 39 85 40 30 41 31 42 32 43 79 44 33 45 84 46
REMARK SMILES IDX 78 47 80 48 34 49 83 50 77 51 76 52 35 54 65 55 46 56 64 57
REMARK SMILES IDX 47 58 50 59 63 60 81 61 48 62 49 63 62 65 82 66 51 67 36 68
REMARK SMILES IDX 37 69 45 70 38 71 44 72 39 73 40 74 41 75 42 76 43 77 66 78
REMARK SMILES IDX 67 79 75 80 68 81 74 82 69 83 70 84 71 85 72 86 73 87 52 88
REMARK SMILES IDX 53 89 61 90 54 91 60 92 55 93 56 94 57 95 58 96 59 97
REMARK H PARENT 3 17 9 27 9 28 80 53 50 64
REMARK Flexibility Score: inf
ROOT
ATOM      1  C   UNL A   1      31.511  27.120  26.277  1.00  0.00     0.188 C 
ENDROOT
BRANCH   1   2
ATOM      2  O   UNL A   1      30.977  25.942  26.861  1.00  0.00    -0.376 OA
BRANCH   2   3
ATOM      3  C   UNL A   1      30.121  25.120  26.080  1.00  0.00     0.202 C 
BRANCH   3   4
ATOM      4  C   UNL A   1      30.664  23.859  25.379  1.00  0.00     0.261 C 
BRANCH   4   5
ATOM      5  O   UNL A   1      31.799  23.181  25.976  1.00  0.00    -0.461 OA
BRANCH   5   6
ATOM      6  C   UNL A   1      31.868  21.838  25.743  1.00  0.00     0.336 C 
ATOM      7  O   UNL A   1      30.864  21.127  25.679  1.00  0.00    -0.249 OA
BRANCH   6   8
ATOM      8  C   UNL A   1      33.324  21.229  25.630  1.00  0.00     0.160 C 
ATOM      9  C   UNL A   1      33.834  21.327  27.083  1.00  0.00     0.053 C 
BRANCH   8  10
ATOM     10  C   UNL A   1      33.167  19.770  25.124  1.00  0.00    -0.012 A 
ATOM     11  C   UNL A   1      33.105  18.671  25.998  1.00  0.00     0.007 A 
ATOM     12  C   UNL A   1      32.987  19.501  23.750  1.00  0.00     0.007 A 
ATOM     13  C   UNL A   1      32.854  17.378  25.527  1.00  0.00     0.000 A 
ATOM     14  C   UNL A   1      32.710  18.213  23.284  1.00  0.00     0.000 A 
ATOM     15  C   UNL A   1      32.644  17.150  24.173  1.00  0.00     0.000 A 
ENDBRANCH   8  10
BRANCH   8  16
ATOM     16  N   UNL A   1      34.246  21.909  24.677  1.00  0.00    -0.350 N 
ATOM     17  H   UNL A   1      35.168  21.567  24.658  1.00  0.00     0.163 HD
BRANCH  16  18
ATOM     18  C   UNL A   1      33.978  22.950  23.823  1.00  0.00     0.149 A 
ATOM     19  C   UNL A   1      34.377  24.251  24.083  1.00  0.00     0.051 A 
ATOM     20  N   UNL A   1      33.376  22.668  22.646  1.00  0.00    -0.132 NA
ATOM     21  C   UNL A   1      34.083  25.271  23.181  1.00  0.00     0.040 A 
ATOM     22  N   UNL A   1      33.068  23.668  21.737  1.00  0.00    -0.143 NA
ATOM     23  C   UNL A   1      33.408  24.943  22.024  1.00  0.00     0.150 A 
BRANCH  23  24
ATOM     24  C   UNL A   1      33.023  26.003  21.051  1.00  0.00     0.269 C 
ATOM     25  N   UNL A   1      32.579  27.189  21.570  1.00  0.00    -0.364 N 
ATOM     26  O   UNL A   1      33.101  25.832  19.840  1.00  0.00    -0.268 OA
ATOM     27  H   UNL A   1      32.522  27.308  22.546  1.00  0.00     0.160 HD
ATOM     28  H   UNL A   1      32.315  27.921  20.968  1.00  0.00     0.160 HD
ENDBRANCH  23  24
ENDBRANCH  16  18
ENDBRANCH   8  16
ENDBRANCH   6   8
ENDBRANCH   5   6
ENDBRANCH   4   5
ENDBRANCH   3   4
ENDBRANCH   2   3
ENDBRANCH   1   2
BRANCH   1  29
ATOM     29  C   UNL A   1      31.093  27.487  24.842  1.00  0.00     0.188 C 
BRANCH  29  30
ATOM     30  O   UNL A   1      31.846  28.520  24.264  1.00  0.00    -0.376 OA
BRANCH  30  31
ATOM     31  C   UNL A   1      33.088  28.872  24.828  1.00  0.00     0.202 C 
BRANCH  31  32
ATOM     32  C   UNL A   1      33.231  29.360  26.282  1.00  0.00     0.261 C 
BRANCH  32  33
ATOM     33  O   UNL A   1      34.526  29.770  26.738  1.00  0.00    -0.460 OA
BRANCH  33  34
ATOM     34  C   UNL A   1      34.599  30.933  27.426  1.00  0.00     0.338 C 
ATOM     35  O   UNL A   1      33.713  31.769  27.545  1.00  0.00    -0.246 OA
BRANCH  34  36
ATOM     36  C   UNL A   1      35.860  30.933  28.197  1.00  0.00     0.060 A 
ATOM     37  C   UNL A   1      36.337  29.726  28.727  1.00  0.00     0.016 A 
ATOM     38  C   UNL A   1      36.576  32.117  28.389  1.00  0.00     0.016 A 
ATOM     39  C   UNL A   1      37.531  29.704  29.454  1.00  0.00     0.010 A 
ATOM     40  C   UNL A   1      37.760  32.094  29.132  1.00  0.00     0.010 A 
ATOM     41  C   UNL A   1      38.242  30.890  29.675  1.00  0.00    -0.014 A 
BRANCH  41  42
ATOM     42  C   UNL A   1      39.385  30.926  30.621  1.00  0.00     0.031 A 
ATOM     43  C   UNL A   1      40.733  30.496  30.121  1.00  0.00     0.074 A 
ATOM     44  C   UNL A   1      39.229  31.283  31.909  1.00  0.00     0.049 A 
ATOM     45  N   UNL A   1      41.836  30.278  30.788  1.00  0.00    -0.248 NA
ATOM     46  C   UNL A   1      40.847  30.282  28.670  1.00  0.00     0.031 C 
ATOM     47  C   UNL A   1      37.997  31.797  32.503  1.00  0.00     0.029 A 
ATOM     48  N   UNL A   1      40.119  31.238  32.958  1.00  0.00    -0.354 N 
ATOM     49  C   UNL A   1      42.770  29.873  29.842  1.00  0.00     0.074 A 
ATOM     50  C   UNL A   1      42.103  29.879  28.558  1.00  0.00     0.031 C 
ATOM     51  C   UNL A   1      38.198  31.985  33.821  1.00  0.00     0.029 A 
ATOM     52  C   UNL A   1      39.551  31.550  34.171  1.00  0.00     0.049 A 
ATOM     53  H   UNL A   1      41.069  31.006  32.849  1.00  0.00     0.167 HD
ATOM     54  C   UNL A   1      44.059  29.504  30.029  1.00  0.00     0.031 A 
ATOM     55  C   UNL A   1      40.044  31.443  35.423  1.00  0.00     0.031 A 
ATOM     56  C   UNL A   1      44.700  29.443  31.315  1.00  0.00     0.049 A 
ATOM     57  C   UNL A   1      41.449  30.929  35.627  1.00  0.00     0.074 A 
ATOM     58  C   UNL A   1      45.997  29.066  31.612  1.00  0.00     0.029 A 
ATOM     59  N   UNL A   1      44.082  29.741  32.521  1.00  0.00    -0.354 N 
ATOM     60  N   UNL A   1      42.327  30.550  34.728  1.00  0.00    -0.248 NA
ATOM     61  C   UNL A   1      41.931  30.824  37.014  1.00  0.00     0.031 C 
ATOM     62  C   UNL A   1      46.141  29.064  33.003  1.00  0.00     0.029 A 
ATOM     63  C   UNL A   1      44.960  29.522  33.568  1.00  0.00     0.049 A 
ATOM     64  H   UNL A   1      43.156  30.061  32.618  1.00  0.00     0.167 HD
ATOM     65  C   UNL A   1      43.471  30.191  35.437  1.00  0.00     0.074 A 
ATOM     66  C   UNL A   1      43.176  30.399  36.839  1.00  0.00     0.031 C 
ATOM     67  C   UNL A   1      44.660  29.739  34.964  1.00  0.00     0.031 A 
BRANCH  54  68
ATOM     68  C   UNL A   1      44.817  29.041  28.814  1.00  0.00    -0.014 A 
ATOM     69  C   UNL A   1      45.490  29.944  27.971  1.00  0.00     0.010 A 
ATOM     70  C   UNL A   1      44.823  27.671  28.491  1.00  0.00     0.010 A 
ATOM     71  C   UNL A   1      46.092  29.495  26.792  1.00  0.00     0.020 A 
ATOM     72  C   UNL A   1      45.454  27.213  27.333  1.00  0.00     0.020 A 
ATOM     73  C   UNL A   1      46.059  28.133  26.476  1.00  0.00     0.054 A 
BRANCH  73  74
ATOM     74  S   UNL A   1      46.811  27.581  24.921  1.00  0.00     0.124 S 
ATOM     75  O   UNL A   1      46.590  28.737  24.055  1.00  0.00    -0.237 OA
ATOM     76  O   UNL A   1      48.199  27.341  25.305  1.00  0.00    -0.237 OA
ATOM     77  O   UNL A   1      46.047  26.386  24.570  1.00  0.00    -0.744 OA
ENDBRANCH  73  74
ENDBRANCH  54  68
BRANCH  55  78
ATOM     78  C   UNL A   1      39.174  31.774  36.588  1.00  0.00    -0.014 A 
ATOM     79  C   UNL A   1      38.208  30.866  37.055  1.00  0.00     0.010 A 
ATOM     80  C   UNL A   1      39.334  33.001  37.260  1.00  0.00     0.010 A 
ATOM     81  C   UNL A   1      37.427  31.175  38.175  1.00  0.00     0.020 A 
ATOM     82  C   UNL A   1      38.576  33.301  38.397  1.00  0.00     0.020 A 
ATOM     83  C   UNL A   1      37.625  32.386  38.846  1.00  0.00     0.054 A 
BRANCH  83  84
ATOM     84  S   UNL A   1      36.667  32.720  40.351  1.00  0.00     0.124 S 
ATOM     85  O   UNL A   1      35.309  32.836  39.830  1.00  0.00    -0.237 OA
ATOM     86  O   UNL A   1      36.934  31.534  41.162  1.00  0.00    -0.237 OA
ATOM     87  O   UNL A   1      37.250  33.960  40.861  1.00  0.00    -0.744 OA
ENDBRANCH  83  84
ENDBRANCH  55  78
BRANCH  67  88
ATOM     88  C   UNL A   1      45.772  29.483  35.951  1.00  0.00    -0.014 A 
ATOM     89  C   UNL A   1      46.631  30.510  36.381  1.00  0.00     0.010 A 
ATOM     90  C   UNL A   1      45.877  28.211  36.547  1.00  0.00     0.010 A 
ATOM     91  C   UNL A   1      47.576  30.267  37.384  1.00  0.00     0.020 A 
ATOM     92  C   UNL A   1      46.800  27.973  37.570  1.00  0.00     0.020 A 
ATOM     93  C   UNL A   1      47.648  29.003  37.979  1.00  0.00     0.054 A 
BRANCH  93  94
ATOM     94  S   UNL A   1      48.820  28.739  39.339  1.00  0.00     0.124 S 
ATOM     95  O   UNL A   1      48.003  29.047  40.510  1.00  0.00    -0.237 OA
ATOM     96  O   UNL A   1      49.184  27.333  39.178  1.00  0.00    -0.237 OA
ATOM     97  O   UNL A   1      49.895  29.689  39.063  1.00  0.00    -0.744 OA
ENDBRANCH  93  94
ENDBRANCH  67  88
ENDBRANCH  41  42
ENDBRANCH  34  36
ENDBRANCH  33  34
ENDBRANCH  32  33
ENDBRANCH  31  32
ENDBRANCH  30  31
ENDBRANCH  29  30
ENDBRANCH   1  29
TORSDOF 24
ENDMDL
MODEL 3
REMARK VINA RESULT:      -8.6     10.690     16.519
REMARK SMILES C[C@](Nc1ccc(C(N)=O)nn1)(C(=O)OCCOCCOCCOC(=O)c1ccc(-c2c3nc(c(-c4ccc(S(=O)(=O)[O-])cc4)c4ccc([nH]4)c(-c4ccc(S(=O)(=O)[O-])cc4)c4nc(c(-c5ccc(S(=O)(=O)[O-])cc5)c5ccc2[nH]5)C=C4)C=C3)cc1)c1ccccc1
REMARK SMILES IDX 19 1 18 2 17 3 16 4 15 5 13 6 14 7 2 8 1 9 87 10 88 11 92 12
REMARK SMILES IDX 89 13 91 14 90 15 3 16 4 18 5 19 12 20 6 21 11 22 7 23 8 24
REMARK SMILES IDX 9 25 10 26 20 29 21 30 22 31 23 32 24 33 25 34 26 35 27 36
REMARK SMILES IDX 28 37 86 38 29 39 85 40 30 41 31 42 32 43 79 44 33 45 84 46
REMARK SMILES IDX 78 47 80 48 34 49 83 50 77 51 76 52 35 54 65 55 46 56 64 57
REMARK SMILES IDX 47 58 50 59 63 60 81 61 48 62 49 63 62 65 82 66 51 67 36 68
REMARK SMILES IDX 37 69 45 70 38 71 44 72 39 73 40 74 41 75 42 76 43 77 66 78
REMARK SMILES IDX 67 79 75 80 68 81 74 82 69 83 70 84 71 85 72 86 73 87 52 88
REMARK SMILES IDX 53 89 61 90 54 91 60 92 55 93 56 94 57 95 58 96 59 97
REMARK H PARENT 3 17 9 27 9 28 80 53 50 64
REMARK Flexibility Score: inf
ROOT
ATOM      1  C   UNL A   1      42.721  42.379  24.249  1.00  0.00     0.188 C 
ENDROOT
BRANCH   1   2
ATOM      2  O   UNL A   1      42.283  41.731  23.066  1.00  0.00    -0.376 OA
BRANCH   2   3
ATOM      3  C   UNL A   1      41.890  42.526  21.956  1.00  0.00     0.202 C 
BRANCH   3   4
ATOM      4  C   UNL A   1      42.647  42.437  20.616  1.00  0.00     0.261 C 
BRANCH   4   5
ATOM      5  O   UNL A   1      42.475  43.516  19.662  1.00  0.00    -0.461 OA
BRANCH   5   6
ATOM      6  C   UNL A   1      43.509  44.405  19.591  1.00  0.00     0.336 C 
ATOM      7  O   UNL A   1      43.998  44.929  20.592  1.00  0.00    -0.249 OA
BRANCH   6   8
ATOM      8  C   UNL A   1      43.998  44.783  18.134  1.00  0.00     0.160 C 
ATOM      9  C   UNL A   1      43.492  43.588  17.299  1.00  0.00     0.053 C 
BRANCH   8  10
ATOM     10  C   UNL A   1      43.322  46.130  17.765  1.00  0.00    -0.012 A 
ATOM     11  C   UNL A   1      43.768  47.362  18.271  1.00  0.00     0.007 A 
ATOM     12  C   UNL A   1      42.274  46.173  16.819  1.00  0.00     0.007 A 
ATOM     13  C   UNL A   1      43.214  48.572  17.840  1.00  0.00     0.000 A 
ATOM     14  C   UNL A   1      41.740  47.383  16.369  1.00  0.00     0.000 A 
ATOM     15  C   UNL A   1      42.209  48.585  16.880  1.00  0.00     0.000 A 
ENDBRANCH   8  10
BRANCH   8  16
ATOM     16  N   UNL A   1      45.465  44.988  17.969  1.00  0.00    -0.350 N 
ATOM     17  H   UNL A   1      45.764  45.215  17.059  1.00  0.00     0.163 HD
BRANCH  16  18
ATOM     18  C   UNL A   1      46.453  44.899  18.918  1.00  0.00     0.149 A 
ATOM     19  C   UNL A   1      46.950  43.687  19.367  1.00  0.00     0.051 A 
ATOM     20  N   UNL A   1      47.014  46.047  19.360  1.00  0.00    -0.132 NA
ATOM     21  C   UNL A   1      47.957  43.653  20.329  1.00  0.00     0.040 A 
ATOM     22  N   UNL A   1      48.012  46.036  20.322  1.00  0.00    -0.143 NA
ATOM     23  C   UNL A   1      48.451  44.852  20.798  1.00  0.00     0.150 A 
BRANCH  23  24
ATOM     24  C   UNL A   1      49.491  44.873  21.864  1.00  0.00     0.269 C 
ATOM     25  N   UNL A   1      50.309  45.969  21.910  1.00  0.00    -0.364 N 
ATOM     26  O   UNL A   1      49.615  43.957  22.669  1.00  0.00    -0.268 OA
ATOM     27  H   UNL A   1      50.196  46.695  21.255  1.00  0.00     0.160 HD
ATOM     28  H   UNL A   1      51.010  46.031  22.598  1.00  0.00     0.160 HD
ENDBRANCH  23  24
ENDBRANCH  16  18
ENDBRANCH   8  16
ENDBRANCH   6   8
ENDBRANCH   5   6
ENDBRANCH   4   5
ENDBRANCH   3   4
ENDBRANCH   2   3
ENDBRANCH   1   2
BRANCH   1  29
ATOM     29  C   UNL A   1      44.153  42.117  24.748  1.00  0.00     0.188 C 
BRANCH  29  30
ATOM     30  O   UNL A   1      44.233  41.290  25.878  1.00  0.00    -0.376 OA
BRANCH  30  31
ATOM     31  C   UNL A   1      43.050  40.901  26.537  1.00  0.00     0.202 C 
BRANCH  31  32
ATOM     32  C   UNL A   1      42.554  39.444  26.561  1.00  0.00     0.261 C 
BRANCH  32  33
ATOM     33  O   UNL A   1      43.124  38.546  27.522  1.00  0.00    -0.460 OA
BRANCH  33  34
ATOM     34  C   UNL A   1      44.187  37.809  27.124  1.00  0.00     0.338 C 
ATOM     35  O   UNL A   1      45.178  38.215  26.531  1.00  0.00    -0.246 OA
BRANCH  34  36
ATOM     36  C   UNL A   1      44.060  36.461  27.718  1.00  0.00     0.060 A 
ATOM     37  C   UNL A   1      44.793  36.149  28.871  1.00  0.00     0.016 A 
ATOM     38  C   UNL A   1      43.211  35.511  27.145  1.00  0.00     0.016 A 
ATOM     39  C   UNL A   1      44.681  34.881  29.450  1.00  0.00     0.010 A 
ATOM     40  C   UNL A   1      43.115  34.239  27.717  1.00  0.00     0.010 A 
ATOM     41  C   UNL A   1      43.854  33.913  28.869  1.00  0.00    -0.014 A 
BRANCH  41  42
ATOM     42  C   UNL A   1      43.889  32.505  29.335  1.00  0.00     0.031 A 
ATOM     43  C   UNL A   1      43.079  32.138  30.545  1.00  0.00     0.074 A 
ATOM     44  C   UNL A   1      44.657  31.577  28.735  1.00  0.00     0.049 A 
ATOM     45  N   UNL A   1      43.077  31.032  31.240  1.00  0.00    -0.248 NA
ATOM     46  C   UNL A   1      42.147  33.167  31.034  1.00  0.00     0.031 C 
ATOM     47  C   UNL A   1      45.426  31.776  27.510  1.00  0.00     0.029 A 
ATOM     48  N   UNL A   1      44.933  30.280  29.103  1.00  0.00    -0.354 N 
ATOM     49  C   UNL A   1      42.165  31.238  32.268  1.00  0.00     0.074 A 
ATOM     50  C   UNL A   1      41.634  32.574  32.101  1.00  0.00     0.031 C 
ATOM     51  C   UNL A   1      46.119  30.653  27.246  1.00  0.00     0.029 A 
ATOM     52  C   UNL A   1      45.886  29.679  28.314  1.00  0.00     0.049 A 
ATOM     53  H   UNL A   1      44.491  29.826  29.856  1.00  0.00     0.167 HD
ATOM     54  C   UNL A   1      41.820  30.401  33.275  1.00  0.00     0.031 A 
ATOM     55  C   UNL A   1      46.538  28.506  28.466  1.00  0.00     0.031 A 
ATOM     56  C   UNL A   1      42.395  29.098  33.469  1.00  0.00     0.049 A 
ATOM     57  C   UNL A   1      46.221  27.628  29.652  1.00  0.00     0.074 A 
ATOM     58  C   UNL A   1      42.125  28.180  34.468  1.00  0.00     0.029 A 
ATOM     59  N   UNL A   1      43.377  28.538  32.664  1.00  0.00    -0.354 N 
ATOM     60  N   UNL A   1      45.356  27.828  30.619  1.00  0.00    -0.248 NA
ATOM     61  C   UNL A   1      46.969  26.367  29.772  1.00  0.00     0.031 C 
ATOM     62  C   UNL A   1      42.996  27.097  34.310  1.00  0.00     0.029 A 
ATOM     63  C   UNL A   1      43.749  27.302  33.163  1.00  0.00     0.049 A 
ATOM     64  H   UNL A   1      43.752  28.957  31.857  1.00  0.00     0.167 HD
ATOM     65  C   UNL A   1      45.435  26.708  31.442  1.00  0.00     0.074 A 
ATOM     66  C   UNL A   1      46.430  25.832  30.862  1.00  0.00     0.031 C 
ATOM     67  C   UNL A   1      44.738  26.431  32.573  1.00  0.00     0.031 A 
BRANCH  54  68
ATOM     68  C   UNL A   1      40.847  30.929  34.295  1.00  0.00    -0.014 A 
ATOM     69  C   UNL A   1      41.278  31.605  35.450  1.00  0.00     0.010 A 
ATOM     70  C   UNL A   1      39.470  30.709  34.106  1.00  0.00     0.010 A 
ATOM     71  C   UNL A   1      40.358  31.986  36.431  1.00  0.00     0.020 A 
ATOM     72  C   UNL A   1      38.543  31.120  35.065  1.00  0.00     0.020 A 
ATOM     73  C   UNL A   1      38.996  31.729  36.235  1.00  0.00     0.054 A 
BRANCH  73  74
ATOM     74  S   UNL A   1      37.827  32.197  37.540  1.00  0.00     0.124 S 
ATOM     75  O   UNL A   1      38.678  32.964  38.446  1.00  0.00    -0.237 OA
ATOM     76  O   UNL A   1      36.827  32.973  36.811  1.00  0.00    -0.237 OA
ATOM     77  O   UNL A   1      37.358  30.915  38.062  1.00  0.00    -0.744 OA
ENDBRANCH  73  74
ENDBRANCH  54  68
BRANCH  55  78
ATOM     78  C   UNL A   1      47.604  28.126  27.495  1.00  0.00    -0.014 A 
ATOM     79  C   UNL A   1      47.324  27.298  26.394  1.00  0.00     0.010 A 
ATOM     80  C   UNL A   1      48.912  28.623  27.656  1.00  0.00     0.010 A 
ATOM     81  C   UNL A   1      48.327  26.983  25.469  1.00  0.00     0.020 A 
ATOM     82  C   UNL A   1      49.909  28.335  26.718  1.00  0.00     0.020 A 
ATOM     83  C   UNL A   1      49.610  27.515  25.631  1.00  0.00     0.054 A 
BRANCH  83  84
ATOM     84  S   UNL A   1      50.867  27.170  24.367  1.00  0.00     0.124 S 
ATOM     85  O   UNL A   1      51.437  25.912  24.838  1.00  0.00    -0.237 OA
ATOM     86  O   UNL A   1      50.068  27.084  23.147  1.00  0.00    -0.237 OA
ATOM     87  O   UNL A   1      51.756  28.328  24.443  1.00  0.00    -0.744 OA
ENDBRANCH  83  84
ENDBRANCH  55  78
BRANCH  67  88
ATOM     88  C   UNL A   1      44.968  25.101  33.248  1.00  0.00    -0.014 A 
ATOM     89  C   UNL A   1      44.259  23.947  32.871  1.00  0.00     0.010 A 
ATOM     90  C   UNL A   1      46.003  24.986  34.196  1.00  0.00     0.010 A 
ATOM     91  C   UNL A   1      44.578  22.706  33.434  1.00  0.00     0.020 A 
ATOM     92  C   UNL A   1      46.345  23.744  34.738  1.00  0.00     0.020 A 
ATOM     93  C   UNL A   1      45.626  22.611  34.356  1.00  0.00     0.054 A 
BRANCH  93  94
ATOM     94  S   UNL A   1      46.079  20.978  35.003  1.00  0.00     0.124 S 
ATOM     95  O   UNL A   1      47.074  20.530  34.032  1.00  0.00    -0.237 OA
ATOM     96  O   UNL A   1      46.594  21.293  36.333  1.00  0.00    -0.237 OA
ATOM     97  O   UNL A   1      44.820  20.235  34.990  1.00  0.00    -0.744 OA
ENDBRANCH  93  94
ENDBRANCH  67  88
ENDBRANCH  41  42
ENDBRANCH  34  36
ENDBRANCH  33  34
ENDBRANCH  32  33
ENDBRANCH  31  32
ENDBRANCH  30  31
ENDBRANCH  29  30
ENDBRANCH   1  29
TORSDOF 24
ENDMDL
