MODEL 1
REMARK VINA RESULT:     -10.4      0.000      0.000
REMARK SMILES COc1ccc2[nH]c(C(=O)c3cc(C)ccn3)c(CC(=O)OCCOCCOCCOC(=O)c3ccc(-c4c5nc(c(-c6ccc(S(=O)(=O)[O-])cc6)c6ccc([nH]6)c(-c6ccc(S(=O)(=O)[O-])cc6)c6nc(c(-c7ccc(S(=O)(=O)[O-])cc7)c7ccc4[nH]7)C=C6)C=C5)cc3)c2c1
REMARK SMILES IDX 26 1 25 2 24 3 23 4 22 5 20 6 21 7 19 8 18 9 3 10 4 11 95 12
REMARK SMILES IDX 5 13 94 14 6 15 7 16 8 17 2 19 1 20 9 21 10 22 11 23 12 24
REMARK SMILES IDX 17 25 13 26 16 27 14 28 15 29 27 30 28 31 29 32 30 33 31 34
REMARK SMILES IDX 32 35 33 36 34 37 35 38 93 39 36 40 92 41 37 42 38 43 39 44
REMARK SMILES IDX 86 45 40 46 91 47 85 48 87 49 41 50 90 51 84 52 83 53 42 55
REMARK SMILES IDX 72 56 53 57 71 58 54 59 57 60 70 61 88 62 55 63 56 64 69 66
REMARK SMILES IDX 89 67 58 68 43 69 44 70 52 71 45 72 51 73 46 74 47 75 48 76
REMARK SMILES IDX 49 77 50 78 73 79 74 80 82 81 75 82 81 83 76 84 77 85 78 86
REMARK SMILES IDX 79 87 80 88 59 89 60 90 68 91 61 92 67 93 62 94 63 95 64 96
REMARK SMILES IDX 65 97 66 98
REMARK H PARENT 7 18 87 54 57 65
REMARK Flexibility Score: inf
ROOT
ATOM      1  C   UNL A   1      31.769  28.568  27.358  1.00  0.00     0.188 C 
ENDROOT
BRANCH   1   2
ATOM      2  O   UNL A   1      31.191  27.270  27.239  1.00  0.00    -0.376 OA
BRANCH   2   3
ATOM      3  C   UNL A   1      31.890  26.293  26.479  1.00  0.00     0.202 C 
BRANCH   3   4
ATOM      4  C   UNL A   1      31.609  24.826  26.836  1.00  0.00     0.261 C 
BRANCH   4   5
ATOM      5  O   UNL A   1      32.326  23.903  25.985  1.00  0.00    -0.463 OA
BRANCH   5   6
ATOM      6  C   UNL A   1      33.684  23.962  26.023  1.00  0.00     0.310 C 
ATOM      7  O   UNL A   1      34.336  23.747  27.041  1.00  0.00    -0.252 OA
BRANCH   6   8
ATOM      8  C   UNL A   1      34.344  24.129  24.654  1.00  0.00     0.161 C 
BRANCH   8   9
ATOM      9  C   UNL A   1      33.695  23.491  23.443  1.00  0.00     0.000 A 
ATOM     10  C   UNL A   1      32.562  19.876  23.943  1.00  0.00     0.119 A 
ATOM     11  C   UNL A   1      31.912  19.750  22.717  1.00  0.00     0.048 A 
ATOM     12  C   UNL A   1      33.247  21.052  24.274  1.00  0.00     0.057 A 
ATOM     13  C   UNL A   1      31.958  20.778  21.772  1.00  0.00     0.030 A 
ATOM     14  C   UNL A   1      33.255  22.126  23.364  1.00  0.00     0.008 A 
ATOM     15  C   UNL A   1      32.622  21.953  22.136  1.00  0.00     0.046 A 
ATOM     16  N   UNL A   1      32.749  23.135  21.453  1.00  0.00    -0.352 N 
ATOM     17  C   UNL A   1      33.138  24.130  22.322  1.00  0.00     0.093 A 
ATOM     18  H   UNL A   1      32.586  23.254  20.490  1.00  0.00     0.167 HD
BRANCH  10  19
ATOM     19  O   UNL A   1      32.498  18.933  24.935  1.00  0.00    -0.497 OA
ATOM     20  C   UNL A   1      32.532  17.594  24.459  1.00  0.00     0.278 C 
ENDBRANCH  10  19
BRANCH  17  21
ATOM     21  C   UNL A   1      32.880  25.544  22.078  1.00  0.00     0.227 C 
ATOM     22  O   UNL A   1      33.653  26.262  21.454  1.00  0.00    -0.285 OA
BRANCH  21  23
ATOM     23  C   UNL A   1      31.649  26.170  22.653  1.00  0.00     0.113 A 
ATOM     24  C   UNL A   1      31.416  27.536  22.514  1.00  0.00     0.036 A 
ATOM     25  N   UNL A   1      30.782  25.311  23.248  1.00  0.00    -0.253 NA
ATOM     26  C   UNL A   1      30.199  28.051  22.981  1.00  0.00    -0.047 A 
ATOM     27  C   UNL A   1      29.588  25.827  23.619  1.00  0.00     0.112 A 
ATOM     28  C   UNL A   1      29.874  29.515  22.922  1.00  0.00     0.044 C 
ATOM     29  C   UNL A   1      29.254  27.165  23.502  1.00  0.00     0.023 A 
ENDBRANCH  21  23
ENDBRANCH  17  21
ENDBRANCH   8   9
ENDBRANCH   6   8
ENDBRANCH   5   6
ENDBRANCH   4   5
ENDBRANCH   3   4
ENDBRANCH   2   3
ENDBRANCH   1   2
BRANCH   1  30
ATOM     30  C   UNL A   1      32.058  29.374  26.071  1.00  0.00     0.188 C 
BRANCH  30  31
ATOM     31  O   UNL A   1      33.443  29.560  25.808  1.00  0.00    -0.376 OA
BRANCH  31  32
ATOM     32  C   UNL A   1      34.282  29.365  26.936  1.00  0.00     0.202 C 
BRANCH  32  33
ATOM     33  C   UNL A   1      34.620  30.674  27.651  1.00  0.00     0.261 C 
BRANCH  33  34
ATOM     34  O   UNL A   1      35.364  30.445  28.869  1.00  0.00    -0.460 OA
BRANCH  34  35
ATOM     35  C   UNL A   1      36.371  31.285  29.163  1.00  0.00     0.338 C 
ATOM     36  O   UNL A   1      36.258  32.487  29.400  1.00  0.00    -0.246 OA
BRANCH  35  37
ATOM     37  C   UNL A   1      37.684  30.589  29.127  1.00  0.00     0.060 A 
ATOM     38  C   UNL A   1      38.498  30.446  30.255  1.00  0.00     0.016 A 
ATOM     39  C   UNL A   1      38.175  30.168  27.893  1.00  0.00     0.016 A 
ATOM     40  C   UNL A   1      39.808  29.959  30.145  1.00  0.00     0.010 A 
ATOM     41  C   UNL A   1      39.459  29.615  27.793  1.00  0.00     0.010 A 
ATOM     42  C   UNL A   1      40.308  29.529  28.912  1.00  0.00    -0.014 A 
BRANCH  42  43
ATOM     43  C   UNL A   1      41.706  29.030  28.753  1.00  0.00     0.031 A 
ATOM     44  C   UNL A   1      42.866  29.991  28.848  1.00  0.00     0.074 A 
ATOM     45  C   UNL A   1      41.963  27.732  28.486  1.00  0.00     0.049 A 
ATOM     46  N   UNL A   1      44.112  29.831  28.479  1.00  0.00    -0.248 NA
ATOM     47  C   UNL A   1      42.578  31.314  29.428  1.00  0.00     0.031 C 
ATOM     48  C   UNL A   1      40.974  26.655  28.451  1.00  0.00     0.029 A 
ATOM     49  N   UNL A   1      43.147  27.103  28.172  1.00  0.00    -0.354 N 
ATOM     50  C   UNL A   1      44.743  31.045  28.726  1.00  0.00     0.074 A 
ATOM     51  C   UNL A   1      43.742  31.933  29.278  1.00  0.00     0.031 C 
ATOM     52  C   UNL A   1      41.587  25.503  28.136  1.00  0.00     0.029 A 
ATOM     53  C   UNL A   1      42.995  25.771  27.859  1.00  0.00     0.049 A 
ATOM     54  H   UNL A   1      44.018  27.561  28.172  1.00  0.00     0.167 HD
ATOM     55  C   UNL A   1      46.036  31.392  28.501  1.00  0.00     0.031 A 
ATOM     56  C   UNL A   1      43.865  24.875  27.351  1.00  0.00     0.031 A 
ATOM     57  C   UNL A   1      47.039  30.502  27.973  1.00  0.00     0.049 A 
ATOM     58  C   UNL A   1      45.271  25.303  27.027  1.00  0.00     0.074 A 
ATOM     59  C   UNL A   1      48.373  30.770  27.712  1.00  0.00     0.029 A 
ATOM     60  N   UNL A   1      46.827  29.175  27.634  1.00  0.00    -0.354 N 
ATOM     61  N   UNL A   1      45.840  26.472  27.202  1.00  0.00    -0.248 NA
ATOM     62  C   UNL A   1      46.151  24.291  26.423  1.00  0.00     0.031 C 
ATOM     63  C   UNL A   1      48.953  29.621  27.164  1.00  0.00     0.029 A 
ATOM     64  C   UNL A   1      47.999  28.618  27.144  1.00  0.00     0.049 A 
ATOM     65  H   UNL A   1      45.971  28.698  27.726  1.00  0.00     0.167 HD
ATOM     66  C   UNL A   1      47.149  26.328  26.751  1.00  0.00     0.074 A 
ATOM     67  C   UNL A   1      47.293  24.956  26.312  1.00  0.00     0.031 C 
ATOM     68  C   UNL A   1      48.139  27.253  26.705  1.00  0.00     0.031 A 
BRANCH  55  69
ATOM     69  C   UNL A   1      46.434  32.820  28.774  1.00  0.00    -0.014 A 
ATOM     70  C   UNL A   1      46.964  33.217  30.015  1.00  0.00     0.010 A 
ATOM     71  C   UNL A   1      46.317  33.775  27.745  1.00  0.00     0.010 A 
ATOM     72  C   UNL A   1      47.329  34.549  30.234  1.00  0.00     0.020 A 
ATOM     73  C   UNL A   1      46.709  35.101  27.951  1.00  0.00     0.020 A 
ATOM     74  C   UNL A   1      47.194  35.484  29.202  1.00  0.00     0.054 A 
BRANCH  74  75
ATOM     75  S   UNL A   1      47.681  37.202  29.514  1.00  0.00     0.124 S 
ATOM     76  O   UNL A   1      46.803  37.564  30.625  1.00  0.00    -0.237 OA
ATOM     77  O   UNL A   1      49.097  37.079  29.849  1.00  0.00    -0.237 OA
ATOM     78  O   UNL A   1      47.398  37.881  28.252  1.00  0.00    -0.744 OA
ENDBRANCH  74  75
ENDBRANCH  55  69
BRANCH  56  79
ATOM     79  C   UNL A   1      43.410  23.487  27.052  1.00  0.00    -0.014 A 
ATOM     80  C   UNL A   1      43.093  23.104  25.738  1.00  0.00     0.010 A 
ATOM     81  C   UNL A   1      43.293  22.539  28.086  1.00  0.00     0.010 A 
ATOM     82  C   UNL A   1      42.657  21.804  25.464  1.00  0.00     0.020 A 
ATOM     83  C   UNL A   1      42.890  21.230  27.812  1.00  0.00     0.020 A 
ATOM     84  C   UNL A   1      42.562  20.874  26.504  1.00  0.00     0.054 A 
BRANCH  84  85
ATOM     85  S   UNL A   1      42.046  19.178  26.118  1.00  0.00     0.124 S 
ATOM     86  O   UNL A   1      42.461  18.454  27.315  1.00  0.00    -0.237 OA
ATOM     87  O   UNL A   1      40.604  19.319  25.931  1.00  0.00    -0.237 OA
ATOM     88  O   UNL A   1      42.796  18.861  24.904  1.00  0.00    -0.744 OA
ENDBRANCH  84  85
ENDBRANCH  56  79
BRANCH  68  89
ATOM     89  C   UNL A   1      49.488  26.803  26.200  1.00  0.00    -0.014 A 
ATOM     90  C   UNL A   1      49.869  26.992  24.859  1.00  0.00     0.010 A 
ATOM     91  C   UNL A   1      50.401  26.211  27.092  1.00  0.00     0.010 A 
ATOM     92  C   UNL A   1      51.123  26.564  24.414  1.00  0.00     0.020 A 
ATOM     93  C   UNL A   1      51.666  25.809  26.657  1.00  0.00     0.020 A 
ATOM     94  C   UNL A   1      52.014  25.973  25.316  1.00  0.00     0.054 A 
BRANCH  94  95
ATOM     95  S   UNL A   1      53.648  25.455  24.721  1.00  0.00     0.124 S 
ATOM     96  O   UNL A   1      54.535  26.032  25.727  1.00  0.00    -0.237 OA
ATOM     97  O   UNL A   1      53.548  23.999  24.731  1.00  0.00    -0.237 OA
ATOM     98  O   UNL A   1      53.739  26.057  23.392  1.00  0.00    -0.744 OA
ENDBRANCH  94  95
ENDBRANCH  68  89
ENDBRANCH  42  43
ENDBRANCH  35  37
ENDBRANCH  34  35
ENDBRANCH  33  34
ENDBRANCH  32  33
ENDBRANCH  31  32
ENDBRANCH  30  31
ENDBRANCH   1  30
TORSDOF 24
ENDMDL
MODEL 2
REMARK VINA RESULT:     -10.0      5.254      9.783
REMARK SMILES COc1ccc2[nH]c(C(=O)c3cc(C)ccn3)c(CC(=O)OCCOCCOCCOC(=O)c3ccc(-c4c5nc(c(-c6ccc(S(=O)(=O)[O-])cc6)c6ccc([nH]6)c(-c6ccc(S(=O)(=O)[O-])cc6)c6nc(c(-c7ccc(S(=O)(=O)[O-])cc7)c7ccc4[nH]7)C=C6)C=C5)cc3)c2c1
REMARK SMILES IDX 26 1 25 2 24 3 23 4 22 5 20 6 21 7 19 8 18 9 3 10 4 11 95 12
REMARK SMILES IDX 5 13 94 14 6 15 7 16 8 17 2 19 1 20 9 21 10 22 11 23 12 24
REMARK SMILES IDX 17 25 13 26 16 27 14 28 15 29 27 30 28 31 29 32 30 33 31 34
REMARK SMILES IDX 32 35 33 36 34 37 35 38 93 39 36 40 92 41 37 42 38 43 39 44
REMARK SMILES IDX 86 45 40 46 91 47 85 48 87 49 41 50 90 51 84 52 83 53 42 55
REMARK SMILES IDX 72 56 53 57 71 58 54 59 57 60 70 61 88 62 55 63 56 64 69 66
REMARK SMILES IDX 89 67 58 68 43 69 44 70 52 71 45 72 51 73 46 74 47 75 48 76
REMARK SMILES IDX 49 77 50 78 73 79 74 80 82 81 75 82 81 83 76 84 77 85 78 86
REMARK SMILES IDX 79 87 80 88 59 89 60 90 68 91 61 92 67 93 62 94 63 95 64 96
REMARK SMILES IDX 65 97 66 98
REMARK H PARENT 7 18 87 54 57 65
REMARK Flexibility Score: inf
ROOT
ATOM      1  C   UNL A   1      32.628  28.098  23.530  1.00  0.00     0.188 C 
ENDROOT
BRANCH   1   2
ATOM      2  O   UNL A   1      33.032  26.875  24.142  1.00  0.00    -0.376 OA
BRANCH   2   3
ATOM      3  C   UNL A   1      32.123  25.782  24.118  1.00  0.00     0.202 C 
BRANCH   3   4
ATOM      4  C   UNL A   1      31.589  25.314  25.480  1.00  0.00     0.261 C 
BRANCH   4   5
ATOM      5  O   UNL A   1      31.472  23.875  25.563  1.00  0.00    -0.463 OA
BRANCH   5   6
ATOM      6  C   UNL A   1      31.586  23.319  26.798  1.00  0.00     0.310 C 
ATOM      7  O   UNL A   1      30.642  23.220  27.578  1.00  0.00    -0.252 OA
BRANCH   6   8
ATOM      8  C   UNL A   1      32.937  22.656  27.067  1.00  0.00     0.161 C 
BRANCH   8   9
ATOM      9  C   UNL A   1      33.829  22.306  25.894  1.00  0.00     0.000 A 
ATOM     10  C   UNL A   1      37.338  23.812  26.037  1.00  0.00     0.119 A 
ATOM     11  C   UNL A   1      37.837  23.139  24.923  1.00  0.00     0.048 A 
ATOM     12  C   UNL A   1      36.000  23.666  26.423  1.00  0.00     0.057 A 
ATOM     13  C   UNL A   1      37.007  22.332  24.141  1.00  0.00     0.030 A 
ATOM     14  C   UNL A   1      35.159  22.808  25.688  1.00  0.00     0.008 A 
ATOM     15  C   UNL A   1      35.683  22.177  24.563  1.00  0.00     0.046 A 
ATOM     16  N   UNL A   1      34.686  21.391  24.047  1.00  0.00    -0.352 N 
ATOM     17  C   UNL A   1      33.681  21.249  24.979  1.00  0.00     0.093 A 
ATOM     18  H   UNL A   1      34.688  20.988  23.149  1.00  0.00     0.167 HD
BRANCH  10  19
ATOM     19  O   UNL A   1      38.115  24.563  26.879  1.00  0.00    -0.497 OA
ATOM     20  C   UNL A   1      39.490  24.596  26.517  1.00  0.00     0.278 C 
ENDBRANCH  10  19
BRANCH  17  21
ATOM     21  C   UNL A   1      32.757  20.122  24.986  1.00  0.00     0.227 C 
ATOM     22  O   UNL A   1      31.540  20.261  25.014  1.00  0.00    -0.285 OA
BRANCH  21  23
ATOM     23  C   UNL A   1      33.305  18.730  25.016  1.00  0.00     0.113 A 
ATOM     24  C   UNL A   1      32.511  17.664  25.431  1.00  0.00     0.036 A 
ATOM     25  N   UNL A   1      34.577  18.595  24.562  1.00  0.00    -0.253 NA
ATOM     26  C   UNL A   1      33.042  16.370  25.340  1.00  0.00    -0.047 A 
ATOM     27  C   UNL A   1      35.030  17.329  24.417  1.00  0.00     0.112 A 
ATOM     28  C   UNL A   1      32.286  15.160  25.807  1.00  0.00     0.044 C 
ATOM     29  C   UNL A   1      34.310  16.204  24.780  1.00  0.00     0.023 A 
ENDBRANCH  21  23
ENDBRANCH  17  21
ENDBRANCH   8   9
ENDBRANCH   6   8
ENDBRANCH   5   6
ENDBRANCH   4   5
ENDBRANCH   3   4
ENDBRANCH   2   3
ENDBRANCH   1   2
BRANCH   1  30
ATOM     30  C   UNL A   1      31.400  28.844  24.099  1.00  0.00     0.188 C 
BRANCH  30  31
ATOM     31  O   UNL A   1      31.408  28.969  25.515  1.00  0.00    -0.376 OA
BRANCH  31  32
ATOM     32  C   UNL A   1      32.065  30.131  25.994  1.00  0.00     0.202 C 
BRANCH  32  33
ATOM     33  C   UNL A   1      33.507  29.858  26.422  1.00  0.00     0.261 C 
BRANCH  33  34
ATOM     34  O   UNL A   1      33.779  30.359  27.751  1.00  0.00    -0.460 OA
BRANCH  34  35
ATOM     35  C   UNL A   1      34.651  31.374  27.878  1.00  0.00     0.338 C 
ATOM     36  O   UNL A   1      34.434  32.549  27.582  1.00  0.00    -0.246 OA
BRANCH  35  37
ATOM     37  C   UNL A   1      35.963  30.901  28.393  1.00  0.00     0.060 A 
ATOM     38  C   UNL A   1      36.121  29.680  29.057  1.00  0.00     0.016 A 
ATOM     39  C   UNL A   1      37.053  31.764  28.314  1.00  0.00     0.016 A 
ATOM     40  C   UNL A   1      37.326  29.357  29.695  1.00  0.00     0.010 A 
ATOM     41  C   UNL A   1      38.280  31.409  28.892  1.00  0.00     0.010 A 
ATOM     42  C   UNL A   1      38.428  30.214  29.619  1.00  0.00    -0.014 A 
BRANCH  42  43
ATOM     43  C   UNL A   1      39.718  29.912  30.309  1.00  0.00     0.031 A 
ATOM     44  C   UNL A   1      40.600  28.797  29.804  1.00  0.00     0.074 A 
ATOM     45  C   UNL A   1      40.103  30.594  31.408  1.00  0.00     0.049 A 
ATOM     46  N   UNL A   1      41.602  28.196  30.396  1.00  0.00    -0.248 NA
ATOM     47  C   UNL A   1      40.307  28.285  28.455  1.00  0.00     0.031 C 
ATOM     48  C   UNL A   1      39.419  31.756  31.976  1.00  0.00     0.029 A 
ATOM     49  N   UNL A   1      41.164  30.387  32.260  1.00  0.00    -0.354 N 
ATOM     50  C   UNL A   1      42.021  27.199  29.521  1.00  0.00     0.074 A 
ATOM     51  C   UNL A   1      41.165  27.278  28.356  1.00  0.00     0.031 C 
ATOM     52  C   UNL A   1      40.076  32.159  33.075  1.00  0.00     0.029 A 
ATOM     53  C   UNL A   1      41.172  31.235  33.344  1.00  0.00     0.049 A 
ATOM     54  H   UNL A   1      41.852  29.700  32.108  1.00  0.00     0.167 HD
ATOM     55  C   UNL A   1      43.019  26.294  29.679  1.00  0.00     0.031 A 
ATOM     56  C   UNL A   1      41.930  31.241  34.460  1.00  0.00     0.031 A 
ATOM     57  C   UNL A   1      43.887  26.230  30.828  1.00  0.00     0.049 A 
ATOM     58  C   UNL A   1      42.975  30.175  34.656  1.00  0.00     0.074 A 
ATOM     59  C   UNL A   1      44.925  25.344  31.072  1.00  0.00     0.029 A 
ATOM     60  N   UNL A   1      43.830  27.084  31.918  1.00  0.00    -0.354 N 
ATOM     61  N   UNL A   1      43.318  29.197  33.852  1.00  0.00    -0.248 NA
ATOM     62  C   UNL A   1      43.726  30.207  35.920  1.00  0.00     0.031 C 
ATOM     63  C   UNL A   1      45.457  25.630  32.334  1.00  0.00     0.029 A 
ATOM     64  C   UNL A   1      44.796  26.732  32.847  1.00  0.00     0.049 A 
ATOM     65  H   UNL A   1      43.196  27.830  32.018  1.00  0.00     0.167 HD
ATOM     66  C   UNL A   1      44.340  28.512  34.504  1.00  0.00     0.074 A 
ATOM     67  C   UNL A   1      44.571  29.198  35.759  1.00  0.00     0.031 C 
ATOM     68  C   UNL A   1      45.023  27.414  34.097  1.00  0.00     0.031 A 
BRANCH  55  69
ATOM     69  C   UNL A   1      43.197  25.254  28.602  1.00  0.00    -0.014 A 
ATOM     70  C   UNL A   1      42.466  24.053  28.605  1.00  0.00     0.010 A 
ATOM     71  C   UNL A   1      44.085  25.510  27.539  1.00  0.00     0.010 A 
ATOM     72  C   UNL A   1      42.650  23.111  27.588  1.00  0.00     0.020 A 
ATOM     73  C   UNL A   1      44.250  24.584  26.505  1.00  0.00     0.020 A 
ATOM     74  C   UNL A   1      43.545  23.381  26.547  1.00  0.00     0.054 A 
BRANCH  74  75
ATOM     75  S   UNL A   1      43.759  22.142  25.240  1.00  0.00     0.124 S 
ATOM     76  O   UNL A   1      42.762  21.142  25.611  1.00  0.00    -0.237 OA
ATOM     77  O   UNL A   1      43.464  22.902  24.027  1.00  0.00    -0.237 OA
ATOM     78  O   UNL A   1      45.150  21.718  25.384  1.00  0.00    -0.744 OA
ENDBRANCH  74  75
ENDBRANCH  55  69
BRANCH  56  79
ATOM     79  C   UNL A   1      41.684  32.261  35.518  1.00  0.00    -0.014 A 
ATOM     80  C   UNL A   1      40.735  32.030  36.528  1.00  0.00     0.010 A 
ATOM     81  C   UNL A   1      42.401  33.472  35.520  1.00  0.00     0.010 A 
ATOM     82  C   UNL A   1      40.499  32.995  37.513  1.00  0.00     0.020 A 
ATOM     83  C   UNL A   1      42.194  34.424  36.521  1.00  0.00     0.020 A 
ATOM     84  C   UNL A   1      41.234  34.185  37.505  1.00  0.00     0.054 A 
BRANCH  84  85
ATOM     85  S   UNL A   1      40.951  35.398  38.823  1.00  0.00     0.124 S 
ATOM     86  O   UNL A   1      42.262  35.464  39.462  1.00  0.00    -0.237 OA
ATOM     87  O   UNL A   1      40.549  36.589  38.078  1.00  0.00    -0.237 OA
ATOM     88  O   UNL A   1      39.893  34.789  39.627  1.00  0.00    -0.744 OA
ENDBRANCH  84  85
ENDBRANCH  56  79
BRANCH  68  89
ATOM     89  C   UNL A   1      46.120  26.904  34.997  1.00  0.00    -0.014 A 
ATOM     90  C   UNL A   1      45.872  25.923  35.974  1.00  0.00     0.010 A 
ATOM     91  C   UNL A   1      47.431  27.392  34.839  1.00  0.00     0.010 A 
ATOM     92  C   UNL A   1      46.904  25.467  36.798  1.00  0.00     0.020 A 
ATOM     93  C   UNL A   1      48.471  26.918  35.642  1.00  0.00     0.020 A 
ATOM     94  C   UNL A   1      48.199  25.970  36.628  1.00  0.00     0.054 A 
BRANCH  94  95
ATOM     95  S   UNL A   1      49.529  25.339  37.690  1.00  0.00     0.124 S 
ATOM     96  O   UNL A   1      49.155  23.936  37.845  1.00  0.00    -0.237 OA
ATOM     97  O   UNL A   1      50.724  25.586  36.888  1.00  0.00    -0.237 OA
ATOM     98  O   UNL A   1      49.420  26.151  38.900  1.00  0.00    -0.744 OA
ENDBRANCH  94  95
ENDBRANCH  68  89
ENDBRANCH  42  43
ENDBRANCH  35  37
ENDBRANCH  34  35
ENDBRANCH  33  34
ENDBRANCH  32  33
ENDBRANCH  31  32
ENDBRANCH  30  31
ENDBRANCH   1  30
TORSDOF 24
ENDMDL
MODEL 3
REMARK VINA RESULT:      -9.4      4.505     10.025
REMARK SMILES COc1ccc2[nH]c(C(=O)c3cc(C)ccn3)c(CC(=O)OCCOCCOCCOC(=O)c3ccc(-c4c5nc(c(-c6ccc(S(=O)(=O)[O-])cc6)c6ccc([nH]6)c(-c6ccc(S(=O)(=O)[O-])cc6)c6nc(c(-c7ccc(S(=O)(=O)[O-])cc7)c7ccc4[nH]7)C=C6)C=C5)cc3)c2c1
REMARK SMILES IDX 26 1 25 2 24 3 23 4 22 5 20 6 21 7 19 8 18 9 3 10 4 11 95 12
REMARK SMILES IDX 5 13 94 14 6 15 7 16 8 17 2 19 1 20 9 21 10 22 11 23 12 24
REMARK SMILES IDX 17 25 13 26 16 27 14 28 15 29 27 30 28 31 29 32 30 33 31 34
REMARK SMILES IDX 32 35 33 36 34 37 35 38 93 39 36 40 92 41 37 42 38 43 39 44
REMARK SMILES IDX 86 45 40 46 91 47 85 48 87 49 41 50 90 51 84 52 83 53 42 55
REMARK SMILES IDX 72 56 53 57 71 58 54 59 57 60 70 61 88 62 55 63 56 64 69 66
REMARK SMILES IDX 89 67 58 68 43 69 44 70 52 71 45 72 51 73 46 74 47 75 48 76
REMARK SMILES IDX 49 77 50 78 73 79 74 80 82 81 75 82 81 83 76 84 77 85 78 86
REMARK SMILES IDX 79 87 80 88 59 89 60 90 68 91 61 92 67 93 62 94 63 95 64 96
REMARK SMILES IDX 65 97 66 98
REMARK H PARENT 7 18 87 54 57 65
REMARK Flexibility Score: inf
ROOT
ATOM      1  C   UNL A   1      41.148  19.940  26.795  1.00  0.00     0.188 C 
ENDROOT
BRANCH   1   2
ATOM      2  O   UNL A   1      40.736  21.068  26.028  1.00  0.00    -0.376 OA
BRANCH   2   3
ATOM      3  C   UNL A   1      39.532  21.727  26.398  1.00  0.00     0.202 C 
BRANCH   3   4
ATOM      4  C   UNL A   1      38.385  21.669  25.379  1.00  0.00     0.261 C 
BRANCH   4   5
ATOM      5  O   UNL A   1      37.132  22.135  25.930  1.00  0.00    -0.463 OA
BRANCH   5   6
ATOM      6  C   UNL A   1      36.912  23.477  25.904  1.00  0.00     0.310 C 
ATOM      7  O   UNL A   1      37.673  24.290  26.422  1.00  0.00    -0.252 OA
BRANCH   6   8
ATOM      8  C   UNL A   1      35.743  23.906  25.018  1.00  0.00     0.161 C 
BRANCH   8   9
ATOM      9  C   UNL A   1      34.414  24.240  25.666  1.00  0.00     0.000 A 
ATOM     10  C   UNL A   1      32.727  27.401  24.339  1.00  0.00     0.119 A 
ATOM     11  C   UNL A   1      31.535  27.244  25.046  1.00  0.00     0.048 A 
ATOM     12  C   UNL A   1      33.785  26.499  24.510  1.00  0.00     0.057 A 
ATOM     13  C   UNL A   1      31.380  26.207  25.969  1.00  0.00     0.030 A 
ATOM     14  C   UNL A   1      33.630  25.410  25.388  1.00  0.00     0.008 A 
ATOM     15  C   UNL A   1      32.438  25.303  26.100  1.00  0.00     0.046 A 
ATOM     16  N   UNL A   1      32.527  24.161  26.854  1.00  0.00    -0.352 N 
ATOM     17  C   UNL A   1      33.570  23.387  26.397  1.00  0.00     0.093 A 
ATOM     18  H   UNL A   1      31.934  23.931  27.605  1.00  0.00     0.167 HD
BRANCH  10  19
ATOM     19  O   UNL A   1      32.916  28.355  23.374  1.00  0.00    -0.497 OA
ATOM     20  C   UNL A   1      31.711  28.811  22.774  1.00  0.00     0.278 C 
ENDBRANCH  10  19
BRANCH  17  21
ATOM     21  C   UNL A   1      33.637  21.945  26.600  1.00  0.00     0.227 C 
ATOM     22  O   UNL A   1      34.139  21.436  27.596  1.00  0.00    -0.285 OA
BRANCH  21  23
ATOM     23  C   UNL A   1      33.123  21.034  25.530  1.00  0.00     0.113 A 
ATOM     24  C   UNL A   1      32.726  21.541  24.295  1.00  0.00     0.036 A 
ATOM     25  N   UNL A   1      33.135  19.711  25.837  1.00  0.00    -0.253 NA
ATOM     26  C   UNL A   1      32.352  20.632  23.296  1.00  0.00    -0.047 A 
ATOM     27  C   UNL A   1      32.840  18.860  24.828  1.00  0.00     0.112 A 
ATOM     28  C   UNL A   1      31.863  21.080  21.950  1.00  0.00     0.044 C 
ATOM     29  C   UNL A   1      32.456  19.265  23.561  1.00  0.00     0.023 A 
ENDBRANCH  21  23
ENDBRANCH  17  21
ENDBRANCH   8   9
ENDBRANCH   6   8
ENDBRANCH   5   6
ENDBRANCH   4   5
ENDBRANCH   3   4
ENDBRANCH   2   3
ENDBRANCH   1   2
BRANCH   1  30
ATOM     30  C   UNL A   1      42.042  18.871  26.125  1.00  0.00     0.188 C 
BRANCH  30  31
ATOM     31  O   UNL A   1      42.796  19.360  25.024  1.00  0.00    -0.376 OA
BRANCH  31  32
ATOM     32  C   UNL A   1      44.136  18.894  24.982  1.00  0.00     0.202 C 
BRANCH  32  33
ATOM     33  C   UNL A   1      44.920  19.461  23.798  1.00  0.00     0.261 C 
BRANCH  33  34
ATOM     34  O   UNL A   1      45.626  20.672  24.150  1.00  0.00    -0.460 OA
BRANCH  34  35
ATOM     35  C   UNL A   1      44.979  21.843  24.022  1.00  0.00     0.338 C 
ATOM     36  O   UNL A   1      44.249  22.161  23.083  1.00  0.00    -0.246 OA
BRANCH  35  37
ATOM     37  C   UNL A   1      45.283  22.758  25.153  1.00  0.00     0.060 A 
ATOM     38  C   UNL A   1      45.159  22.375  26.492  1.00  0.00     0.016 A 
ATOM     39  C   UNL A   1      45.589  24.085  24.864  1.00  0.00     0.016 A 
ATOM     40  C   UNL A   1      45.266  23.317  27.525  1.00  0.00     0.010 A 
ATOM     41  C   UNL A   1      45.766  25.013  25.900  1.00  0.00     0.010 A 
ATOM     42  C   UNL A   1      45.577  24.651  27.247  1.00  0.00    -0.014 A 
BRANCH  42  43
ATOM     43  C   UNL A   1      45.673  25.684  28.320  1.00  0.00     0.031 A 
ATOM     44  C   UNL A   1      46.966  25.867  29.077  1.00  0.00     0.074 A 
ATOM     45  C   UNL A   1      44.611  26.444  28.662  1.00  0.00     0.049 A 
ATOM     46  N   UNL A   1      47.189  26.496  30.204  1.00  0.00    -0.248 NA
ATOM     47  C   UNL A   1      48.166  25.249  28.489  1.00  0.00     0.031 C 
ATOM     48  C   UNL A   1      43.318  26.462  27.977  1.00  0.00     0.029 A 
ATOM     49  N   UNL A   1      44.450  27.339  29.696  1.00  0.00    -0.354 N 
ATOM     50  C   UNL A   1      48.536  26.302  30.491  1.00  0.00     0.074 A 
ATOM     51  C   UNL A   1      49.080  25.497  29.418  1.00  0.00     0.031 C 
ATOM     52  C   UNL A   1      42.500  27.322  28.604  1.00  0.00     0.029 A 
ATOM     53  C   UNL A   1      43.175  27.849  29.786  1.00  0.00     0.049 A 
ATOM     54  H   UNL A   1      45.177  27.590  30.310  1.00  0.00     0.167 HD
ATOM     55  C   UNL A   1      49.249  26.744  31.556  1.00  0.00     0.031 A 
ATOM     56  C   UNL A   1      42.588  28.606  30.736  1.00  0.00     0.031 A 
ATOM     57  C   UNL A   1      48.714  27.565  32.613  1.00  0.00     0.049 A 
ATOM     58  C   UNL A   1      43.373  29.013  31.954  1.00  0.00     0.074 A 
ATOM     59  C   UNL A   1      49.365  28.058  33.733  1.00  0.00     0.029 A 
ATOM     60  N   UNL A   1      47.407  28.023  32.682  1.00  0.00    -0.354 N 
ATOM     61  N   UNL A   1      44.628  28.768  32.248  1.00  0.00    -0.248 NA
ATOM     62  C   UNL A   1      42.656  29.789  32.977  1.00  0.00     0.031 C 
ATOM     63  C   UNL A   1      48.438  28.767  34.504  1.00  0.00     0.029 A 
ATOM     64  C   UNL A   1      47.227  28.771  33.835  1.00  0.00     0.049 A 
ATOM     65  H   UNL A   1      46.710  27.842  32.011  1.00  0.00     0.167 HD
ATOM     66  C   UNL A   1      44.855  29.380  33.478  1.00  0.00     0.074 A 
ATOM     67  C   UNL A   1      43.615  30.020  33.864  1.00  0.00     0.031 C 
ATOM     68  C   UNL A   1      45.991  29.405  34.218  1.00  0.00     0.031 A 
BRANCH  55  69
ATOM     69  C   UNL A   1      50.687  26.302  31.667  1.00  0.00    -0.014 A 
ATOM     70  C   UNL A   1      51.035  25.038  32.175  1.00  0.00     0.010 A 
ATOM     71  C   UNL A   1      51.706  27.158  31.207  1.00  0.00     0.010 A 
ATOM     72  C   UNL A   1      52.378  24.656  32.259  1.00  0.00     0.020 A 
ATOM     73  C   UNL A   1      53.048  26.768  31.261  1.00  0.00     0.020 A 
ATOM     74  C   UNL A   1      53.376  25.526  31.807  1.00  0.00     0.054 A 
BRANCH  74  75
ATOM     75  S   UNL A   1      55.108  25.001  31.923  1.00  0.00     0.124 S 
ATOM     76  O   UNL A   1      55.695  26.084  32.709  1.00  0.00    -0.237 OA
ATOM     77  O   UNL A   1      55.008  23.714  32.607  1.00  0.00    -0.237 OA
ATOM     78  O   UNL A   1      55.547  24.934  30.531  1.00  0.00    -0.744 OA
ENDBRANCH  74  75
ENDBRANCH  55  69
BRANCH  56  79
ATOM     79  C   UNL A   1      41.150  28.977  30.605  1.00  0.00    -0.014 A 
ATOM     80  C   UNL A   1      40.777  30.280  30.235  1.00  0.00     0.010 A 
ATOM     81  C   UNL A   1      40.145  28.024  30.852  1.00  0.00     0.010 A 
ATOM     82  C   UNL A   1      39.427  30.626  30.124  1.00  0.00     0.020 A 
ATOM     83  C   UNL A   1      38.796  28.355  30.709  1.00  0.00     0.020 A 
ATOM     84  C   UNL A   1      38.444  29.659  30.358  1.00  0.00     0.054 A 
BRANCH  84  85
ATOM     85  S   UNL A   1      36.700  30.115  30.155  1.00  0.00     0.124 S 
ATOM     86  O   UNL A   1      36.098  29.562  31.364  1.00  0.00    -0.237 OA
ATOM     87  O   UNL A   1      36.759  31.573  30.087  1.00  0.00    -0.237 OA
ATOM     88  O   UNL A   1      36.318  29.455  28.908  1.00  0.00    -0.744 OA
ENDBRANCH  84  85
ENDBRANCH  56  79
BRANCH  68  89
ATOM     89  C   UNL A   1      45.963  30.188  35.507  1.00  0.00    -0.014 A 
ATOM     90  C   UNL A   1      46.277  31.558  35.540  1.00  0.00     0.010 A 
ATOM     91  C   UNL A   1      45.583  29.546  36.701  1.00  0.00     0.010 A 
ATOM     92  C   UNL A   1      46.247  32.263  36.748  1.00  0.00     0.020 A 
ATOM     93  C   UNL A   1      45.523  30.253  37.905  1.00  0.00     0.020 A 
ATOM     94  C   UNL A   1      45.872  31.605  37.924  1.00  0.00     0.054 A 
BRANCH  94  95
ATOM     95  S   UNL A   1      45.809  32.548  39.472  1.00  0.00     0.124 S 
ATOM     96  O   UNL A   1      45.189  33.798  39.043  1.00  0.00    -0.237 OA
ATOM     97  O   UNL A   1      44.987  31.701  40.332  1.00  0.00    -0.237 OA
ATOM     98  O   UNL A   1      47.211  32.653  39.871  1.00  0.00    -0.744 OA
ENDBRANCH  94  95
ENDBRANCH  68  89
ENDBRANCH  42  43
ENDBRANCH  35  37
ENDBRANCH  34  35
ENDBRANCH  33  34
ENDBRANCH  32  33
ENDBRANCH  31  32
ENDBRANCH  30  31
ENDBRANCH   1  30
TORSDOF 24
ENDMDL
