MODEL 1
REMARK VINA RESULT:      -9.8      0.000      0.000
REMARK SMILES CC(C)[NH2+][C@]1(C(=O)OCCOCCOCCOC(=O)c2ccc(-c3c4nc(c(-c5ccc(S(=O)(=O)[O-])cc5)c5ccc([nH]5)c(-c5ccc(S(=O)(=O)[O-])cc5)c5nc(c(-c6ccc(S(=O)(=O)[O-])cc6)c6ccc3[nH]6)C=C5)C=C4)cc2)CC[C@H](Oc2cccc(CO)c2)C1
REMARK SMILES IDX 12 1 11 2 10 3 9 4 8 5 6 6 7 7 5 8 80 9 92 10 81 11 82 12
REMARK SMILES IDX 4 13 2 16 1 17 3 18 83 19 84 20 85 21 91 22 86 23 88 24
REMARK SMILES IDX 87 25 89 26 90 27 13 29 14 30 15 31 16 32 17 33 18 34 19 35
REMARK SMILES IDX 20 36 21 37 79 38 22 39 78 40 23 41 24 42 25 43 72 44 26 45
REMARK SMILES IDX 77 46 71 47 73 48 27 49 76 50 70 51 69 52 28 54 58 55 39 56
REMARK SMILES IDX 57 57 40 58 43 59 56 60 74 61 41 62 42 63 55 65 75 66 44 67
REMARK SMILES IDX 29 68 30 69 38 70 31 71 37 72 32 73 33 74 34 75 35 76 36 77
REMARK SMILES IDX 59 78 60 79 68 80 61 81 67 82 62 83 63 84 64 85 65 86 66 87
REMARK SMILES IDX 45 88 46 89 54 90 47 91 53 92 48 93 49 94 50 95 51 96 52 97
REMARK H PARENT 4 14 4 15 90 28 73 53 43 64
REMARK Flexibility Score: inf
ROOT
ATOM      1  C   UNL A   1      39.532  20.800  25.888  1.00  0.00     0.188 C 
ENDROOT
BRANCH   1   2
ATOM      2  O   UNL A   1      38.360  21.493  25.482  1.00  0.00    -0.376 OA
BRANCH   2   3
ATOM      3  C   UNL A   1      37.266  20.713  25.025  1.00  0.00     0.202 C 
BRANCH   3   4
ATOM      4  C   UNL A   1      35.949  21.435  24.708  1.00  0.00     0.261 C 
BRANCH   4   5
ATOM      5  O   UNL A   1      35.976  22.872  24.711  1.00  0.00    -0.459 OA
BRANCH   5   6
ATOM      6  C   UNL A   1      35.095  23.449  25.574  1.00  0.00     0.368 C 
ATOM      7  O   UNL A   1      35.164  23.319  26.794  1.00  0.00    -0.245 OA
BRANCH   6   8
ATOM      8  C   UNL A   1      33.911  24.175  24.906  1.00  0.00     0.198 C 
ATOM      9  C   UNL A   1      34.108  25.625  25.407  1.00  0.00     0.085 C 
ATOM     10  C   UNL A   1      34.094  24.340  23.378  1.00  0.00     0.126 C 
ATOM     11  C   UNL A   1      33.475  26.503  24.358  1.00  0.00     0.052 C 
ATOM     12  C   UNL A   1      33.717  25.791  23.022  1.00  0.00     0.180 C 
BRANCH   8  13
ATOM     13  N   UNL A   1      32.526  23.783  25.277  1.00  0.00    -0.330 N 
ATOM     14  H   UNL A   1      32.122  24.575  25.777  1.00  0.00     0.347 HD
ATOM     15  H   UNL A   1      32.113  23.525  24.381  1.00  0.00     0.347 HD
BRANCH  13  16
ATOM     16  C   UNL A   1      32.282  22.597  26.104  1.00  0.00     0.176 C 
ATOM     17  C   UNL A   1      30.972  22.863  26.862  1.00  0.00     0.075 C 
ATOM     18  C   UNL A   1      32.135  21.282  25.339  1.00  0.00     0.075 C 
ENDBRANCH  13  16
ENDBRANCH   8  13
BRANCH  12  19
ATOM     19  O   UNL A   1      32.540  25.777  22.200  1.00  0.00    -0.490 OA
BRANCH  19  20
ATOM     20  C   UNL A   1      31.398  26.317  22.733  1.00  0.00     0.120 A 
ATOM     21  C   UNL A   1      30.483  25.641  23.540  1.00  0.00     0.046 A 
ATOM     22  C   UNL A   1      31.147  27.644  22.375  1.00  0.00     0.052 A 
ATOM     23  C   UNL A   1      29.279  26.245  23.897  1.00  0.00     0.004 A 
ATOM     24  C   UNL A   1      29.955  28.276  22.761  1.00  0.00    -0.019 A 
ATOM     25  C   UNL A   1      29.009  27.552  23.498  1.00  0.00     0.006 A 
BRANCH  24  26
ATOM     26  C   UNL A   1      29.674  29.702  22.373  1.00  0.00     0.191 C 
BRANCH  26  27
ATOM     27  O   UNL A   1      30.466  30.078  21.254  1.00  0.00    -0.392 OA
ATOM     28  H   UNL A   1      31.219  30.610  21.555  1.00  0.00     0.211 HD
ENDBRANCH  26  27
ENDBRANCH  24  26
ENDBRANCH  19  20
ENDBRANCH  12  19
ENDBRANCH   6   8
ENDBRANCH   5   6
ENDBRANCH   4   5
ENDBRANCH   3   4
ENDBRANCH   2   3
ENDBRANCH   1   2
BRANCH   1  29
ATOM     29  C   UNL A   1      40.726  21.653  26.294  1.00  0.00     0.188 C 
BRANCH  29  30
ATOM     30  O   UNL A   1      41.924  21.401  25.564  1.00  0.00    -0.376 OA
BRANCH  30  31
ATOM     31  C   UNL A   1      42.999  22.304  25.846  1.00  0.00     0.202 C 
BRANCH  31  32
ATOM     32  C   UNL A   1      42.652  23.510  26.741  1.00  0.00     0.261 C 
BRANCH  32  33
ATOM     33  O   UNL A   1      42.957  24.802  26.169  1.00  0.00    -0.460 OA
BRANCH  33  34
ATOM     34  C   UNL A   1      41.940  25.688  26.031  1.00  0.00     0.338 C 
ATOM     35  O   UNL A   1      41.126  25.714  25.124  1.00  0.00    -0.246 OA
BRANCH  34  36
ATOM     36  C   UNL A   1      41.802  26.446  27.307  1.00  0.00     0.060 A 
ATOM     37  C   UNL A   1      40.744  26.118  28.168  1.00  0.00     0.016 A 
ATOM     38  C   UNL A   1      42.743  27.403  27.703  1.00  0.00     0.016 A 
ATOM     39  C   UNL A   1      40.607  26.762  29.402  1.00  0.00     0.010 A 
ATOM     40  C   UNL A   1      42.598  28.056  28.934  1.00  0.00     0.010 A 
ATOM     41  C   UNL A   1      41.516  27.759  29.781  1.00  0.00    -0.014 A 
BRANCH  41  42
ATOM     42  C   UNL A   1      41.251  28.609  30.973  1.00  0.00     0.031 A 
ATOM     43  C   UNL A   1      40.123  29.606  30.907  1.00  0.00     0.074 A 
ATOM     44  C   UNL A   1      41.985  28.508  32.097  1.00  0.00     0.049 A 
ATOM     45  N   UNL A   1      39.740  30.484  31.797  1.00  0.00    -0.248 NA
ATOM     46  C   UNL A   1      39.323  29.609  29.672  1.00  0.00     0.031 C 
ATOM     47  C   UNL A   1      43.076  27.561  32.320  1.00  0.00     0.029 A 
ATOM     48  N   UNL A   1      41.920  29.227  33.269  1.00  0.00    -0.354 N 
ATOM     49  C   UNL A   1      38.659  31.150  31.229  1.00  0.00     0.074 A 
ATOM     50  C   UNL A   1      38.464  30.590  29.909  1.00  0.00     0.031 C 
ATOM     51  C   UNL A   1      43.586  27.765  33.548  1.00  0.00     0.029 A 
ATOM     52  C   UNL A   1      42.882  28.879  34.186  1.00  0.00     0.049 A 
ATOM     53  H   UNL A   1      41.247  29.926  33.433  1.00  0.00     0.167 HD
ATOM     54  C   UNL A   1      37.895  32.135  31.755  1.00  0.00     0.031 A 
ATOM     55  C   UNL A   1      43.181  29.411  35.391  1.00  0.00     0.031 A 
ATOM     56  C   UNL A   1      38.092  32.711  33.058  1.00  0.00     0.049 A 
ATOM     57  C   UNL A   1      42.371  30.571  35.919  1.00  0.00     0.074 A 
ATOM     58  C   UNL A   1      37.353  33.703  33.678  1.00  0.00     0.029 A 
ATOM     59  N   UNL A   1      39.104  32.359  33.937  1.00  0.00    -0.354 N 
ATOM     60  N   UNL A   1      41.333  31.166  35.382  1.00  0.00    -0.248 NA
ATOM     61  C   UNL A   1      42.774  31.127  37.220  1.00  0.00     0.031 C 
ATOM     62  C   UNL A   1      37.956  33.997  34.906  1.00  0.00     0.029 A 
ATOM     63  C   UNL A   1      39.031  33.141  35.078  1.00  0.00     0.049 A 
ATOM     64  H   UNL A   1      39.776  31.659  33.774  1.00  0.00     0.167 HD
ATOM     65  C   UNL A   1      40.949  32.151  36.290  1.00  0.00     0.074 A 
ATOM     66  C   UNL A   1      41.851  32.059  37.417  1.00  0.00     0.031 C 
ATOM     67  C   UNL A   1      39.936  33.048  36.197  1.00  0.00     0.031 A 
BRANCH  54  68
ATOM     68  C   UNL A   1      36.787  32.685  30.897  1.00  0.00    -0.014 A 
ATOM     69  C   UNL A   1      35.452  32.286  31.085  1.00  0.00     0.010 A 
ATOM     70  C   UNL A   1      37.085  33.650  29.918  1.00  0.00     0.010 A 
ATOM     71  C   UNL A   1      34.438  32.817  30.285  1.00  0.00     0.020 A 
ATOM     72  C   UNL A   1      36.069  34.203  29.133  1.00  0.00     0.020 A 
ATOM     73  C   UNL A   1      34.754  33.772  29.312  1.00  0.00     0.054 A 
BRANCH  73  74
ATOM     74  S   UNL A   1      33.414  34.464  28.306  1.00  0.00     0.124 S 
ATOM     75  O   UNL A   1      32.901  33.274  27.630  1.00  0.00    -0.237 OA
ATOM     76  O   UNL A   1      32.527  35.045  29.310  1.00  0.00    -0.237 OA
ATOM     77  O   UNL A   1      34.090  35.427  27.441  1.00  0.00    -0.744 OA
ENDBRANCH  73  74
ENDBRANCH  54  68
BRANCH  55  78
ATOM     78  C   UNL A   1      44.330  28.880  36.181  1.00  0.00    -0.014 A 
ATOM     79  C   UNL A   1      45.607  29.456  36.073  1.00  0.00     0.010 A 
ATOM     80  C   UNL A   1      44.152  27.769  37.026  1.00  0.00     0.010 A 
ATOM     81  C   UNL A   1      46.689  28.922  36.781  1.00  0.00     0.020 A 
ATOM     82  C   UNL A   1      45.224  27.250  37.758  1.00  0.00     0.020 A 
ATOM     83  C   UNL A   1      46.489  27.822  37.621  1.00  0.00     0.054 A 
BRANCH  83  84
ATOM     84  S   UNL A   1      47.898  27.171  38.564  1.00  0.00     0.124 S 
ATOM     85  O   UNL A   1      47.469  25.806  38.847  1.00  0.00    -0.237 OA
ATOM     86  O   UNL A   1      49.001  27.304  37.613  1.00  0.00    -0.237 OA
ATOM     87  O   UNL A   1      47.973  28.059  39.722  1.00  0.00    -0.744 OA
ENDBRANCH  83  84
ENDBRANCH  55  78
BRANCH  67  88
ATOM     88  C   UNL A   1      39.724  33.993  37.353  1.00  0.00    -0.014 A 
ATOM     89  C   UNL A   1      39.063  33.579  38.524  1.00  0.00     0.010 A 
ATOM     90  C   UNL A   1      40.250  35.298  37.292  1.00  0.00     0.010 A 
ATOM     91  C   UNL A   1      38.906  34.462  39.598  1.00  0.00     0.020 A 
ATOM     92  C   UNL A   1      40.120  36.173  38.374  1.00  0.00     0.020 A 
ATOM     93  C   UNL A   1      39.435  35.753  39.517  1.00  0.00     0.054 A 
BRANCH  93  94
ATOM     94  S   UNL A   1      39.257  36.864  40.940  1.00  0.00     0.124 S 
ATOM     95  O   UNL A   1      40.649  37.128  41.295  1.00  0.00    -0.237 OA
ATOM     96  O   UNL A   1      38.527  37.996  40.376  1.00  0.00    -0.237 OA
ATOM     97  O   UNL A   1      38.508  36.068  41.910  1.00  0.00    -0.744 OA
ENDBRANCH  93  94
ENDBRANCH  67  88
ENDBRANCH  41  42
ENDBRANCH  34  36
ENDBRANCH  33  34
ENDBRANCH  32  33
ENDBRANCH  31  32
ENDBRANCH  30  31
ENDBRANCH  29  30
ENDBRANCH   1  29
TORSDOF 26
ENDMDL
MODEL 2
REMARK VINA RESULT:      -9.6      6.490     11.673
REMARK SMILES CC(C)[NH2+][C@]1(C(=O)OCCOCCOCCOC(=O)c2ccc(-c3c4nc(c(-c5ccc(S(=O)(=O)[O-])cc5)c5ccc([nH]5)c(-c5ccc(S(=O)(=O)[O-])cc5)c5nc(c(-c6ccc(S(=O)(=O)[O-])cc6)c6ccc3[nH]6)C=C5)C=C4)cc2)CC[C@H](Oc2cccc(CO)c2)C1
REMARK SMILES IDX 12 1 11 2 10 3 9 4 8 5 6 6 7 7 5 8 80 9 92 10 81 11 82 12
REMARK SMILES IDX 4 13 2 16 1 17 3 18 83 19 84 20 85 21 91 22 86 23 88 24
REMARK SMILES IDX 87 25 89 26 90 27 13 29 14 30 15 31 16 32 17 33 18 34 19 35
REMARK SMILES IDX 20 36 21 37 79 38 22 39 78 40 23 41 24 42 25 43 72 44 26 45
REMARK SMILES IDX 77 46 71 47 73 48 27 49 76 50 70 51 69 52 28 54 58 55 39 56
REMARK SMILES IDX 57 57 40 58 43 59 56 60 74 61 41 62 42 63 55 65 75 66 44 67
REMARK SMILES IDX 29 68 30 69 38 70 31 71 37 72 32 73 33 74 34 75 35 76 36 77
REMARK SMILES IDX 59 78 60 79 68 80 61 81 67 82 62 83 63 84 64 85 65 86 66 87
REMARK SMILES IDX 45 88 46 89 54 90 47 91 53 92 48 93 49 94 50 95 51 96 52 97
REMARK H PARENT 4 14 4 15 90 28 73 53 43 64
REMARK Flexibility Score: inf
ROOT
ATOM      1  C   UNL A   1      31.957  28.066  27.579  1.00  0.00     0.188 C 
ENDROOT
BRANCH   1   2
ATOM      2  O   UNL A   1      30.882  27.155  27.396  1.00  0.00    -0.376 OA
BRANCH   2   3
ATOM      3  C   UNL A   1      30.698  26.616  26.096  1.00  0.00     0.202 C 
BRANCH   3   4
ATOM      4  C   UNL A   1      30.302  25.138  25.980  1.00  0.00     0.261 C 
BRANCH   4   5
ATOM      5  O   UNL A   1      31.232  24.170  26.493  1.00  0.00    -0.459 OA
BRANCH   5   6
ATOM      6  C   UNL A   1      31.653  23.254  25.578  1.00  0.00     0.368 C 
ATOM      7  O   UNL A   1      31.355  22.063  25.633  1.00  0.00    -0.245 OA
BRANCH   6   8
ATOM      8  C   UNL A   1      32.649  23.789  24.533  1.00  0.00     0.198 C 
ATOM      9  C   UNL A   1      32.875  22.543  23.645  1.00  0.00     0.085 C 
ATOM     10  C   UNL A   1      31.998  24.776  23.533  1.00  0.00     0.126 C 
ATOM     11  C   UNL A   1      33.258  23.077  22.289  1.00  0.00     0.052 C 
ATOM     12  C   UNL A   1      32.471  24.382  22.121  1.00  0.00     0.180 C 
BRANCH   8  13
ATOM     13  N   UNL A   1      33.994  24.236  24.983  1.00  0.00    -0.330 N 
ATOM     14  H   UNL A   1      34.417  24.728  24.197  1.00  0.00     0.347 HD
ATOM     15  H   UNL A   1      33.786  24.774  25.825  1.00  0.00     0.347 HD
BRANCH  13  16
ATOM     16  C   UNL A   1      34.985  23.263  25.452  1.00  0.00     0.176 C 
ATOM     17  C   UNL A   1      36.353  23.956  25.342  1.00  0.00     0.075 C 
ATOM     18  C   UNL A   1      34.805  22.783  26.892  1.00  0.00     0.075 C 
ENDBRANCH  13  16
ENDBRANCH   8  13
BRANCH  12  19
ATOM     19  O   UNL A   1      33.287  25.437  21.592  1.00  0.00    -0.490 OA
BRANCH  19  20
ATOM     20  C   UNL A   1      33.232  26.650  22.228  1.00  0.00     0.120 A 
ATOM     21  C   UNL A   1      34.244  27.197  23.017  1.00  0.00     0.046 A 
ATOM     22  C   UNL A   1      32.027  27.343  22.083  1.00  0.00     0.052 A 
ATOM     23  C   UNL A   1      34.019  28.366  23.741  1.00  0.00     0.004 A 
ATOM     24  C   UNL A   1      31.802  28.542  22.776  1.00  0.00    -0.019 A 
ATOM     25  C   UNL A   1      32.799  29.029  23.633  1.00  0.00     0.006 A 
BRANCH  24  26
ATOM     26  C   UNL A   1      30.505  29.288  22.632  1.00  0.00     0.191 C 
BRANCH  26  27
ATOM     27  O   UNL A   1      30.303  29.678  21.279  1.00  0.00    -0.392 OA
ATOM     28  H   UNL A   1      29.535  30.267  21.223  1.00  0.00     0.211 HD
ENDBRANCH  26  27
ENDBRANCH  24  26
ENDBRANCH  19  20
ENDBRANCH  12  19
ENDBRANCH   6   8
ENDBRANCH   5   6
ENDBRANCH   4   5
ENDBRANCH   3   4
ENDBRANCH   2   3
ENDBRANCH   1   2
BRANCH   1  29
ATOM     29  C   UNL A   1      31.790  29.454  26.976  1.00  0.00     0.188 C 
BRANCH  29  30
ATOM     30  O   UNL A   1      32.700  30.437  27.462  1.00  0.00    -0.376 OA
BRANCH  30  31
ATOM     31  C   UNL A   1      34.060  30.248  27.057  1.00  0.00     0.202 C 
BRANCH  31  32
ATOM     32  C   UNL A   1      35.135  30.759  28.037  1.00  0.00     0.261 C 
BRANCH  32  33
ATOM     33  O   UNL A   1      36.435  30.145  27.891  1.00  0.00    -0.460 OA
BRANCH  33  34
ATOM     34  C   UNL A   1      37.054  29.705  29.013  1.00  0.00     0.338 C 
ATOM     35  O   UNL A   1      36.515  29.418  30.069  1.00  0.00    -0.246 OA
BRANCH  34  36
ATOM     36  C   UNL A   1      38.461  29.355  28.666  1.00  0.00     0.060 A 
ATOM     37  C   UNL A   1      39.319  28.939  29.695  1.00  0.00     0.016 A 
ATOM     38  C   UNL A   1      38.915  29.344  27.342  1.00  0.00     0.016 A 
ATOM     39  C   UNL A   1      40.631  28.545  29.409  1.00  0.00     0.010 A 
ATOM     40  C   UNL A   1      40.232  28.961  27.059  1.00  0.00     0.010 A 
ATOM     41  C   UNL A   1      41.107  28.583  28.092  1.00  0.00    -0.014 A 
BRANCH  41  42
ATOM     42  C   UNL A   1      42.555  28.394  27.807  1.00  0.00     0.031 A 
ATOM     43  C   UNL A   1      43.491  29.551  28.044  1.00  0.00     0.074 A 
ATOM     44  C   UNL A   1      43.045  27.226  27.350  1.00  0.00     0.049 A 
ATOM     45  N   UNL A   1      44.776  29.637  27.820  1.00  0.00    -0.248 NA
ATOM     46  C   UNL A   1      42.893  30.771  28.611  1.00  0.00     0.031 C 
ATOM     47  C   UNL A   1      42.267  26.011  27.116  1.00  0.00     0.029 A 
ATOM     48  N   UNL A   1      44.327  26.878  26.992  1.00  0.00    -0.354 N 
ATOM     49  C   UNL A   1      45.141  30.921  28.210  1.00  0.00     0.074 A 
ATOM     50  C   UNL A   1      43.937  31.585  28.662  1.00  0.00     0.031 C 
ATOM     51  C   UNL A   1      43.087  25.054  26.642  1.00  0.00     0.029 A 
ATOM     52  C   UNL A   1      44.439  25.597  26.506  1.00  0.00     0.049 A 
ATOM     53  H   UNL A   1      45.092  27.491  27.075  1.00  0.00     0.167 HD
ATOM     54  C   UNL A   1      46.366  31.498  28.198  1.00  0.00     0.031 A 
ATOM     55  C   UNL A   1      45.501  24.945  25.987  1.00  0.00     0.031 A 
ATOM     56  C   UNL A   1      47.565  30.853  27.734  1.00  0.00     0.049 A 
ATOM     57  C   UNL A   1      46.838  25.640  25.900  1.00  0.00     0.074 A 
ATOM     58  C   UNL A   1      48.853  31.359  27.702  1.00  0.00     0.029 A 
ATOM     59  N   UNL A   1      47.626  29.572  27.210  1.00  0.00    -0.354 N 
ATOM     60  N   UNL A   1      47.172  26.842  26.302  1.00  0.00    -0.248 NA
ATOM     61  C   UNL A   1      47.943  24.884  25.289  1.00  0.00     0.031 C 
ATOM     62  C   UNL A   1      49.683  30.407  27.100  1.00  0.00     0.029 A 
ATOM     63  C   UNL A   1      48.923  29.284  26.818  1.00  0.00     0.049 A 
ATOM     64  H   UNL A   1      46.862  28.958  27.128  1.00  0.00     0.167 HD
ATOM     65  C   UNL A   1      48.528  26.977  26.013  1.00  0.00     0.074 A 
ATOM     66  C   UNL A   1      48.957  25.729  25.419  1.00  0.00     0.031 C 
ATOM     67  C   UNL A   1      49.344  28.040  26.223  1.00  0.00     0.031 A 
BRANCH  54  68
ATOM     68  C   UNL A   1      46.464  32.923  28.671  1.00  0.00    -0.014 A 
ATOM     69  C   UNL A   1      46.727  33.229  30.018  1.00  0.00     0.010 A 
ATOM     70  C   UNL A   1      46.336  33.971  27.741  1.00  0.00     0.010 A 
ATOM     71  C   UNL A   1      46.826  34.559  30.433  1.00  0.00     0.020 A 
ATOM     72  C   UNL A   1      46.460  35.302  28.148  1.00  0.00     0.020 A 
ATOM     73  C   UNL A   1      46.690  35.588  29.494  1.00  0.00     0.054 A 
BRANCH  73  74
ATOM     74  S   UNL A   1      46.848  37.304  30.058  1.00  0.00     0.124 S 
ATOM     75  O   UNL A   1      47.446  37.132  31.380  1.00  0.00    -0.237 OA
ATOM     76  O   UNL A   1      47.721  37.894  29.047  1.00  0.00    -0.237 OA
ATOM     77  O   UNL A   1      45.473  37.798  30.057  1.00  0.00    -0.744 OA
ENDBRANCH  73  74
ENDBRANCH  54  68
BRANCH  55  78
ATOM     78  C   UNL A   1      45.345  23.555  25.468  1.00  0.00    -0.014 A 
ATOM     79  C   UNL A   1      44.843  23.319  24.177  1.00  0.00     0.010 A 
ATOM     80  C   UNL A   1      45.674  22.456  26.283  1.00  0.00     0.010 A 
ATOM     81  C   UNL A   1      44.655  22.011  23.716  1.00  0.00     0.020 A 
ATOM     82  C   UNL A   1      45.516  21.148  25.816  1.00  0.00     0.020 A 
ATOM     83  C   UNL A   1      44.995  20.933  24.539  1.00  0.00     0.054 A 
BRANCH  83  84
ATOM     84  S   UNL A   1      44.784  19.245  23.905  1.00  0.00     0.124 S 
ATOM     85  O   UNL A   1      43.587  18.802  24.611  1.00  0.00    -0.237 OA
ATOM     86  O   UNL A   1      44.627  19.466  22.468  1.00  0.00    -0.237 OA
ATOM     87  O   UNL A   1      46.025  18.577  24.293  1.00  0.00    -0.744 OA
ENDBRANCH  83  84
ENDBRANCH  55  78
BRANCH  67  88
ATOM     88  C   UNL A   1      50.795  27.902  25.836  1.00  0.00    -0.014 A 
ATOM     89  C   UNL A   1      51.252  28.290  24.564  1.00  0.00     0.010 A 
ATOM     90  C   UNL A   1      51.727  27.434  26.782  1.00  0.00     0.010 A 
ATOM     91  C   UNL A   1      52.609  28.184  24.236  1.00  0.00     0.020 A 
ATOM     92  C   UNL A   1      53.087  27.354  26.468  1.00  0.00     0.020 A 
ATOM     93  C   UNL A   1      53.518  27.717  25.190  1.00  0.00     0.054 A 
BRANCH  93  94
ATOM     94  S   UNL A   1      55.277  27.632  24.755  1.00  0.00     0.124 S 
ATOM     95  O   UNL A   1      55.284  26.601  23.720  1.00  0.00    -0.237 OA
ATOM     96  O   UNL A   1      55.560  28.988  24.293  1.00  0.00    -0.237 OA
ATOM     97  O   UNL A   1      55.928  27.258  26.009  1.00  0.00    -0.744 OA
ENDBRANCH  93  94
ENDBRANCH  67  88
ENDBRANCH  41  42
ENDBRANCH  34  36
ENDBRANCH  33  34
ENDBRANCH  32  33
ENDBRANCH  31  32
ENDBRANCH  30  31
ENDBRANCH  29  30
ENDBRANCH   1  29
TORSDOF 26
ENDMDL
MODEL 3
REMARK VINA RESULT:      -9.4      1.165      8.058
REMARK SMILES CC(C)[NH2+][C@]1(C(=O)OCCOCCOCCOC(=O)c2ccc(-c3c4nc(c(-c5ccc(S(=O)(=O)[O-])cc5)c5ccc([nH]5)c(-c5ccc(S(=O)(=O)[O-])cc5)c5nc(c(-c6ccc(S(=O)(=O)[O-])cc6)c6ccc3[nH]6)C=C5)C=C4)cc2)CC[C@H](Oc2cccc(CO)c2)C1
REMARK SMILES IDX 12 1 11 2 10 3 9 4 8 5 6 6 7 7 5 8 80 9 92 10 81 11 82 12
REMARK SMILES IDX 4 13 2 16 1 17 3 18 83 19 84 20 85 21 91 22 86 23 88 24
REMARK SMILES IDX 87 25 89 26 90 27 13 29 14 30 15 31 16 32 17 33 18 34 19 35
REMARK SMILES IDX 20 36 21 37 79 38 22 39 78 40 23 41 24 42 25 43 72 44 26 45
REMARK SMILES IDX 77 46 71 47 73 48 27 49 76 50 70 51 69 52 28 54 58 55 39 56
REMARK SMILES IDX 57 57 40 58 43 59 56 60 74 61 41 62 42 63 55 65 75 66 44 67
REMARK SMILES IDX 29 68 30 69 38 70 31 71 37 72 32 73 33 74 34 75 35 76 36 77
REMARK SMILES IDX 59 78 60 79 68 80 61 81 67 82 62 83 63 84 64 85 65 86 66 87
REMARK SMILES IDX 45 88 46 89 54 90 47 91 53 92 48 93 49 94 50 95 51 96 52 97
REMARK H PARENT 4 14 4 15 90 28 73 53 43 64
REMARK Flexibility Score: inf
ROOT
ATOM      1  C   UNL A   1      39.876  21.491  26.290  1.00  0.00     0.188 C 
ENDROOT
BRANCH   1   2
ATOM      2  O   UNL A   1      38.867  22.491  26.291  1.00  0.00    -0.376 OA
BRANCH   2   3
ATOM      3  C   UNL A   1      37.700  22.241  25.522  1.00  0.00     0.202 C 
BRANCH   3   4
ATOM      4  C   UNL A   1      36.838  23.442  25.111  1.00  0.00     0.261 C 
BRANCH   4   5
ATOM      5  O   UNL A   1      35.417  23.239  25.059  1.00  0.00    -0.459 OA
BRANCH   5   6
ATOM      6  C   UNL A   1      34.876  23.364  23.816  1.00  0.00     0.368 C 
ATOM      7  O   UNL A   1      35.535  23.276  22.783  1.00  0.00    -0.245 OA
BRANCH   6   8
ATOM      8  C   UNL A   1      33.388  23.764  23.792  1.00  0.00     0.198 C 
ATOM      9  C   UNL A   1      32.705  22.469  24.288  1.00  0.00     0.085 C 
ATOM     10  C   UNL A   1      33.019  24.767  24.912  1.00  0.00     0.126 C 
ATOM     11  C   UNL A   1      31.411  22.912  24.922  1.00  0.00     0.052 C 
ATOM     12  C   UNL A   1      31.708  24.276  25.556  1.00  0.00     0.180 C 
BRANCH   8  13
ATOM     13  N   UNL A   1      32.756  24.104  22.489  1.00  0.00    -0.330 N 
ATOM     14  H   UNL A   1      33.404  23.801  21.762  1.00  0.00     0.347 HD
ATOM     15  H   UNL A   1      31.851  23.637  22.545  1.00  0.00     0.347 HD
BRANCH  13  16
ATOM     16  C   UNL A   1      32.392  25.490  22.176  1.00  0.00     0.176 C 
ATOM     17  C   UNL A   1      33.673  26.321  22.357  1.00  0.00     0.075 C 
ATOM     18  C   UNL A   1      31.863  25.726  20.762  1.00  0.00     0.075 C 
ENDBRANCH  13  16
ENDBRANCH   8  13
BRANCH  12  19
ATOM     19  O   UNL A   1      30.671  25.230  25.287  1.00  0.00    -0.490 OA
BRANCH  19  20
ATOM     20  C   UNL A   1      31.018  26.556  25.311  1.00  0.00     0.120 A 
ATOM     21  C   UNL A   1      31.724  27.189  26.334  1.00  0.00     0.046 A 
ATOM     22  C   UNL A   1      30.571  27.307  24.221  1.00  0.00     0.052 A 
ATOM     23  C   UNL A   1      31.887  28.574  26.325  1.00  0.00     0.004 A 
ATOM     24  C   UNL A   1      30.763  28.697  24.181  1.00  0.00    -0.019 A 
ATOM     25  C   UNL A   1      31.396  29.326  25.261  1.00  0.00     0.006 A 
BRANCH  24  26
ATOM     26  C   UNL A   1      30.276  29.512  23.016  1.00  0.00     0.191 C 
BRANCH  26  27
ATOM     27  O   UNL A   1      30.793  28.996  21.796  1.00  0.00    -0.392 OA
ATOM     28  H   UNL A   1      30.080  28.570  21.297  1.00  0.00     0.211 HD
ENDBRANCH  26  27
ENDBRANCH  24  26
ENDBRANCH  19  20
ENDBRANCH  12  19
ENDBRANCH   6   8
ENDBRANCH   5   6
ENDBRANCH   4   5
ENDBRANCH   3   4
ENDBRANCH   2   3
ENDBRANCH   1   2
BRANCH   1  29
ATOM     29  C   UNL A   1      41.302  21.957  26.549  1.00  0.00     0.188 C 
BRANCH  29  30
ATOM     30  O   UNL A   1      42.185  21.847  25.435  1.00  0.00    -0.376 OA
BRANCH  30  31
ATOM     31  C   UNL A   1      43.503  22.359  25.662  1.00  0.00     0.202 C 
BRANCH  31  32
ATOM     32  C   UNL A   1      43.621  23.479  26.715  1.00  0.00     0.261 C 
BRANCH  32  33
ATOM     33  O   UNL A   1      43.709  24.817  26.175  1.00  0.00    -0.460 OA
BRANCH  33  34
ATOM     34  C   UNL A   1      42.555  25.511  26.019  1.00  0.00     0.338 C 
ATOM     35  O   UNL A   1      41.696  25.302  25.179  1.00  0.00    -0.246 OA
BRANCH  34  36
ATOM     36  C   UNL A   1      42.369  26.386  27.212  1.00  0.00     0.060 A 
ATOM     37  C   UNL A   1      41.332  26.083  28.107  1.00  0.00     0.016 A 
ATOM     38  C   UNL A   1      43.249  27.434  27.504  1.00  0.00     0.016 A 
ATOM     39  C   UNL A   1      41.155  26.840  29.270  1.00  0.00     0.010 A 
ATOM     40  C   UNL A   1      43.063  28.199  28.662  1.00  0.00     0.010 A 
ATOM     41  C   UNL A   1      42.000  27.925  29.541  1.00  0.00    -0.014 A 
BRANCH  41  42
ATOM     42  C   UNL A   1      41.682  28.873  30.641  1.00  0.00     0.031 A 
ATOM     43  C   UNL A   1      42.515  28.825  31.895  1.00  0.00     0.074 A 
ATOM     44  C   UNL A   1      40.678  29.766  30.543  1.00  0.00     0.049 A 
ATOM     45  N   UNL A   1      42.392  29.515  32.999  1.00  0.00    -0.248 NA
ATOM     46  C   UNL A   1      43.637  27.872  31.900  1.00  0.00     0.031 C 
ATOM     47  C   UNL A   1      39.818  29.956  29.377  1.00  0.00     0.029 A 
ATOM     48  N   UNL A   1      40.210  30.681  31.458  1.00  0.00    -0.354 N 
ATOM     49  C   UNL A   1      43.414  29.076  33.834  1.00  0.00     0.074 A 
ATOM     50  C   UNL A   1      44.132  28.043  33.116  1.00  0.00     0.031 C 
ATOM     51  C   UNL A   1      38.919  30.919  29.651  1.00  0.00     0.029 A 
ATOM     52  C   UNL A   1      39.116  31.391  31.023  1.00  0.00     0.049 A 
ATOM     53  H   UNL A   1      40.620  30.814  32.343  1.00  0.00     0.167 HD
ATOM     54  C   UNL A   1      43.732  29.492  35.082  1.00  0.00     0.031 A 
ATOM     55  C   UNL A   1      38.346  32.296  31.662  1.00  0.00     0.031 A 
ATOM     56  C   UNL A   1      43.014  30.503  35.810  1.00  0.00     0.049 A 
ATOM     57  C   UNL A   1      38.665  32.679  33.087  1.00  0.00     0.074 A 
ATOM     58  C   UNL A   1      43.278  30.998  37.076  1.00  0.00     0.029 A 
ATOM     59  N   UNL A   1      41.887  31.165  35.349  1.00  0.00    -0.354 N 
ATOM     60  N   UNL A   1      39.653  32.277  33.849  1.00  0.00    -0.248 NA
ATOM     61  C   UNL A   1      37.762  33.643  33.736  1.00  0.00     0.031 C 
ATOM     62  C   UNL A   1      42.273  31.914  37.405  1.00  0.00     0.029 A 
ATOM     63  C   UNL A   1      41.423  32.037  36.320  1.00  0.00     0.049 A 
ATOM     64  H   UNL A   1      41.477  31.034  34.464  1.00  0.00     0.167 HD
ATOM     65  C   UNL A   1      39.502  32.955  35.057  1.00  0.00     0.074 A 
ATOM     66  C   UNL A   1      38.340  33.806  34.919  1.00  0.00     0.031 C 
ATOM     67  C   UNL A   1      40.261  32.880  36.178  1.00  0.00     0.031 A 
BRANCH  54  68
ATOM     68  C   UNL A   1      44.895  28.820  35.761  1.00  0.00    -0.014 A 
ATOM     69  C   UNL A   1      44.718  27.656  36.530  1.00  0.00     0.010 A 
ATOM     70  C   UNL A   1      46.192  29.339  35.587  1.00  0.00     0.010 A 
ATOM     71  C   UNL A   1      45.813  27.042  37.142  1.00  0.00     0.020 A 
ATOM     72  C   UNL A   1      47.293  28.712  36.176  1.00  0.00     0.020 A 
ATOM     73  C   UNL A   1      47.094  27.575  36.962  1.00  0.00     0.054 A 
BRANCH  73  74
ATOM     74  S   UNL A   1      48.500  26.742  37.747  1.00  0.00     0.124 S 
ATOM     75  O   UNL A   1      49.618  27.198  36.923  1.00  0.00    -0.237 OA
ATOM     76  O   UNL A   1      48.468  27.271  39.108  1.00  0.00    -0.237 OA
ATOM     77  O   UNL A   1      48.176  25.323  37.625  1.00  0.00    -0.744 OA
ENDBRANCH  73  74
ENDBRANCH  54  68
BRANCH  55  78
ATOM     78  C   UNL A   1      37.161  32.889  30.975  1.00  0.00    -0.014 A 
ATOM     79  C   UNL A   1      37.321  33.750  29.875  1.00  0.00     0.010 A 
ATOM     80  C   UNL A   1      35.863  32.615  31.443  1.00  0.00     0.010 A 
ATOM     81  C   UNL A   1      36.207  34.340  29.268  1.00  0.00     0.020 A 
ATOM     82  C   UNL A   1      34.745  33.178  30.820  1.00  0.00     0.020 A 
ATOM     83  C   UNL A   1      34.925  34.047  29.744  1.00  0.00     0.054 A 
BRANCH  83  84
ATOM     84  S   UNL A   1      33.491  34.789  28.913  1.00  0.00     0.124 S 
ATOM     85  O   UNL A   1      34.009  36.094  28.519  1.00  0.00    -0.237 OA
ATOM     86  O   UNL A   1      33.241  33.851  27.820  1.00  0.00    -0.237 OA
ATOM     87  O   UNL A   1      32.466  34.809  29.954  1.00  0.00    -0.744 OA
ENDBRANCH  83  84
ENDBRANCH  55  78
BRANCH  67  88
ATOM     88  C   UNL A   1      39.883  33.757  37.345  1.00  0.00    -0.014 A 
ATOM     89  C   UNL A   1      38.981  33.315  38.330  1.00  0.00     0.010 A 
ATOM     90  C   UNL A   1      40.488  35.020  37.492  1.00  0.00     0.010 A 
ATOM     91  C   UNL A   1      38.669  34.132  39.422  1.00  0.00     0.020 A 
ATOM     92  C   UNL A   1      40.200  35.827  38.596  1.00  0.00     0.020 A 
ATOM     93  C   UNL A   1      39.280  35.383  39.549  1.00  0.00     0.054 A 
BRANCH  93  94
ATOM     94  S   UNL A   1      38.893  36.404  40.997  1.00  0.00     0.124 S 
ATOM     95  O   UNL A   1      40.171  36.428  41.704  1.00  0.00    -0.237 OA
ATOM     96  O   UNL A   1      38.483  37.671  40.397  1.00  0.00    -0.237 OA
ATOM     97  O   UNL A   1      37.825  35.665  41.668  1.00  0.00    -0.744 OA
ENDBRANCH  93  94
ENDBRANCH  67  88
ENDBRANCH  41  42
ENDBRANCH  34  36
ENDBRANCH  33  34
ENDBRANCH  32  33
ENDBRANCH  31  32
ENDBRANCH  30  31
ENDBRANCH  29  30
ENDBRANCH   1  29
TORSDOF 26
ENDMDL
