MODEL 1
REMARK VINA RESULT:     -11.5      0.000      0.000
REMARK SMILES Cn1cc(-c2cc(C(F)(F)F)c3c(C4CC4)nn(CC(=O)OCCOCCOCCOC(=O)c4ccc(-c5c6nc(c(-c7ccc(S(=O)(=O)[O-])cc7)c7ccc([nH]7)c(-c7ccc(S(=O)(=O)[O-])cc7)c7nc(c(-c8ccc(S(=O)(=O)[O-])cc8)c8ccc5[nH]8)C=C7)C=C6)cc4)c3n2)cn1
REMARK SMILES IDX 27 1 26 2 25 3 24 4 23 5 22 6 20 7 21 8 19 9 18 10 5 11 6 12
REMARK SMILES IDX 95 13 7 14 94 15 12 16 13 17 17 18 4 19 1 20 2 21 3 22 97 23
REMARK SMILES IDX 96 24 8 25 9 26 10 27 11 28 14 29 15 30 16 31 28 32 29 33
REMARK SMILES IDX 30 34 31 35 32 36 33 37 34 38 35 39 93 40 36 41 92 42 37 43
REMARK SMILES IDX 38 44 39 45 86 46 40 47 91 48 85 49 87 50 41 51 90 52 84 53
REMARK SMILES IDX 83 54 42 56 72 57 53 58 71 59 54 60 57 61 70 62 88 63 55 64
REMARK SMILES IDX 56 65 69 67 89 68 58 69 43 70 44 71 52 72 45 73 51 74 46 75
REMARK SMILES IDX 47 76 48 77 49 78 50 79 73 80 74 81 82 82 75 83 81 84 76 85
REMARK SMILES IDX 77 86 78 87 79 88 80 89 59 90 60 91 68 92 61 93 67 94 62 95
REMARK SMILES IDX 63 96 64 97 65 98 66 99
REMARK H PARENT 87 55 57 66
REMARK Flexibility Score: inf
ROOT
ATOM      1  C   UNL A   1      36.982  22.816  25.370  1.00  0.00     0.188 C 
ENDROOT
BRANCH   1   2
ATOM      2  C   UNL A   1      35.805  22.585  26.321  1.00  0.00     0.188 C 
BRANCH   2   3
ATOM      3  O   UNL A   1      34.980  21.457  26.014  1.00  0.00    -0.376 OA
BRANCH   3   4
ATOM      4  C   UNL A   1      33.715  21.386  26.671  1.00  0.00     0.202 C 
BRANCH   4   5
ATOM      5  C   UNL A   1      32.634  22.384  26.208  1.00  0.00     0.261 C 
BRANCH   5   6
ATOM      6  O   UNL A   1      31.765  22.938  27.228  1.00  0.00    -0.462 OA
BRANCH   6   7
ATOM      7  C   UNL A   1      30.627  23.511  26.781  1.00  0.00     0.327 C 
ATOM      8  O   UNL A   1      29.538  23.370  27.342  1.00  0.00    -0.250 OA
BRANCH   7   9
ATOM      9  C   UNL A   1      30.692  24.259  25.491  1.00  0.00     0.269 C 
BRANCH   9  10
ATOM     10  N   UNL A   1      30.540  25.710  25.377  1.00  0.00    -0.236 N 
ATOM     11  C   UNL A   1      33.752  26.837  25.182  1.00  0.00     0.077 A 
ATOM     12  C   UNL A   1      33.602  28.222  25.167  1.00  0.00     0.043 A 
ATOM     13  N   UNL A   1      32.879  26.071  25.888  1.00  0.00    -0.228 NA
ATOM     14  C   UNL A   1      32.334  28.755  25.486  1.00  0.00     0.071 A 
ATOM     15  C   UNL A   1      31.625  26.516  25.664  1.00  0.00     0.159 A 
ATOM     16  C   UNL A   1      31.302  27.814  25.308  1.00  0.00     0.055 A 
ATOM     17  C   UNL A   1      30.244  27.586  24.387  1.00  0.00     0.076 A 
ATOM     18  N   UNL A   1      29.744  26.331  24.472  1.00  0.00    -0.174 NA
BRANCH  11  19
ATOM     19  C   UNL A   1      34.088  26.109  23.937  1.00  0.00     0.038 A 
ATOM     20  C   UNL A   1      32.190  25.663  20.968  1.00  0.00     0.173 C 
ATOM     21  N   UNL A   1      33.234  25.571  21.970  1.00  0.00    -0.275 N 
ATOM     22  C   UNL A   1      33.704  26.627  22.704  1.00  0.00     0.118 A 
ATOM     23  N   UNL A   1      33.570  24.382  22.503  1.00  0.00    -0.181 NA
ATOM     24  C   UNL A   1      34.021  24.708  23.722  1.00  0.00     0.145 A 
ENDBRANCH  11  19
BRANCH  14  25
ATOM     25  C   UNL A   1      32.146  30.055  26.212  1.00  0.00     0.417 C 
ATOM     26  F   UNL A   1      31.653  29.968  27.469  1.00  0.00    -0.166 F 
ATOM     27  F   UNL A   1      33.328  30.730  26.335  1.00  0.00    -0.166 F 
ATOM     28  F   UNL A   1      31.317  30.913  25.551  1.00  0.00    -0.166 F 
ENDBRANCH  14  25
BRANCH  17  29
ATOM     29  C   UNL A   1      29.817  28.475  23.211  1.00  0.00     0.041 C 
ATOM     30  C   UNL A   1      28.391  28.832  22.873  1.00  0.00     0.011 C 
ATOM     31  C   UNL A   1      29.286  29.889  23.408  1.00  0.00     0.011 C 
ENDBRANCH  17  29
ENDBRANCH   9  10
ENDBRANCH   7   9
ENDBRANCH   6   7
ENDBRANCH   5   6
ENDBRANCH   4   5
ENDBRANCH   3   4
ENDBRANCH   2   3
ENDBRANCH   1   2
BRANCH   1  32
ATOM     32  O   UNL A   1      38.224  22.527  26.002  1.00  0.00    -0.376 OA
BRANCH  32  33
ATOM     33  C   UNL A   1      38.934  21.324  25.750  1.00  0.00     0.202 C 
BRANCH  33  34
ATOM     34  C   UNL A   1      40.383  21.236  26.231  1.00  0.00     0.261 C 
BRANCH  34  35
ATOM     35  O   UNL A   1      41.116  22.412  25.944  1.00  0.00    -0.460 OA
BRANCH  35  36
ATOM     36  C   UNL A   1      41.486  23.120  27.022  1.00  0.00     0.338 C 
ATOM     37  O   UNL A   1      41.494  22.731  28.187  1.00  0.00    -0.246 OA
BRANCH  36  38
ATOM     38  C   UNL A   1      41.860  24.469  26.581  1.00  0.00     0.060 A 
ATOM     39  C   UNL A   1      43.049  24.992  27.092  1.00  0.00     0.016 A 
ATOM     40  C   UNL A   1      40.807  25.275  26.153  1.00  0.00     0.016 A 
ATOM     41  C   UNL A   1      43.003  26.264  27.598  1.00  0.00     0.010 A 
ATOM     42  C   UNL A   1      40.731  26.512  26.717  1.00  0.00     0.010 A 
ATOM     43  C   UNL A   1      41.779  26.926  27.538  1.00  0.00    -0.014 A 
BRANCH  43  44
ATOM     44  C   UNL A   1      41.573  28.088  28.363  1.00  0.00     0.031 A 
ATOM     45  C   UNL A   1      42.673  29.056  28.218  1.00  0.00     0.074 A 
ATOM     46  C   UNL A   1      40.428  28.272  29.046  1.00  0.00     0.049 A 
ATOM     47  N   UNL A   1      43.652  29.249  29.037  1.00  0.00    -0.248 NA
ATOM     48  C   UNL A   1      42.853  29.689  26.897  1.00  0.00     0.031 C 
ATOM     49  C   UNL A   1      39.185  27.494  29.001  1.00  0.00     0.029 A 
ATOM     50  N   UNL A   1      40.100  29.297  29.867  1.00  0.00    -0.354 N 
ATOM     51  C   UNL A   1      44.431  30.216  28.423  1.00  0.00     0.074 A 
ATOM     52  C   UNL A   1      44.070  30.212  27.030  1.00  0.00     0.031 C 
ATOM     53  C   UNL A   1      38.184  28.221  29.555  1.00  0.00     0.029 A 
ATOM     54  C   UNL A   1      38.738  29.449  30.102  1.00  0.00     0.049 A 
ATOM     55  H   UNL A   1      40.776  29.890  30.270  1.00  0.00     0.167 HD
ATOM     56  C   UNL A   1      45.043  31.198  29.137  1.00  0.00     0.031 A 
ATOM     57  C   UNL A   1      38.145  30.557  30.625  1.00  0.00     0.031 A 
ATOM     58  C   UNL A   1      45.068  30.905  30.544  1.00  0.00     0.049 A 
ATOM     59  C   UNL A   1      39.223  31.327  31.306  1.00  0.00     0.074 A 
ATOM     60  C   UNL A   1      45.605  29.890  31.310  1.00  0.00     0.029 A 
ATOM     61  N   UNL A   1      44.098  31.501  31.318  1.00  0.00    -0.354 N 
ATOM     62  N   UNL A   1      39.872  30.887  32.349  1.00  0.00    -0.248 NA
ATOM     63  C   UNL A   1      39.910  32.354  30.534  1.00  0.00     0.031 C 
ATOM     64  C   UNL A   1      44.633  29.635  32.320  1.00  0.00     0.029 A 
ATOM     65  C   UNL A   1      43.588  30.550  32.165  1.00  0.00     0.049 A 
ATOM     66  H   UNL A   1      43.819  32.444  31.270  1.00  0.00     0.167 HD
ATOM     67  C   UNL A   1      41.193  31.257  32.133  1.00  0.00     0.074 A 
ATOM     68  C   UNL A   1      41.143  32.223  31.036  1.00  0.00     0.031 C 
ATOM     69  C   UNL A   1      42.226  30.534  32.658  1.00  0.00     0.031 A 
BRANCH  56  70
ATOM     70  C   UNL A   1      45.207  32.588  28.589  1.00  0.00    -0.014 A 
ATOM     71  C   UNL A   1      46.484  33.167  28.552  1.00  0.00     0.010 A 
ATOM     72  C   UNL A   1      44.105  33.434  28.325  1.00  0.00     0.010 A 
ATOM     73  C   UNL A   1      46.644  34.532  28.275  1.00  0.00     0.020 A 
ATOM     74  C   UNL A   1      44.254  34.777  27.996  1.00  0.00     0.020 A 
ATOM     75  C   UNL A   1      45.526  35.325  27.996  1.00  0.00     0.054 A 
BRANCH  75  76
ATOM     76  S   UNL A   1      45.738  37.099  27.725  1.00  0.00     0.124 S 
ATOM     77  O   UNL A   1      45.991  37.159  26.290  1.00  0.00    -0.237 OA
ATOM     78  O   UNL A   1      44.450  37.627  28.168  1.00  0.00    -0.237 OA
ATOM     79  O   UNL A   1      46.874  37.444  28.577  1.00  0.00    -0.744 OA
ENDBRANCH  75  76
ENDBRANCH  56  70
BRANCH  57  80
ATOM     80  C   UNL A   1      36.855  31.194  30.222  1.00  0.00    -0.014 A 
ATOM     81  C   UNL A   1      36.007  31.770  31.192  1.00  0.00     0.010 A 
ATOM     82  C   UNL A   1      36.599  31.514  28.874  1.00  0.00     0.010 A 
ATOM     83  C   UNL A   1      35.010  32.698  30.836  1.00  0.00     0.020 A 
ATOM     84  C   UNL A   1      35.602  32.431  28.509  1.00  0.00     0.020 A 
ATOM     85  C   UNL A   1      34.838  33.048  29.495  1.00  0.00     0.054 A 
BRANCH  85  86
ATOM     86  S   UNL A   1      33.689  34.390  29.061  1.00  0.00     0.124 S 
ATOM     87  O   UNL A   1      33.102  34.736  30.352  1.00  0.00    -0.237 OA
ATOM     88  O   UNL A   1      34.583  35.390  28.484  1.00  0.00    -0.237 OA
ATOM     89  O   UNL A   1      32.769  33.763  28.112  1.00  0.00    -0.744 OA
ENDBRANCH  85  86
ENDBRANCH  57  80
BRANCH  69  90
ATOM     90  C   UNL A   1      41.912  29.477  33.693  1.00  0.00    -0.014 A 
ATOM     91  C   UNL A   1      41.506  28.163  33.381  1.00  0.00     0.010 A 
ATOM     92  C   UNL A   1      42.230  29.783  35.027  1.00  0.00     0.010 A 
ATOM     93  C   UNL A   1      41.430  27.182  34.386  1.00  0.00     0.020 A 
ATOM     94  C   UNL A   1      42.170  28.809  36.025  1.00  0.00     0.020 A 
ATOM     95  C   UNL A   1      41.776  27.511  35.700  1.00  0.00     0.054 A 
BRANCH  95  96
ATOM     96  S   UNL A   1      41.744  26.229  36.987  1.00  0.00     0.124 S 
ATOM     97  O   UNL A   1      40.391  26.343  37.525  1.00  0.00    -0.237 OA
ATOM     98  O   UNL A   1      42.017  25.010  36.228  1.00  0.00    -0.237 OA
ATOM     99  O   UNL A   1      42.808  26.629  37.907  1.00  0.00    -0.744 OA
ENDBRANCH  95  96
ENDBRANCH  69  90
ENDBRANCH  43  44
ENDBRANCH  36  38
ENDBRANCH  35  36
ENDBRANCH  34  35
ENDBRANCH  33  34
ENDBRANCH  32  33
ENDBRANCH   1  32
TORSDOF 24
ENDMDL
MODEL 2
REMARK VINA RESULT:     -10.2      2.581      3.954
REMARK SMILES Cn1cc(-c2cc(C(F)(F)F)c3c(C4CC4)nn(CC(=O)OCCOCCOCCOC(=O)c4ccc(-c5c6nc(c(-c7ccc(S(=O)(=O)[O-])cc7)c7ccc([nH]7)c(-c7ccc(S(=O)(=O)[O-])cc7)c7nc(c(-c8ccc(S(=O)(=O)[O-])cc8)c8ccc5[nH]8)C=C7)C=C6)cc4)c3n2)cn1
REMARK SMILES IDX 27 1 26 2 25 3 24 4 23 5 22 6 20 7 21 8 19 9 18 10 5 11 6 12
REMARK SMILES IDX 95 13 7 14 94 15 12 16 13 17 17 18 4 19 1 20 2 21 3 22 97 23
REMARK SMILES IDX 96 24 8 25 9 26 10 27 11 28 14 29 15 30 16 31 28 32 29 33
REMARK SMILES IDX 30 34 31 35 32 36 33 37 34 38 35 39 93 40 36 41 92 42 37 43
REMARK SMILES IDX 38 44 39 45 86 46 40 47 91 48 85 49 87 50 41 51 90 52 84 53
REMARK SMILES IDX 83 54 42 56 72 57 53 58 71 59 54 60 57 61 70 62 88 63 55 64
REMARK SMILES IDX 56 65 69 67 89 68 58 69 43 70 44 71 52 72 45 73 51 74 46 75
REMARK SMILES IDX 47 76 48 77 49 78 50 79 73 80 74 81 82 82 75 83 81 84 76 85
REMARK SMILES IDX 77 86 78 87 79 88 80 89 59 90 60 91 68 92 61 93 67 94 62 95
REMARK SMILES IDX 63 96 64 97 65 98 66 99
REMARK H PARENT 87 55 57 66
REMARK Flexibility Score: inf
ROOT
ATOM      1  C   UNL A   1      39.496  21.469  25.939  1.00  0.00     0.188 C 
ENDROOT
BRANCH   1   2
ATOM      2  C   UNL A   1      38.253  22.361  25.878  1.00  0.00     0.188 C 
BRANCH   2   3
ATOM      3  O   UNL A   1      37.053  21.712  25.445  1.00  0.00    -0.376 OA
BRANCH   3   4
ATOM      4  C   UNL A   1      36.622  21.978  24.110  1.00  0.00     0.202 C 
BRANCH   4   5
ATOM      5  C   UNL A   1      35.609  23.125  23.923  1.00  0.00     0.261 C 
BRANCH   5   6
ATOM      6  O   UNL A   1      35.120  23.363  22.579  1.00  0.00    -0.462 OA
BRANCH   6   7
ATOM      7  C   UNL A   1      34.003  24.115  22.485  1.00  0.00     0.327 C 
ATOM      8  O   UNL A   1      33.369  24.251  21.436  1.00  0.00    -0.250 OA
BRANCH   7   9
ATOM      9  C   UNL A   1      33.592  24.891  23.692  1.00  0.00     0.269 C 
BRANCH   9  10
ATOM     10  N   UNL A   1      33.079  26.262  23.648  1.00  0.00    -0.236 N 
ATOM     11  C   UNL A   1      29.799  25.915  24.512  1.00  0.00     0.077 A 
ATOM     12  C   UNL A   1      29.298  27.208  24.379  1.00  0.00     0.043 A 
ATOM     13  N   UNL A   1      30.786  25.485  23.682  1.00  0.00    -0.228 NA
ATOM     14  C   UNL A   1      30.102  28.167  23.725  1.00  0.00     0.071 A 
ATOM     15  C   UNL A   1      31.715  26.458  23.565  1.00  0.00     0.159 A 
ATOM     16  C   UNL A   1      31.464  27.809  23.728  1.00  0.00     0.055 A 
ATOM     17  C   UNL A   1      32.653  28.227  24.386  1.00  0.00     0.076 A 
ATOM     18  N   UNL A   1      33.648  27.315  24.285  1.00  0.00    -0.174 NA
BRANCH  11  19
ATOM     19  C   UNL A   1      30.059  25.349  25.855  1.00  0.00     0.038 A 
ATOM     20  C   UNL A   1      32.511  23.006  26.911  1.00  0.00     0.173 C 
ATOM     21  N   UNL A   1      31.379  23.911  26.895  1.00  0.00    -0.275 N 
ATOM     22  C   UNL A   1      31.367  25.133  26.276  1.00  0.00     0.118 A 
ATOM     23  N   UNL A   1      30.142  23.467  27.182  1.00  0.00    -0.181 NA
ATOM     24  C   UNL A   1      29.348  24.300  26.492  1.00  0.00     0.145 A 
ENDBRANCH  11  19
BRANCH  14  25
ATOM     25  C   UNL A   1      29.542  29.269  22.874  1.00  0.00     0.417 C 
ATOM     26  F   UNL A   1      28.404  28.979  22.201  1.00  0.00    -0.166 F 
ATOM     27  F   UNL A   1      29.246  30.373  23.624  1.00  0.00    -0.166 F 
ATOM     28  F   UNL A   1      30.424  29.708  21.932  1.00  0.00    -0.166 F 
ENDBRANCH  14  25
BRANCH  17  29
ATOM     29  C   UNL A   1      32.824  29.407  25.350  1.00  0.00     0.041 C 
ATOM     30  C   UNL A   1      31.768  30.445  25.639  1.00  0.00     0.011 C 
ATOM     31  C   UNL A   1      32.119  29.468  26.700  1.00  0.00     0.011 C 
ENDBRANCH  17  29
ENDBRANCH   9  10
ENDBRANCH   7   9
ENDBRANCH   6   7
ENDBRANCH   5   6
ENDBRANCH   4   5
ENDBRANCH   3   4
ENDBRANCH   2   3
ENDBRANCH   1   2
BRANCH   1  32
ATOM     32  O   UNL A   1      40.120  21.537  27.217  1.00  0.00    -0.376 OA
BRANCH  32  33
ATOM     33  C   UNL A   1      41.236  20.727  27.553  1.00  0.00     0.202 C 
BRANCH  33  34
ATOM     34  C   UNL A   1      42.612  21.391  27.598  1.00  0.00     0.261 C 
BRANCH  34  35
ATOM     35  O   UNL A   1      43.597  20.632  26.919  1.00  0.00    -0.460 OA
BRANCH  35  36
ATOM     36  C   UNL A   1      43.611  20.795  25.587  1.00  0.00     0.338 C 
ATOM     37  O   UNL A   1      43.216  19.990  24.747  1.00  0.00    -0.246 OA
BRANCH  36  38
ATOM     38  C   UNL A   1      44.212  22.099  25.288  1.00  0.00     0.060 A 
ATOM     39  C   UNL A   1      45.350  22.451  26.014  1.00  0.00     0.016 A 
ATOM     40  C   UNL A   1      43.350  23.046  24.737  1.00  0.00     0.016 A 
ATOM     41  C   UNL A   1      45.371  23.701  26.573  1.00  0.00     0.010 A 
ATOM     42  C   UNL A   1      43.327  24.262  25.347  1.00  0.00     0.010 A 
ATOM     43  C   UNL A   1      44.262  24.514  26.350  1.00  0.00    -0.014 A 
BRANCH  43  44
ATOM     44  C   UNL A   1      44.060  25.664  27.191  1.00  0.00     0.031 A 
ATOM     45  C   UNL A   1      45.105  26.680  26.980  1.00  0.00     0.074 A 
ATOM     46  C   UNL A   1      42.953  25.796  27.947  1.00  0.00     0.049 A 
ATOM     47  N   UNL A   1      46.125  26.913  27.736  1.00  0.00    -0.248 NA
ATOM     48  C   UNL A   1      45.171  27.322  25.653  1.00  0.00     0.031 C 
ATOM     49  C   UNL A   1      41.746  24.964  27.979  1.00  0.00     0.029 A 
ATOM     50  N   UNL A   1      42.636  26.804  28.793  1.00  0.00    -0.354 N 
ATOM     51  C   UNL A   1      46.820  27.915  27.077  1.00  0.00     0.074 A 
ATOM     52  C   UNL A   1      46.370  27.898  25.710  1.00  0.00     0.031 C 
ATOM     53  C   UNL A   1      40.752  25.646  28.600  1.00  0.00     0.029 A 
ATOM     54  C   UNL A   1      41.286  26.896  29.115  1.00  0.00     0.049 A 
ATOM     55  H   UNL A   1      43.309  27.426  29.154  1.00  0.00     0.167 HD
ATOM     56  C   UNL A   1      47.433  28.922  27.754  1.00  0.00     0.031 A 
ATOM     57  C   UNL A   1      40.680  27.976  29.680  1.00  0.00     0.031 A 
ATOM     58  C   UNL A   1      47.562  28.628  29.155  1.00  0.00     0.049 A 
ATOM     59  C   UNL A   1      41.765  28.791  30.294  1.00  0.00     0.074 A 
ATOM     60  C   UNL A   1      48.190  27.636  29.881  1.00  0.00     0.029 A 
ATOM     61  N   UNL A   1      46.618  29.179  29.993  1.00  0.00    -0.354 N 
ATOM     62  N   UNL A   1      42.499  28.378  31.292  1.00  0.00    -0.248 NA
ATOM     63  C   UNL A   1      42.355  29.849  29.485  1.00  0.00     0.031 C 
ATOM     64  C   UNL A   1      47.298  27.337  30.950  1.00  0.00     0.029 A 
ATOM     65  C   UNL A   1      46.206  28.205  30.867  1.00  0.00     0.049 A 
ATOM     66  H   UNL A   1      46.296  30.109  29.968  1.00  0.00     0.167 HD
ATOM     67  C   UNL A   1      43.785  28.807  30.993  1.00  0.00     0.074 A 
ATOM     68  C   UNL A   1      43.622  29.772  29.905  1.00  0.00     0.031 C 
ATOM     69  C   UNL A   1      44.880  28.128  31.446  1.00  0.00     0.031 A 
BRANCH  56  70
ATOM     70  C   UNL A   1      47.500  30.318  27.203  1.00  0.00    -0.014 A 
ATOM     71  C   UNL A   1      48.734  30.985  27.167  1.00  0.00     0.010 A 
ATOM     72  C   UNL A   1      46.342  31.085  26.936  1.00  0.00     0.010 A 
ATOM     73  C   UNL A   1      48.799  32.357  26.887  1.00  0.00     0.020 A 
ATOM     74  C   UNL A   1      46.398  32.434  26.604  1.00  0.00     0.020 A 
ATOM     75  C   UNL A   1      47.629  33.070  26.605  1.00  0.00     0.054 A 
BRANCH  75  76
ATOM     76  S   UNL A   1      47.717  34.854  26.330  1.00  0.00     0.124 S 
ATOM     77  O   UNL A   1      49.039  35.177  26.854  1.00  0.00    -0.237 OA
ATOM     78  O   UNL A   1      47.567  34.943  24.880  1.00  0.00    -0.237 OA
ATOM     79  O   UNL A   1      46.591  35.376  27.102  1.00  0.00    -0.744 OA
ENDBRANCH  75  76
ENDBRANCH  56  70
BRANCH  57  80
ATOM     80  C   UNL A   1      39.341  28.557  29.364  1.00  0.00    -0.014 A 
ATOM     81  C   UNL A   1      38.434  28.874  30.399  1.00  0.00     0.010 A 
ATOM     82  C   UNL A   1      39.067  29.085  28.087  1.00  0.00     0.010 A 
ATOM     83  C   UNL A   1      37.359  29.757  30.187  1.00  0.00     0.020 A 
ATOM     84  C   UNL A   1      37.992  29.960  27.865  1.00  0.00     0.020 A 
ATOM     85  C   UNL A   1      37.167  30.323  28.925  1.00  0.00     0.054 A 
BRANCH  85  86
ATOM     86  S   UNL A   1      35.903  31.612  28.705  1.00  0.00     0.124 S 
ATOM     87  O   UNL A   1      34.986  30.998  27.749  1.00  0.00    -0.237 OA
ATOM     88  O   UNL A   1      35.387  31.777  30.061  1.00  0.00    -0.237 OA
ATOM     89  O   UNL A   1      36.660  32.752  28.189  1.00  0.00    -0.744 OA
ENDBRANCH  85  86
ENDBRANCH  57  80
BRANCH  69  90
ATOM     90  C   UNL A   1      44.680  27.058  32.495  1.00  0.00    -0.014 A 
ATOM     91  C   UNL A   1      44.595  27.316  33.879  1.00  0.00     0.010 A 
ATOM     92  C   UNL A   1      44.374  25.767  32.032  1.00  0.00     0.010 A 
ATOM     93  C   UNL A   1      44.206  26.302  34.772  1.00  0.00     0.020 A 
ATOM     94  C   UNL A   1      43.974  24.760  32.914  1.00  0.00     0.020 A 
ATOM     95  C   UNL A   1      43.885  25.032  34.278  1.00  0.00     0.054 A 
BRANCH  95  96
ATOM     96  S   UNL A   1      43.317  23.740  35.422  1.00  0.00     0.124 S 
ATOM     97  O   UNL A   1      43.859  24.181  36.704  1.00  0.00    -0.237 OA
ATOM     98  O   UNL A   1      41.864  23.818  35.294  1.00  0.00    -0.237 OA
ATOM     99  O   UNL A   1      43.915  22.516  34.890  1.00  0.00    -0.744 OA
ENDBRANCH  95  96
ENDBRANCH  69  90
ENDBRANCH  43  44
ENDBRANCH  36  38
ENDBRANCH  35  36
ENDBRANCH  34  35
ENDBRANCH  33  34
ENDBRANCH  32  33
ENDBRANCH   1  32
TORSDOF 24
ENDMDL
MODEL 3
REMARK VINA RESULT:     -10.0      1.951      3.184
REMARK SMILES Cn1cc(-c2cc(C(F)(F)F)c3c(C4CC4)nn(CC(=O)OCCOCCOCCOC(=O)c4ccc(-c5c6nc(c(-c7ccc(S(=O)(=O)[O-])cc7)c7ccc([nH]7)c(-c7ccc(S(=O)(=O)[O-])cc7)c7nc(c(-c8ccc(S(=O)(=O)[O-])cc8)c8ccc5[nH]8)C=C7)C=C6)cc4)c3n2)cn1
REMARK SMILES IDX 27 1 26 2 25 3 24 4 23 5 22 6 20 7 21 8 19 9 18 10 5 11 6 12
REMARK SMILES IDX 95 13 7 14 94 15 12 16 13 17 17 18 4 19 1 20 2 21 3 22 97 23
REMARK SMILES IDX 96 24 8 25 9 26 10 27 11 28 14 29 15 30 16 31 28 32 29 33
REMARK SMILES IDX 30 34 31 35 32 36 33 37 34 38 35 39 93 40 36 41 92 42 37 43
REMARK SMILES IDX 38 44 39 45 86 46 40 47 91 48 85 49 87 50 41 51 90 52 84 53
REMARK SMILES IDX 83 54 42 56 72 57 53 58 71 59 54 60 57 61 70 62 88 63 55 64
REMARK SMILES IDX 56 65 69 67 89 68 58 69 43 70 44 71 52 72 45 73 51 74 46 75
REMARK SMILES IDX 47 76 48 77 49 78 50 79 73 80 74 81 82 82 75 83 81 84 76 85
REMARK SMILES IDX 77 86 78 87 79 88 80 89 59 90 60 91 68 92 61 93 67 94 62 95
REMARK SMILES IDX 63 96 64 97 65 98 66 99
REMARK H PARENT 87 55 57 66
REMARK Flexibility Score: inf
ROOT
ATOM      1  C   UNL A   1      35.179  22.089  25.493  1.00  0.00     0.188 C 
ENDROOT
BRANCH   1   2
ATOM      2  C   UNL A   1      35.419  23.128  24.394  1.00  0.00     0.188 C 
BRANCH   2   3
ATOM      3  O   UNL A   1      34.924  22.778  23.098  1.00  0.00    -0.376 OA
BRANCH   3   4
ATOM      4  C   UNL A   1      33.538  22.449  23.005  1.00  0.00     0.202 C 
BRANCH   4   5
ATOM      5  C   UNL A   1      32.811  22.863  21.710  1.00  0.00     0.261 C 
BRANCH   5   6
ATOM      6  O   UNL A   1      33.338  24.008  20.992  1.00  0.00    -0.462 OA
BRANCH   6   7
ATOM      7  C   UNL A   1      32.884  25.213  21.396  1.00  0.00     0.327 C 
ATOM      8  O   UNL A   1      31.815  25.693  21.012  1.00  0.00    -0.250 OA
BRANCH   7   9
ATOM      9  C   UNL A   1      33.780  26.031  22.266  1.00  0.00     0.269 C 
BRANCH   9  10
ATOM     10  N   UNL A   1      33.557  26.250  23.696  1.00  0.00    -0.236 N 
ATOM     11  C   UNL A   1      31.913  29.235  23.798  1.00  0.00     0.077 A 
ATOM     12  C   UNL A   1      31.786  29.481  25.163  1.00  0.00     0.043 A 
ATOM     13  N   UNL A   1      33.007  28.579  23.328  1.00  0.00    -0.228 NA
ATOM     14  C   UNL A   1      32.529  28.676  26.053  1.00  0.00     0.071 A 
ATOM     15  C   UNL A   1      33.266  27.527  24.134  1.00  0.00     0.159 A 
ATOM     16  C   UNL A   1      32.913  27.453  25.470  1.00  0.00     0.055 A 
ATOM     17  C   UNL A   1      32.548  26.084  25.577  1.00  0.00     0.076 A 
ATOM     18  N   UNL A   1      32.990  25.346  24.532  1.00  0.00    -0.174 NA
BRANCH  11  19
ATOM     19  C   UNL A   1      30.743  28.787  23.008  1.00  0.00     0.038 A 
ATOM     20  C   UNL A   1      27.492  30.191  22.744  1.00  0.00     0.173 C 
ATOM     21  N   UNL A   1      28.632  29.307  22.605  1.00  0.00    -0.275 N 
ATOM     22  C   UNL A   1      29.919  29.724  22.394  1.00  0.00     0.118 A 
ATOM     23  N   UNL A   1      28.567  28.031  23.027  1.00  0.00    -0.181 NA
ATOM     24  C   UNL A   1      29.839  27.744  23.337  1.00  0.00     0.145 A 
ENDBRANCH  11  19
BRANCH  14  25
ATOM     25  C   UNL A   1      33.097  29.185  27.347  1.00  0.00     0.417 C 
ATOM     26  F   UNL A   1      32.766  30.454  27.680  1.00  0.00    -0.166 F 
ATOM     27  F   UNL A   1      32.691  28.418  28.402  1.00  0.00    -0.166 F 
ATOM     28  F   UNL A   1      34.459  29.140  27.380  1.00  0.00    -0.166 F 
ENDBRANCH  14  25
BRANCH  17  29
ATOM     29  C   UNL A   1      31.551  25.455  26.559  1.00  0.00     0.041 C 
ATOM     30  C   UNL A   1      30.286  24.735  26.162  1.00  0.00     0.011 C 
ATOM     31  C   UNL A   1      31.411  23.948  26.728  1.00  0.00     0.011 C 
ENDBRANCH  17  29
ENDBRANCH   9  10
ENDBRANCH   7   9
ENDBRANCH   6   7
ENDBRANCH   5   6
ENDBRANCH   4   5
ENDBRANCH   3   4
ENDBRANCH   2   3
ENDBRANCH   1   2
BRANCH   1  32
ATOM     32  O   UNL A   1      36.406  21.560  25.983  1.00  0.00    -0.376 OA
BRANCH  32  33
ATOM     33  C   UNL A   1      37.571  21.490  25.174  1.00  0.00     0.202 C 
BRANCH  33  34
ATOM     34  C   UNL A   1      38.762  22.366  25.561  1.00  0.00     0.261 C 
BRANCH  34  35
ATOM     35  O   UNL A   1      39.308  22.006  26.817  1.00  0.00    -0.460 OA
BRANCH  35  36
ATOM     36  C   UNL A   1      40.225  22.859  27.297  1.00  0.00     0.338 C 
ATOM     37  O   UNL A   1      41.293  22.564  27.828  1.00  0.00    -0.246 OA
BRANCH  36  38
ATOM     38  C   UNL A   1      39.727  24.226  27.108  1.00  0.00     0.060 A 
ATOM     39  C   UNL A   1      40.516  25.085  26.342  1.00  0.00     0.016 A 
ATOM     40  C   UNL A   1      38.849  24.686  28.088  1.00  0.00     0.016 A 
ATOM     41  C   UNL A   1      40.768  26.328  26.859  1.00  0.00     0.010 A 
ATOM     42  C   UNL A   1      39.151  25.890  28.646  1.00  0.00     0.010 A 
ATOM     43  C   UNL A   1      40.198  26.627  28.094  1.00  0.00    -0.014 A 
BRANCH  43  44
ATOM     44  C   UNL A   1      40.711  27.742  28.847  1.00  0.00     0.031 A 
ATOM     45  C   UNL A   1      41.945  28.278  28.249  1.00  0.00     0.074 A 
ATOM     46  C   UNL A   1      40.022  28.273  29.875  1.00  0.00     0.049 A 
ATOM     47  N   UNL A   1      43.155  28.075  28.652  1.00  0.00    -0.248 NA
ATOM     48  C   UNL A   1      41.845  28.880  26.906  1.00  0.00     0.031 C 
ATOM     49  C   UNL A   1      38.660  27.975  30.332  1.00  0.00     0.029 A 
ATOM     50  N   UNL A   1      40.381  29.302  30.678  1.00  0.00    -0.354 N 
ATOM     51  C   UNL A   1      43.942  28.746  27.730  1.00  0.00     0.074 A 
ATOM     52  C   UNL A   1      43.129  28.943  26.560  1.00  0.00     0.031 C 
ATOM     53  C   UNL A   1      38.237  28.972  31.147  1.00  0.00     0.029 A 
ATOM     54  C   UNL A   1      39.332  29.902  31.367  1.00  0.00     0.049 A 
ATOM     55  H   UNL A   1      41.314  29.602  30.769  1.00  0.00     0.167 HD
ATOM     56  C   UNL A   1      45.064  29.416  28.104  1.00  0.00     0.031 A 
ATOM     57  C   UNL A   1      39.381  31.116  31.980  1.00  0.00     0.031 A 
ATOM     58  C   UNL A   1      45.490  29.057  29.429  1.00  0.00     0.049 A 
ATOM     59  C   UNL A   1      40.825  31.428  32.175  1.00  0.00     0.074 A 
ATOM     60  C   UNL A   1      45.884  27.878  30.031  1.00  0.00     0.029 A 
ATOM     61  N   UNL A   1      45.126  29.908  30.448  1.00  0.00    -0.354 N 
ATOM     62  N   UNL A   1      41.612  30.735  32.952  1.00  0.00    -0.248 NA
ATOM     63  C   UNL A   1      41.496  32.196  31.135  1.00  0.00     0.031 C 
ATOM     64  C   UNL A   1      45.314  27.920  31.335  1.00  0.00     0.029 A 
ATOM     65  C   UNL A   1      44.662  29.146  31.491  1.00  0.00     0.049 A 
ATOM     66  H   UNL A   1      45.188  30.890  30.431  1.00  0.00     0.167 HD
ATOM     67  C   UNL A   1      42.810  30.638  32.255  1.00  0.00     0.074 A 
ATOM     68  C   UNL A   1      42.703  31.620  31.176  1.00  0.00     0.031 C 
ATOM     69  C   UNL A   1      43.648  29.575  32.434  1.00  0.00     0.031 A 
BRANCH  56  70
ATOM     70  C   UNL A   1      45.485  30.691  27.430  1.00  0.00    -0.014 A 
ATOM     71  C   UNL A   1      46.797  30.816  26.948  1.00  0.00     0.010 A 
ATOM     72  C   UNL A   1      44.695  31.864  27.464  1.00  0.00     0.010 A 
ATOM     73  C   UNL A   1      47.293  32.059  26.533  1.00  0.00     0.020 A 
ATOM     74  C   UNL A   1      45.158  33.092  27.004  1.00  0.00     0.020 A 
ATOM     75  C   UNL A   1      46.467  33.187  26.562  1.00  0.00     0.054 A 
BRANCH  75  76
ATOM     76  S   UNL A   1      47.144  34.799  26.105  1.00  0.00     0.124 S 
ATOM     77  O   UNL A   1      45.977  35.469  25.539  1.00  0.00    -0.237 OA
ATOM     78  O   UNL A   1      47.608  35.308  27.393  1.00  0.00    -0.237 OA
ATOM     79  O   UNL A   1      48.201  34.470  25.152  1.00  0.00    -0.744 OA
ENDBRANCH  75  76
ENDBRANCH  56  70
BRANCH  57  80
ATOM     80  C   UNL A   1      38.334  32.180  32.012  1.00  0.00    -0.014 A 
ATOM     81  C   UNL A   1      37.683  32.580  30.825  1.00  0.00     0.010 A 
ATOM     82  C   UNL A   1      37.754  32.585  33.230  1.00  0.00     0.010 A 
ATOM     83  C   UNL A   1      36.456  33.269  30.859  1.00  0.00     0.020 A 
ATOM     84  C   UNL A   1      36.536  33.280  33.273  1.00  0.00     0.020 A 
ATOM     85  C   UNL A   1      35.873  33.585  32.088  1.00  0.00     0.054 A 
BRANCH  85  86
ATOM     86  S   UNL A   1      34.199  34.295  32.129  1.00  0.00     0.124 S 
ATOM     87  O   UNL A   1      34.436  35.639  32.647  1.00  0.00    -0.237 OA
ATOM     88  O   UNL A   1      33.794  34.219  30.728  1.00  0.00    -0.237 OA
ATOM     89  O   UNL A   1      33.469  33.406  33.032  1.00  0.00    -0.744 OA
ENDBRANCH  85  86
ENDBRANCH  57  80
BRANCH  69  90
ATOM     90  C   UNL A   1      43.386  28.637  33.591  1.00  0.00    -0.014 A 
ATOM     91  C   UNL A   1      43.985  28.766  34.861  1.00  0.00     0.010 A 
ATOM     92  C   UNL A   1      42.343  27.710  33.430  1.00  0.00     0.010 A 
ATOM     93  C   UNL A   1      43.540  27.985  35.943  1.00  0.00     0.020 A 
ATOM     94  C   UNL A   1      41.888  26.942  34.505  1.00  0.00     0.020 A 
ATOM     95  C   UNL A   1      42.484  27.086  35.757  1.00  0.00     0.054 A 
BRANCH  95  96
ATOM     96  S   UNL A   1      41.863  26.125  37.169  1.00  0.00     0.124 S 
ATOM     97  O   UNL A   1      42.936  26.260  38.150  1.00  0.00    -0.237 OA
ATOM     98  O   UNL A   1      40.618  26.813  37.500  1.00  0.00    -0.237 OA
ATOM     99  O   UNL A   1      41.692  24.777  36.625  1.00  0.00    -0.744 OA
ENDBRANCH  95  96
ENDBRANCH  69  90
ENDBRANCH  43  44
ENDBRANCH  36  38
ENDBRANCH  35  36
ENDBRANCH  34  35
ENDBRANCH  33  34
ENDBRANCH  32  33
ENDBRANCH   1  32
TORSDOF 24
ENDMDL
