MODEL 1
REMARK VINA RESULT:      -9.2      0.000      0.000
REMARK SMILES O=C(C[C@@H](NC(=O)C1CCC1)c1ccc(Cl)cc1)OCCOCCOCCOC(=O)c1ccc(-c2c3nc(c(-c4ccc(S(=O)(=O)[O-])cc4)c4ccc([nH]4)c(-c4ccc(S(=O)(=O)[O-])cc4)c4nc(c(-c5ccc(S(=O)(=O)[O-])cc5)c5ccc2[nH]5)C=C4)C=C3)cc1
REMARK SMILES IDX 23 1 22 2 21 3 20 4 19 5 2 6 1 7 3 8 4 9 5 10 6 11 7 13 8 14
REMARK SMILES IDX 9 15 11 16 10 17 12 18 13 19 18 20 14 21 17 22 15 23 16 24
REMARK SMILES IDX 24 25 25 26 26 27 27 28 28 29 29 30 30 31 31 32 32 33 90 34
REMARK SMILES IDX 33 35 89 36 34 37 35 38 36 39 83 40 37 41 88 42 82 43 84 44
REMARK SMILES IDX 38 45 87 46 81 47 80 48 39 50 69 51 50 52 68 53 51 54 54 55
REMARK SMILES IDX 67 56 85 57 52 58 53 59 66 61 86 62 55 63 40 64 41 65 49 66
REMARK SMILES IDX 42 67 48 68 43 69 44 70 45 71 46 72 47 73 70 74 71 75 79 76
REMARK SMILES IDX 72 77 78 78 73 79 74 80 75 81 76 82 77 83 56 84 57 85 65 86
REMARK SMILES IDX 58 87 64 88 59 89 60 90 61 91 62 92 63 93
REMARK H PARENT 5 12 84 49 54 60
REMARK Flexibility Score: inf
ROOT
ATOM      1  C   UNL A   1      32.893  21.704  23.941  1.00  0.00     0.188 C 
ENDROOT
BRANCH   1   2
ATOM      2  O   UNL A   1      32.377  22.210  22.719  1.00  0.00    -0.376 OA
BRANCH   2   3
ATOM      3  C   UNL A   1      32.161  23.617  22.578  1.00  0.00     0.202 C 
BRANCH   3   4
ATOM      4  C   UNL A   1      33.353  24.543  22.305  1.00  0.00     0.261 C 
BRANCH   4   5
ATOM      5  O   UNL A   1      32.945  25.788  21.700  1.00  0.00    -0.463 OA
BRANCH   5   6
ATOM      6  C   UNL A   1      32.522  26.770  22.533  1.00  0.00     0.308 C 
ATOM      7  O   UNL A   1      31.336  27.035  22.690  1.00  0.00    -0.252 OA
BRANCH   6   8
ATOM      8  C   UNL A   1      33.656  27.586  23.118  1.00  0.00     0.152 C 
BRANCH   8   9
ATOM      9  C   UNL A   1      33.637  27.917  24.630  1.00  0.00     0.123 C 
BRANCH   9  10
ATOM     10  N   UNL A   1      32.688  28.978  24.980  1.00  0.00    -0.348 N 
ATOM     11  C   UNL A   1      32.555  29.917  25.958  1.00  0.00     0.223 C 
ATOM     12  H   UNL A   1      31.945  29.022  24.337  1.00  0.00     0.164 HD
ATOM     13  O   UNL A   1      31.650  30.746  25.763  1.00  0.00    -0.275 OA
BRANCH  11  14
ATOM     14  C   UNL A   1      33.404  29.913  27.230  1.00  0.00     0.078 C 
ATOM     15  C   UNL A   1      34.825  29.296  27.253  1.00  0.00     0.013 C 
ATOM     16  C   UNL A   1      34.111  31.264  27.563  1.00  0.00     0.013 C 
ATOM     17  C   UNL A   1      35.228  30.434  28.210  1.00  0.00     0.002 C 
ENDBRANCH  11  14
ENDBRANCH   9  10
BRANCH   9  18
ATOM     18  C   UNL A   1      33.425  26.607  25.372  1.00  0.00    -0.025 A 
ATOM     19  C   UNL A   1      34.435  25.635  25.475  1.00  0.00     0.007 A 
ATOM     20  C   UNL A   1      32.190  26.360  25.997  1.00  0.00     0.007 A 
ATOM     21  C   UNL A   1      34.173  24.399  26.070  1.00  0.00     0.021 A 
ATOM     22  C   UNL A   1      31.935  25.128  26.606  1.00  0.00     0.021 A 
ATOM     23  C   UNL A   1      32.919  24.144  26.617  1.00  0.00     0.041 A 
ATOM     24  Cl  UNL A   1      32.580  22.599  27.291  1.00  0.00    -0.084 Cl
ENDBRANCH   9  18
ENDBRANCH   8   9
ENDBRANCH   6   8
ENDBRANCH   5   6
ENDBRANCH   4   5
ENDBRANCH   3   4
ENDBRANCH   2   3
ENDBRANCH   1   2
BRANCH   1  25
ATOM     25  C   UNL A   1      34.395  21.430  24.049  1.00  0.00     0.188 C 
BRANCH  25  26
ATOM     26  O   UNL A   1      34.872  20.858  25.253  1.00  0.00    -0.376 OA
BRANCH  26  27
ATOM     27  C   UNL A   1      36.061  21.410  25.819  1.00  0.00     0.202 C 
BRANCH  27  28
ATOM     28  C   UNL A   1      37.398  21.219  25.095  1.00  0.00     0.261 C 
BRANCH  28  29
ATOM     29  O   UNL A   1      38.301  22.329  25.285  1.00  0.00    -0.460 OA
BRANCH  29  30
ATOM     30  C   UNL A   1      39.255  22.136  26.223  1.00  0.00     0.338 C 
ATOM     31  O   UNL A   1      39.891  21.106  26.423  1.00  0.00    -0.246 OA
BRANCH  30  32
ATOM     32  C   UNL A   1      39.552  23.377  26.952  1.00  0.00     0.060 A 
ATOM     33  C   UNL A   1      38.922  24.561  26.546  1.00  0.00     0.016 A 
ATOM     34  C   UNL A   1      40.594  23.410  27.881  1.00  0.00     0.016 A 
ATOM     35  C   UNL A   1      39.366  25.790  27.038  1.00  0.00     0.010 A 
ATOM     36  C   UNL A   1      41.042  24.644  28.364  1.00  0.00     0.010 A 
ATOM     37  C   UNL A   1      40.459  25.843  27.914  1.00  0.00    -0.014 A 
BRANCH  37  38
ATOM     38  C   UNL A   1      41.092  27.145  28.245  1.00  0.00     0.031 A 
ATOM     39  C   UNL A   1      42.586  27.295  28.108  1.00  0.00     0.074 A 
ATOM     40  C   UNL A   1      40.352  28.188  28.661  1.00  0.00     0.049 A 
ATOM     41  N   UNL A   1      43.345  28.319  28.405  1.00  0.00    -0.248 NA
ATOM     42  C   UNL A   1      43.318  26.138  27.566  1.00  0.00     0.031 C 
ATOM     43  C   UNL A   1      38.896  28.195  28.794  1.00  0.00     0.029 A 
ATOM     44  N   UNL A   1      40.734  29.445  29.063  1.00  0.00    -0.354 N 
ATOM     45  C   UNL A   1      44.644  27.929  28.095  1.00  0.00     0.074 A 
ATOM     46  C   UNL A   1      44.571  26.570  27.604  1.00  0.00     0.031 C 
ATOM     47  C   UNL A   1      38.509  29.395  29.260  1.00  0.00     0.029 A 
ATOM     48  C   UNL A   1      39.690  30.224  29.497  1.00  0.00     0.049 A 
ATOM     49  H   UNL A   1      41.667  29.758  29.042  1.00  0.00     0.167 HD
ATOM     50  C   UNL A   1      45.793  28.638  28.209  1.00  0.00     0.031 A 
ATOM     51  C   UNL A   1      39.685  31.454  30.051  1.00  0.00     0.031 A 
ATOM     52  C   UNL A   1      45.874  29.984  28.709  1.00  0.00     0.049 A 
ATOM     53  C   UNL A   1      40.984  32.192  30.240  1.00  0.00     0.074 A 
ATOM     54  C   UNL A   1      46.995  30.786  28.844  1.00  0.00     0.029 A 
ATOM     55  N   UNL A   1      44.797  30.726  29.166  1.00  0.00    -0.354 N 
ATOM     56  N   UNL A   1      42.200  31.820  29.919  1.00  0.00    -0.248 NA
ATOM     57  C   UNL A   1      40.908  33.523  30.862  1.00  0.00     0.031 C 
ATOM     58  C   UNL A   1      46.602  31.993  29.431  1.00  0.00     0.029 A 
ATOM     59  C   UNL A   1      45.229  31.965  29.608  1.00  0.00     0.049 A 
ATOM     60  H   UNL A   1      43.862  30.418  29.175  1.00  0.00     0.167 HD
ATOM     61  C   UNL A   1      43.028  32.881  30.273  1.00  0.00     0.074 A 
ATOM     62  C   UNL A   1      42.174  33.914  30.822  1.00  0.00     0.031 C 
ATOM     63  C   UNL A   1      44.374  32.990  30.150  1.00  0.00     0.031 A 
BRANCH  50  64
ATOM     64  C   UNL A   1      47.075  27.955  27.810  1.00  0.00    -0.014 A 
ATOM     65  C   UNL A   1      47.479  27.897  26.465  1.00  0.00     0.010 A 
ATOM     66  C   UNL A   1      47.914  27.418  28.803  1.00  0.00     0.010 A 
ATOM     67  C   UNL A   1      48.688  27.287  26.117  1.00  0.00     0.020 A 
ATOM     68  C   UNL A   1      49.134  26.828  28.461  1.00  0.00     0.020 A 
ATOM     69  C   UNL A   1      49.507  26.755  27.117  1.00  0.00     0.054 A 
BRANCH  69  70
ATOM     70  S   UNL A   1      51.086  25.999  26.641  1.00  0.00     0.124 S 
ATOM     71  O   UNL A   1      50.783  24.574  26.753  1.00  0.00    -0.237 OA
ATOM     72  O   UNL A   1      51.281  26.495  25.280  1.00  0.00    -0.237 OA
ATOM     73  O   UNL A   1      52.030  26.515  27.630  1.00  0.00    -0.744 OA
ENDBRANCH  69  70
ENDBRANCH  50  64
BRANCH  51  74
ATOM     74  C   UNL A   1      38.402  32.059  30.497  1.00  0.00    -0.014 A 
ATOM     75  C   UNL A   1      37.912  31.823  31.794  1.00  0.00     0.010 A 
ATOM     76  C   UNL A   1      37.656  32.865  29.617  1.00  0.00     0.010 A 
ATOM     77  C   UNL A   1      36.688  32.367  32.196  1.00  0.00     0.020 A 
ATOM     78  C   UNL A   1      36.446  33.432  30.026  1.00  0.00     0.020 A 
ATOM     79  C   UNL A   1      35.965  33.170  31.309  1.00  0.00     0.054 A 
BRANCH  79  80
ATOM     80  S   UNL A   1      34.407  33.911  31.871  1.00  0.00     0.124 S 
ATOM     81  O   UNL A   1      34.875  34.939  32.793  1.00  0.00    -0.237 OA
ATOM     82  O   UNL A   1      33.820  34.395  30.623  1.00  0.00    -0.237 OA
ATOM     83  O   UNL A   1      33.701  32.789  32.484  1.00  0.00    -0.744 OA
ENDBRANCH  79  80
ENDBRANCH  51  74
BRANCH  63  84
ATOM     84  C   UNL A   1      45.013  34.284  30.580  1.00  0.00    -0.014 A 
ATOM     85  C   UNL A   1      45.470  34.473  31.896  1.00  0.00     0.010 A 
ATOM     86  C   UNL A   1      45.210  35.308  29.633  1.00  0.00     0.010 A 
ATOM     87  C   UNL A   1      46.085  35.673  32.265  1.00  0.00     0.020 A 
ATOM     88  C   UNL A   1      45.847  36.499  29.992  1.00  0.00     0.020 A 
ATOM     89  C   UNL A   1      46.269  36.680  31.310  1.00  0.00     0.054 A 
BRANCH  89  90
ATOM     90  S   UNL A   1      47.109  38.211  31.802  1.00  0.00     0.124 S 
ATOM     91  O   UNL A   1      47.705  38.650  30.544  1.00  0.00    -0.237 OA
ATOM     92  O   UNL A   1      46.010  39.036  32.299  1.00  0.00    -0.237 OA
ATOM     93  O   UNL A   1      48.060  37.771  32.822  1.00  0.00    -0.744 OA
ENDBRANCH  89  90
ENDBRANCH  63  84
ENDBRANCH  37  38
ENDBRANCH  30  32
ENDBRANCH  29  30
ENDBRANCH  28  29
ENDBRANCH  27  28
ENDBRANCH  26  27
ENDBRANCH  25  26
ENDBRANCH   1  25
TORSDOF 24
ENDMDL
MODEL 2
REMARK VINA RESULT:      -8.8      5.732     10.866
REMARK SMILES O=C(C[C@@H](NC(=O)C1CCC1)c1ccc(Cl)cc1)OCCOCCOCCOC(=O)c1ccc(-c2c3nc(c(-c4ccc(S(=O)(=O)[O-])cc4)c4ccc([nH]4)c(-c4ccc(S(=O)(=O)[O-])cc4)c4nc(c(-c5ccc(S(=O)(=O)[O-])cc5)c5ccc2[nH]5)C=C4)C=C3)cc1
REMARK SMILES IDX 23 1 22 2 21 3 20 4 19 5 2 6 1 7 3 8 4 9 5 10 6 11 7 13 8 14
REMARK SMILES IDX 9 15 11 16 10 17 12 18 13 19 18 20 14 21 17 22 15 23 16 24
REMARK SMILES IDX 24 25 25 26 26 27 27 28 28 29 29 30 30 31 31 32 32 33 90 34
REMARK SMILES IDX 33 35 89 36 34 37 35 38 36 39 83 40 37 41 88 42 82 43 84 44
REMARK SMILES IDX 38 45 87 46 81 47 80 48 39 50 69 51 50 52 68 53 51 54 54 55
REMARK SMILES IDX 67 56 85 57 52 58 53 59 66 61 86 62 55 63 40 64 41 65 49 66
REMARK SMILES IDX 42 67 48 68 43 69 44 70 45 71 46 72 47 73 70 74 71 75 79 76
REMARK SMILES IDX 72 77 78 78 73 79 74 80 75 81 76 82 77 83 56 84 57 85 65 86
REMARK SMILES IDX 58 87 64 88 59 89 60 90 61 91 62 92 63 93
REMARK H PARENT 5 12 84 49 54 60
REMARK Flexibility Score: inf
ROOT
ATOM      1  C   UNL A   1      36.110  32.080  27.989  1.00  0.00     0.188 C 
ENDROOT
BRANCH   1   2
ATOM      2  O   UNL A   1      35.247  31.061  28.470  1.00  0.00    -0.376 OA
BRANCH   2   3
ATOM      3  C   UNL A   1      34.136  30.647  27.670  1.00  0.00     0.202 C 
BRANCH   3   4
ATOM      4  C   UNL A   1      34.037  29.187  27.208  1.00  0.00     0.261 C 
BRANCH   4   5
ATOM      5  O   UNL A   1      32.669  28.735  27.130  1.00  0.00    -0.463 OA
BRANCH   5   6
ATOM      6  C   UNL A   1      32.460  27.478  26.668  1.00  0.00     0.308 C 
ATOM      7  O   UNL A   1      31.483  26.812  26.990  1.00  0.00    -0.252 OA
BRANCH   6   8
ATOM      8  C   UNL A   1      33.617  26.943  25.852  1.00  0.00     0.152 C 
BRANCH   8   9
ATOM      9  C   UNL A   1      33.315  26.140  24.563  1.00  0.00     0.123 C 
BRANCH   9  10
ATOM     10  N   UNL A   1      33.751  26.821  23.339  1.00  0.00    -0.348 N 
ATOM     11  C   UNL A   1      33.229  27.716  22.455  1.00  0.00     0.223 C 
ATOM     12  H   UNL A   1      34.665  26.559  23.088  1.00  0.00     0.164 HD
ATOM     13  O   UNL A   1      34.042  28.160  21.626  1.00  0.00    -0.275 OA
BRANCH  11  14
ATOM     14  C   UNL A   1      31.748  28.094  22.437  1.00  0.00     0.078 C 
ATOM     15  C   UNL A   1      30.644  27.063  22.783  1.00  0.00     0.013 C 
ATOM     16  C   UNL A   1      31.245  28.879  23.690  1.00  0.00     0.013 C 
ATOM     17  C   UNL A   1      29.881  28.213  23.466  1.00  0.00     0.002 C 
ENDBRANCH  11  14
ENDBRANCH   9  10
BRANCH   9  18
ATOM     18  C   UNL A   1      33.899  24.749  24.755  1.00  0.00    -0.025 A 
ATOM     19  C   UNL A   1      34.445  24.332  25.981  1.00  0.00     0.007 A 
ATOM     20  C   UNL A   1      33.877  23.837  23.686  1.00  0.00     0.007 A 
ATOM     21  C   UNL A   1      35.070  23.088  26.094  1.00  0.00     0.021 A 
ATOM     22  C   UNL A   1      34.488  22.586  23.805  1.00  0.00     0.021 A 
ATOM     23  C   UNL A   1      35.104  22.227  25.000  1.00  0.00     0.041 A 
ATOM     24  Cl  UNL A   1      35.929  20.724  25.123  1.00  0.00    -0.084 Cl
ENDBRANCH   9  18
ENDBRANCH   8   9
ENDBRANCH   6   8
ENDBRANCH   5   6
ENDBRANCH   4   5
ENDBRANCH   3   4
ENDBRANCH   2   3
ENDBRANCH   1   2
BRANCH   1  25
ATOM     25  C   UNL A   1      35.881  33.520  28.456  1.00  0.00     0.188 C 
BRANCH  25  26
ATOM     26  O   UNL A   1      34.905  34.283  27.771  1.00  0.00    -0.376 OA
BRANCH  26  27
ATOM     27  C   UNL A   1      33.550  34.163  28.207  1.00  0.00     0.202 C 
BRANCH  27  28
ATOM     28  C   UNL A   1      32.895  35.325  28.960  1.00  0.00     0.261 C 
BRANCH  28  29
ATOM     29  O   UNL A   1      33.660  35.751  30.107  1.00  0.00    -0.460 OA
BRANCH  29  30
ATOM     30  C   UNL A   1      33.160  35.365  31.303  1.00  0.00     0.338 C 
ATOM     31  O   UNL A   1      31.978  35.344  31.632  1.00  0.00    -0.246 OA
BRANCH  30  32
ATOM     32  C   UNL A   1      34.214  34.842  32.184  1.00  0.00     0.060 A 
ATOM     33  C   UNL A   1      35.486  35.428  32.131  1.00  0.00     0.016 A 
ATOM     34  C   UNL A   1      34.008  33.657  32.893  1.00  0.00     0.016 A 
ATOM     35  C   UNL A   1      36.568  34.802  32.754  1.00  0.00     0.010 A 
ATOM     36  C   UNL A   1      35.097  33.028  33.507  1.00  0.00     0.010 A 
ATOM     37  C   UNL A   1      36.389  33.575  33.406  1.00  0.00    -0.014 A 
BRANCH  37  38
ATOM     38  C   UNL A   1      37.564  32.785  33.852  1.00  0.00     0.031 A 
ATOM     39  C   UNL A   1      38.249  33.148  35.145  1.00  0.00     0.074 A 
ATOM     40  C   UNL A   1      38.023  31.754  33.120  1.00  0.00     0.049 A 
ATOM     41  N   UNL A   1      39.325  32.633  35.684  1.00  0.00    -0.248 NA
ATOM     42  C   UNL A   1      37.639  34.232  35.933  1.00  0.00     0.031 C 
ATOM     43  C   UNL A   1      37.430  31.267  31.876  1.00  0.00     0.029 A 
ATOM     44  N   UNL A   1      39.110  30.937  33.319  1.00  0.00    -0.354 N 
ATOM     45  C   UNL A   1      39.528  33.335  36.868  1.00  0.00     0.074 A 
ATOM     46  C   UNL A   1      38.473  34.322  36.959  1.00  0.00     0.031 C 
ATOM     47  C   UNL A   1      38.170  30.244  31.414  1.00  0.00     0.029 A 
ATOM     48  C   UNL A   1      39.309  30.031  32.306  1.00  0.00     0.049 A 
ATOM     49  H   UNL A   1      39.690  30.995  34.112  1.00  0.00     0.167 HD
ATOM     50  C   UNL A   1      40.502  33.173  37.795  1.00  0.00     0.031 A 
ATOM     51  C   UNL A   1      40.309  29.150  32.103  1.00  0.00     0.031 A 
ATOM     52  C   UNL A   1      41.561  32.203  37.703  1.00  0.00     0.049 A 
ATOM     53  C   UNL A   1      41.425  29.042  33.108  1.00  0.00     0.074 A 
ATOM     54  C   UNL A   1      42.583  31.958  38.605  1.00  0.00     0.029 A 
ATOM     55  N   UNL A   1      41.743  31.326  36.647  1.00  0.00    -0.354 N 
ATOM     56  N   UNL A   1      41.588  29.695  34.234  1.00  0.00    -0.248 NA
ATOM     57  C   UNL A   1      42.490  28.069  32.818  1.00  0.00     0.031 C 
ATOM     58  C   UNL A   1      43.412  30.967  38.068  1.00  0.00     0.029 A 
ATOM     59  C   UNL A   1      42.874  30.556  36.860  1.00  0.00     0.049 A 
ATOM     60  H   UNL A   1      41.155  31.258  35.860  1.00  0.00     0.167 HD
ATOM     61  C   UNL A   1      42.757  29.192  34.798  1.00  0.00     0.074 A 
ATOM     62  C   UNL A   1      43.254  28.174  33.896  1.00  0.00     0.031 C 
ATOM     63  C   UNL A   1      43.362  29.542  35.961  1.00  0.00     0.031 A 
BRANCH  50  64
ATOM     64  C   UNL A   1      40.490  34.093  38.987  1.00  0.00    -0.014 A 
ATOM     65  C   UNL A   1      41.145  35.336  38.954  1.00  0.00     0.010 A 
ATOM     66  C   UNL A   1      39.761  33.732  40.135  1.00  0.00     0.010 A 
ATOM     67  C   UNL A   1      41.096  36.191  40.059  1.00  0.00     0.020 A 
ATOM     68  C   UNL A   1      39.690  34.594  41.233  1.00  0.00     0.020 A 
ATOM     69  C   UNL A   1      40.369  35.813  41.192  1.00  0.00     0.054 A 
BRANCH  69  70
ATOM     70  S   UNL A   1      40.295  36.955  42.600  1.00  0.00     0.124 S 
ATOM     71  O   UNL A   1      41.689  36.991  43.032  1.00  0.00    -0.237 OA
ATOM     72  O   UNL A   1      39.794  38.184  41.989  1.00  0.00    -0.237 OA
ATOM     73  O   UNL A   1      39.372  36.303  43.527  1.00  0.00    -0.744 OA
ENDBRANCH  69  70
ENDBRANCH  50  64
BRANCH  51  74
ATOM     74  C   UNL A   1      40.318  28.313  30.873  1.00  0.00    -0.014 A 
ATOM     75  C   UNL A   1      39.316  27.352  30.653  1.00  0.00     0.010 A 
ATOM     76  C   UNL A   1      41.344  28.466  29.921  1.00  0.00     0.010 A 
ATOM     77  C   UNL A   1      39.350  26.545  29.511  1.00  0.00     0.020 A 
ATOM     78  C   UNL A   1      41.365  27.680  28.767  1.00  0.00     0.020 A 
ATOM     79  C   UNL A   1      40.374  26.716  28.575  1.00  0.00     0.054 A 
BRANCH  79  80
ATOM     80  S   UNL A   1      40.367  25.697  27.074  1.00  0.00     0.124 S 
ATOM     81  O   UNL A   1      40.779  26.655  26.054  1.00  0.00    -0.237 OA
ATOM     82  O   UNL A   1      41.339  24.654  27.396  1.00  0.00    -0.237 OA
ATOM     83  O   UNL A   1      38.983  25.237  26.984  1.00  0.00    -0.744 OA
ENDBRANCH  79  80
ENDBRANCH  51  74
BRANCH  63  84
ATOM     84  C   UNL A   1      44.608  28.794  36.353  1.00  0.00    -0.014 A 
ATOM     85  C   UNL A   1      45.885  29.268  36.004  1.00  0.00     0.010 A 
ATOM     86  C   UNL A   1      44.501  27.627  37.133  1.00  0.00     0.010 A 
ATOM     87  C   UNL A   1      47.030  28.572  36.403  1.00  0.00     0.020 A 
ATOM     88  C   UNL A   1      45.644  26.943  37.555  1.00  0.00     0.020 A 
ATOM     89  C   UNL A   1      46.903  27.413  37.176  1.00  0.00     0.054 A 
BRANCH  89  90
ATOM     90  S   UNL A   1      48.405  26.551  37.718  1.00  0.00     0.124 S 
ATOM     91  O   UNL A   1      49.417  27.596  37.594  1.00  0.00    -0.237 OA
ATOM     92  O   UNL A   1      48.074  26.155  39.084  1.00  0.00    -0.237 OA
ATOM     93  O   UNL A   1      48.531  25.446  36.769  1.00  0.00    -0.744 OA
ENDBRANCH  89  90
ENDBRANCH  63  84
ENDBRANCH  37  38
ENDBRANCH  30  32
ENDBRANCH  29  30
ENDBRANCH  28  29
ENDBRANCH  27  28
ENDBRANCH  26  27
ENDBRANCH  25  26
ENDBRANCH   1  25
TORSDOF 24
ENDMDL
MODEL 3
REMARK VINA RESULT:      -8.8      5.082     11.422
REMARK SMILES O=C(C[C@@H](NC(=O)C1CCC1)c1ccc(Cl)cc1)OCCOCCOCCOC(=O)c1ccc(-c2c3nc(c(-c4ccc(S(=O)(=O)[O-])cc4)c4ccc([nH]4)c(-c4ccc(S(=O)(=O)[O-])cc4)c4nc(c(-c5ccc(S(=O)(=O)[O-])cc5)c5ccc2[nH]5)C=C4)C=C3)cc1
REMARK SMILES IDX 23 1 22 2 21 3 20 4 19 5 2 6 1 7 3 8 4 9 5 10 6 11 7 13 8 14
REMARK SMILES IDX 9 15 11 16 10 17 12 18 13 19 18 20 14 21 17 22 15 23 16 24
REMARK SMILES IDX 24 25 25 26 26 27 27 28 28 29 29 30 30 31 31 32 32 33 90 34
REMARK SMILES IDX 33 35 89 36 34 37 35 38 36 39 83 40 37 41 88 42 82 43 84 44
REMARK SMILES IDX 38 45 87 46 81 47 80 48 39 50 69 51 50 52 68 53 51 54 54 55
REMARK SMILES IDX 67 56 85 57 52 58 53 59 66 61 86 62 55 63 40 64 41 65 49 66
REMARK SMILES IDX 42 67 48 68 43 69 44 70 45 71 46 72 47 73 70 74 71 75 79 76
REMARK SMILES IDX 72 77 78 78 73 79 74 80 75 81 76 82 77 83 56 84 57 85 65 86
REMARK SMILES IDX 58 87 64 88 59 89 60 90 61 91 62 92 63 93
REMARK H PARENT 5 12 84 49 54 60
REMARK Flexibility Score: inf
ROOT
ATOM      1  C   UNL A   1      33.277  35.386  32.089  1.00  0.00     0.188 C 
ENDROOT
BRANCH   1   2
ATOM      2  O   UNL A   1      34.400  35.573  32.937  1.00  0.00    -0.376 OA
BRANCH   2   3
ATOM      3  C   UNL A   1      34.889  34.472  33.707  1.00  0.00     0.202 C 
BRANCH   3   4
ATOM      4  C   UNL A   1      36.350  34.029  33.553  1.00  0.00     0.261 C 
BRANCH   4   5
ATOM      5  O   UNL A   1      37.275  35.096  33.846  1.00  0.00    -0.463 OA
BRANCH   5   6
ATOM      6  C   UNL A   1      38.549  34.745  34.143  1.00  0.00     0.308 C 
ATOM      7  O   UNL A   1      39.147  35.193  35.115  1.00  0.00    -0.252 OA
BRANCH   6   8
ATOM      8  C   UNL A   1      39.192  33.877  33.081  1.00  0.00     0.152 C 
BRANCH   8   9
ATOM      9  C   UNL A   1      40.734  33.879  32.946  1.00  0.00     0.123 C 
BRANCH   9  10
ATOM     10  N   UNL A   1      41.352  32.609  33.342  1.00  0.00    -0.348 N 
ATOM     11  C   UNL A   1      42.387  32.205  34.131  1.00  0.00     0.223 C 
ATOM     12  H   UNL A   1      40.899  31.843  32.924  1.00  0.00     0.164 HD
ATOM     13  O   UNL A   1      42.451  30.978  34.315  1.00  0.00    -0.275 OA
BRANCH  11  14
ATOM     14  C   UNL A   1      43.429  33.175  34.690  1.00  0.00     0.078 C 
ATOM     15  C   UNL A   1      44.514  33.808  33.784  1.00  0.00     0.013 C 
ATOM     16  C   UNL A   1      42.927  34.637  34.912  1.00  0.00     0.013 C 
ATOM     17  C   UNL A   1      44.361  35.094  34.617  1.00  0.00     0.002 C 
ENDBRANCH  11  14
ENDBRANCH   9  10
BRANCH   9  18
ATOM     18  C   UNL A   1      41.059  34.326  31.530  1.00  0.00    -0.025 A 
ATOM     19  C   UNL A   1      42.295  34.904  31.195  1.00  0.00     0.007 A 
ATOM     20  C   UNL A   1      40.108  34.140  30.512  1.00  0.00     0.007 A 
ATOM     21  C   UNL A   1      42.522  35.402  29.910  1.00  0.00     0.021 A 
ATOM     22  C   UNL A   1      40.342  34.626  29.222  1.00  0.00     0.021 A 
ATOM     23  C   UNL A   1      41.537  35.277  28.934  1.00  0.00     0.041 A 
ATOM     24  Cl  UNL A   1      41.794  35.948  27.372  1.00  0.00    -0.084 Cl
ENDBRANCH   9  18
ENDBRANCH   8   9
ENDBRANCH   6   8
ENDBRANCH   5   6
ENDBRANCH   4   5
ENDBRANCH   3   4
ENDBRANCH   2   3
ENDBRANCH   1   2
BRANCH   1  25
ATOM     25  C   UNL A   1      33.498  35.334  30.575  1.00  0.00     0.188 C 
BRANCH  25  26
ATOM     26  O   UNL A   1      33.667  34.059  29.981  1.00  0.00    -0.376 OA
BRANCH  26  27
ATOM     27  C   UNL A   1      35.002  33.579  29.823  1.00  0.00     0.202 C 
BRANCH  27  28
ATOM     28  C   UNL A   1      35.272  32.072  29.882  1.00  0.00     0.261 C 
BRANCH  28  29
ATOM     29  O   UNL A   1      36.238  31.716  30.893  1.00  0.00    -0.460 OA
BRANCH  29  30
ATOM     30  C   UNL A   1      36.731  30.460  30.796  1.00  0.00     0.338 C 
ATOM     31  O   UNL A   1      36.119  29.414  30.990  1.00  0.00    -0.246 OA
BRANCH  30  32
ATOM     32  C   UNL A   1      38.116  30.462  30.304  1.00  0.00     0.060 A 
ATOM     33  C   UNL A   1      38.348  30.177  28.952  1.00  0.00     0.016 A 
ATOM     34  C   UNL A   1      39.178  30.533  31.206  1.00  0.00     0.016 A 
ATOM     35  C   UNL A   1      39.646  29.918  28.507  1.00  0.00     0.010 A 
ATOM     36  C   UNL A   1      40.477  30.263  30.759  1.00  0.00     0.010 A 
ATOM     37  C   UNL A   1      40.712  29.913  29.417  1.00  0.00    -0.014 A 
BRANCH  37  38
ATOM     38  C   UNL A   1      42.044  29.400  29.008  1.00  0.00     0.031 A 
ATOM     39  C   UNL A   1      43.210  30.352  28.932  1.00  0.00     0.074 A 
ATOM     40  C   UNL A   1      42.222  28.102  28.707  1.00  0.00     0.049 A 
ATOM     41  N   UNL A   1      44.437  30.128  28.538  1.00  0.00    -0.248 NA
ATOM     42  C   UNL A   1      42.957  31.739  29.359  1.00  0.00     0.031 C 
ATOM     43  C   UNL A   1      41.194  27.065  28.782  1.00  0.00     0.029 A 
ATOM     44  N   UNL A   1      43.340  27.438  28.263  1.00  0.00    -0.354 N 
ATOM     45  C   UNL A   1      45.102  31.344  28.658  1.00  0.00     0.074 A 
ATOM     46  C   UNL A   1      44.137  32.306  29.146  1.00  0.00     0.031 C 
ATOM     47  C   UNL A   1      41.726  25.897  28.382  1.00  0.00     0.029 A 
ATOM     48  C   UNL A   1      43.117  26.111  27.985  1.00  0.00     0.049 A 
ATOM     49  H   UNL A   1      44.217  27.871  28.154  1.00  0.00     0.167 HD
ATOM     50  C   UNL A   1      46.397  31.634  28.387  1.00  0.00     0.031 A 
ATOM     51  C   UNL A   1      43.930  25.180  27.446  1.00  0.00     0.031 A 
ATOM     52  C   UNL A   1      47.357  30.686  27.888  1.00  0.00     0.049 A 
ATOM     53  C   UNL A   1      45.344  25.546  27.079  1.00  0.00     0.074 A 
ATOM     54  C   UNL A   1      48.697  30.889  27.601  1.00  0.00     0.029 A 
ATOM     55  N   UNL A   1      47.083  29.361  27.593  1.00  0.00    -0.354 N 
ATOM     56  N   UNL A   1      45.964  26.693  27.222  1.00  0.00    -0.248 NA
ATOM     57  C   UNL A   1      46.172  24.486  26.483  1.00  0.00     0.031 C 
ATOM     58  C   UNL A   1      49.219  29.699  27.083  1.00  0.00     0.029 A 
ATOM     59  C   UNL A   1      48.220  28.740  27.103  1.00  0.00     0.049 A 
ATOM     60  H   UNL A   1      46.210  28.924  27.715  1.00  0.00     0.167 HD
ATOM     61  C   UNL A   1      47.261  26.484  26.762  1.00  0.00     0.074 A 
ATOM     62  C   UNL A   1      47.340  25.099  26.345  1.00  0.00     0.031 C 
ATOM     63  C   UNL A   1      48.293  27.361  26.693  1.00  0.00     0.031 A 
BRANCH  50  64
ATOM     64  C   UNL A   1      46.852  33.054  28.596  1.00  0.00    -0.014 A 
ATOM     65  C   UNL A   1      46.868  33.977  27.535  1.00  0.00     0.010 A 
ATOM     66  C   UNL A   1      47.211  33.486  29.886  1.00  0.00     0.010 A 
ATOM     67  C   UNL A   1      47.262  35.299  27.755  1.00  0.00     0.020 A 
ATOM     68  C   UNL A   1      47.583  34.815  30.114  1.00  0.00     0.020 A 
ATOM     69  C   UNL A   1      47.619  35.709  29.043  1.00  0.00     0.054 A 
BRANCH  69  70
ATOM     70  S   UNL A   1      48.095  37.440  29.307  1.00  0.00     0.124 S 
ATOM     71  O   UNL A   1      49.237  37.304  30.207  1.00  0.00    -0.237 OA
ATOM     72  O   UNL A   1      48.410  37.895  27.955  1.00  0.00    -0.237 OA
ATOM     73  O   UNL A   1      46.903  38.041  29.901  1.00  0.00    -0.744 OA
ENDBRANCH  69  70
ENDBRANCH  50  64
BRANCH  51  74
ATOM     74  C   UNL A   1      43.415  23.808  27.189  1.00  0.00    -0.014 A 
ATOM     75  C   UNL A   1      42.967  23.001  28.249  1.00  0.00     0.010 A 
ATOM     76  C   UNL A   1      43.387  23.298  25.878  1.00  0.00     0.010 A 
ATOM     77  C   UNL A   1      42.516  21.701  28.005  1.00  0.00     0.020 A 
ATOM     78  C   UNL A   1      42.912  22.008  25.627  1.00  0.00     0.020 A 
ATOM     79  C   UNL A   1      42.490  21.214  26.695  1.00  0.00     0.054 A 
BRANCH  79  80
ATOM     80  S   UNL A   1      41.849  19.543  26.394  1.00  0.00     0.124 S 
ATOM     81  O   UNL A   1      40.408  19.767  26.390  1.00  0.00    -0.237 OA
ATOM     82  O   UNL A   1      42.444  19.205  25.103  1.00  0.00    -0.237 OA
ATOM     83  O   UNL A   1      42.365  18.775  27.525  1.00  0.00    -0.744 OA
ENDBRANCH  79  80
ENDBRANCH  51  74
BRANCH  63  84
ATOM     84  C   UNL A   1      49.614  26.847  26.185  1.00  0.00    -0.014 A 
ATOM     85  C   UNL A   1      50.042  27.103  24.871  1.00  0.00     0.010 A 
ATOM     86  C   UNL A   1      50.467  26.144  27.058  1.00  0.00     0.010 A 
ATOM     87  C   UNL A   1      51.286  26.640  24.430  1.00  0.00     0.020 A 
ATOM     88  C   UNL A   1      51.720  25.701  26.629  1.00  0.00     0.020 A 
ATOM     89  C   UNL A   1      52.117  25.941  25.312  1.00  0.00     0.054 A 
BRANCH  89  90
ATOM     90  S   UNL A   1      53.744  25.387  24.729  1.00  0.00     0.124 S 
ATOM     91  O   UNL A   1      53.608  23.935  24.780  1.00  0.00    -0.237 OA
ATOM     92  O   UNL A   1      53.820  25.965  23.389  1.00  0.00    -0.237 OA
ATOM     93  O   UNL A   1      54.673  25.960  25.701  1.00  0.00    -0.744 OA
ENDBRANCH  89  90
ENDBRANCH  63  84
ENDBRANCH  37  38
ENDBRANCH  30  32
ENDBRANCH  29  30
ENDBRANCH  28  29
ENDBRANCH  27  28
ENDBRANCH  26  27
ENDBRANCH  25  26
ENDBRANCH   1  25
TORSDOF 24
ENDMDL
