MODEL 1
REMARK VINA RESULT:      -8.4      0.000      0.000
REMARK SMILES O=Cc1c(OCc2ccc(C(=O)OCCOCCOCCOC(=O)c3ccc(-c4c5nc(c(-c6ccc(S(=O)(=O)[O-])cc6)c6ccc([nH]6)c(-c6ccc(S(=O)(=O)[O-])cc6)c6nc(c(-c7ccc(S(=O)(=O)[O-])cc7)c7ccc4[nH]7)C=C6)C=C5)cc3)cc2)ccc2ccccc12
REMARK SMILES IDX 17 1 16 2 15 3 14 4 13 5 11 6 12 7 10 8 7 9 8 10 86 11 9 12
REMARK SMILES IDX 85 13 6 14 5 15 4 16 3 17 94 18 87 19 89 20 93 21 88 22
REMARK SMILES IDX 90 23 92 24 91 25 2 26 1 27 18 28 19 29 20 30 21 31 22 32
REMARK SMILES IDX 23 33 24 34 25 35 26 36 84 37 27 38 83 39 28 40 29 41 30 42
REMARK SMILES IDX 77 43 31 44 82 45 76 46 78 47 32 48 81 49 75 50 74 51 33 53
REMARK SMILES IDX 63 54 44 55 62 56 45 57 48 58 61 59 79 60 46 61 47 62 60 64
REMARK SMILES IDX 80 65 49 66 34 67 35 68 43 69 36 70 42 71 37 72 38 73 39 74
REMARK SMILES IDX 40 75 41 76 64 77 65 78 73 79 66 80 72 81 67 82 68 83 69 84
REMARK SMILES IDX 70 85 71 86 50 87 51 88 59 89 52 90 58 91 53 92 54 93 55 94
REMARK SMILES IDX 56 95 57 96
REMARK H PARENT 78 52 48 63
REMARK Flexibility Score: inf
ROOT
ATOM      1  C   UNL A   1      33.266  35.546  30.016  1.00  0.00     0.188 C 
ENDROOT
BRANCH   1   2
ATOM      2  O   UNL A   1      32.148  36.177  30.604  1.00  0.00    -0.376 OA
BRANCH   2   3
ATOM      3  C   UNL A   1      31.958  36.170  32.010  1.00  0.00     0.202 C 
BRANCH   3   4
ATOM      4  C   UNL A   1      32.546  35.114  32.954  1.00  0.00     0.261 C 
BRANCH   4   5
ATOM      5  O   UNL A   1      33.793  34.546  32.543  1.00  0.00    -0.460 OA
BRANCH   5   6
ATOM      6  C   UNL A   1      34.800  34.709  33.431  1.00  0.00     0.338 C 
ATOM      7  O   UNL A   1      34.960  35.641  34.211  1.00  0.00    -0.246 OA
BRANCH   6   8
ATOM      8  C   UNL A   1      35.627  33.498  33.476  1.00  0.00     0.060 A 
ATOM      9  C   UNL A   1      37.446  31.370  33.524  1.00  0.00    -0.011 A 
ATOM     10  C   UNL A   1      37.360  32.257  34.605  1.00  0.00     0.008 A 
ATOM     11  C   UNL A   1      36.502  31.486  32.484  1.00  0.00     0.008 A 
ATOM     12  C   UNL A   1      36.499  33.349  34.556  1.00  0.00     0.016 A 
ATOM     13  C   UNL A   1      35.579  32.537  32.465  1.00  0.00     0.016 A 
BRANCH   9  14
ATOM     14  C   UNL A   1      38.588  30.374  33.368  1.00  0.00     0.265 C 
BRANCH  14  15
ATOM     15  O   UNL A   1      39.746  30.560  34.187  1.00  0.00    -0.488 OA
BRANCH  15  16
ATOM     16  C   UNL A   1      40.734  29.610  34.258  1.00  0.00     0.130 A 
ATOM     17  C   UNL A   1      41.850  29.919  35.062  1.00  0.00     0.064 A 
ATOM     18  C   UNL A   1      43.066  29.184  34.965  1.00  0.00    -0.004 A 
ATOM     19  C   UNL A   1      40.772  28.463  33.467  1.00  0.00     0.048 A 
ATOM     20  C   UNL A   1      43.111  28.103  34.052  1.00  0.00    -0.017 A 
ATOM     21  C   UNL A   1      44.247  29.464  35.700  1.00  0.00     0.009 A 
ATOM     22  C   UNL A   1      41.958  27.736  33.346  1.00  0.00     0.012 A 
ATOM     23  C   UNL A   1      44.309  27.398  33.848  1.00  0.00     0.009 A 
ATOM     24  C   UNL A   1      45.428  28.746  35.494  1.00  0.00     0.001 A 
ATOM     25  C   UNL A   1      45.462  27.724  34.557  1.00  0.00     0.001 A 
BRANCH  17  26
ATOM     26  C   UNL A   1      41.763  31.075  35.987  1.00  0.00     0.264 C 
ATOM     27  O   UNL A   1      41.351  30.976  37.137  1.00  0.00    -0.298 OA
ENDBRANCH  17  26
ENDBRANCH  15  16
ENDBRANCH  14  15
ENDBRANCH   9  14
ENDBRANCH   6   8
ENDBRANCH   5   6
ENDBRANCH   4   5
ENDBRANCH   3   4
ENDBRANCH   2   3
ENDBRANCH   1   2
BRANCH   1  28
ATOM     28  C   UNL A   1      33.436  35.546  28.481  1.00  0.00     0.188 C 
BRANCH  28  29
ATOM     29  O   UNL A   1      34.676  35.234  27.880  1.00  0.00    -0.376 OA
BRANCH  29  30
ATOM     30  C   UNL A   1      35.556  34.315  28.502  1.00  0.00     0.202 C 
BRANCH  30  31
ATOM     31  C   UNL A   1      35.628  32.833  28.111  1.00  0.00     0.261 C 
BRANCH  31  32
ATOM     32  O   UNL A   1      34.592  31.992  28.632  1.00  0.00    -0.460 OA
BRANCH  32  33
ATOM     33  C   UNL A   1      34.565  30.741  28.120  1.00  0.00     0.338 C 
ATOM     34  O   UNL A   1      33.667  30.226  27.465  1.00  0.00    -0.246 OA
BRANCH  33  35
ATOM     35  C   UNL A   1      35.872  30.099  28.323  1.00  0.00     0.060 A 
ATOM     36  C   UNL A   1      36.172  29.575  29.588  1.00  0.00     0.016 A 
ATOM     37  C   UNL A   1      36.820  30.068  27.296  1.00  0.00     0.016 A 
ATOM     38  C   UNL A   1      37.432  29.036  29.836  1.00  0.00     0.010 A 
ATOM     39  C   UNL A   1      38.088  29.542  27.556  1.00  0.00     0.010 A 
ATOM     40  C   UNL A   1      38.409  29.048  28.833  1.00  0.00    -0.014 A 
BRANCH  40  41
ATOM     41  C   UNL A   1      39.805  28.677  29.161  1.00  0.00     0.031 A 
ATOM     42  C   UNL A   1      40.684  29.686  29.850  1.00  0.00     0.074 A 
ATOM     43  C   UNL A   1      40.283  27.456  28.865  1.00  0.00     0.049 A 
ATOM     44  N   UNL A   1      41.937  29.583  30.209  1.00  0.00    -0.248 NA
ATOM     45  C   UNL A   1      40.066  30.980  30.180  1.00  0.00     0.031 C 
ATOM     46  C   UNL A   1      39.521  26.378  28.235  1.00  0.00     0.029 A 
ATOM     47  N   UNL A   1      41.533  26.920  29.053  1.00  0.00    -0.354 N 
ATOM     48  C   UNL A   1      42.261  30.797  30.803  1.00  0.00     0.074 A 
ATOM     49  C   UNL A   1      41.080  31.631  30.731  1.00  0.00     0.031 C 
ATOM     50  C   UNL A   1      40.325  25.312  28.078  1.00  0.00     0.029 A 
ATOM     51  C   UNL A   1      41.663  25.641  28.567  1.00  0.00     0.049 A 
ATOM     52  H   UNL A   1      42.266  27.406  29.493  1.00  0.00     0.167 HD
ATOM     53  C   UNL A   1      43.432  31.182  31.362  1.00  0.00     0.031 A 
ATOM     54  C   UNL A   1      42.743  24.838  28.502  1.00  0.00     0.031 A 
ATOM     55  C   UNL A   1      44.613  30.361  31.412  1.00  0.00     0.049 A 
ATOM     56  C   UNL A   1      44.059  25.320  29.056  1.00  0.00     0.074 A 
ATOM     57  C   UNL A   1      45.843  30.659  31.972  1.00  0.00     0.029 A 
ATOM     58  N   UNL A   1      44.715  29.088  30.875  1.00  0.00    -0.354 N 
ATOM     59  N   UNL A   1      44.340  26.457  29.648  1.00  0.00    -0.248 NA
ATOM     60  C   UNL A   1      45.204  24.403  28.942  1.00  0.00     0.031 C 
ATOM     61  C   UNL A   1      46.707  29.587  31.722  1.00  0.00     0.029 A 
ATOM     62  C   UNL A   1      45.997  28.597  31.063  1.00  0.00     0.049 A 
ATOM     63  H   UNL A   1      43.986  28.604  30.425  1.00  0.00     0.167 HD
ATOM     64  C   UNL A   1      45.684  26.380  30.001  1.00  0.00     0.074 A 
ATOM     65  C   UNL A   1      46.156  25.081  29.569  1.00  0.00     0.031 C 
ATOM     66  C   UNL A   1      46.455  27.301  30.629  1.00  0.00     0.031 A 
BRANCH  53  67
ATOM     67  C   UNL A   1      43.503  32.573  31.933  1.00  0.00    -0.014 A 
ATOM     68  C   UNL A   1      43.941  33.659  31.154  1.00  0.00     0.010 A 
ATOM     69  C   UNL A   1      43.094  32.801  33.260  1.00  0.00     0.010 A 
ATOM     70  C   UNL A   1      44.003  34.943  31.704  1.00  0.00     0.020 A 
ATOM     71  C   UNL A   1      43.130  34.088  33.804  1.00  0.00     0.020 A 
ATOM     72  C   UNL A   1      43.600  35.148  33.027  1.00  0.00     0.054 A 
BRANCH  72  73
ATOM     73  S   UNL A   1      43.673  36.828  33.709  1.00  0.00     0.124 S 
ATOM     74  O   UNL A   1      43.694  37.643  32.497  1.00  0.00    -0.237 OA
ATOM     75  O   UNL A   1      42.447  36.907  34.499  1.00  0.00    -0.237 OA
ATOM     76  O   UNL A   1      44.911  36.834  34.485  1.00  0.00    -0.744 OA
ENDBRANCH  72  73
ENDBRANCH  53  67
BRANCH  54  77
ATOM     77  C   UNL A   1      42.632  23.493  27.875  1.00  0.00    -0.014 A 
ATOM     78  C   UNL A   1      42.923  23.312  26.513  1.00  0.00     0.010 A 
ATOM     79  C   UNL A   1      42.229  22.385  28.643  1.00  0.00     0.010 A 
ATOM     80  C   UNL A   1      42.802  22.049  25.925  1.00  0.00     0.020 A 
ATOM     81  C   UNL A   1      42.133  21.116  28.066  1.00  0.00     0.020 A 
ATOM     82  C   UNL A   1      42.412  20.959  26.707  1.00  0.00     0.054 A 
BRANCH  82  83
ATOM     83  S   UNL A   1      42.324  19.320  25.934  1.00  0.00     0.124 S 
ATOM     84  O   UNL A   1      43.246  19.465  24.812  1.00  0.00    -0.237 OA
ATOM     85  O   UNL A   1      42.774  18.442  27.013  1.00  0.00    -0.237 OA
ATOM     86  O   UNL A   1      40.915  19.185  25.577  1.00  0.00    -0.744 OA
ENDBRANCH  82  83
ENDBRANCH  54  77
BRANCH  66  87
ATOM     87  C   UNL A   1      47.885  26.928  30.926  1.00  0.00    -0.014 A 
ATOM     88  C   UNL A   1      48.825  26.753  29.895  1.00  0.00     0.010 A 
ATOM     89  C   UNL A   1      48.305  26.803  32.264  1.00  0.00     0.010 A 
ATOM     90  C   UNL A   1      50.151  26.428  30.196  1.00  0.00     0.020 A 
ATOM     91  C   UNL A   1      49.635  26.507  32.569  1.00  0.00     0.020 A 
ATOM     92  C   UNL A   1      50.548  26.306  31.532  1.00  0.00     0.054 A 
BRANCH  92  93
ATOM     93  S   UNL A   1      52.282  25.922  31.898  1.00  0.00     0.124 S 
ATOM     94  O   UNL A   1      52.260  24.465  31.982  1.00  0.00    -0.237 OA
ATOM     95  O   UNL A   1      52.985  26.475  30.743  1.00  0.00    -0.237 OA
ATOM     96  O   UNL A   1      52.531  26.614  33.161  1.00  0.00    -0.744 OA
ENDBRANCH  92  93
ENDBRANCH  66  87
ENDBRANCH  40  41
ENDBRANCH  33  35
ENDBRANCH  32  33
ENDBRANCH  31  32
ENDBRANCH  30  31
ENDBRANCH  29  30
ENDBRANCH  28  29
ENDBRANCH   1  28
TORSDOF 24
ENDMDL
MODEL 2
REMARK VINA RESULT:      -7.2      3.971      9.442
REMARK SMILES O=Cc1c(OCc2ccc(C(=O)OCCOCCOCCOC(=O)c3ccc(-c4c5nc(c(-c6ccc(S(=O)(=O)[O-])cc6)c6ccc([nH]6)c(-c6ccc(S(=O)(=O)[O-])cc6)c6nc(c(-c7ccc(S(=O)(=O)[O-])cc7)c7ccc4[nH]7)C=C6)C=C5)cc3)cc2)ccc2ccccc12
REMARK SMILES IDX 17 1 16 2 15 3 14 4 13 5 11 6 12 7 10 8 7 9 8 10 86 11 9 12
REMARK SMILES IDX 85 13 6 14 5 15 4 16 3 17 94 18 87 19 89 20 93 21 88 22
REMARK SMILES IDX 90 23 92 24 91 25 2 26 1 27 18 28 19 29 20 30 21 31 22 32
REMARK SMILES IDX 23 33 24 34 25 35 26 36 84 37 27 38 83 39 28 40 29 41 30 42
REMARK SMILES IDX 77 43 31 44 82 45 76 46 78 47 32 48 81 49 75 50 74 51 33 53
REMARK SMILES IDX 63 54 44 55 62 56 45 57 48 58 61 59 79 60 46 61 47 62 60 64
REMARK SMILES IDX 80 65 49 66 34 67 35 68 43 69 36 70 42 71 37 72 38 73 39 74
REMARK SMILES IDX 40 75 41 76 64 77 65 78 73 79 66 80 72 81 67 82 68 83 69 84
REMARK SMILES IDX 70 85 71 86 50 87 51 88 59 89 52 90 58 91 53 92 54 93 55 94
REMARK SMILES IDX 56 95 57 96
REMARK H PARENT 78 52 48 63
REMARK Flexibility Score: inf
ROOT
ATOM      1  C   UNL A   1      35.180  32.978  27.790  1.00  0.00     0.188 C 
ENDROOT
BRANCH   1   2
ATOM      2  O   UNL A   1      34.854  31.765  28.435  1.00  0.00    -0.376 OA
BRANCH   2   3
ATOM      3  C   UNL A   1      34.812  30.542  27.717  1.00  0.00     0.202 C 
BRANCH   3   4
ATOM      4  C   UNL A   1      35.692  29.326  28.032  1.00  0.00     0.261 C 
BRANCH   4   5
ATOM      5  O   UNL A   1      37.101  29.569  28.031  1.00  0.00    -0.460 OA
BRANCH   5   6
ATOM      6  C   UNL A   1      37.760  29.044  29.089  1.00  0.00     0.338 C 
ATOM      7  O   UNL A   1      37.326  28.867  30.221  1.00  0.00    -0.246 OA
BRANCH   6   8
ATOM      8  C   UNL A   1      39.064  28.525  28.658  1.00  0.00     0.060 A 
ATOM      9  C   UNL A   1      41.567  27.398  28.109  1.00  0.00    -0.011 A 
ATOM     10  C   UNL A   1      40.418  26.597  28.145  1.00  0.00     0.008 A 
ATOM     11  C   UNL A   1      41.413  28.795  28.210  1.00  0.00     0.008 A 
ATOM     12  C   UNL A   1      39.183  27.145  28.477  1.00  0.00     0.016 A 
ATOM     13  C   UNL A   1      40.161  29.364  28.466  1.00  0.00     0.016 A 
BRANCH   9  14
ATOM     14  C   UNL A   1      42.974  26.815  28.092  1.00  0.00     0.265 C 
BRANCH  14  15
ATOM     15  O   UNL A   1      43.598  26.626  26.819  1.00  0.00    -0.488 OA
BRANCH  15  16
ATOM     16  C   UNL A   1      44.929  26.897  26.626  1.00  0.00     0.130 A 
ATOM     17  C   UNL A   1      45.816  25.806  26.730  1.00  0.00     0.064 A 
ATOM     18  C   UNL A   1      47.220  25.997  26.876  1.00  0.00    -0.004 A 
ATOM     19  C   UNL A   1      45.455  28.182  26.504  1.00  0.00     0.048 A 
ATOM     20  C   UNL A   1      47.707  27.327  26.880  1.00  0.00    -0.017 A 
ATOM     21  C   UNL A   1      48.171  24.957  27.038  1.00  0.00     0.009 A 
ATOM     22  C   UNL A   1      46.826  28.394  26.658  1.00  0.00     0.012 A 
ATOM     23  C   UNL A   1      49.069  27.581  27.109  1.00  0.00     0.009 A 
ATOM     24  C   UNL A   1      49.525  25.225  27.255  1.00  0.00     0.001 A 
ATOM     25  C   UNL A   1      49.970  26.538  27.305  1.00  0.00     0.001 A 
BRANCH  17  26
ATOM     26  C   UNL A   1      45.257  24.432  26.745  1.00  0.00     0.264 C 
ATOM     27  O   UNL A   1      45.684  23.550  27.482  1.00  0.00    -0.298 OA
ENDBRANCH  17  26
ENDBRANCH  15  16
ENDBRANCH  14  15
ENDBRANCH   9  14
ENDBRANCH   6   8
ENDBRANCH   5   6
ENDBRANCH   4   5
ENDBRANCH   3   4
ENDBRANCH   2   3
ENDBRANCH   1   2
BRANCH   1  28
ATOM     28  C   UNL A   1      35.511  34.233  28.626  1.00  0.00     0.188 C 
BRANCH  28  29
ATOM     29  O   UNL A   1      34.503  35.151  29.000  1.00  0.00    -0.376 OA
BRANCH  29  30
ATOM     30  C   UNL A   1      33.570  34.810  30.009  1.00  0.00     0.202 C 
BRANCH  30  31
ATOM     31  C   UNL A   1      33.974  34.545  31.465  1.00  0.00     0.261 C 
BRANCH  31  32
ATOM     32  O   UNL A   1      34.336  33.196  31.784  1.00  0.00    -0.460 OA
BRANCH  32  33
ATOM     33  C   UNL A   1      35.123  33.061  32.874  1.00  0.00     0.338 C 
ATOM     34  O   UNL A   1      34.773  33.067  34.049  1.00  0.00    -0.246 OA
BRANCH  33  35
ATOM     35  C   UNL A   1      36.494  32.735  32.453  1.00  0.00     0.060 A 
ATOM     36  C   UNL A   1      37.551  33.051  33.317  1.00  0.00     0.016 A 
ATOM     37  C   UNL A   1      36.742  32.182  31.194  1.00  0.00     0.016 A 
ATOM     38  C   UNL A   1      38.866  32.832  32.913  1.00  0.00     0.010 A 
ATOM     39  C   UNL A   1      38.063  31.982  30.787  1.00  0.00     0.010 A 
ATOM     40  C   UNL A   1      39.132  32.329  31.633  1.00  0.00    -0.014 A 
BRANCH  40  41
ATOM     41  C   UNL A   1      40.524  32.302  31.127  1.00  0.00     0.031 A 
ATOM     42  C   UNL A   1      41.373  31.088  31.391  1.00  0.00     0.074 A 
ATOM     43  C   UNL A   1      41.024  33.336  30.427  1.00  0.00     0.049 A 
ATOM     44  N   UNL A   1      42.617  30.861  31.061  1.00  0.00    -0.248 NA
ATOM     45  C   UNL A   1      40.731  29.984  32.124  1.00  0.00     0.031 C 
ATOM     46  C   UNL A   1      40.291  34.550  30.069  1.00  0.00     0.029 A 
ATOM     47  N   UNL A   1      42.275  33.528  29.895  1.00  0.00    -0.354 N 
ATOM     48  C   UNL A   1      42.910  29.592  31.547  1.00  0.00     0.074 A 
ATOM     49  C   UNL A   1      41.722  29.111  32.218  1.00  0.00     0.031 C 
ATOM     50  C   UNL A   1      41.111  35.367  29.386  1.00  0.00     0.029 A 
ATOM     51  C   UNL A   1      42.432  34.749  29.285  1.00  0.00     0.049 A 
ATOM     52  H   UNL A   1      42.991  32.855  29.946  1.00  0.00     0.167 HD
ATOM     53  C   UNL A   1      44.062  28.889  31.440  1.00  0.00     0.031 A 
ATOM     54  C   UNL A   1      43.523  35.313  28.730  1.00  0.00     0.031 A 
ATOM     55  C   UNL A   1      45.251  29.377  30.792  1.00  0.00     0.049 A 
ATOM     56  C   UNL A   1      44.819  34.543  28.696  1.00  0.00     0.074 A 
ATOM     57  C   UNL A   1      46.463  28.731  30.620  1.00  0.00     0.029 A 
ATOM     58  N   UNL A   1      45.382  30.633  30.222  1.00  0.00    -0.354 N 
ATOM     59  N   UNL A   1      45.070  33.329  29.126  1.00  0.00    -0.248 NA
ATOM     60  C   UNL A   1      45.977  35.219  28.090  1.00  0.00     0.031 C 
ATOM     61  C   UNL A   1      47.346  29.618  29.996  1.00  0.00     0.029 A 
ATOM     62  C   UNL A   1      46.665  30.794  29.722  1.00  0.00     0.049 A 
ATOM     63  H   UNL A   1      44.671  31.312  30.178  1.00  0.00     0.167 HD
ATOM     64  C   UNL A   1      46.406  33.087  28.819  1.00  0.00     0.074 A 
ATOM     65  C   UNL A   1      46.904  34.272  28.153  1.00  0.00     0.031 C 
ATOM     66  C   UNL A   1      47.150  31.980  29.062  1.00  0.00     0.031 A 
BRANCH  53  67
ATOM     67  C   UNL A   1      44.102  27.523  32.073  1.00  0.00    -0.014 A 
ATOM     68  C   UNL A   1      44.044  26.356  31.290  1.00  0.00     0.010 A 
ATOM     69  C   UNL A   1      44.231  27.407  33.469  1.00  0.00     0.010 A 
ATOM     70  C   UNL A   1      44.078  25.097  31.896  1.00  0.00     0.020 A 
ATOM     71  C   UNL A   1      44.292  26.150  34.076  1.00  0.00     0.020 A 
ATOM     72  C   UNL A   1      44.199  25.003  33.286  1.00  0.00     0.054 A 
BRANCH  72  73
ATOM     73  S   UNL A   1      44.261  23.356  34.045  1.00  0.00     0.124 S 
ATOM     74  O   UNL A   1      43.665  23.607  35.355  1.00  0.00    -0.237 OA
ATOM     75  O   UNL A   1      43.455  22.551  33.131  1.00  0.00    -0.237 OA
ATOM     76  O   UNL A   1      45.686  23.034  34.062  1.00  0.00    -0.744 OA
ENDBRANCH  72  73
ENDBRANCH  53  67
BRANCH  54  77
ATOM     77  C   UNL A   1      43.445  36.688  28.169  1.00  0.00    -0.014 A 
ATOM     78  C   UNL A   1      44.165  37.743  28.755  1.00  0.00     0.010 A 
ATOM     79  C   UNL A   1      42.642  36.950  27.043  1.00  0.00     0.010 A 
ATOM     80  C   UNL A   1      44.074  39.037  28.234  1.00  0.00     0.020 A 
ATOM     81  C   UNL A   1      42.571  38.236  26.501  1.00  0.00     0.020 A 
ATOM     82  C   UNL A   1      43.282  39.274  27.107  1.00  0.00     0.054 A 
BRANCH  82  83
ATOM     83  S   UNL A   1      43.234  40.950  26.413  1.00  0.00     0.124 S 
ATOM     84  O   UNL A   1      44.120  40.825  25.260  1.00  0.00    -0.237 OA
ATOM     85  O   UNL A   1      41.815  41.118  26.107  1.00  0.00    -0.237 OA
ATOM     86  O   UNL A   1      43.732  41.785  27.503  1.00  0.00    -0.744 OA
ENDBRANCH  82  83
ENDBRANCH  54  77
BRANCH  66  87
ATOM     87  C   UNL A   1      48.575  31.976  28.574  1.00  0.00    -0.014 A 
ATOM     88  C   UNL A   1      49.617  32.511  29.353  1.00  0.00     0.010 A 
ATOM     89  C   UNL A   1      48.883  31.379  27.337  1.00  0.00     0.010 A 
ATOM     90  C   UNL A   1      50.935  32.477  28.889  1.00  0.00     0.020 A 
ATOM     91  C   UNL A   1      50.202  31.318  26.882  1.00  0.00     0.020 A 
ATOM     92  C   UNL A   1      51.220  31.881  27.655  1.00  0.00     0.054 A 
BRANCH  92  93
ATOM     93  S   UNL A   1      52.943  31.815  27.092  1.00  0.00     0.124 S 
ATOM     94  O   UNL A   1      52.807  31.207  25.772  1.00  0.00    -0.237 OA
ATOM     95  O   UNL A   1      53.338  33.220  27.100  1.00  0.00    -0.237 OA
ATOM     96  O   UNL A   1      53.604  30.983  28.096  1.00  0.00    -0.744 OA
ENDBRANCH  92  93
ENDBRANCH  66  87
ENDBRANCH  40  41
ENDBRANCH  33  35
ENDBRANCH  32  33
ENDBRANCH  31  32
ENDBRANCH  30  31
ENDBRANCH  29  30
ENDBRANCH  28  29
ENDBRANCH   1  28
TORSDOF 24
ENDMDL
MODEL 3
REMARK VINA RESULT:      -7.1      4.850     11.835
REMARK SMILES O=Cc1c(OCc2ccc(C(=O)OCCOCCOCCOC(=O)c3ccc(-c4c5nc(c(-c6ccc(S(=O)(=O)[O-])cc6)c6ccc([nH]6)c(-c6ccc(S(=O)(=O)[O-])cc6)c6nc(c(-c7ccc(S(=O)(=O)[O-])cc7)c7ccc4[nH]7)C=C6)C=C5)cc3)cc2)ccc2ccccc12
REMARK SMILES IDX 17 1 16 2 15 3 14 4 13 5 11 6 12 7 10 8 7 9 8 10 86 11 9 12
REMARK SMILES IDX 85 13 6 14 5 15 4 16 3 17 94 18 87 19 89 20 93 21 88 22
REMARK SMILES IDX 90 23 92 24 91 25 2 26 1 27 18 28 19 29 20 30 21 31 22 32
REMARK SMILES IDX 23 33 24 34 25 35 26 36 84 37 27 38 83 39 28 40 29 41 30 42
REMARK SMILES IDX 77 43 31 44 82 45 76 46 78 47 32 48 81 49 75 50 74 51 33 53
REMARK SMILES IDX 63 54 44 55 62 56 45 57 48 58 61 59 79 60 46 61 47 62 60 64
REMARK SMILES IDX 80 65 49 66 34 67 35 68 43 69 36 70 42 71 37 72 38 73 39 74
REMARK SMILES IDX 40 75 41 76 64 77 65 78 73 79 66 80 72 81 67 82 68 83 69 84
REMARK SMILES IDX 70 85 71 86 50 87 51 88 59 89 52 90 58 91 53 92 54 93 55 94
REMARK SMILES IDX 56 95 57 96
REMARK H PARENT 78 52 48 63
REMARK Flexibility Score: inf
ROOT
ATOM      1  C   UNL A   1      45.919  26.196  29.376  1.00  0.00     0.188 C 
ENDROOT
BRANCH   1   2
ATOM      2  O   UNL A   1      46.094  25.929  30.751  1.00  0.00    -0.376 OA
BRANCH   2   3
ATOM      3  C   UNL A   1      45.411  24.857  31.382  1.00  0.00     0.202 C 
BRANCH   3   4
ATOM      4  C   UNL A   1      45.114  24.789  32.884  1.00  0.00     0.261 C 
BRANCH   4   5
ATOM      5  O   UNL A   1      43.973  24.008  33.252  1.00  0.00    -0.460 OA
BRANCH   5   6
ATOM      6  C   UNL A   1      43.640  24.087  34.560  1.00  0.00     0.338 C 
ATOM      7  O   UNL A   1      42.766  24.782  35.064  1.00  0.00    -0.246 OA
BRANCH   6   8
ATOM      8  C   UNL A   1      44.367  23.065  35.323  1.00  0.00     0.060 A 
ATOM      9  C   UNL A   1      46.006  21.272  36.715  1.00  0.00    -0.011 A 
ATOM     10  C   UNL A   1      45.746  22.547  37.233  1.00  0.00     0.008 A 
ATOM     11  C   UNL A   1      45.310  20.863  35.559  1.00  0.00     0.008 A 
ATOM     12  C   UNL A   1      44.981  23.460  36.513  1.00  0.00     0.016 A 
ATOM     13  C   UNL A   1      44.476  21.750  34.871  1.00  0.00     0.016 A 
BRANCH   9  14
ATOM     14  C   UNL A   1      47.094  20.365  37.274  1.00  0.00     0.265 C 
BRANCH  14  15
ATOM     15  O   UNL A   1      48.449  20.807  37.158  1.00  0.00    -0.488 OA
BRANCH  15  16
ATOM     16  C   UNL A   1      49.251  20.395  36.122  1.00  0.00     0.130 A 
ATOM     17  C   UNL A   1      50.553  19.973  36.462  1.00  0.00     0.064 A 
ATOM     18  C   UNL A   1      51.573  19.837  35.478  1.00  0.00    -0.004 A 
ATOM     19  C   UNL A   1      48.917  20.529  34.776  1.00  0.00     0.048 A 
ATOM     20  C   UNL A   1      51.230  20.109  34.131  1.00  0.00    -0.017 A 
ATOM     21  C   UNL A   1      52.917  19.467  35.745  1.00  0.00     0.009 A 
ATOM     22  C   UNL A   1      49.905  20.414  33.796  1.00  0.00     0.012 A 
ATOM     23  C   UNL A   1      52.215  20.078  33.130  1.00  0.00     0.009 A 
ATOM     24  C   UNL A   1      53.884  19.431  34.736  1.00  0.00     0.001 A 
ATOM     25  C   UNL A   1      53.535  19.751  33.432  1.00  0.00     0.001 A 
BRANCH  17  26
ATOM     26  C   UNL A   1      50.871  19.722  37.889  1.00  0.00     0.264 C 
ATOM     27  O   UNL A   1      50.561  18.686  38.466  1.00  0.00    -0.298 OA
ENDBRANCH  17  26
ENDBRANCH  15  16
ENDBRANCH  14  15
ENDBRANCH   9  14
ENDBRANCH   6   8
ENDBRANCH   5   6
ENDBRANCH   4   5
ENDBRANCH   3   4
ENDBRANCH   2   3
ENDBRANCH   1   2
BRANCH   1  28
ATOM     28  C   UNL A   1      46.044  25.054  28.344  1.00  0.00     0.188 C 
BRANCH  28  29
ATOM     29  O   UNL A   1      45.269  25.045  27.162  1.00  0.00    -0.376 OA
BRANCH  29  30
ATOM     30  C   UNL A   1      44.486  23.912  26.833  1.00  0.00     0.202 C 
BRANCH  30  31
ATOM     31  C   UNL A   1      43.020  24.010  26.394  1.00  0.00     0.261 C 
BRANCH  31  32
ATOM     32  O   UNL A   1      42.045  24.025  27.443  1.00  0.00    -0.460 OA
BRANCH  32  33
ATOM     33  C   UNL A   1      40.906  24.692  27.152  1.00  0.00     0.338 C 
ATOM     34  O   UNL A   1      40.050  24.377  26.332  1.00  0.00    -0.246 OA
BRANCH  33  35
ATOM     35  C   UNL A   1      40.735  25.808  28.092  1.00  0.00     0.060 A 
ATOM     36  C   UNL A   1      41.836  26.634  28.357  1.00  0.00     0.016 A 
ATOM     37  C   UNL A   1      39.521  26.004  28.757  1.00  0.00     0.016 A 
ATOM     38  C   UNL A   1      41.731  27.649  29.306  1.00  0.00     0.010 A 
ATOM     39  C   UNL A   1      39.428  27.011  29.720  1.00  0.00     0.010 A 
ATOM     40  C   UNL A   1      40.538  27.821  30.018  1.00  0.00    -0.014 A 
BRANCH  40  41
ATOM     41  C   UNL A   1      40.497  28.749  31.172  1.00  0.00     0.031 A 
ATOM     42  C   UNL A   1      39.515  29.890  31.155  1.00  0.00     0.074 A 
ATOM     43  C   UNL A   1      41.309  28.574  32.229  1.00  0.00     0.049 A 
ATOM     44  N   UNL A   1      39.324  30.830  32.043  1.00  0.00    -0.248 NA
ATOM     45  C   UNL A   1      38.632  29.979  29.980  1.00  0.00     0.031 C 
ATOM     46  C   UNL A   1      42.274  27.486  32.384  1.00  0.00     0.029 A 
ATOM     47  N   UNL A   1      41.453  29.318  33.374  1.00  0.00    -0.354 N 
ATOM     48  C   UNL A   1      38.303  31.625  31.537  1.00  0.00     0.074 A 
ATOM     49  C   UNL A   1      37.935  31.073  30.250  1.00  0.00     0.031 C 
ATOM     50  C   UNL A   1      42.919  27.640  33.554  1.00  0.00     0.029 A 
ATOM     51  C   UNL A   1      42.436  28.852  34.213  1.00  0.00     0.049 A 
ATOM     52  H   UNL A   1      40.904  30.110  33.573  1.00  0.00     0.167 HD
ATOM     53  C   UNL A   1      37.720  32.714  32.092  1.00  0.00     0.031 A 
ATOM     54  C   UNL A   1      42.908  29.359  35.370  1.00  0.00     0.031 A 
ATOM     55  C   UNL A   1      38.102  33.276  33.361  1.00  0.00     0.049 A 
ATOM     56  C   UNL A   1      42.299  30.620  35.929  1.00  0.00     0.074 A 
ATOM     57  C   UNL A   1      37.560  34.369  34.014  1.00  0.00     0.029 A 
ATOM     58  N   UNL A   1      39.128  32.799  34.161  1.00  0.00    -0.354 N 
ATOM     59  N   UNL A   1      41.309  31.339  35.457  1.00  0.00    -0.248 NA
ATOM     60  C   UNL A   1      42.868  31.131  37.186  1.00  0.00     0.031 C 
ATOM     61  C   UNL A   1      38.295  34.587  35.184  1.00  0.00     0.029 A 
ATOM     62  C   UNL A   1      39.255  33.593  35.290  1.00  0.00     0.049 A 
ATOM     63  H   UNL A   1      39.684  32.013  33.959  1.00  0.00     0.167 HD
ATOM     64  C   UNL A   1      41.119  32.371  36.372  1.00  0.00     0.074 A 
ATOM     65  C   UNL A   1      42.086  32.173  37.432  1.00  0.00     0.031 C 
ATOM     66  C   UNL A   1      40.222  33.386  36.339  1.00  0.00     0.031 A 
BRANCH  53  67
ATOM     67  C   UNL A   1      36.627  33.391  31.309  1.00  0.00    -0.014 A 
ATOM     68  C   UNL A   1      36.847  33.847  29.997  1.00  0.00     0.010 A 
ATOM     69  C   UNL A   1      35.353  33.544  31.884  1.00  0.00     0.010 A 
ATOM     70  C   UNL A   1      35.821  34.477  29.287  1.00  0.00     0.020 A 
ATOM     71  C   UNL A   1      34.317  34.150  31.168  1.00  0.00     0.020 A 
ATOM     72  C   UNL A   1      34.563  34.627  29.879  1.00  0.00     0.054 A 
BRANCH  72  73
ATOM     73  S   UNL A   1      33.243  35.431  28.928  1.00  0.00     0.124 S 
ATOM     74  O   UNL A   1      32.674  34.304  28.193  1.00  0.00    -0.237 OA
ATOM     75  O   UNL A   1      32.392  35.994  29.973  1.00  0.00    -0.237 OA
ATOM     76  O   UNL A   1      33.953  36.412  28.111  1.00  0.00    -0.744 OA
ENDBRANCH  72  73
ENDBRANCH  53  67
BRANCH  54  77
ATOM     77  C   UNL A   1      44.028  28.681  36.075  1.00  0.00    -0.014 A 
ATOM     78  C   UNL A   1      45.355  29.100  35.881  1.00  0.00     0.010 A 
ATOM     79  C   UNL A   1      43.771  27.606  36.946  1.00  0.00     0.010 A 
ATOM     80  C   UNL A   1      46.405  28.449  36.533  1.00  0.00     0.020 A 
ATOM     81  C   UNL A   1      44.815  26.970  37.622  1.00  0.00     0.020 A 
ATOM     82  C   UNL A   1      46.128  27.391  37.404  1.00  0.00     0.054 A 
BRANCH  82  83
ATOM     83  S   UNL A   1      47.505  26.606  38.287  1.00  0.00     0.124 S 
ATOM     84  O   UNL A   1      46.806  25.694  39.186  1.00  0.00    -0.237 OA
ATOM     85  O   UNL A   1      48.252  25.976  37.200  1.00  0.00    -0.237 OA
ATOM     86  O   UNL A   1      48.182  27.728  38.931  1.00  0.00    -0.744 OA
ENDBRANCH  82  83
ENDBRANCH  54  77
BRANCH  66  87
ATOM     87  C   UNL A   1      40.212  34.346  37.500  1.00  0.00    -0.014 A 
ATOM     88  C   UNL A   1      39.416  34.114  38.636  1.00  0.00     0.010 A 
ATOM     89  C   UNL A   1      41.054  35.474  37.474  1.00  0.00     0.010 A 
ATOM     90  C   UNL A   1      39.439  35.007  39.710  1.00  0.00     0.020 A 
ATOM     91  C   UNL A   1      41.102  36.354  38.558  1.00  0.00     0.020 A 
ATOM     92  C   UNL A   1      40.281  36.123  39.664  1.00  0.00     0.054 A 
BRANCH  92  93
ATOM     93  S   UNL A   1      40.323  37.248  41.087  1.00  0.00     0.124 S 
ATOM     94  O   UNL A   1      38.930  37.677  41.176  1.00  0.00    -0.237 OA
ATOM     95  O   UNL A   1      40.785  36.382  42.168  1.00  0.00    -0.237 OA
ATOM     96  O   UNL A   1      41.269  38.285  40.681  1.00  0.00    -0.744 OA
ENDBRANCH  92  93
ENDBRANCH  66  87
ENDBRANCH  40  41
ENDBRANCH  33  35
ENDBRANCH  32  33
ENDBRANCH  31  32
ENDBRANCH  30  31
ENDBRANCH  29  30
ENDBRANCH  28  29
ENDBRANCH   1  28
TORSDOF 24
ENDMDL
