MODEL 1
REMARK VINA RESULT:      -9.7      0.000      0.000
REMARK SMILES CCC[C@H](CNC(=O)N1C[C@H]2CCC[N@H+]2C[C@@H]1C)C(=O)OCCOCCOCCOC(=O)c1ccc(-c2c3nc(c(-c4ccc(S(=O)(=O)[O-])cc4)c4ccc([nH]4)c(-c4ccc(S(=O)(=O)[O-])cc4)c4nc(c(-c5ccc(S(=O)(=O)[O-])cc5)c5ccc2[nH]5)C=C4)C=C3)cc1
REMARK SMILES IDX 25 1 24 2 23 3 22 4 21 5 19 6 20 7 4 8 3 9 2 10 1 11 5 12
REMARK SMILES IDX 6 13 7 14 8 16 9 17 10 18 17 19 11 20 16 21 18 22 12 23
REMARK SMILES IDX 15 24 13 25 14 26 26 28 27 29 28 30 29 31 30 32 31 33 32 34
REMARK SMILES IDX 33 35 34 36 92 37 35 38 91 39 36 40 37 41 38 42 85 43 39 44
REMARK SMILES IDX 90 45 84 46 86 47 40 48 89 49 83 50 82 51 41 53 71 54 52 55
REMARK SMILES IDX 70 56 53 57 56 58 69 59 87 60 54 61 55 62 68 64 88 65 57 66
REMARK SMILES IDX 42 67 43 68 51 69 44 70 50 71 45 72 46 73 47 74 48 75 49 76
REMARK SMILES IDX 72 77 73 78 81 79 74 80 80 81 75 82 76 83 77 84 78 85 79 86
REMARK SMILES IDX 58 87 59 88 67 89 60 90 66 91 61 92 62 93 63 94 64 95 65 96
REMARK H PARENT 6 15 15 27 86 52 56 63
REMARK Flexibility Score: inf
ROOT
ATOM      1  C   UNL A   1      35.751  21.399  25.856  1.00  0.00     0.188 C 
ENDROOT
BRANCH   1   2
ATOM      2  O   UNL A   1      35.124  22.150  26.883  1.00  0.00    -0.376 OA
BRANCH   2   3
ATOM      3  C   UNL A   1      33.760  22.529  26.709  1.00  0.00     0.202 C 
BRANCH   3   4
ATOM      4  C   UNL A   1      33.408  23.667  25.729  1.00  0.00     0.261 C 
BRANCH   4   5
ATOM      5  O   UNL A   1      34.480  24.087  24.850  1.00  0.00    -0.463 OA
BRANCH   5   6
ATOM      6  C   UNL A   1      34.370  23.692  23.557  1.00  0.00     0.310 C 
ATOM      7  O   UNL A   1      35.339  23.365  22.882  1.00  0.00    -0.252 OA
BRANCH   6   8
ATOM      8  C   UNL A   1      32.932  23.534  23.044  1.00  0.00     0.118 C 
BRANCH   8   9
ATOM      9  C   UNL A   1      32.737  22.147  22.397  1.00  0.00     0.017 C 
BRANCH   9  10
ATOM     10  C   UNL A   1      32.027  21.091  23.262  1.00  0.00    -0.002 C 
ATOM     11  C   UNL A   1      32.974  20.108  23.933  1.00  0.00     0.004 C 
ENDBRANCH   9  10
ENDBRANCH   8   9
BRANCH   8  12
ATOM     12  C   UNL A   1      32.349  24.689  22.189  1.00  0.00     0.133 C 
BRANCH  12  13
ATOM     13  N   UNL A   1      33.212  25.817  21.913  1.00  0.00    -0.337 N 
ATOM     14  C   UNL A   1      33.061  27.141  22.153  1.00  0.00     0.318 C 
ATOM     15  H   UNL A   1      34.060  25.581  21.473  1.00  0.00     0.165 HD
ATOM     16  O   UNL A   1      33.811  27.909  21.548  1.00  0.00    -0.249 OA
BRANCH  14  17
ATOM     17  N   UNL A   1      32.038  27.590  22.944  1.00  0.00    -0.311 N 
ATOM     18  C   UNL A   1      30.828  28.020  22.255  1.00  0.00     0.186 C 
ATOM     19  C   UNL A   1      32.141  28.028  24.365  1.00  0.00     0.139 C 
ATOM     20  C   UNL A   1      30.614  29.535  22.359  1.00  0.00     0.204 C 
ATOM     21  C   UNL A   1      31.031  29.080  24.744  1.00  0.00     0.287 C 
ATOM     22  C   UNL A   1      33.526  28.554  24.752  1.00  0.00     0.037 C 
ATOM     23  C   UNL A   1      29.234  29.940  21.843  1.00  0.00     0.073 C 
ATOM     24  N   UNL A   1      30.726  30.100  23.725  1.00  0.00    -0.329 N 
ATOM     25  C   UNL A   1      28.891  31.163  22.664  1.00  0.00     0.068 C 
ATOM     26  C   UNL A   1      29.480  30.824  24.022  1.00  0.00     0.262 C 
ATOM     27  H   UNL A   1      31.518  30.743  23.756  1.00  0.00     0.348 HD
ENDBRANCH  14  17
ENDBRANCH  12  13
ENDBRANCH   8  12
ENDBRANCH   6   8
ENDBRANCH   5   6
ENDBRANCH   4   5
ENDBRANCH   3   4
ENDBRANCH   2   3
ENDBRANCH   1   2
BRANCH   1  28
ATOM     28  C   UNL A   1      37.282  21.333  25.854  1.00  0.00     0.188 C 
BRANCH  28  29
ATOM     29  O   UNL A   1      37.906  22.271  25.005  1.00  0.00    -0.376 OA
BRANCH  29  30
ATOM     30  C   UNL A   1      37.817  23.661  25.292  1.00  0.00     0.202 C 
BRANCH  30  31
ATOM     31  C   UNL A   1      38.355  24.219  26.629  1.00  0.00     0.261 C 
BRANCH  31  32
ATOM     32  O   UNL A   1      39.782  24.293  26.795  1.00  0.00    -0.460 OA
BRANCH  32  33
ATOM     33  C   UNL A   1      40.396  25.444  26.424  1.00  0.00     0.338 C 
ATOM     34  O   UNL A   1      40.779  25.730  25.300  1.00  0.00    -0.246 OA
BRANCH  33  35
ATOM     35  C   UNL A   1      40.231  26.419  27.537  1.00  0.00     0.060 A 
ATOM     36  C   UNL A   1      40.755  27.713  27.374  1.00  0.00     0.016 A 
ATOM     37  C   UNL A   1      39.495  26.105  28.681  1.00  0.00     0.016 A 
ATOM     38  C   UNL A   1      40.576  28.680  28.368  1.00  0.00     0.010 A 
ATOM     39  C   UNL A   1      39.340  27.067  29.687  1.00  0.00     0.010 A 
ATOM     40  C   UNL A   1      39.906  28.348  29.553  1.00  0.00    -0.014 A 
BRANCH  40  41
ATOM     41  C   UNL A   1      39.987  29.247  30.734  1.00  0.00     0.031 A 
ATOM     42  C   UNL A   1      41.069  28.981  31.747  1.00  0.00     0.074 A 
ATOM     43  C   UNL A   1      39.137  30.275  30.916  1.00  0.00     0.049 A 
ATOM     44  N   UNL A   1      41.298  29.568  32.893  1.00  0.00    -0.248 NA
ATOM     45  C   UNL A   1      42.018  27.902  31.422  1.00  0.00     0.031 C 
ATOM     46  C   UNL A   1      38.079  30.679  29.992  1.00  0.00     0.029 A 
ATOM     47  N   UNL A   1      39.027  31.163  31.960  1.00  0.00    -0.354 N 
ATOM     48  C   UNL A   1      42.402  28.917  33.434  1.00  0.00     0.074 A 
ATOM     49  C   UNL A   1      42.783  27.878  32.503  1.00  0.00     0.031 C 
ATOM     50  C   UNL A   1      37.416  31.725  30.520  1.00  0.00     0.029 A 
ATOM     51  C   UNL A   1      37.975  32.041  31.834  1.00  0.00     0.049 A 
ATOM     52  H   UNL A   1      39.644  31.169  32.728  1.00  0.00     0.167 HD
ATOM     53  C   UNL A   1      43.043  29.160  34.602  1.00  0.00     0.031 A 
ATOM     54  C   UNL A   1      37.499  32.968  32.692  1.00  0.00     0.031 A 
ATOM     55  C   UNL A   1      42.658  30.183  35.536  1.00  0.00     0.049 A 
ATOM     56  C   UNL A   1      38.181  33.167  34.025  1.00  0.00     0.074 A 
ATOM     57  C   UNL A   1      43.258  30.517  36.737  1.00  0.00     0.029 A 
ATOM     58  N   UNL A   1      41.570  31.028  35.384  1.00  0.00    -0.354 N 
ATOM     59  N   UNL A   1      39.239  32.563  34.511  1.00  0.00    -0.248 NA
ATOM     60  C   UNL A   1      37.606  34.182  34.922  1.00  0.00     0.031 C 
ATOM     61  C   UNL A   1      42.493  31.517  37.344  1.00  0.00     0.029 A 
ATOM     62  C   UNL A   1      41.461  31.860  36.484  1.00  0.00     0.049 A 
ATOM     63  H   UNL A   1      40.964  31.034  34.608  1.00  0.00     0.167 HD
ATOM     64  C   UNL A   1      39.474  33.146  35.755  1.00  0.00     0.074 A 
ATOM     65  C   UNL A   1      38.457  34.160  35.939  1.00  0.00     0.031 C 
ATOM     66  C   UNL A   1      40.447  32.869  36.659  1.00  0.00     0.031 A 
BRANCH  53  67
ATOM     67  C   UNL A   1      44.206  28.269  34.956  1.00  0.00    -0.014 A 
ATOM     68  C   UNL A   1      45.488  28.487  34.419  1.00  0.00     0.010 A 
ATOM     69  C   UNL A   1      44.018  27.221  35.874  1.00  0.00     0.010 A 
ATOM     70  C   UNL A   1      46.551  27.650  34.767  1.00  0.00     0.020 A 
ATOM     71  C   UNL A   1      45.085  26.401  36.250  1.00  0.00     0.020 A 
ATOM     72  C   UNL A   1      46.342  26.612  35.682  1.00  0.00     0.054 A 
BRANCH  72  73
ATOM     73  S   UNL A   1      47.748  25.561  36.137  1.00  0.00     0.124 S 
ATOM     74  O   UNL A   1      48.149  25.017  34.842  1.00  0.00    -0.237 OA
ATOM     75  O   UNL A   1      48.679  26.515  36.733  1.00  0.00    -0.237 OA
ATOM     76  O   UNL A   1      47.170  24.592  37.067  1.00  0.00    -0.744 OA
ENDBRANCH  72  73
ENDBRANCH  53  67
BRANCH  54  77
ATOM     77  C   UNL A   1      36.290  33.765  32.337  1.00  0.00    -0.014 A 
ATOM     78  C   UNL A   1      35.372  33.299  31.379  1.00  0.00     0.010 A 
ATOM     79  C   UNL A   1      36.059  35.012  32.948  1.00  0.00     0.010 A 
ATOM     80  C   UNL A   1      34.259  34.070  31.027  1.00  0.00     0.020 A 
ATOM     81  C   UNL A   1      34.931  35.771  32.624  1.00  0.00     0.020 A 
ATOM     82  C   UNL A   1      34.043  35.299  31.656  1.00  0.00     0.054 A 
BRANCH  82  83
ATOM     83  S   UNL A   1      32.565  36.257  31.220  1.00  0.00     0.124 S 
ATOM     84  O   UNL A   1      32.411  35.952  29.801  1.00  0.00    -0.237 OA
ATOM     85  O   UNL A   1      31.551  35.687  32.103  1.00  0.00    -0.237 OA
ATOM     86  O   UNL A   1      32.945  37.634  31.527  1.00  0.00    -0.744 OA
ENDBRANCH  82  83
ENDBRANCH  54  77
BRANCH  66  87
ATOM     87  C   UNL A   1      40.498  33.702  37.916  1.00  0.00    -0.014 A 
ATOM     88  C   UNL A   1      41.227  34.903  37.977  1.00  0.00     0.010 A 
ATOM     89  C   UNL A   1      39.744  33.304  39.038  1.00  0.00     0.010 A 
ATOM     90  C   UNL A   1      41.228  35.671  39.145  1.00  0.00     0.020 A 
ATOM     91  C   UNL A   1      39.717  34.086  40.195  1.00  0.00     0.020 A 
ATOM     92  C   UNL A   1      40.471  35.259  40.246  1.00  0.00     0.054 A 
BRANCH  92  93
ATOM     93  S   UNL A   1      40.455  36.297  41.734  1.00  0.00     0.124 S 
ATOM     94  O   UNL A   1      41.173  37.486  41.284  1.00  0.00    -0.237 OA
ATOM     95  O   UNL A   1      39.026  36.480  41.981  1.00  0.00    -0.237 OA
ATOM     96  O   UNL A   1      41.155  35.488  42.730  1.00  0.00    -0.744 OA
ENDBRANCH  92  93
ENDBRANCH  66  87
ENDBRANCH  40  41
ENDBRANCH  33  35
ENDBRANCH  32  33
ENDBRANCH  31  32
ENDBRANCH  30  31
ENDBRANCH  29  30
ENDBRANCH  28  29
ENDBRANCH   1  28
TORSDOF 25
ENDMDL
MODEL 2
REMARK VINA RESULT:      -9.7      6.501      8.343
REMARK SMILES CCC[C@H](CNC(=O)N1C[C@H]2CCC[N@H+]2C[C@@H]1C)C(=O)OCCOCCOCCOC(=O)c1ccc(-c2c3nc(c(-c4ccc(S(=O)(=O)[O-])cc4)c4ccc([nH]4)c(-c4ccc(S(=O)(=O)[O-])cc4)c4nc(c(-c5ccc(S(=O)(=O)[O-])cc5)c5ccc2[nH]5)C=C4)C=C3)cc1
REMARK SMILES IDX 25 1 24 2 23 3 22 4 21 5 19 6 20 7 4 8 3 9 2 10 1 11 5 12
REMARK SMILES IDX 6 13 7 14 8 16 9 17 10 18 17 19 11 20 16 21 18 22 12 23
REMARK SMILES IDX 15 24 13 25 14 26 26 28 27 29 28 30 29 31 30 32 31 33 32 34
REMARK SMILES IDX 33 35 34 36 92 37 35 38 91 39 36 40 37 41 38 42 85 43 39 44
REMARK SMILES IDX 90 45 84 46 86 47 40 48 89 49 83 50 82 51 41 53 71 54 52 55
REMARK SMILES IDX 70 56 53 57 56 58 69 59 87 60 54 61 55 62 68 64 88 65 57 66
REMARK SMILES IDX 42 67 43 68 51 69 44 70 50 71 45 72 46 73 47 74 48 75 49 76
REMARK SMILES IDX 72 77 73 78 81 79 74 80 80 81 75 82 76 83 77 84 78 85 79 86
REMARK SMILES IDX 58 87 59 88 67 89 60 90 66 91 61 92 62 93 63 94 64 95 65 96
REMARK H PARENT 6 15 15 27 86 52 56 63
REMARK Flexibility Score: inf
ROOT
ATOM      1  C   UNL A   1      36.745  20.523  24.887  1.00  0.00     0.188 C 
ENDROOT
BRANCH   1   2
ATOM      2  O   UNL A   1      35.438  20.524  25.438  1.00  0.00    -0.376 OA
BRANCH   2   3
ATOM      3  C   UNL A   1      34.409  19.819  24.746  1.00  0.00     0.202 C 
BRANCH   3   4
ATOM      4  C   UNL A   1      33.017  19.679  25.393  1.00  0.00     0.261 C 
BRANCH   4   5
ATOM      5  O   UNL A   1      32.178  20.858  25.328  1.00  0.00    -0.463 OA
BRANCH   5   6
ATOM      6  C   UNL A   1      32.235  21.557  24.166  1.00  0.00     0.310 C 
ATOM      7  O   UNL A   1      32.031  21.040  23.075  1.00  0.00    -0.252 OA
BRANCH   6   8
ATOM      8  C   UNL A   1      32.422  23.072  24.326  1.00  0.00     0.118 C 
BRANCH   8   9
ATOM      9  C   UNL A   1      32.783  23.423  25.785  1.00  0.00     0.017 C 
BRANCH   9  10
ATOM     10  C   UNL A   1      33.113  24.900  26.063  1.00  0.00    -0.002 C 
ATOM     11  C   UNL A   1      34.397  25.377  25.404  1.00  0.00     0.004 C 
ENDBRANCH   9  10
ENDBRANCH   8   9
BRANCH   8  12
ATOM     12  C   UNL A   1      31.322  23.992  23.736  1.00  0.00     0.133 C 
BRANCH  12  13
ATOM     13  N   UNL A   1      31.627  24.694  22.507  1.00  0.00    -0.337 N 
ATOM     14  C   UNL A   1      31.445  25.985  22.144  1.00  0.00     0.318 C 
ATOM     15  H   UNL A   1      32.041  24.134  21.812  1.00  0.00     0.165 HD
ATOM     16  O   UNL A   1      31.517  26.244  20.941  1.00  0.00    -0.249 OA
BRANCH  14  17
ATOM     17  N   UNL A   1      31.081  26.923  23.073  1.00  0.00    -0.311 N 
ATOM     18  C   UNL A   1      29.674  27.304  23.090  1.00  0.00     0.186 C 
ATOM     19  C   UNL A   1      31.992  27.848  23.805  1.00  0.00     0.139 C 
ATOM     20  C   UNL A   1      29.462  28.746  22.609  1.00  0.00     0.204 C 
ATOM     21  C   UNL A   1      31.268  29.182  24.229  1.00  0.00     0.287 C 
ATOM     22  C   UNL A   1      33.288  28.163  23.054  1.00  0.00     0.037 C 
ATOM     23  C   UNL A   1      28.028  29.210  22.854  1.00  0.00     0.073 C 
ATOM     24  N   UNL A   1      30.340  29.761  23.242  1.00  0.00    -0.329 N 
ATOM     25  C   UNL A   1      28.168  30.701  23.074  1.00  0.00     0.068 C 
ATOM     26  C   UNL A   1      29.480  30.799  23.832  1.00  0.00     0.262 C 
ATOM     27  H   UNL A   1      30.942  30.171  22.528  1.00  0.00     0.348 HD
ENDBRANCH  14  17
ENDBRANCH  12  13
ENDBRANCH   8  12
ENDBRANCH   6   8
ENDBRANCH   5   6
ENDBRANCH   4   5
ENDBRANCH   3   4
ENDBRANCH   2   3
ENDBRANCH   1   2
BRANCH   1  28
ATOM     28  C   UNL A   1      37.573  21.806  25.009  1.00  0.00     0.188 C 
BRANCH  28  29
ATOM     29  O   UNL A   1      38.507  21.799  26.065  1.00  0.00    -0.376 OA
BRANCH  29  30
ATOM     30  C   UNL A   1      39.435  20.729  26.188  1.00  0.00     0.202 C 
BRANCH  30  31
ATOM     31  C   UNL A   1      40.954  20.996  26.087  1.00  0.00     0.261 C 
BRANCH  31  32
ATOM     32  O   UNL A   1      41.836  19.859  26.122  1.00  0.00    -0.460 OA
BRANCH  32  33
ATOM     33  C   UNL A   1      43.034  19.978  25.498  1.00  0.00     0.338 C 
ATOM     34  O   UNL A   1      43.507  19.199  24.684  1.00  0.00    -0.246 OA
BRANCH  33  35
ATOM     35  C   UNL A   1      43.522  21.366  25.724  1.00  0.00     0.060 A 
ATOM     36  C   UNL A   1      43.991  21.709  27.004  1.00  0.00     0.016 A 
ATOM     37  C   UNL A   1      43.608  22.290  24.681  1.00  0.00     0.016 A 
ATOM     38  C   UNL A   1      44.511  22.983  27.251  1.00  0.00     0.010 A 
ATOM     39  C   UNL A   1      44.104  23.576  24.937  1.00  0.00     0.010 A 
ATOM     40  C   UNL A   1      44.527  23.940  26.228  1.00  0.00    -0.014 A 
BRANCH  40  41
ATOM     41  C   UNL A   1      44.770  25.371  26.548  1.00  0.00     0.031 A 
ATOM     42  C   UNL A   1      46.161  25.911  26.347  1.00  0.00     0.074 A 
ATOM     43  C   UNL A   1      43.796  26.184  27.002  1.00  0.00     0.049 A 
ATOM     44  N   UNL A   1      46.644  27.094  26.626  1.00  0.00    -0.248 NA
ATOM     45  C   UNL A   1      47.142  24.985  25.753  1.00  0.00     0.031 C 
ATOM     46  C   UNL A   1      42.396  25.810  27.193  1.00  0.00     0.029 A 
ATOM     47  N   UNL A   1      43.849  27.499  27.398  1.00  0.00    -0.354 N 
ATOM     48  C   UNL A   1      47.985  27.047  26.261  1.00  0.00     0.074 A 
ATOM     49  C   UNL A   1      48.246  25.716  25.763  1.00  0.00     0.031 C 
ATOM     50  C   UNL A   1      41.726  26.868  27.686  1.00  0.00     0.029 A 
ATOM     51  C   UNL A   1      42.655  27.981  27.884  1.00  0.00     0.049 A 
ATOM     52  H   UNL A   1      44.666  28.046  27.341  1.00  0.00     0.167 HD
ATOM     53  C   UNL A   1      48.920  28.025  26.335  1.00  0.00     0.031 A 
ATOM     54  C   UNL A   1      42.354  29.168  28.450  1.00  0.00     0.031 A 
ATOM     55  C   UNL A   1      48.667  29.346  26.844  1.00  0.00     0.049 A 
ATOM     56  C   UNL A   1      43.432  30.217  28.597  1.00  0.00     0.074 A 
ATOM     57  C   UNL A   1      49.546  30.410  26.941  1.00  0.00     0.029 A 
ATOM     58  N   UNL A   1      47.453  29.781  27.354  1.00  0.00    -0.354 N 
ATOM     59  N   UNL A   1      44.689  30.168  28.223  1.00  0.00    -0.248 NA
ATOM     60  C   UNL A   1      43.046  31.485  29.236  1.00  0.00     0.031 C 
ATOM     61  C   UNL A   1      48.884  31.467  27.573  1.00  0.00     0.029 A 
ATOM     62  C   UNL A   1      47.569  31.087  27.797  1.00  0.00     0.049 A 
ATOM     63  H   UNL A   1      46.631  29.241  27.394  1.00  0.00     0.167 HD
ATOM     64  C   UNL A   1      45.233  31.408  28.554  1.00  0.00     0.074 A 
ATOM     65  C   UNL A   1      44.165  32.189  29.142  1.00  0.00     0.031 C 
ATOM     66  C   UNL A   1      46.501  31.860  28.380  1.00  0.00     0.031 A 
BRANCH  53  67
ATOM     67  C   UNL A   1      50.320  27.685  25.893  1.00  0.00    -0.014 A 
ATOM     68  C   UNL A   1      51.278  27.198  26.801  1.00  0.00     0.010 A 
ATOM     69  C   UNL A   1      50.666  27.819  24.537  1.00  0.00     0.010 A 
ATOM     70  C   UNL A   1      52.568  26.886  26.365  1.00  0.00     0.020 A 
ATOM     71  C   UNL A   1      51.946  27.478  24.091  1.00  0.00     0.020 A 
ATOM     72  C   UNL A   1      52.894  27.027  25.011  1.00  0.00     0.054 A 
BRANCH  72  73
ATOM     73  S   UNL A   1      54.567  26.585  24.470  1.00  0.00     0.124 S 
ATOM     74  O   UNL A   1      55.389  27.507  25.250  1.00  0.00    -0.237 OA
ATOM     75  O   UNL A   1      54.665  25.180  24.854  1.00  0.00    -0.237 OA
ATOM     76  O   UNL A   1      54.544  26.837  23.031  1.00  0.00    -0.744 OA
ENDBRANCH  72  73
ENDBRANCH  53  67
BRANCH  54  77
ATOM     77  C   UNL A   1      40.976  29.429  28.956  1.00  0.00    -0.014 A 
ATOM     78  C   UNL A   1      39.919  29.697  28.068  1.00  0.00     0.010 A 
ATOM     79  C   UNL A   1      40.717  29.429  30.339  1.00  0.00     0.010 A 
ATOM     80  C   UNL A   1      38.636  29.976  28.552  1.00  0.00     0.020 A 
ATOM     81  C   UNL A   1      39.430  29.675  30.827  1.00  0.00     0.020 A 
ATOM     82  C   UNL A   1      38.399  29.958  29.929  1.00  0.00     0.054 A 
BRANCH  82  83
ATOM     83  S   UNL A   1      36.716  30.271  30.531  1.00  0.00     0.124 S 
ATOM     84  O   UNL A   1      35.905  29.892  29.379  1.00  0.00    -0.237 OA
ATOM     85  O   UNL A   1      36.627  29.383  31.688  1.00  0.00    -0.237 OA
ATOM     86  O   UNL A   1      36.725  31.697  30.849  1.00  0.00    -0.744 OA
ENDBRANCH  82  83
ENDBRANCH  54  77
BRANCH  66  87
ATOM     87  C   UNL A   1      46.805  33.281  28.785  1.00  0.00    -0.014 A 
ATOM     88  C   UNL A   1      47.356  33.588  30.042  1.00  0.00     0.010 A 
ATOM     89  C   UNL A   1      46.594  34.322  27.860  1.00  0.00     0.010 A 
ATOM     90  C   UNL A   1      47.659  34.911  30.377  1.00  0.00     0.020 A 
ATOM     91  C   UNL A   1      46.926  35.640  28.180  1.00  0.00     0.020 A 
ATOM     92  C   UNL A   1      47.444  35.928  29.443  1.00  0.00     0.054 A 
BRANCH  92  93
ATOM     93  S   UNL A   1      47.887  37.631  29.888  1.00  0.00     0.124 S 
ATOM     94  O   UNL A   1      46.646  38.350  29.615  1.00  0.00    -0.237 OA
ATOM     95  O   UNL A   1      48.247  37.509  31.299  1.00  0.00    -0.237 OA
ATOM     96  O   UNL A   1      48.998  37.947  28.992  1.00  0.00    -0.744 OA
ENDBRANCH  92  93
ENDBRANCH  66  87
ENDBRANCH  40  41
ENDBRANCH  33  35
ENDBRANCH  32  33
ENDBRANCH  31  32
ENDBRANCH  30  31
ENDBRANCH  29  30
ENDBRANCH  28  29
ENDBRANCH   1  28
TORSDOF 25
ENDMDL
MODEL 3
REMARK VINA RESULT:      -9.7      6.299      8.169
REMARK SMILES CCC[C@H](CNC(=O)N1C[C@H]2CCC[N@H+]2C[C@@H]1C)C(=O)OCCOCCOCCOC(=O)c1ccc(-c2c3nc(c(-c4ccc(S(=O)(=O)[O-])cc4)c4ccc([nH]4)c(-c4ccc(S(=O)(=O)[O-])cc4)c4nc(c(-c5ccc(S(=O)(=O)[O-])cc5)c5ccc2[nH]5)C=C4)C=C3)cc1
REMARK SMILES IDX 25 1 24 2 23 3 22 4 21 5 19 6 20 7 4 8 3 9 2 10 1 11 5 12
REMARK SMILES IDX 6 13 7 14 8 16 9 17 10 18 17 19 11 20 16 21 18 22 12 23
REMARK SMILES IDX 15 24 13 25 14 26 26 28 27 29 28 30 29 31 30 32 31 33 32 34
REMARK SMILES IDX 33 35 34 36 92 37 35 38 91 39 36 40 37 41 38 42 85 43 39 44
REMARK SMILES IDX 90 45 84 46 86 47 40 48 89 49 83 50 82 51 41 53 71 54 52 55
REMARK SMILES IDX 70 56 53 57 56 58 69 59 87 60 54 61 55 62 68 64 88 65 57 66
REMARK SMILES IDX 42 67 43 68 51 69 44 70 50 71 45 72 46 73 47 74 48 75 49 76
REMARK SMILES IDX 72 77 73 78 81 79 74 80 80 81 75 82 76 83 77 84 78 85 79 86
REMARK SMILES IDX 58 87 59 88 67 89 60 90 66 91 61 92 62 93 63 94 64 95 65 96
REMARK H PARENT 6 15 15 27 86 52 56 63
REMARK Flexibility Score: inf
ROOT
ATOM      1  C   UNL A   1      36.629  19.264  24.881  1.00  0.00     0.188 C 
ENDROOT
BRANCH   1   2
ATOM      2  O   UNL A   1      35.292  19.693  24.679  1.00  0.00    -0.376 OA
BRANCH   2   3
ATOM      3  C   UNL A   1      34.264  18.705  24.628  1.00  0.00     0.202 C 
BRANCH   3   4
ATOM      4  C   UNL A   1      32.993  18.975  23.798  1.00  0.00     0.261 C 
BRANCH   4   5
ATOM      5  O   UNL A   1      32.348  20.249  24.043  1.00  0.00    -0.463 OA
BRANCH   5   6
ATOM      6  C   UNL A   1      32.287  21.091  22.981  1.00  0.00     0.310 C 
ATOM      7  O   UNL A   1      31.790  20.766  21.909  1.00  0.00    -0.252 OA
BRANCH   6   8
ATOM      8  C   UNL A   1      32.743  22.530  23.262  1.00  0.00     0.118 C 
BRANCH   8   9
ATOM      9  C   UNL A   1      34.067  22.532  24.055  1.00  0.00     0.017 C 
BRANCH   9  10
ATOM     10  C   UNL A   1      35.181  23.441  23.507  1.00  0.00    -0.002 C 
ATOM     11  C   UNL A   1      36.306  23.699  24.497  1.00  0.00     0.004 C 
ENDBRANCH   9  10
ENDBRANCH   8   9
BRANCH   8  12
ATOM     12  C   UNL A   1      31.691  23.512  23.836  1.00  0.00     0.133 C 
BRANCH  12  13
ATOM     13  N   UNL A   1      31.098  23.184  25.115  1.00  0.00    -0.337 N 
ATOM     14  C   UNL A   1      30.790  23.955  26.184  1.00  0.00     0.318 C 
ATOM     15  H   UNL A   1      30.879  22.231  25.228  1.00  0.00     0.165 HD
ATOM     16  O   UNL A   1      30.573  23.374  27.250  1.00  0.00    -0.249 OA
BRANCH  14  17
ATOM     17  N   UNL A   1      30.837  25.320  26.092  1.00  0.00    -0.311 N 
ATOM     18  C   UNL A   1      29.746  25.958  25.366  1.00  0.00     0.186 C 
ATOM     19  C   UNL A   1      32.028  26.185  26.323  1.00  0.00     0.139 C 
ATOM     20  C   UNL A   1      30.218  26.572  24.042  1.00  0.00     0.204 C 
ATOM     21  C   UNL A   1      31.952  27.531  25.507  1.00  0.00     0.287 C 
ATOM     22  C   UNL A   1      33.363  25.482  26.064  1.00  0.00     0.037 C 
ATOM     23  C   UNL A   1      29.129  27.435  23.408  1.00  0.00     0.073 C 
ATOM     24  N   UNL A   1      31.424  27.430  24.134  1.00  0.00    -0.329 N 
ATOM     25  C   UNL A   1      29.905  28.494  22.656  1.00  0.00     0.068 C 
ATOM     26  C   UNL A   1      31.088  28.749  23.573  1.00  0.00     0.262 C 
ATOM     27  H   UNL A   1      32.179  27.004  23.596  1.00  0.00     0.348 HD
ENDBRANCH  14  17
ENDBRANCH  12  13
ENDBRANCH   8  12
ENDBRANCH   6   8
ENDBRANCH   5   6
ENDBRANCH   4   5
ENDBRANCH   3   4
ENDBRANCH   2   3
ENDBRANCH   1   2
BRANCH   1  28
ATOM     28  C   UNL A   1      37.749  20.280  24.632  1.00  0.00     0.188 C 
BRANCH  28  29
ATOM     29  O   UNL A   1      38.633  20.451  25.717  1.00  0.00    -0.376 OA
BRANCH  29  30
ATOM     30  C   UNL A   1      39.858  19.730  25.759  1.00  0.00     0.202 C 
BRANCH  30  31
ATOM     31  C   UNL A   1      40.903  20.026  26.859  1.00  0.00     0.261 C 
BRANCH  31  32
ATOM     32  O   UNL A   1      42.220  19.472  26.695  1.00  0.00    -0.460 OA
BRANCH  32  33
ATOM     33  C   UNL A   1      43.035  20.055  25.781  1.00  0.00     0.338 C 
ATOM     34  O   UNL A   1      43.350  19.595  24.694  1.00  0.00    -0.246 OA
BRANCH  33  35
ATOM     35  C   UNL A   1      43.215  21.477  26.183  1.00  0.00     0.060 A 
ATOM     36  C   UNL A   1      43.025  22.475  25.213  1.00  0.00     0.016 A 
ATOM     37  C   UNL A   1      43.471  21.835  27.509  1.00  0.00     0.016 A 
ATOM     38  C   UNL A   1      43.127  23.826  25.556  1.00  0.00     0.010 A 
ATOM     39  C   UNL A   1      43.601  23.189  27.845  1.00  0.00     0.010 A 
ATOM     40  C   UNL A   1      43.463  24.190  26.867  1.00  0.00    -0.014 A 
BRANCH  40  41
ATOM     41  C   UNL A   1      43.888  25.582  27.170  1.00  0.00     0.031 A 
ATOM     42  C   UNL A   1      45.299  25.978  26.823  1.00  0.00     0.074 A 
ATOM     43  C   UNL A   1      43.059  26.482  27.732  1.00  0.00     0.049 A 
ATOM     44  N   UNL A   1      45.930  27.099  27.057  1.00  0.00    -0.248 NA
ATOM     45  C   UNL A   1      46.107  24.967  26.119  1.00  0.00     0.031 C 
ATOM     46  C   UNL A   1      41.656  26.252  28.071  1.00  0.00     0.029 A 
ATOM     47  N   UNL A   1      43.292  27.777  28.131  1.00  0.00    -0.354 N 
ATOM     48  C   UNL A   1      47.213  26.920  26.549  1.00  0.00     0.074 A 
ATOM     49  C   UNL A   1      47.277  25.579  26.015  1.00  0.00     0.031 C 
ATOM     50  C   UNL A   1      41.158  27.365  28.642  1.00  0.00     0.029 A 
ATOM     51  C   UNL A   1      42.214  28.371  28.747  1.00  0.00     0.049 A 
ATOM     52  H   UNL A   1      44.152  28.237  27.990  1.00  0.00     0.167 HD
ATOM     53  C   UNL A   1      48.247  27.793  26.529  1.00  0.00     0.031 A 
ATOM     54  C   UNL A   1      42.103  29.572  29.351  1.00  0.00     0.031 A 
ATOM     55  C   UNL A   1      48.191  29.124  27.073  1.00  0.00     0.049 A 
ATOM     56  C   UNL A   1      43.294  30.500  29.389  1.00  0.00     0.074 A 
ATOM     57  C   UNL A   1      49.182  30.089  27.083  1.00  0.00     0.029 A 
ATOM     58  N   UNL A   1      47.092  29.673  27.714  1.00  0.00    -0.354 N 
ATOM     59  N   UNL A   1      44.492  30.329  28.881  1.00  0.00    -0.248 NA
ATOM     60  C   UNL A   1      43.114  31.789  30.075  1.00  0.00     0.031 C 
ATOM     61  C   UNL A   1      48.707  31.197  27.790  1.00  0.00     0.029 A 
ATOM     62  C   UNL A   1      47.391  30.951  28.152  1.00  0.00     0.049 A 
ATOM     63  H   UNL A   1      46.226  29.220  27.839  1.00  0.00     0.167 HD
ATOM     64  C   UNL A   1      45.196  31.499  29.160  1.00  0.00     0.074 A 
ATOM     65  C   UNL A   1      44.285  32.375  29.867  1.00  0.00     0.031 C 
ATOM     66  C   UNL A   1      46.478  31.819  28.853  1.00  0.00     0.031 A 
BRANCH  53  67
ATOM     67  C   UNL A   1      49.549  27.318  25.936  1.00  0.00    -0.014 A 
ATOM     68  C   UNL A   1      50.485  26.599  26.701  1.00  0.00     0.010 A 
ATOM     69  C   UNL A   1      49.817  27.563  24.578  1.00  0.00     0.010 A 
ATOM     70  C   UNL A   1      51.682  26.166  26.126  1.00  0.00     0.020 A 
ATOM     71  C   UNL A   1      50.999  27.104  23.990  1.00  0.00     0.020 A 
ATOM     72  C   UNL A   1      51.931  26.421  24.773  1.00  0.00     0.054 A 
BRANCH  72  73
ATOM     73  S   UNL A   1      53.480  25.819  24.047  1.00  0.00     0.124 S 
ATOM     74  O   UNL A   1      53.559  24.464  24.586  1.00  0.00    -0.237 OA
ATOM     75  O   UNL A   1      53.217  25.911  22.614  1.00  0.00    -0.237 OA
ATOM     76  O   UNL A   1      54.486  26.750  24.555  1.00  0.00    -0.744 OA
ENDBRANCH  72  73
ENDBRANCH  53  67
BRANCH  54  77
ATOM     77  C   UNL A   1      40.821  29.966  30.005  1.00  0.00    -0.014 A 
ATOM     78  C   UNL A   1      40.661  29.866  31.398  1.00  0.00     0.010 A 
ATOM     79  C   UNL A   1      39.742  30.428  29.229  1.00  0.00     0.010 A 
ATOM     80  C   UNL A   1      39.443  30.203  32.000  1.00  0.00     0.020 A 
ATOM     81  C   UNL A   1      38.535  30.797  29.828  1.00  0.00     0.020 A 
ATOM     82  C   UNL A   1      38.389  30.672  31.210  1.00  0.00     0.054 A 
BRANCH  82  83
ATOM     83  S   UNL A   1      36.837  31.153  32.019  1.00  0.00     0.124 S 
ATOM     84  O   UNL A   1      37.253  31.305  33.409  1.00  0.00    -0.237 OA
ATOM     85  O   UNL A   1      36.492  32.389  31.322  1.00  0.00    -0.237 OA
ATOM     86  O   UNL A   1      35.947  30.026  31.751  1.00  0.00    -0.744 OA
ENDBRANCH  82  83
ENDBRANCH  54  77
BRANCH  66  87
ATOM     87  C   UNL A   1      46.972  33.193  29.235  1.00  0.00    -0.014 A 
ATOM     88  C   UNL A   1      47.635  33.427  30.452  1.00  0.00     0.010 A 
ATOM     89  C   UNL A   1      46.826  34.256  28.321  1.00  0.00     0.010 A 
ATOM     90  C   UNL A   1      48.111  34.704  30.763  1.00  0.00     0.020 A 
ATOM     91  C   UNL A   1      47.330  35.525  28.616  1.00  0.00     0.020 A 
ATOM     92  C   UNL A   1      47.958  35.745  29.842  1.00  0.00     0.054 A 
BRANCH  92  93
ATOM     93  S   UNL A   1      48.624  37.381  30.253  1.00  0.00     0.124 S 
ATOM     94  O   UNL A   1      49.727  37.046  31.149  1.00  0.00    -0.237 OA
ATOM     95  O   UNL A   1      49.012  37.905  28.945  1.00  0.00    -0.237 OA
ATOM     96  O   UNL A   1      47.498  38.068  30.883  1.00  0.00    -0.744 OA
ENDBRANCH  92  93
ENDBRANCH  66  87
ENDBRANCH  40  41
ENDBRANCH  33  35
ENDBRANCH  32  33
ENDBRANCH  31  32
ENDBRANCH  30  31
ENDBRANCH  29  30
ENDBRANCH  28  29
ENDBRANCH   1  28
TORSDOF 25
ENDMDL
