MODEL 1
REMARK VINA RESULT:     -10.9      0.000      0.000
REMARK SMILES CCCc1cc(S(F)(F)(F)(F)F)cc2c1O[C@@H](C(F)(F)F)C(C(=O)OCCOCCOCCOC(=O)c1ccc(-c3c4nc(c(-c5ccc(S(=O)(=O)[O-])cc5)c5ccc([nH]5)c(-c5ccc(S(=O)(=O)[O-])cc5)c5nc(c(-c6ccc(S(=O)(=O)[O-])cc6)c6ccc3[nH]6)C=C5)C=C4)cc1)=C2
REMARK SMILES IDX 30 1 29 2 28 3 27 4 26 5 25 6 23 7 24 8 22 9 4 10 5 11 15 12
REMARK SMILES IDX 6 13 14 14 16 15 13 16 97 17 17 18 3 19 2 20 1 21 7 22 8 23
REMARK SMILES IDX 9 24 10 25 11 26 12 27 18 28 19 29 20 30 21 31 31 32 32 33
REMARK SMILES IDX 33 34 34 35 35 36 36 37 37 38 38 39 96 40 39 41 95 42 40 43
REMARK SMILES IDX 41 44 42 45 89 46 43 47 94 48 88 49 90 50 44 51 93 52 87 53
REMARK SMILES IDX 86 54 45 56 75 57 56 58 74 59 57 60 60 61 73 62 91 63 58 64
REMARK SMILES IDX 59 65 72 67 92 68 61 69 46 70 47 71 55 72 48 73 54 74 49 75
REMARK SMILES IDX 50 76 51 77 52 78 53 79 76 80 77 81 85 82 78 83 84 84 79 85
REMARK SMILES IDX 80 86 81 87 82 88 83 89 62 90 63 91 71 92 64 93 70 94 65 95
REMARK SMILES IDX 66 96 67 97 68 98 69 99
REMARK H PARENT 90 55 60 66
REMARK Flexibility Score: inf
ROOT
ATOM      1  C   UNL A   1      31.888  29.265  24.175  1.00  0.00     0.188 C 
ENDROOT
BRANCH   1   2
ATOM      2  C   UNL A   1      31.034  28.596  23.111  1.00  0.00     0.188 C 
BRANCH   2   3
ATOM      3  O   UNL A   1      29.666  28.674  23.484  1.00  0.00    -0.376 OA
BRANCH   3   4
ATOM      4  C   UNL A   1      29.098  27.373  23.481  1.00  0.00     0.202 C 
BRANCH   4   5
ATOM      5  C   UNL A   1      30.202  26.339  23.331  1.00  0.00     0.261 C 
BRANCH   5   6
ATOM      6  O   UNL A   1      29.868  25.179  24.081  1.00  0.00    -0.460 OA
BRANCH   6   7
ATOM      7  C   UNL A   1      30.521  24.918  25.314  1.00  0.00     0.338 C 
ATOM      8  O   UNL A   1      30.172  25.544  26.363  1.00  0.00    -0.246 OA
BRANCH   7   9
ATOM      9  C   UNL A   1      31.637  23.889  25.380  1.00  0.00     0.087 C 
ATOM     10  C   UNL A   1      34.893  21.283  25.139  1.00  0.00    -0.004 A 
ATOM     11  C   UNL A   1      34.687  19.945  24.853  1.00  0.00     0.032 A 
ATOM     12  C   UNL A   1      33.810  22.128  25.159  1.00  0.00     0.131 A 
ATOM     13  C   UNL A   1      33.430  19.467  24.591  1.00  0.00     0.108 A 
ATOM     14  C   UNL A   1      32.526  21.677  24.917  1.00  0.00     0.019 A 
ATOM     15  O   UNL A   1      34.044  23.470  25.332  1.00  0.00    -0.475 OA
ATOM     16  C   UNL A   1      32.353  20.328  24.629  1.00  0.00     0.036 A 
ATOM     17  C   UNL A   1      31.452  22.657  24.923  1.00  0.00     0.027 C 
ATOM     18  C   UNL A   1      32.995  24.249  25.972  1.00  0.00     0.316 C 
BRANCH  10  19
ATOM     19  C   UNL A   1      36.237  21.867  25.545  1.00  0.00     0.039 C 
BRANCH  19  20
ATOM     20  C   UNL A   1      37.217  21.733  24.391  1.00  0.00     0.001 C 
ATOM     21  C   UNL A   1      36.822  22.688  23.276  1.00  0.00     0.004 C 
ENDBRANCH  19  20
ENDBRANCH  10  19
BRANCH  13  22
ATOM     22  S   UNL A   1      33.185  17.717  24.196  1.00  0.00     0.310 S 
ATOM     23  F   UNL A   1      34.740  17.477  23.994  1.00  0.00    -0.094 F 
ATOM     24  F   UNL A   1      33.116  18.101  22.669  1.00  0.00    -0.094 F 
ATOM     25  F   UNL A   1      32.971  16.216  23.857  1.00  0.00    -0.094 F 
ATOM     26  F   UNL A   1      33.398  17.335  25.714  1.00  0.00    -0.094 F 
ATOM     27  F   UNL A   1      33.517  19.224  24.543  1.00  0.00    -0.094 F 
ENDBRANCH  13  22
BRANCH  18  28
ATOM     28  C   UNL A   1      33.260  25.727  25.736  1.00  0.00     0.430 C 
ATOM     29  F   UNL A   1      32.585  26.447  26.628  1.00  0.00    -0.167 F 
ATOM     30  F   UNL A   1      34.562  25.969  25.864  1.00  0.00    -0.167 F 
ATOM     31  F   UNL A   1      32.867  26.059  24.510  1.00  0.00    -0.167 F 
ENDBRANCH  18  28
ENDBRANCH   7   9
ENDBRANCH   6   7
ENDBRANCH   5   6
ENDBRANCH   4   5
ENDBRANCH   3   4
ENDBRANCH   2   3
ENDBRANCH   1   2
BRANCH   1  32
ATOM     32  O   UNL A   1      31.068  30.090  24.991  1.00  0.00    -0.376 OA
BRANCH  32  33
ATOM     33  C   UNL A   1      31.642  30.194  26.285  1.00  0.00     0.202 C 
BRANCH  33  34
ATOM     34  C   UNL A   1      33.069  29.672  26.251  1.00  0.00     0.261 C 
BRANCH  34  35
ATOM     35  O   UNL A   1      33.588  29.629  27.572  1.00  0.00    -0.460 OA
BRANCH  35  36
ATOM     36  C   UNL A   1      34.465  30.651  28.024  1.00  0.00     0.338 C 
ATOM     37  O   UNL A   1      34.038  31.839  28.163  1.00  0.00    -0.246 OA
BRANCH  36  38
ATOM     38  C   UNL A   1      35.915  30.322  28.341  1.00  0.00     0.060 A 
ATOM     39  C   UNL A   1      36.943  30.697  27.492  1.00  0.00     0.016 A 
ATOM     40  C   UNL A   1      36.152  29.617  29.441  1.00  0.00     0.016 A 
ATOM     41  C   UNL A   1      38.166  30.029  27.742  1.00  0.00     0.010 A 
ATOM     42  C   UNL A   1      37.405  29.108  29.688  1.00  0.00     0.010 A 
ATOM     43  C   UNL A   1      38.455  29.390  28.860  1.00  0.00    -0.014 A 
BRANCH  43  44
ATOM     44  C   UNL A   1      39.880  28.988  29.208  1.00  0.00     0.031 A 
ATOM     45  C   UNL A   1      40.630  29.945  29.892  1.00  0.00     0.074 A 
ATOM     46  C   UNL A   1      40.349  27.729  28.875  1.00  0.00     0.049 A 
ATOM     47  N   UNL A   1      41.871  29.821  30.364  1.00  0.00    -0.248 NA
ATOM     48  C   UNL A   1      40.145  31.296  30.216  1.00  0.00     0.031 C 
ATOM     49  C   UNL A   1      39.595  26.755  28.192  1.00  0.00     0.029 A 
ATOM     50  N   UNL A   1      41.592  27.195  29.132  1.00  0.00    -0.354 N 
ATOM     51  C   UNL A   1      42.245  30.945  30.979  1.00  0.00     0.074 A 
ATOM     52  C   UNL A   1      41.143  31.912  30.887  1.00  0.00     0.031 C 
ATOM     53  C   UNL A   1      40.376  25.654  28.030  1.00  0.00     0.029 A 
ATOM     54  C   UNL A   1      41.630  25.922  28.609  1.00  0.00     0.049 A 
ATOM     55  H   UNL A   1      42.327  27.647  29.609  1.00  0.00     0.167 HD
ATOM     56  C   UNL A   1      43.462  31.201  31.614  1.00  0.00     0.031 A 
ATOM     57  C   UNL A   1      42.691  25.029  28.624  1.00  0.00     0.031 A 
ATOM     58  C   UNL A   1      44.507  30.292  31.667  1.00  0.00     0.049 A 
ATOM     59  C   UNL A   1      43.929  25.307  29.208  1.00  0.00     0.074 A 
ATOM     60  C   UNL A   1      45.737  30.531  32.309  1.00  0.00     0.029 A 
ATOM     61  N   UNL A   1      44.554  29.027  31.122  1.00  0.00    -0.354 N 
ATOM     62  N   UNL A   1      44.289  26.416  29.857  1.00  0.00    -0.248 NA
ATOM     63  C   UNL A   1      45.070  24.382  29.202  1.00  0.00     0.031 C 
ATOM     64  C   UNL A   1      46.519  29.430  32.148  1.00  0.00     0.029 A 
ATOM     65  C   UNL A   1      45.790  28.485  31.399  1.00  0.00     0.049 A 
ATOM     66  H   UNL A   1      43.830  28.588  30.621  1.00  0.00     0.167 HD
ATOM     67  C   UNL A   1      45.545  26.306  30.293  1.00  0.00     0.074 A 
ATOM     68  C   UNL A   1      46.068  24.999  29.871  1.00  0.00     0.031 C 
ATOM     69  C   UNL A   1      46.276  27.242  31.028  1.00  0.00     0.031 A 
BRANCH  56  70
ATOM     70  C   UNL A   1      43.650  32.551  32.287  1.00  0.00    -0.014 A 
ATOM     71  C   UNL A   1      43.295  32.702  33.616  1.00  0.00     0.010 A 
ATOM     72  C   UNL A   1      44.157  33.560  31.589  1.00  0.00     0.010 A 
ATOM     73  C   UNL A   1      43.243  34.050  34.045  1.00  0.00     0.020 A 
ATOM     74  C   UNL A   1      44.200  34.826  32.121  1.00  0.00     0.020 A 
ATOM     75  C   UNL A   1      43.809  35.060  33.410  1.00  0.00     0.054 A 
BRANCH  75  76
ATOM     76  S   UNL A   1      44.052  36.669  34.203  1.00  0.00     0.124 S 
ATOM     77  O   UNL A   1      45.389  37.263  33.753  1.00  0.00    -0.237 OA
ATOM     78  O   UNL A   1      42.915  37.612  33.802  1.00  0.00    -0.237 OA
ATOM     79  O   UNL A   1      44.059  36.472  35.902  1.00  0.00    -0.744 OA
ENDBRANCH  75  76
ENDBRANCH  56  70
BRANCH  57  80
ATOM     80  C   UNL A   1      42.496  23.674  27.967  1.00  0.00    -0.014 A 
ATOM     81  C   UNL A   1      41.946  22.636  28.702  1.00  0.00     0.010 A 
ATOM     82  C   UNL A   1      42.861  23.504  26.701  1.00  0.00     0.010 A 
ATOM     83  C   UNL A   1      42.088  21.366  28.095  1.00  0.00     0.020 A 
ATOM     84  C   UNL A   1      42.846  22.254  26.131  1.00  0.00     0.020 A 
ATOM     85  C   UNL A   1      42.371  21.172  26.819  1.00  0.00     0.054 A 
BRANCH  85  86
ATOM     86  S   UNL A   1      42.142  19.562  26.025  1.00  0.00     0.124 S 
ATOM     87  O   UNL A   1      42.950  19.514  24.727  1.00  0.00    -0.237 OA
ATOM     88  O   UNL A   1      42.624  18.455  26.967  1.00  0.00    -0.237 OA
ATOM     89  O   UNL A   1      40.485  19.329  25.676  1.00  0.00    -0.744 OA
ENDBRANCH  85  86
ENDBRANCH  57  80
BRANCH  69  90
ATOM     90  C   UNL A   1      47.689  26.872  31.449  1.00  0.00    -0.014 A 
ATOM     91  C   UNL A   1      48.773  27.228  30.664  1.00  0.00     0.010 A 
ATOM     92  C   UNL A   1      47.850  26.187  32.575  1.00  0.00     0.010 A 
ATOM     93  C   UNL A   1      49.972  26.561  31.006  1.00  0.00     0.020 A 
ATOM     94  C   UNL A   1      49.080  25.678  32.914  1.00  0.00     0.020 A 
ATOM     95  C   UNL A   1      50.184  25.941  32.153  1.00  0.00     0.054 A 
BRANCH  95  96
ATOM     96  S   UNL A   1      51.847  25.465  32.687  1.00  0.00     0.124 S 
ATOM     97  O   UNL A   1      51.761  24.219  33.571  1.00  0.00    -0.237 OA
ATOM     98  O   UNL A   1      52.710  25.162  31.460  1.00  0.00    -0.237 OA
ATOM     99  O   UNL A   1      52.549  26.747  33.575  1.00  0.00    -0.744 OA
ENDBRANCH  95  96
ENDBRANCH  69  90
ENDBRANCH  43  44
ENDBRANCH  36  38
ENDBRANCH  35  36
ENDBRANCH  34  35
ENDBRANCH  33  34
ENDBRANCH  32  33
ENDBRANCH   1  32
TORSDOF 24
ENDMDL
MODEL 2
REMARK VINA RESULT:     -10.8      3.503      4.275
REMARK SMILES CCCc1cc(S(F)(F)(F)(F)F)cc2c1O[C@@H](C(F)(F)F)C(C(=O)OCCOCCOCCOC(=O)c1ccc(-c3c4nc(c(-c5ccc(S(=O)(=O)[O-])cc5)c5ccc([nH]5)c(-c5ccc(S(=O)(=O)[O-])cc5)c5nc(c(-c6ccc(S(=O)(=O)[O-])cc6)c6ccc3[nH]6)C=C5)C=C4)cc1)=C2
REMARK SMILES IDX 30 1 29 2 28 3 27 4 26 5 25 6 23 7 24 8 22 9 4 10 5 11 15 12
REMARK SMILES IDX 6 13 14 14 16 15 13 16 97 17 17 18 3 19 2 20 1 21 7 22 8 23
REMARK SMILES IDX 9 24 10 25 11 26 12 27 18 28 19 29 20 30 21 31 31 32 32 33
REMARK SMILES IDX 33 34 34 35 35 36 36 37 37 38 38 39 96 40 39 41 95 42 40 43
REMARK SMILES IDX 41 44 42 45 89 46 43 47 94 48 88 49 90 50 44 51 93 52 87 53
REMARK SMILES IDX 86 54 45 56 75 57 56 58 74 59 57 60 60 61 73 62 91 63 58 64
REMARK SMILES IDX 59 65 72 67 92 68 61 69 46 70 47 71 55 72 48 73 54 74 49 75
REMARK SMILES IDX 50 76 51 77 52 78 53 79 76 80 77 81 85 82 78 83 84 84 79 85
REMARK SMILES IDX 80 86 81 87 82 88 83 89 62 90 63 91 71 92 64 93 70 94 65 95
REMARK SMILES IDX 66 96 67 97 68 98 69 99
REMARK H PARENT 90 55 60 66
REMARK Flexibility Score: inf
ROOT
ATOM      1  C   UNL A   1      32.469  28.164  27.149  1.00  0.00     0.188 C 
ENDROOT
BRANCH   1   2
ATOM      2  C   UNL A   1      31.343  27.614  26.290  1.00  0.00     0.188 C 
BRANCH   2   3
ATOM      3  O   UNL A   1      30.772  26.481  26.928  1.00  0.00    -0.376 OA
BRANCH   3   4
ATOM      4  C   UNL A   1      30.193  25.628  25.952  1.00  0.00     0.202 C 
BRANCH   4   5
ATOM      5  C   UNL A   1      30.307  26.276  24.582  1.00  0.00     0.261 C 
BRANCH   5   6
ATOM      6  O   UNL A   1      30.211  25.276  23.577  1.00  0.00    -0.460 OA
BRANCH   6   7
ATOM      7  C   UNL A   1      31.382  24.815  22.919  1.00  0.00     0.338 C 
ATOM      8  O   UNL A   1      31.711  25.302  21.793  1.00  0.00    -0.246 OA
BRANCH   7   9
ATOM      9  C   UNL A   1      32.241  23.740  23.563  1.00  0.00     0.087 C 
ATOM     10  C   UNL A   1      34.952  20.889  24.970  1.00  0.00    -0.004 A 
ATOM     11  C   UNL A   1      34.648  19.543  24.876  1.00  0.00     0.032 A 
ATOM     12  C   UNL A   1      34.067  21.803  24.451  1.00  0.00     0.131 A 
ATOM     13  C   UNL A   1      33.492  19.122  24.275  1.00  0.00     0.108 A 
ATOM     14  C   UNL A   1      32.881  21.415  23.854  1.00  0.00     0.019 A 
ATOM     15  O   UNL A   1      34.433  23.126  24.451  1.00  0.00    -0.475 OA
ATOM     16  C   UNL A   1      32.609  20.054  23.772  1.00  0.00     0.036 A 
ATOM     17  C   UNL A   1      32.031  22.456  23.301  1.00  0.00     0.027 C 
ATOM     18  C   UNL A   1      33.364  24.111  24.523  1.00  0.00     0.316 C 
BRANCH  10  19
ATOM     19  C   UNL A   1      36.158  21.438  25.715  1.00  0.00     0.039 C 
BRANCH  19  20
ATOM     20  C   UNL A   1      37.426  21.087  24.954  1.00  0.00     0.001 C 
ATOM     21  C   UNL A   1      38.624  21.715  25.647  1.00  0.00     0.004 C 
ENDBRANCH  19  20
ENDBRANCH  10  19
BRANCH  13  22
ATOM     22  S   UNL A   1      33.125  17.355  24.142  1.00  0.00     0.310 S 
ATOM     23  F   UNL A   1      34.464  16.953  24.892  1.00  0.00    -0.094 F 
ATOM     24  F   UNL A   1      33.948  17.315  22.798  1.00  0.00    -0.094 F 
ATOM     25  F   UNL A   1      32.808  15.837  24.025  1.00  0.00    -0.094 F 
ATOM     26  F   UNL A   1      32.426  17.383  25.557  1.00  0.00    -0.094 F 
ATOM     27  F   UNL A   1      33.537  18.869  24.329  1.00  0.00    -0.094 F 
ENDBRANCH  13  22
BRANCH  18  28
ATOM     28  C   UNL A   1      33.917  25.473  24.135  1.00  0.00     0.430 C 
ATOM     29  F   UNL A   1      34.912  25.798  24.956  1.00  0.00    -0.167 F 
ATOM     30  F   UNL A   1      34.370  25.427  22.885  1.00  0.00    -0.167 F 
ATOM     31  F   UNL A   1      32.953  26.385  24.224  1.00  0.00    -0.167 F 
ENDBRANCH  18  28
ENDBRANCH   7   9
ENDBRANCH   6   7
ENDBRANCH   5   6
ENDBRANCH   4   5
ENDBRANCH   3   4
ENDBRANCH   2   3
ENDBRANCH   1   2
BRANCH   1  32
ATOM     32  O   UNL A   1      32.375  29.580  27.204  1.00  0.00    -0.376 OA
BRANCH  32  33
ATOM     33  C   UNL A   1      33.679  30.140  27.216  1.00  0.00     0.202 C 
BRANCH  33  34
ATOM     34  C   UNL A   1      34.693  29.059  27.551  1.00  0.00     0.261 C 
BRANCH  34  35
ATOM     35  O   UNL A   1      35.996  29.624  27.577  1.00  0.00    -0.460 OA
BRANCH  35  36
ATOM     36  C   UNL A   1      36.875  29.333  28.654  1.00  0.00     0.338 C 
ATOM     37  O   UNL A   1      36.430  29.287  29.843  1.00  0.00    -0.246 OA
BRANCH  36  38
ATOM     38  C   UNL A   1      38.349  29.078  28.384  1.00  0.00     0.060 A 
ATOM     39  C   UNL A   1      39.202  28.642  29.384  1.00  0.00     0.016 A 
ATOM     40  C   UNL A   1      38.797  29.338  27.161  1.00  0.00     0.016 A 
ATOM     41  C   UNL A   1      40.575  28.786  29.070  1.00  0.00     0.010 A 
ATOM     42  C   UNL A   1      40.145  29.329  26.894  1.00  0.00     0.010 A 
ATOM     43  C   UNL A   1      41.050  28.964  27.851  1.00  0.00    -0.014 A 
BRANCH  43  44
ATOM     44  C   UNL A   1      42.524  28.775  27.531  1.00  0.00     0.031 A 
ATOM     45  C   UNL A   1      43.339  29.888  27.742  1.00  0.00     0.074 A 
ATOM     46  C   UNL A   1      42.989  27.547  27.090  1.00  0.00     0.049 A 
ATOM     47  N   UNL A   1      44.662  29.966  27.600  1.00  0.00    -0.248 NA
ATOM     48  C   UNL A   1      42.842  31.203  28.176  1.00  0.00     0.031 C 
ATOM     49  C   UNL A   1      42.174  26.417  26.883  1.00  0.00     0.029 A 
ATOM     50  N   UNL A   1      44.283  27.196  26.779  1.00  0.00    -0.354 N 
ATOM     51  C   UNL A   1      45.088  31.192  27.912  1.00  0.00     0.074 A 
ATOM     52  C   UNL A   1      43.923  32.007  28.281  1.00  0.00     0.031 C 
ATOM     53  C   UNL A   1      42.964  25.403  26.442  1.00  0.00     0.029 A 
ATOM     54  C   UNL A   1      44.285  25.882  26.368  1.00  0.00     0.049 A 
ATOM     55  H   UNL A   1      45.071  27.784  26.841  1.00  0.00     0.167 HD
ATOM     56  C   UNL A   1      46.403  31.662  27.905  1.00  0.00     0.031 A 
ATOM     57  C   UNL A   1      45.368  25.127  25.945  1.00  0.00     0.031 A 
ATOM     58  C   UNL A   1      47.491  30.893  27.524  1.00  0.00     0.049 A 
ATOM     59  C   UNL A   1      46.675  25.614  25.882  1.00  0.00     0.074 A 
ATOM     60  C   UNL A   1      48.824  31.348  27.519  1.00  0.00     0.029 A 
ATOM     61  N   UNL A   1      47.490  29.586  27.089  1.00  0.00    -0.354 N 
ATOM     62  N   UNL A   1      47.106  26.828  26.232  1.00  0.00    -0.248 NA
ATOM     63  C   UNL A   1      47.825  24.833  25.406  1.00  0.00     0.031 C 
ATOM     64  C   UNL A   1      49.615  30.334  27.078  1.00  0.00     0.029 A 
ATOM     65  C   UNL A   1      48.788  29.228  26.800  1.00  0.00     0.049 A 
ATOM     66  H   UNL A   1      46.699  29.008  27.000  1.00  0.00     0.167 HD
ATOM     67  C   UNL A   1      48.425  26.917  26.050  1.00  0.00     0.074 A 
ATOM     68  C   UNL A   1      48.905  25.638  25.509  1.00  0.00     0.031 C 
ATOM     69  C   UNL A   1      49.248  28.013  26.317  1.00  0.00     0.031 A 
BRANCH  56  70
ATOM     70  C   UNL A   1      46.655  33.096  28.341  1.00  0.00    -0.014 A 
ATOM     71  C   UNL A   1      46.957  33.359  29.666  1.00  0.00     0.010 A 
ATOM     72  C   UNL A   1      46.584  34.071  27.443  1.00  0.00     0.010 A 
ATOM     73  C   UNL A   1      46.887  34.731  30.009  1.00  0.00     0.020 A 
ATOM     74  C   UNL A   1      46.658  35.387  27.832  1.00  0.00     0.020 A 
ATOM     75  C   UNL A   1      46.897  35.722  29.136  1.00  0.00     0.054 A 
BRANCH  75  76
ATOM     76  S   UNL A   1      47.210  37.432  29.639  1.00  0.00     0.124 S 
ATOM     77  O   UNL A   1      47.229  37.519  31.167  1.00  0.00    -0.237 OA
ATOM     78  O   UNL A   1      48.562  37.887  29.086  1.00  0.00    -0.237 OA
ATOM     79  O   UNL A   1      45.974  38.442  29.025  1.00  0.00    -0.744 OA
ENDBRANCH  75  76
ENDBRANCH  56  70
BRANCH  57  80
ATOM     80  C   UNL A   1      45.118  23.688  25.526  1.00  0.00    -0.014 A 
ATOM     81  C   UNL A   1      45.228  22.678  26.468  1.00  0.00     0.010 A 
ATOM     82  C   UNL A   1      44.805  23.422  24.263  1.00  0.00     0.010 A 
ATOM     83  C   UNL A   1      45.269  21.377  25.912  1.00  0.00     0.020 A 
ATOM     84  C   UNL A   1      44.731  22.123  23.820  1.00  0.00     0.020 A 
ATOM     85  C   UNL A   1      44.887  21.075  24.684  1.00  0.00     0.054 A 
BRANCH  85  86
ATOM     86  S   UNL A   1      44.586  19.365  24.173  1.00  0.00     0.124 S 
ATOM     87  O   UNL A   1      43.217  18.914  24.686  1.00  0.00    -0.237 OA
ATOM     88  O   UNL A   1      44.613  19.277  22.645  1.00  0.00    -0.237 OA
ATOM     89  O   UNL A   1      45.801  18.353  24.823  1.00  0.00    -0.744 OA
ENDBRANCH  85  86
ENDBRANCH  57  80
BRANCH  69  90
ATOM     90  C   UNL A   1      50.740  27.863  26.065  1.00  0.00    -0.014 A 
ATOM     91  C   UNL A   1      51.582  27.413  27.068  1.00  0.00     0.010 A 
ATOM     92  C   UNL A   1      51.210  28.192  24.868  1.00  0.00     0.010 A 
ATOM     93  C   UNL A   1      52.955  27.620  26.800  1.00  0.00     0.020 A 
ATOM     94  C   UNL A   1      52.564  28.243  24.637  1.00  0.00     0.020 A 
ATOM     95  C   UNL A   1      53.456  27.869  25.603  1.00  0.00     0.054 A 
BRANCH  95  96
ATOM     96  S   UNL A   1      55.227  27.722  25.260  1.00  0.00     0.124 S 
ATOM     97  O   UNL A   1      55.480  26.478  24.406  1.00  0.00    -0.237 OA
ATOM     98  O   UNL A   1      55.705  28.965  24.505  1.00  0.00    -0.237 OA
ATOM     99  O   UNL A   1      56.085  27.586  26.733  1.00  0.00    -0.744 OA
ENDBRANCH  95  96
ENDBRANCH  69  90
ENDBRANCH  43  44
ENDBRANCH  36  38
ENDBRANCH  35  36
ENDBRANCH  34  35
ENDBRANCH  33  34
ENDBRANCH  32  33
ENDBRANCH   1  32
TORSDOF 24
ENDMDL
MODEL 3
REMARK VINA RESULT:     -10.2      3.367      4.245
REMARK SMILES CCCc1cc(S(F)(F)(F)(F)F)cc2c1O[C@@H](C(F)(F)F)C(C(=O)OCCOCCOCCOC(=O)c1ccc(-c3c4nc(c(-c5ccc(S(=O)(=O)[O-])cc5)c5ccc([nH]5)c(-c5ccc(S(=O)(=O)[O-])cc5)c5nc(c(-c6ccc(S(=O)(=O)[O-])cc6)c6ccc3[nH]6)C=C5)C=C4)cc1)=C2
REMARK SMILES IDX 30 1 29 2 28 3 27 4 26 5 25 6 23 7 24 8 22 9 4 10 5 11 15 12
REMARK SMILES IDX 6 13 14 14 16 15 13 16 97 17 17 18 3 19 2 20 1 21 7 22 8 23
REMARK SMILES IDX 9 24 10 25 11 26 12 27 18 28 19 29 20 30 21 31 31 32 32 33
REMARK SMILES IDX 33 34 34 35 35 36 36 37 37 38 38 39 96 40 39 41 95 42 40 43
REMARK SMILES IDX 41 44 42 45 89 46 43 47 94 48 88 49 90 50 44 51 93 52 87 53
REMARK SMILES IDX 86 54 45 56 75 57 56 58 74 59 57 60 60 61 73 62 91 63 58 64
REMARK SMILES IDX 59 65 72 67 92 68 61 69 46 70 47 71 55 72 48 73 54 74 49 75
REMARK SMILES IDX 50 76 51 77 52 78 53 79 76 80 77 81 85 82 78 83 84 84 79 85
REMARK SMILES IDX 80 86 81 87 82 88 83 89 62 90 63 91 71 92 64 93 70 94 65 95
REMARK SMILES IDX 66 96 67 97 68 98 69 99
REMARK H PARENT 90 55 60 66
REMARK Flexibility Score: inf
ROOT
ATOM      1  C   UNL A   1      33.535  30.556  27.153  1.00  0.00     0.188 C 
ENDROOT
BRANCH   1   2
ATOM      2  C   UNL A   1      32.192  29.984  26.734  1.00  0.00     0.188 C 
BRANCH   2   3
ATOM      3  O   UNL A   1      32.009  28.713  27.340  1.00  0.00    -0.376 OA
BRANCH   3   4
ATOM      4  C   UNL A   1      31.454  27.811  26.394  1.00  0.00     0.202 C 
BRANCH   4   5
ATOM      5  C   UNL A   1      31.169  28.550  25.097  1.00  0.00     0.261 C 
BRANCH   5   6
ATOM      6  O   UNL A   1      30.327  27.755  24.275  1.00  0.00    -0.460 OA
BRANCH   6   7
ATOM      7  C   UNL A   1      30.870  27.065  23.159  1.00  0.00     0.338 C 
ATOM      8  O   UNL A   1      30.512  27.381  21.981  1.00  0.00    -0.246 OA
BRANCH   7   9
ATOM      9  C   UNL A   1      31.878  25.949  23.372  1.00  0.00     0.087 C 
ATOM     10  C   UNL A   1      34.715  22.884  23.451  1.00  0.00    -0.004 A 
ATOM     11  C   UNL A   1      34.339  21.604  23.818  1.00  0.00     0.032 A 
ATOM     12  C   UNL A   1      33.752  23.861  23.382  1.00  0.00     0.131 A 
ATOM     13  C   UNL A   1      33.032  21.309  24.104  1.00  0.00     0.108 A 
ATOM     14  C   UNL A   1      32.427  23.603  23.681  1.00  0.00     0.019 A 
ATOM     15  O   UNL A   1      34.121  25.096  22.909  1.00  0.00    -0.475 OA
ATOM     16  C   UNL A   1      32.081  22.306  24.042  1.00  0.00     0.036 A 
ATOM     17  C   UNL A   1      31.477  24.695  23.540  1.00  0.00     0.027 C 
ATOM     18  C   UNL A   1      33.373  26.244  23.399  1.00  0.00     0.316 C 
BRANCH  10  19
ATOM     19  C   UNL A   1      36.156  23.313  23.225  1.00  0.00     0.039 C 
BRANCH  19  20
ATOM     20  C   UNL A   1      37.027  22.779  24.350  1.00  0.00     0.001 C 
ATOM     21  C   UNL A   1      36.937  23.712  25.547  1.00  0.00     0.004 C 
ENDBRANCH  19  20
ENDBRANCH  10  19
BRANCH  13  22
ATOM     22  S   UNL A   1      32.557  19.623  24.558  1.00  0.00     0.310 S 
ATOM     23  F   UNL A   1      34.013  19.064  24.269  1.00  0.00    -0.094 F 
ATOM     24  F   UNL A   1      32.223  19.340  23.045  1.00  0.00    -0.094 F 
ATOM     25  F   UNL A   1      32.146  18.176  24.949  1.00  0.00    -0.094 F 
ATOM     26  F   UNL A   1      33.030  19.880  26.043  1.00  0.00    -0.094 F 
ATOM     27  F   UNL A   1      33.085  21.058  24.156  1.00  0.00    -0.094 F 
ENDBRANCH  13  22
BRANCH  18  28
ATOM     28  C   UNL A   1      33.657  27.440  22.504  1.00  0.00     0.430 C 
ATOM     29  F   UNL A   1      33.359  27.132  21.245  1.00  0.00    -0.167 F 
ATOM     30  F   UNL A   1      32.915  28.472  22.896  1.00  0.00    -0.167 F 
ATOM     31  F   UNL A   1      34.944  27.762  22.588  1.00  0.00    -0.167 F 
ENDBRANCH  18  28
ENDBRANCH   7   9
ENDBRANCH   6   7
ENDBRANCH   5   6
ENDBRANCH   4   5
ENDBRANCH   3   4
ENDBRANCH   2   3
ENDBRANCH   1   2
BRANCH   1  32
ATOM     32  O   UNL A   1      33.357  31.880  27.636  1.00  0.00    -0.376 OA
BRANCH  32  33
ATOM     33  C   UNL A   1      34.532  32.299  28.314  1.00  0.00     0.202 C 
BRANCH  33  34
ATOM     34  C   UNL A   1      35.356  31.082  28.700  1.00  0.00     0.261 C 
BRANCH  34  35
ATOM     35  O   UNL A   1      36.140  31.385  29.845  1.00  0.00    -0.460 OA
BRANCH  35  36
ATOM     36  C   UNL A   1      36.804  30.344  30.547  1.00  0.00     0.338 C 
ATOM     37  O   UNL A   1      36.248  29.799  31.551  1.00  0.00    -0.246 OA
BRANCH  36  38
ATOM     38  C   UNL A   1      38.180  29.881  30.097  1.00  0.00     0.060 A 
ATOM     39  C   UNL A   1      39.160  29.531  31.012  1.00  0.00     0.016 A 
ATOM     40  C   UNL A   1      38.422  29.873  28.791  1.00  0.00     0.016 A 
ATOM     41  C   UNL A   1      40.461  29.463  30.459  1.00  0.00     0.010 A 
ATOM     42  C   UNL A   1      39.695  29.667  28.317  1.00  0.00     0.010 A 
ATOM     43  C   UNL A   1      40.724  29.373  29.169  1.00  0.00    -0.014 A 
BRANCH  43  44
ATOM     44  C   UNL A   1      42.096  28.966  28.657  1.00  0.00     0.031 A 
ATOM     45  C   UNL A   1      43.054  29.981  28.615  1.00  0.00     0.074 A 
ATOM     46  C   UNL A   1      42.344  27.652  28.298  1.00  0.00     0.049 A 
ATOM     47  N   UNL A   1      44.337  29.874  28.270  1.00  0.00    -0.248 NA
ATOM     48  C   UNL A   1      42.783  31.384  28.963  1.00  0.00     0.031 C 
ATOM     49  C   UNL A   1      41.386  26.621  28.345  1.00  0.00     0.029 A 
ATOM     50  N   UNL A   1      43.524  27.109  27.840  1.00  0.00    -0.354 N 
ATOM     51  C   UNL A   1      44.942  31.060  28.372  1.00  0.00     0.074 A 
ATOM     52  C   UNL A   1      43.950  32.049  28.813  1.00  0.00     0.031 C 
ATOM     53  C   UNL A   1      41.976  25.476  27.913  1.00  0.00     0.029 A 
ATOM     54  C   UNL A   1      43.313  25.772  27.588  1.00  0.00     0.049 A 
ATOM     55  H   UNL A   1      44.373  27.594  27.716  1.00  0.00     0.167 HD
ATOM     56  C   UNL A   1      46.283  31.354  28.116  1.00  0.00     0.031 A 
ATOM     57  C   UNL A   1      44.223  24.846  27.100  1.00  0.00     0.031 A 
ATOM     58  C   UNL A   1      47.203  30.419  27.669  1.00  0.00     0.049 A 
ATOM     59  C   UNL A   1      45.549  25.154  26.788  1.00  0.00     0.074 A 
ATOM     60  C   UNL A   1      48.559  30.696  27.413  1.00  0.00     0.029 A 
ATOM     61  N   UNL A   1      46.985  29.086  27.393  1.00  0.00    -0.354 N 
ATOM     62  N   UNL A   1      46.163  26.330  26.928  1.00  0.00    -0.248 NA
ATOM     63  C   UNL A   1      46.512  24.190  26.240  1.00  0.00     0.031 C 
ATOM     64  C   UNL A   1      49.151  29.551  26.981  1.00  0.00     0.029 A 
ATOM     65  C   UNL A   1      48.172  28.538  26.958  1.00  0.00     0.049 A 
ATOM     66  H   UNL A   1      46.130  28.609  27.489  1.00  0.00     0.167 HD
ATOM     67  C   UNL A   1      47.437  26.231  26.543  1.00  0.00     0.074 A 
ATOM     68  C   UNL A   1      47.678  24.855  26.088  1.00  0.00     0.031 C 
ATOM     69  C   UNL A   1      48.410  27.233  26.556  1.00  0.00     0.031 A 
BRANCH  56  70
ATOM     70  C   UNL A   1      46.760  32.779  28.341  1.00  0.00    -0.014 A 
ATOM     71  C   UNL A   1      47.240  33.145  29.586  1.00  0.00     0.010 A 
ATOM     72  C   UNL A   1      46.713  33.647  27.337  1.00  0.00     0.010 A 
ATOM     73  C   UNL A   1      47.381  34.543  29.758  1.00  0.00     0.020 A 
ATOM     74  C   UNL A   1      46.995  34.976  27.548  1.00  0.00     0.020 A 
ATOM     75  C   UNL A   1      47.418  35.419  28.770  1.00  0.00     0.054 A 
BRANCH  75  76
ATOM     76  S   UNL A   1      47.998  37.115  29.020  1.00  0.00     0.124 S 
ATOM     77  O   UNL A   1      48.977  37.490  27.905  1.00  0.00    -0.237 OA
ATOM     78  O   UNL A   1      46.803  38.071  28.993  1.00  0.00    -0.237 OA
ATOM     79  O   UNL A   1      48.786  37.231  30.534  1.00  0.00    -0.744 OA
ENDBRANCH  75  76
ENDBRANCH  56  70
BRANCH  57  80
ATOM     80  C   UNL A   1      43.749  23.418  26.892  1.00  0.00    -0.014 A 
ATOM     81  C   UNL A   1      43.573  22.942  25.603  1.00  0.00     0.010 A 
ATOM     82  C   UNL A   1      43.505  22.652  27.949  1.00  0.00     0.010 A 
ATOM     83  C   UNL A   1      42.855  21.724  25.534  1.00  0.00     0.020 A 
ATOM     84  C   UNL A   1      42.925  21.415  27.797  1.00  0.00     0.020 A 
ATOM     85  C   UNL A   1      42.669  20.906  26.554  1.00  0.00     0.054 A 
BRANCH  85  86
ATOM     86  S   UNL A   1      42.105  19.202  26.319  1.00  0.00     0.124 S 
ATOM     87  O   UNL A   1      43.009  18.502  25.302  1.00  0.00    -0.237 OA
ATOM     88  O   UNL A   1      42.166  18.456  27.654  1.00  0.00    -0.237 OA
ATOM     89  O   UNL A   1      40.495  19.209  25.743  1.00  0.00    -0.744 OA
ENDBRANCH  85  86
ENDBRANCH  57  80
BRANCH  69  90
ATOM     90  C   UNL A   1      49.815  26.870  26.104  1.00  0.00    -0.014 A 
ATOM     91  C   UNL A   1      50.740  26.377  27.010  1.00  0.00     0.010 A 
ATOM     92  C   UNL A   1      50.132  27.055  24.829  1.00  0.00     0.010 A 
ATOM     93  C   UNL A   1      52.070  26.380  26.530  1.00  0.00     0.020 A 
ATOM     94  C   UNL A   1      51.430  26.910  24.402  1.00  0.00     0.020 A 
ATOM     95  C   UNL A   1      52.407  26.482  25.257  1.00  0.00     0.054 A 
BRANCH  95  96
ATOM     96  S   UNL A   1      54.073  26.079  24.675  1.00  0.00     0.124 S 
ATOM     97  O   UNL A   1      54.176  26.376  23.177  1.00  0.00    -0.237 OA
ATOM     98  O   UNL A   1      55.098  26.925  25.434  1.00  0.00    -0.237 OA
ATOM     99  O   UNL A   1      54.387  24.420  24.950  1.00  0.00    -0.744 OA
ENDBRANCH  95  96
ENDBRANCH  69  90
ENDBRANCH  43  44
ENDBRANCH  36  38
ENDBRANCH  35  36
ENDBRANCH  34  35
ENDBRANCH  33  34
ENDBRANCH  32  33
ENDBRANCH   1  32
TORSDOF 24
ENDMDL
