MODEL 1
REMARK VINA RESULT:      -8.6      0.000      0.000
REMARK SMILES [NH3+]CCCC(=O)NC[C@@H]1CC[C@H](C(=O)OCCOCCOCCOC(=O)c2ccc(-c3c4nc(c(-c5ccc(S(=O)(=O)[O-])cc5)c5ccc([nH]5)c(-c5ccc(S(=O)(=O)[O-])cc5)c5nc(c(-c6ccc(S(=O)(=O)[O-])cc6)c6ccc3[nH]6)C=C5)C=C4)cc2)O1
REMARK SMILES IDX 18 1 17 2 16 3 15 4 13 5 14 6 12 7 9 8 10 9 87 10 11 11 8 12
REMARK SMILES IDX 7 13 5 14 6 15 4 17 3 18 2 19 1 20 19 24 20 25 21 26 22 27
REMARK SMILES IDX 23 28 24 29 25 30 26 31 27 32 28 33 86 34 29 35 85 36 30 37
REMARK SMILES IDX 31 38 32 39 79 40 33 41 84 42 78 43 80 44 34 45 83 46 77 47
REMARK SMILES IDX 76 48 35 50 65 51 46 52 64 53 47 54 50 55 63 56 81 57 48 58
REMARK SMILES IDX 49 59 62 61 82 62 51 63 36 64 37 65 45 66 38 67 44 68 39 69
REMARK SMILES IDX 40 70 41 71 42 72 43 73 66 74 67 75 75 76 68 77 74 78 69 79
REMARK SMILES IDX 70 80 71 81 72 82 73 83 52 84 53 85 61 86 54 87 60 88 55 89
REMARK SMILES IDX 56 90 57 91 58 92 59 93
REMARK H PARENT 7 16 1 21 1 22 1 23 80 49 50 60
REMARK Flexibility Score: inf
ROOT
ATOM      1  O   UNL A   1      32.124  29.610  24.454  1.00  0.00    -0.376 OA
ENDROOT
BRANCH   1   2
ATOM      2  C   UNL A   1      30.840  29.015  24.362  1.00  0.00     0.202 C 
BRANCH   2   3
ATOM      3  C   UNL A   1      30.230  28.851  22.963  1.00  0.00     0.261 C 
BRANCH   3   4
ATOM      4  O   UNL A   1      30.702  27.722  22.194  1.00  0.00    -0.461 OA
BRANCH   4   5
ATOM      5  C   UNL A   1      30.650  26.524  22.839  1.00  0.00     0.335 C 
ATOM      6  O   UNL A   1      29.711  26.181  23.553  1.00  0.00    -0.249 OA
BRANCH   5   7
ATOM      7  C   UNL A   1      31.892  25.630  22.672  1.00  0.00     0.228 C 
ATOM      8  C   UNL A   1      33.049  25.390  24.697  1.00  0.00     0.138 C 
ATOM      9  C   UNL A   1      33.672  26.531  23.908  1.00  0.00     0.037 C 
ATOM     10  O   UNL A   1      31.982  24.856  23.889  1.00  0.00    -0.361 OA
ATOM     11  C   UNL A   1      33.285  26.198  22.494  1.00  0.00     0.047 C 
BRANCH   8  12
ATOM     12  C   UNL A   1      32.512  25.803  26.079  1.00  0.00     0.147 C 
BRANCH  12  13
ATOM     13  N   UNL A   1      31.393  24.965  26.486  1.00  0.00    -0.353 N 
ATOM     14  C   UNL A   1      31.343  23.719  27.019  1.00  0.00     0.220 C 
ATOM     15  O   UNL A   1      30.237  23.238  27.270  1.00  0.00    -0.275 OA
ATOM     16  H   UNL A   1      30.511  25.378  26.348  1.00  0.00     0.163 HD
BRANCH  14  17
ATOM     17  C   UNL A   1      32.606  22.932  27.299  1.00  0.00     0.106 C 
BRANCH  17  18
ATOM     18  C   UNL A   1      32.872  21.847  26.252  1.00  0.00     0.071 C 
BRANCH  18  19
ATOM     19  C   UNL A   1      34.199  21.114  26.414  1.00  0.00     0.259 C 
BRANCH  19  20
ATOM     20  N   UNL A   1      34.878  20.833  25.155  1.00  0.00    -0.358 N 
ATOM     21  H   UNL A   1      34.798  19.838  24.940  1.00  0.00     0.344 HD
ATOM     22  H   UNL A   1      35.863  21.086  25.237  1.00  0.00     0.344 HD
ATOM     23  H   UNL A   1      34.448  21.377  24.407  1.00  0.00     0.344 HD
ENDBRANCH  19  20
ENDBRANCH  18  19
ENDBRANCH  17  18
ENDBRANCH  14  17
ENDBRANCH  12  13
ENDBRANCH   8  12
ENDBRANCH   5   7
ENDBRANCH   4   5
ENDBRANCH   3   4
ENDBRANCH   2   3
ENDBRANCH   1   2
BRANCH   1  24
ATOM     24  C   UNL A   1      32.555  30.080  25.724  1.00  0.00     0.188 C 
BRANCH  24  25
ATOM     25  C   UNL A   1      32.960  29.058  26.797  1.00  0.00     0.188 C 
BRANCH  25  26
ATOM     26  O   UNL A   1      33.963  29.514  27.685  1.00  0.00    -0.376 OA
BRANCH  26  27
ATOM     27  C   UNL A   1      34.371  30.863  27.509  1.00  0.00     0.202 C 
BRANCH  27  28
ATOM     28  C   UNL A   1      35.869  31.008  27.808  1.00  0.00     0.261 C 
BRANCH  28  29
ATOM     29  O   UNL A   1      36.602  29.765  27.834  1.00  0.00    -0.460 OA
BRANCH  29  30
ATOM     30  C   UNL A   1      37.191  29.419  29.006  1.00  0.00     0.338 C 
ATOM     31  O   UNL A   1      36.620  29.065  30.025  1.00  0.00    -0.246 OA
BRANCH  30  32
ATOM     32  C   UNL A   1      38.649  29.258  28.756  1.00  0.00     0.060 A 
ATOM     33  C   UNL A   1      39.120  29.370  27.438  1.00  0.00     0.016 A 
ATOM     34  C   UNL A   1      39.555  29.087  29.804  1.00  0.00     0.016 A 
ATOM     35  C   UNL A   1      40.493  29.301  27.167  1.00  0.00     0.010 A 
ATOM     36  C   UNL A   1      40.924  28.994  29.529  1.00  0.00     0.010 A 
ATOM     37  C   UNL A   1      41.403  29.083  28.209  1.00  0.00    -0.014 A 
BRANCH  37  38
ATOM     38  C   UNL A   1      42.832  28.784  27.921  1.00  0.00     0.031 A 
ATOM     39  C   UNL A   1      43.844  29.886  28.100  1.00  0.00     0.074 A 
ATOM     40  C   UNL A   1      43.239  27.572  27.495  1.00  0.00     0.049 A 
ATOM     41  N   UNL A   1      45.122  29.894  27.821  1.00  0.00    -0.248 NA
ATOM     42  C   UNL A   1      43.345  31.147  28.673  1.00  0.00     0.031 C 
ATOM     43  C   UNL A   1      42.384  26.399  27.326  1.00  0.00     0.029 A 
ATOM     44  N   UNL A   1      44.485  27.135  27.112  1.00  0.00    -0.354 N 
ATOM     45  C   UNL A   1      45.578  31.158  28.174  1.00  0.00     0.074 A 
ATOM     46  C   UNL A   1      44.437  31.897  28.668  1.00  0.00     0.031 C 
ATOM     47  C   UNL A   1      43.129  25.380  26.859  1.00  0.00     0.029 A 
ATOM     48  C   UNL A   1      44.503  25.837  26.654  1.00  0.00     0.049 A 
ATOM     49  H   UNL A   1      45.292  27.698  27.162  1.00  0.00     0.167 HD
ATOM     50  C   UNL A   1      46.833  31.662  28.098  1.00  0.00     0.031 A 
ATOM     51  C   UNL A   1      45.501  25.114  26.103  1.00  0.00     0.031 A 
ATOM     52  C   UNL A   1      47.969  30.942  27.588  1.00  0.00     0.049 A 
ATOM     53  C   UNL A   1      46.868  25.734  25.929  1.00  0.00     0.074 A 
ATOM     54  C   UNL A   1      49.280  31.373  27.481  1.00  0.00     0.029 A 
ATOM     55  N   UNL A   1      47.933  29.648  27.094  1.00  0.00    -0.354 N 
ATOM     56  N   UNL A   1      47.287  26.924  26.288  1.00  0.00    -0.248 NA
ATOM     57  C   UNL A   1      47.896  24.910  25.273  1.00  0.00     0.031 C 
ATOM     58  C   UNL A   1      50.024  30.364  26.863  1.00  0.00     0.029 A 
ATOM     59  C   UNL A   1      49.190  29.278  26.647  1.00  0.00     0.049 A 
ATOM     60  H   UNL A   1      47.131  29.077  27.063  1.00  0.00     0.167 HD
ATOM     61  C   UNL A   1      48.632  26.979  25.924  1.00  0.00     0.074 A 
ATOM     62  C   UNL A   1      48.960  25.699  25.336  1.00  0.00     0.031 C 
ATOM     63  C   UNL A   1      49.513  28.000  26.064  1.00  0.00     0.031 A 
BRANCH  50  64
ATOM     64  C   UNL A   1      47.041  33.083  28.548  1.00  0.00    -0.014 A 
ATOM     65  C   UNL A   1      46.926  34.156  27.645  1.00  0.00     0.010 A 
ATOM     66  C   UNL A   1      47.297  33.353  29.906  1.00  0.00     0.010 A 
ATOM     67  C   UNL A   1      47.089  35.471  28.088  1.00  0.00     0.020 A 
ATOM     68  C   UNL A   1      47.433  34.668  30.356  1.00  0.00     0.020 A 
ATOM     69  C   UNL A   1      47.340  35.718  29.442  1.00  0.00     0.054 A 
BRANCH  69  70
ATOM     70  S   UNL A   1      47.505  37.438  29.993  1.00  0.00     0.124 S 
ATOM     71  O   UNL A   1      47.945  38.105  28.769  1.00  0.00    -0.237 OA
ATOM     72  O   UNL A   1      46.152  37.764  30.432  1.00  0.00    -0.237 OA
ATOM     73  O   UNL A   1      48.504  37.368  31.055  1.00  0.00    -0.744 OA
ENDBRANCH  69  70
ENDBRANCH  50  64
BRANCH  51  74
ATOM     74  C   UNL A   1      45.248  23.724  25.622  1.00  0.00    -0.014 A 
ATOM     75  C   UNL A   1      45.485  22.617  26.458  1.00  0.00     0.010 A 
ATOM     76  C   UNL A   1      44.811  23.498  24.303  1.00  0.00     0.010 A 
ATOM     77  C   UNL A   1      45.314  21.314  25.978  1.00  0.00     0.020 A 
ATOM     78  C   UNL A   1      44.610  22.198  23.830  1.00  0.00     0.020 A 
ATOM     79  C   UNL A   1      44.877  21.113  24.666  1.00  0.00     0.054 A 
BRANCH  79  80
ATOM     80  S   UNL A   1      44.635  19.414  24.074  1.00  0.00     0.124 S 
ATOM     81  O   UNL A   1      44.519  19.608  22.632  1.00  0.00    -0.237 OA
ATOM     82  O   UNL A   1      45.853  18.746  24.526  1.00  0.00    -0.237 OA
ATOM     83  O   UNL A   1      43.411  18.989  24.750  1.00  0.00    -0.744 OA
ENDBRANCH  79  80
ENDBRANCH  51  74
BRANCH  63  84
ATOM     84  C   UNL A   1      50.931  27.777  25.603  1.00  0.00    -0.014 A 
ATOM     85  C   UNL A   1      51.946  27.419  26.509  1.00  0.00     0.010 A 
ATOM     86  C   UNL A   1      51.240  27.861  24.232  1.00  0.00     0.010 A 
ATOM     87  C   UNL A   1      53.246  27.177  26.056  1.00  0.00     0.020 A 
ATOM     88  C   UNL A   1      52.531  27.591  23.772  1.00  0.00     0.020 A 
ATOM     89  C   UNL A   1      53.531  27.262  24.689  1.00  0.00     0.054 A 
BRANCH  89  90
ATOM     90  S   UNL A   1      55.215  26.894  24.123  1.00  0.00     0.124 S 
ATOM     91  O   UNL A   1      55.975  28.011  24.677  1.00  0.00    -0.237 OA
ATOM     92  O   UNL A   1      55.479  25.591  24.731  1.00  0.00    -0.237 OA
ATOM     93  O   UNL A   1      55.098  26.882  22.666  1.00  0.00    -0.744 OA
ENDBRANCH  89  90
ENDBRANCH  63  84
ENDBRANCH  37  38
ENDBRANCH  30  32
ENDBRANCH  29  30
ENDBRANCH  28  29
ENDBRANCH  27  28
ENDBRANCH  26  27
ENDBRANCH  25  26
ENDBRANCH  24  25
ENDBRANCH   1  24
TORSDOF 26
ENDMDL
MODEL 2
REMARK VINA RESULT:      -8.2      2.123      8.757
REMARK SMILES [NH3+]CCCC(=O)NC[C@@H]1CC[C@H](C(=O)OCCOCCOCCOC(=O)c2ccc(-c3c4nc(c(-c5ccc(S(=O)(=O)[O-])cc5)c5ccc([nH]5)c(-c5ccc(S(=O)(=O)[O-])cc5)c5nc(c(-c6ccc(S(=O)(=O)[O-])cc6)c6ccc3[nH]6)C=C5)C=C4)cc2)O1
REMARK SMILES IDX 18 1 17 2 16 3 15 4 13 5 14 6 12 7 9 8 10 9 87 10 11 11 8 12
REMARK SMILES IDX 7 13 5 14 6 15 4 17 3 18 2 19 1 20 19 24 20 25 21 26 22 27
REMARK SMILES IDX 23 28 24 29 25 30 26 31 27 32 28 33 86 34 29 35 85 36 30 37
REMARK SMILES IDX 31 38 32 39 79 40 33 41 84 42 78 43 80 44 34 45 83 46 77 47
REMARK SMILES IDX 76 48 35 50 65 51 46 52 64 53 47 54 50 55 63 56 81 57 48 58
REMARK SMILES IDX 49 59 62 61 82 62 51 63 36 64 37 65 45 66 38 67 44 68 39 69
REMARK SMILES IDX 40 70 41 71 42 72 43 73 66 74 67 75 75 76 68 77 74 78 69 79
REMARK SMILES IDX 70 80 71 81 72 82 73 83 52 84 53 85 61 86 54 87 60 88 55 89
REMARK SMILES IDX 56 90 57 91 58 92 59 93
REMARK H PARENT 7 16 1 21 1 22 1 23 80 49 50 60
REMARK Flexibility Score: inf
ROOT
ATOM      1  O   UNL A   1      31.637  27.486  27.811  1.00  0.00    -0.376 OA
ENDROOT
BRANCH   1   2
ATOM      2  C   UNL A   1      31.355  26.325  27.046  1.00  0.00     0.202 C 
BRANCH   2   3
ATOM      3  C   UNL A   1      31.700  26.355  25.551  1.00  0.00     0.261 C 
BRANCH   3   4
ATOM      4  O   UNL A   1      32.951  25.736  25.177  1.00  0.00    -0.461 OA
BRANCH   4   5
ATOM      5  C   UNL A   1      32.872  24.861  24.136  1.00  0.00     0.335 C 
ATOM      6  O   UNL A   1      32.369  23.745  24.228  1.00  0.00    -0.249 OA
BRANCH   5   7
ATOM      7  C   UNL A   1      33.523  25.337  22.824  1.00  0.00     0.228 C 
ATOM      8  C   UNL A   1      32.521  27.305  22.039  1.00  0.00     0.138 C 
ATOM      9  C   UNL A   1      31.859  26.113  21.363  1.00  0.00     0.037 C 
ATOM     10  O   UNL A   1      33.548  26.780  22.902  1.00  0.00    -0.361 OA
ATOM     11  C   UNL A   1      32.919  25.053  21.465  1.00  0.00     0.047 C 
BRANCH   8  12
ATOM     12  C   UNL A   1      31.551  28.188  22.843  1.00  0.00     0.147 C 
BRANCH  12  13
ATOM     13  N   UNL A   1      30.450  28.658  22.012  1.00  0.00    -0.353 N 
ATOM     14  C   UNL A   1      29.556  29.664  22.180  1.00  0.00     0.220 C 
ATOM     15  O   UNL A   1      28.711  29.843  21.301  1.00  0.00    -0.275 OA
ATOM     16  H   UNL A   1      30.334  28.153  21.176  1.00  0.00     0.163 HD
BRANCH  14  17
ATOM     17  C   UNL A   1      29.586  30.547  23.410  1.00  0.00     0.106 C 
BRANCH  17  18
ATOM     18  C   UNL A   1      28.425  31.543  23.450  1.00  0.00     0.071 C 
BRANCH  18  19
ATOM     19  C   UNL A   1      28.720  32.895  22.808  1.00  0.00     0.259 C 
BRANCH  19  20
ATOM     20  N   UNL A   1      29.773  33.651  23.475  1.00  0.00    -0.358 N 
ATOM     21  H   UNL A   1      30.429  33.004  23.915  1.00  0.00     0.344 HD
ATOM     22  H   UNL A   1      29.361  34.254  24.187  1.00  0.00     0.344 HD
ATOM     23  H   UNL A   1      30.268  34.221  22.790  1.00  0.00     0.344 HD
ENDBRANCH  19  20
ENDBRANCH  18  19
ENDBRANCH  17  18
ENDBRANCH  14  17
ENDBRANCH  12  13
ENDBRANCH   8  12
ENDBRANCH   5   7
ENDBRANCH   4   5
ENDBRANCH   3   4
ENDBRANCH   2   3
ENDBRANCH   1   2
BRANCH   1  24
ATOM     24  C   UNL A   1      31.507  28.752  27.180  1.00  0.00     0.188 C 
BRANCH  24  25
ATOM     25  C   UNL A   1      32.704  29.715  27.192  1.00  0.00     0.188 C 
BRANCH  25  26
ATOM     26  O   UNL A   1      33.859  29.214  26.546  1.00  0.00    -0.376 OA
BRANCH  26  27
ATOM     27  C   UNL A   1      35.084  29.414  27.235  1.00  0.00     0.202 C 
BRANCH  27  28
ATOM     28  C   UNL A   1      34.865  30.313  28.459  1.00  0.00     0.261 C 
BRANCH  28  29
ATOM     29  O   UNL A   1      36.075  30.833  29.050  1.00  0.00    -0.460 OA
BRANCH  29  30
ATOM     30  C   UNL A   1      36.664  30.083  30.014  1.00  0.00     0.338 C 
ATOM     31  O   UNL A   1      36.093  29.476  30.906  1.00  0.00    -0.246 OA
BRANCH  30  32
ATOM     32  C   UNL A   1      38.088  29.882  29.634  1.00  0.00     0.060 A 
ATOM     33  C   UNL A   1      38.449  30.028  28.284  1.00  0.00     0.016 A 
ATOM     34  C   UNL A   1      39.073  29.642  30.593  1.00  0.00     0.016 A 
ATOM     35  C   UNL A   1      39.790  29.922  27.894  1.00  0.00     0.010 A 
ATOM     36  C   UNL A   1      40.410  29.513  30.197  1.00  0.00     0.010 A 
ATOM     37  C   UNL A   1      40.778  29.635  28.845  1.00  0.00    -0.014 A 
BRANCH  37  38
ATOM     38  C   UNL A   1      42.165  29.299  28.423  1.00  0.00     0.031 A 
ATOM     39  C   UNL A   1      42.471  27.875  28.036  1.00  0.00     0.074 A 
ATOM     40  C   UNL A   1      43.146  30.222  28.392  1.00  0.00     0.049 A 
ATOM     41  N   UNL A   1      43.618  27.327  27.730  1.00  0.00    -0.248 NA
ATOM     42  C   UNL A   1      41.327  26.950  27.987  1.00  0.00     0.031 C 
ATOM     43  C   UNL A   1      42.987  31.644  28.689  1.00  0.00     0.029 A 
ATOM     44  N   UNL A   1      44.485  30.088  28.106  1.00  0.00    -0.354 N 
ATOM     45  C   UNL A   1      43.338  25.992  27.461  1.00  0.00     0.074 A 
ATOM     46  C   UNL A   1      41.917  25.810  27.661  1.00  0.00     0.031 C 
ATOM     47  C   UNL A   1      44.185  32.248  28.584  1.00  0.00     0.029 A 
ATOM     48  C   UNL A   1      45.205  31.252  28.256  1.00  0.00     0.049 A 
ATOM     49  H   UNL A   1      44.892  29.238  27.820  1.00  0.00     0.167 HD
ATOM     50  C   UNL A   1      44.184  25.005  27.080  1.00  0.00     0.031 A 
ATOM     51  C   UNL A   1      46.532  31.481  28.172  1.00  0.00     0.031 A 
ATOM     52  C   UNL A   1      45.601  25.174  26.900  1.00  0.00     0.049 A 
ATOM     53  C   UNL A   1      47.470  30.340  27.850  1.00  0.00     0.074 A 
ATOM     54  C   UNL A   1      46.534  24.228  26.509  1.00  0.00     0.029 A 
ATOM     55  N   UNL A   1      46.293  26.356  27.106  1.00  0.00    -0.354 N 
ATOM     56  N   UNL A   1      47.186  29.088  27.578  1.00  0.00    -0.248 NA
ATOM     57  C   UNL A   1      48.909  30.646  27.826  1.00  0.00     0.031 C 
ATOM     58  C   UNL A   1      47.799  24.823  26.540  1.00  0.00     0.029 A 
ATOM     59  C   UNL A   1      47.646  26.156  26.885  1.00  0.00     0.049 A 
ATOM     60  H   UNL A   1      45.885  27.211  27.372  1.00  0.00     0.167 HD
ATOM     61  C   UNL A   1      48.408  28.467  27.327  1.00  0.00     0.074 A 
ATOM     62  C   UNL A   1      49.430  29.483  27.460  1.00  0.00     0.031 C 
ATOM     63  C   UNL A   1      48.660  27.171  27.016  1.00  0.00     0.031 A 
BRANCH  50  64
ATOM     64  C   UNL A   1      43.602  23.634  26.863  1.00  0.00    -0.014 A 
ATOM     65  C   UNL A   1      43.312  23.163  25.570  1.00  0.00     0.010 A 
ATOM     66  C   UNL A   1      43.397  22.783  27.966  1.00  0.00     0.010 A 
ATOM     67  C   UNL A   1      42.805  21.876  25.385  1.00  0.00     0.020 A 
ATOM     68  C   UNL A   1      42.915  21.484  27.782  1.00  0.00     0.020 A 
ATOM     69  C   UNL A   1      42.611  21.043  26.493  1.00  0.00     0.054 A 
BRANCH  69  70
ATOM     70  S   UNL A   1      41.990  19.362  26.217  1.00  0.00     0.124 S 
ATOM     71  O   UNL A   1      42.742  18.955  25.032  1.00  0.00    -0.237 OA
ATOM     72  O   UNL A   1      42.353  18.680  27.455  1.00  0.00    -0.237 OA
ATOM     73  O   UNL A   1      40.557  19.551  26.009  1.00  0.00    -0.744 OA
ENDBRANCH  69  70
ENDBRANCH  50  64
BRANCH  51  74
ATOM     74  C   UNL A   1      47.082  32.841  28.441  1.00  0.00    -0.014 A 
ATOM     75  C   UNL A   1      47.032  33.397  29.732  1.00  0.00     0.010 A 
ATOM     76  C   UNL A   1      47.620  33.610  27.391  1.00  0.00     0.010 A 
ATOM     77  C   UNL A   1      47.484  34.701  29.963  1.00  0.00     0.020 A 
ATOM     78  C   UNL A   1      48.102  34.901  27.624  1.00  0.00     0.020 A 
ATOM     79  C   UNL A   1      48.017  35.445  28.907  1.00  0.00     0.054 A 
BRANCH  79  80
ATOM     80  S   UNL A   1      48.625  37.124  29.236  1.00  0.00     0.124 S 
ATOM     81  O   UNL A   1      47.550  37.681  30.051  1.00  0.00    -0.237 OA
ATOM     82  O   UNL A   1      49.883  36.872  29.934  1.00  0.00    -0.237 OA
ATOM     83  O   UNL A   1      48.765  37.703  27.902  1.00  0.00    -0.744 OA
ENDBRANCH  79  80
ENDBRANCH  51  74
BRANCH  63  84
ATOM     84  C   UNL A   1      50.091  26.771  26.765  1.00  0.00    -0.014 A 
ATOM     85  C   UNL A   1      50.920  26.328  27.811  1.00  0.00     0.010 A 
ATOM     86  C   UNL A   1      50.596  26.775  25.450  1.00  0.00     0.010 A 
ATOM     87  C   UNL A   1      52.233  25.923  27.551  1.00  0.00     0.020 A 
ATOM     88  C   UNL A   1      51.897  26.343  25.183  1.00  0.00     0.020 A 
ATOM     89  C   UNL A   1      52.713  25.930  26.237  1.00  0.00     0.054 A 
BRANCH  89  90
ATOM     90  S   UNL A   1      54.404  25.351  25.921  1.00  0.00     0.124 S 
ATOM     91  O   UNL A   1      54.179  24.235  25.008  1.00  0.00    -0.237 OA
ATOM     92  O   UNL A   1      55.040  26.527  25.332  1.00  0.00    -0.237 OA
ATOM     93  O   UNL A   1      54.898  24.982  27.246  1.00  0.00    -0.744 OA
ENDBRANCH  89  90
ENDBRANCH  63  84
ENDBRANCH  37  38
ENDBRANCH  30  32
ENDBRANCH  29  30
ENDBRANCH  28  29
ENDBRANCH  27  28
ENDBRANCH  26  27
ENDBRANCH  25  26
ENDBRANCH  24  25
ENDBRANCH   1  24
TORSDOF 26
ENDMDL
MODEL 3
REMARK VINA RESULT:      -8.1      6.496     12.034
REMARK SMILES [NH3+]CCCC(=O)NC[C@@H]1CC[C@H](C(=O)OCCOCCOCCOC(=O)c2ccc(-c3c4nc(c(-c5ccc(S(=O)(=O)[O-])cc5)c5ccc([nH]5)c(-c5ccc(S(=O)(=O)[O-])cc5)c5nc(c(-c6ccc(S(=O)(=O)[O-])cc6)c6ccc3[nH]6)C=C5)C=C4)cc2)O1
REMARK SMILES IDX 18 1 17 2 16 3 15 4 13 5 14 6 12 7 9 8 10 9 87 10 11 11 8 12
REMARK SMILES IDX 7 13 5 14 6 15 4 17 3 18 2 19 1 20 19 24 20 25 21 26 22 27
REMARK SMILES IDX 23 28 24 29 25 30 26 31 27 32 28 33 86 34 29 35 85 36 30 37
REMARK SMILES IDX 31 38 32 39 79 40 33 41 84 42 78 43 80 44 34 45 83 46 77 47
REMARK SMILES IDX 76 48 35 50 65 51 46 52 64 53 47 54 50 55 63 56 81 57 48 58
REMARK SMILES IDX 49 59 62 61 82 62 51 63 36 64 37 65 45 66 38 67 44 68 39 69
REMARK SMILES IDX 40 70 41 71 42 72 43 73 66 74 67 75 75 76 68 77 74 78 69 79
REMARK SMILES IDX 70 80 71 81 72 82 73 83 52 84 53 85 61 86 54 87 60 88 55 89
REMARK SMILES IDX 56 90 57 91 58 92 59 93
REMARK H PARENT 7 16 1 21 1 22 1 23 80 49 50 60
REMARK Flexibility Score: inf
ROOT
ATOM      1  O   UNL A   1      39.357  21.204  25.624  1.00  0.00    -0.376 OA
ENDROOT
BRANCH   1   2
ATOM      2  C   UNL A   1      38.087  21.835  25.667  1.00  0.00     0.202 C 
BRANCH   2   3
ATOM      3  C   UNL A   1      37.012  21.340  24.691  1.00  0.00     0.261 C 
BRANCH   3   4
ATOM      4  O   UNL A   1      35.776  22.091  24.675  1.00  0.00    -0.461 OA
BRANCH   4   5
ATOM      5  C   UNL A   1      35.684  23.027  23.689  1.00  0.00     0.335 C 
ATOM      6  O   UNL A   1      36.489  23.118  22.766  1.00  0.00    -0.249 OA
BRANCH   5   7
ATOM      7  C   UNL A   1      34.526  24.029  23.839  1.00  0.00     0.228 C 
ATOM      8  C   UNL A   1      32.472  23.052  23.271  1.00  0.00     0.138 C 
ATOM      9  C   UNL A   1      33.030  23.767  22.050  1.00  0.00     0.037 C 
ATOM     10  O   UNL A   1      33.409  23.263  24.345  1.00  0.00    -0.361 OA
ATOM     11  C   UNL A   1      33.947  24.788  22.663  1.00  0.00     0.047 C 
BRANCH   8  12
ATOM     12  C   UNL A   1      32.235  21.546  23.061  1.00  0.00     0.147 C 
BRANCH  12  13
ATOM     13  N   UNL A   1      32.783  20.764  24.162  1.00  0.00    -0.353 N 
ATOM     14  C   UNL A   1      32.910  19.427  24.345  1.00  0.00     0.220 C 
ATOM     15  O   UNL A   1      33.421  19.031  25.395  1.00  0.00    -0.275 OA
ATOM     16  H   UNL A   1      33.124  21.307  24.909  1.00  0.00     0.163 HD
BRANCH  14  17
ATOM     17  C   UNL A   1      32.440  18.440  23.298  1.00  0.00     0.106 C 
BRANCH  17  18
ATOM     18  C   UNL A   1      33.473  17.348  23.009  1.00  0.00     0.071 C 
BRANCH  18  19
ATOM     19  C   UNL A   1      33.649  16.322  24.123  1.00  0.00     0.259 C 
BRANCH  19  20
ATOM     20  N   UNL A   1      32.411  15.976  24.812  1.00  0.00    -0.358 N 
ATOM     21  H   UNL A   1      31.804  16.795  24.849  1.00  0.00     0.344 HD
ATOM     22  H   UNL A   1      32.625  15.667  25.760  1.00  0.00     0.344 HD
ATOM     23  H   UNL A   1      31.939  15.226  24.307  1.00  0.00     0.344 HD
ENDBRANCH  19  20
ENDBRANCH  18  19
ENDBRANCH  17  18
ENDBRANCH  14  17
ENDBRANCH  12  13
ENDBRANCH   8  12
ENDBRANCH   5   7
ENDBRANCH   4   5
ENDBRANCH   3   4
ENDBRANCH   2   3
ENDBRANCH   1   2
BRANCH   1  24
ATOM     24  C   UNL A   1      40.248  21.417  26.710  1.00  0.00     0.188 C 
BRANCH  24  25
ATOM     25  C   UNL A   1      41.462  22.335  26.505  1.00  0.00     0.188 C 
BRANCH  25  26
ATOM     26  O   UNL A   1      42.167  22.106  25.300  1.00  0.00    -0.376 OA
BRANCH  26  27
ATOM     27  C   UNL A   1      43.252  22.985  25.046  1.00  0.00     0.202 C 
BRANCH  27  28
ATOM     28  C   UNL A   1      43.131  24.243  25.915  1.00  0.00     0.261 C 
BRANCH  28  29
ATOM     29  O   UNL A   1      44.365  24.969  26.101  1.00  0.00    -0.460 OA
BRANCH  29  30
ATOM     30  C   UNL A   1      44.981  24.846  27.303  1.00  0.00     0.338 C 
ATOM     31  O   UNL A   1      45.969  24.170  27.542  1.00  0.00    -0.246 OA
BRANCH  30  32
ATOM     32  C   UNL A   1      44.435  25.894  28.208  1.00  0.00     0.060 A 
ATOM     33  C   UNL A   1      44.600  27.242  27.849  1.00  0.00     0.016 A 
ATOM     34  C   UNL A   1      43.695  25.564  29.344  1.00  0.00     0.016 A 
ATOM     35  C   UNL A   1      44.037  28.257  28.632  1.00  0.00     0.010 A 
ATOM     36  C   UNL A   1      43.153  26.582  30.138  1.00  0.00     0.010 A 
ATOM     37  C   UNL A   1      43.333  27.936  29.800  1.00  0.00    -0.014 A 
BRANCH  37  38
ATOM     38  C   UNL A   1      42.922  28.998  30.757  1.00  0.00     0.031 A 
ATOM     39  C   UNL A   1      43.764  29.218  31.987  1.00  0.00     0.074 A 
ATOM     40  C   UNL A   1      41.821  29.750  30.563  1.00  0.00     0.049 A 
ATOM     41  N   UNL A   1      43.555  30.012  33.005  1.00  0.00    -0.248 NA
ATOM     42  C   UNL A   1      45.009  28.438  32.076  1.00  0.00     0.031 C 
ATOM     43  C   UNL A   1      40.941  29.685  29.397  1.00  0.00     0.029 A 
ATOM     44  N   UNL A   1      41.249  30.713  31.360  1.00  0.00    -0.354 N 
ATOM     45  C   UNL A   1      44.634  29.822  33.860  1.00  0.00     0.074 A 
ATOM     46  C   UNL A   1      45.485  28.822  33.251  1.00  0.00     0.031 C 
ATOM     47  C   UNL A   1      39.932  30.560  29.563  1.00  0.00     0.029 A 
ATOM     48  C   UNL A   1      40.068  31.216  30.864  1.00  0.00     0.049 A 
ATOM     49  H   UNL A   1      41.647  31.016  32.209  1.00  0.00     0.167 HD
ATOM     50  C   UNL A   1      44.899  30.423  35.044  1.00  0.00     0.031 A 
ATOM     51  C   UNL A   1      39.183  32.078  31.407  1.00  0.00     0.031 A 
ATOM     52  C   UNL A   1      44.048  31.402  35.666  1.00  0.00     0.049 A 
ATOM     53  C   UNL A   1      39.445  32.656  32.779  1.00  0.00     0.074 A 
ATOM     54  C   UNL A   1      44.242  32.069  36.864  1.00  0.00     0.029 A 
ATOM     55  N   UNL A   1      42.841  31.848  35.151  1.00  0.00    -0.354 N 
ATOM     56  N   UNL A   1      40.482  32.482  33.565  1.00  0.00    -0.248 NA
ATOM     57  C   UNL A   1      38.416  33.547  33.336  1.00  0.00     0.031 C 
ATOM     58  C   UNL A   1      43.122  32.872  37.104  1.00  0.00     0.029 A 
ATOM     59  C   UNL A   1      42.262  32.755  36.023  1.00  0.00     0.049 A 
ATOM     60  H   UNL A   1      42.452  31.562  34.294  1.00  0.00     0.167 HD
ATOM     61  C   UNL A   1      40.238  33.261  34.694  1.00  0.00     0.074 A 
ATOM     62  C   UNL A   1      38.969  33.921  34.482  1.00  0.00     0.031 C 
ATOM     63  C   UNL A   1      40.998  33.413  35.807  1.00  0.00     0.031 A 
BRANCH  50  64
ATOM     64  C   UNL A   1      46.152  30.014  35.769  1.00  0.00    -0.014 A 
ATOM     65  C   UNL A   1      46.157  28.918  36.652  1.00  0.00     0.010 A 
ATOM     66  C   UNL A   1      47.357  30.698  35.519  1.00  0.00     0.010 A 
ATOM     67  C   UNL A   1      47.337  28.531  37.290  1.00  0.00     0.020 A 
ATOM     68  C   UNL A   1      48.545  30.296  36.134  1.00  0.00     0.020 A 
ATOM     69  C   UNL A   1      48.525  29.223  37.025  1.00  0.00     0.054 A 
BRANCH  69  70
ATOM     70  S   UNL A   1      50.049  28.670  37.838  1.00  0.00     0.124 S 
ATOM     71  O   UNL A   1      49.547  28.193  39.125  1.00  0.00    -0.237 OA
ATOM     72  O   UNL A   1      50.536  27.633  36.932  1.00  0.00    -0.237 OA
ATOM     73  O   UNL A   1      50.868  29.877  37.898  1.00  0.00    -0.744 OA
ENDBRANCH  69  70
ENDBRANCH  50  64
BRANCH  51  74
ATOM     74  C   UNL A   1      37.925  32.426  30.683  1.00  0.00    -0.014 A 
ATOM     75  C   UNL A   1      36.843  31.528  30.644  1.00  0.00     0.010 A 
ATOM     76  C   UNL A   1      37.822  33.645  29.987  1.00  0.00     0.010 A 
ATOM     77  C   UNL A   1      35.694  31.830  29.905  1.00  0.00     0.020 A 
ATOM     78  C   UNL A   1      36.663  33.964  29.272  1.00  0.00     0.020 A 
ATOM     79  C   UNL A   1      35.612  33.047  29.223  1.00  0.00     0.054 A 
BRANCH  79  80
ATOM     80  S   UNL A   1      34.100  33.430  28.293  1.00  0.00     0.124 S 
ATOM     81  O   UNL A   1      33.259  34.039  29.319  1.00  0.00    -0.237 OA
ATOM     82  O   UNL A   1      34.589  34.335  27.256  1.00  0.00    -0.237 OA
ATOM     83  O   UNL A   1      33.656  32.123  27.813  1.00  0.00    -0.744 OA
ENDBRANCH  79  80
ENDBRANCH  51  74
BRANCH  63  84
ATOM     84  C   UNL A   1      40.502  34.351  36.878  1.00  0.00    -0.014 A 
ATOM     85  C   UNL A   1      39.750  33.882  37.969  1.00  0.00     0.010 A 
ATOM     86  C   UNL A   1      40.850  35.714  36.825  1.00  0.00     0.010 A 
ATOM     87  C   UNL A   1      39.333  34.762  38.973  1.00  0.00     0.020 A 
ATOM     88  C   UNL A   1      40.461  36.591  37.841  1.00  0.00     0.020 A 
ATOM     89  C   UNL A   1      39.694  36.112  38.904  1.00  0.00     0.054 A 
BRANCH  89  90
ATOM     90  S   UNL A   1      39.183  37.222  40.245  1.00  0.00     0.124 S 
ATOM     91  O   UNL A   1      38.423  36.325  41.111  1.00  0.00    -0.237 OA
ATOM     92  O   UNL A   1      40.461  37.682  40.784  1.00  0.00    -0.237 OA
ATOM     93  O   UNL A   1      38.394  38.248  39.567  1.00  0.00    -0.744 OA
ENDBRANCH  89  90
ENDBRANCH  63  84
ENDBRANCH  37  38
ENDBRANCH  30  32
ENDBRANCH  29  30
ENDBRANCH  28  29
ENDBRANCH  27  28
ENDBRANCH  26  27
ENDBRANCH  25  26
ENDBRANCH  24  25
ENDBRANCH   1  24
TORSDOF 26
ENDMDL
