MODEL 1
REMARK VINA RESULT:     -11.4      0.000      0.000
REMARK SMILES O=C(OCCOCCOCCOC(=O)c1ccccc1Nc1nc(Cl)nc(Nc2ccc(N3CCOCC3=O)cc2)n1)c1ccc(-c2c3nc(c(-c4ccc(S(=O)(=O)[O-])cc4)c4ccc([nH]4)c(-c4ccc(S(=O)(=O)[O-])cc4)c4nc(c(-c5ccc(S(=O)(=O)[O-])cc5)c5ccc2[nH]5)C=C4)C=C3)cc1
REMARK SMILES IDX 8 1 7 2 6 3 5 4 4 5 3 6 2 7 1 8 43 9 44 10 102 11 45 12
REMARK SMILES IDX 101 13 46 14 47 15 48 16 95 17 49 18 100 19 94 20 96 21
REMARK SMILES IDX 50 22 99 23 93 24 92 25 51 27 81 28 62 29 80 30 63 31 66 32
REMARK SMILES IDX 79 33 97 34 64 35 65 36 78 38 98 39 67 40 52 41 53 42 61 43
REMARK SMILES IDX 54 44 60 45 55 46 56 47 57 48 58 49 59 50 82 51 83 52 91 53
REMARK SMILES IDX 84 54 90 55 85 56 86 57 87 58 88 59 89 60 68 61 69 62 77 63
REMARK SMILES IDX 70 64 76 65 71 66 72 67 73 68 74 69 75 70 9 71 10 72 11 73
REMARK SMILES IDX 12 74 13 75 14 76 15 77 16 78 20 79 17 80 19 81 18 82 21 83
REMARK SMILES IDX 22 85 23 86 42 87 24 88 27 89 25 90 26 91 28 92 29 94 30 95
REMARK SMILES IDX 41 96 31 97 40 98 32 99 33 100 34 101 38 102 35 103 37 104
REMARK SMILES IDX 39 105 36 106
REMARK H PARENT 96 26 66 37 21 84 28 93
REMARK Flexibility Score: inf
ROOT
ATOM      1  C   UNL A   1      37.508  23.560  25.811  1.00  0.00     0.188 C 
ENDROOT
BRANCH   1   2
ATOM      2  C   UNL A   1      37.863  22.129  25.399  1.00  0.00     0.188 C 
BRANCH   2   3
ATOM      3  O   UNL A   1      39.203  21.796  25.784  1.00  0.00    -0.376 OA
BRANCH   3   4
ATOM      4  C   UNL A   1      39.646  22.471  26.965  1.00  0.00     0.202 C 
BRANCH   4   5
ATOM      5  C   UNL A   1      41.156  22.737  27.010  1.00  0.00     0.261 C 
BRANCH   5   6
ATOM      6  O   UNL A   1      41.518  23.882  26.223  1.00  0.00    -0.460 OA
BRANCH   6   7
ATOM      7  C   UNL A   1      40.998  25.134  26.297  1.00  0.00     0.338 C 
ATOM      8  O   UNL A   1      40.510  25.628  25.282  1.00  0.00    -0.246 OA
BRANCH   7   9
ATOM      9  C   UNL A   1      40.919  25.921  27.566  1.00  0.00     0.060 A 
ATOM     10  C   UNL A   1      39.839  25.925  28.452  1.00  0.00     0.016 A 
ATOM     11  C   UNL A   1      42.051  26.681  27.904  1.00  0.00     0.016 A 
ATOM     12  C   UNL A   1      39.812  26.780  29.553  1.00  0.00     0.010 A 
ATOM     13  C   UNL A   1      42.059  27.491  29.042  1.00  0.00     0.010 A 
ATOM     14  C   UNL A   1      40.911  27.590  29.839  1.00  0.00    -0.014 A 
BRANCH  14  15
ATOM     15  C   UNL A   1      40.801  28.639  30.877  1.00  0.00     0.031 A 
ATOM     16  C   UNL A   1      41.743  28.585  32.043  1.00  0.00     0.074 A 
ATOM     17  C   UNL A   1      39.921  29.648  30.750  1.00  0.00     0.049 A 
ATOM     18  N   UNL A   1      41.787  29.342  33.106  1.00  0.00    -0.248 NA
ATOM     19  C   UNL A   1      42.785  27.544  31.999  1.00  0.00     0.031 C 
ATOM     20  C   UNL A   1      39.051  29.856  29.596  1.00  0.00     0.029 A 
ATOM     21  N   UNL A   1      39.617  30.690  31.587  1.00  0.00    -0.354 N 
ATOM     22  C   UNL A   1      42.841  28.854  33.868  1.00  0.00     0.074 A 
ATOM     23  C   UNL A   1      43.402  27.728  33.154  1.00  0.00     0.031 C 
ATOM     24  C   UNL A   1      38.301  30.949  29.802  1.00  0.00     0.029 A 
ATOM     25  C   UNL A   1      38.597  31.488  31.120  1.00  0.00     0.049 A 
ATOM     26  H   UNL A   1      40.082  30.853  32.439  1.00  0.00     0.167 HD
ATOM     27  C   UNL A   1      43.296  29.306  35.059  1.00  0.00     0.031 A 
ATOM     28  C   UNL A   1      37.953  32.519  31.703  1.00  0.00     0.031 A 
ATOM     29  C   UNL A   1      42.713  30.419  35.755  1.00  0.00     0.049 A 
ATOM     30  C   UNL A   1      38.422  32.955  33.065  1.00  0.00     0.074 A 
ATOM     31  C   UNL A   1      43.049  30.939  36.990  1.00  0.00     0.029 A 
ATOM     32  N   UNL A   1      41.662  31.183  35.267  1.00  0.00    -0.354 N 
ATOM     33  N   UNL A   1      39.405  32.466  33.787  1.00  0.00    -0.248 NA
ATOM     34  C   UNL A   1      37.715  34.080  33.687  1.00  0.00     0.031 C 
ATOM     35  C   UNL A   1      42.173  31.997  37.265  1.00  0.00     0.029 A 
ATOM     36  C   UNL A   1      41.323  32.162  36.181  1.00  0.00     0.049 A 
ATOM     37  H   UNL A   1      41.222  31.047  34.396  1.00  0.00     0.167 HD
ATOM     38  C   UNL A   1      39.452  33.243  34.937  1.00  0.00     0.074 A 
ATOM     39  C   UNL A   1      38.407  34.239  34.808  1.00  0.00     0.031 C 
ATOM     40  C   UNL A   1      40.282  33.144  36.004  1.00  0.00     0.031 A 
BRANCH  27  41
ATOM     41  C   UNL A   1      44.422  28.536  35.689  1.00  0.00    -0.014 A 
ATOM     42  C   UNL A   1      45.765  28.795  35.357  1.00  0.00     0.010 A 
ATOM     43  C   UNL A   1      44.125  27.488  36.578  1.00  0.00     0.010 A 
ATOM     44  C   UNL A   1      46.785  27.978  35.854  1.00  0.00     0.020 A 
ATOM     45  C   UNL A   1      45.145  26.684  37.097  1.00  0.00     0.020 A 
ATOM     46  C   UNL A   1      46.465  26.917  36.708  1.00  0.00     0.054 A 
BRANCH  46  47
ATOM     47  S   UNL A   1      47.798  25.839  37.303  1.00  0.00     0.124 S 
ATOM     48  O   UNL A   1      47.146  24.531  37.304  1.00  0.00    -0.237 OA
ATOM     49  O   UNL A   1      48.836  26.019  36.292  1.00  0.00    -0.237 OA
ATOM     50  O   UNL A   1      48.116  26.378  38.622  1.00  0.00    -0.744 OA
ENDBRANCH  46  47
ENDBRANCH  27  41
BRANCH  28  51
ATOM     51  C   UNL A   1      36.795  33.171  31.021  1.00  0.00    -0.014 A 
ATOM     52  C   UNL A   1      36.947  33.819  29.784  1.00  0.00     0.010 A 
ATOM     53  C   UNL A   1      35.513  33.128  31.604  1.00  0.00     0.010 A 
ATOM     54  C   UNL A   1      35.851  34.417  29.147  1.00  0.00     0.020 A 
ATOM     55  C   UNL A   1      34.411  33.705  30.962  1.00  0.00     0.020 A 
ATOM     56  C   UNL A   1      34.588  34.360  29.743  1.00  0.00     0.054 A 
BRANCH  56  57
ATOM     57  S   UNL A   1      33.153  35.088  28.901  1.00  0.00     0.124 S 
ATOM     58  O   UNL A   1      32.230  35.332  30.006  1.00  0.00    -0.237 OA
ATOM     59  O   UNL A   1      33.700  36.287  28.279  1.00  0.00    -0.237 OA
ATOM     60  O   UNL A   1      32.747  34.040  27.966  1.00  0.00    -0.744 OA
ENDBRANCH  56  57
ENDBRANCH  28  51
BRANCH  40  61
ATOM     61  C   UNL A   1      40.114  34.164  37.094  1.00  0.00    -0.014 A 
ATOM     62  C   UNL A   1      40.764  35.407  37.025  1.00  0.00     0.010 A 
ATOM     63  C   UNL A   1      39.236  33.896  38.159  1.00  0.00     0.010 A 
ATOM     64  C   UNL A   1      40.552  36.364  38.019  1.00  0.00     0.020 A 
ATOM     65  C   UNL A   1      39.005  34.859  39.142  1.00  0.00     0.020 A 
ATOM     66  C   UNL A   1      39.673  36.084  39.071  1.00  0.00     0.054 A 
BRANCH  66  67
ATOM     67  S   UNL A   1      39.360  37.366  40.314  1.00  0.00     0.124 S 
ATOM     68  O   UNL A   1      38.524  38.306  39.573  1.00  0.00    -0.237 OA
ATOM     69  O   UNL A   1      38.685  36.626  41.378  1.00  0.00    -0.237 OA
ATOM     70  O   UNL A   1      40.696  37.850  40.653  1.00  0.00    -0.744 OA
ENDBRANCH  66  67
ENDBRANCH  40  61
ENDBRANCH  14  15
ENDBRANCH   7   9
ENDBRANCH   6   7
ENDBRANCH   5   6
ENDBRANCH   4   5
ENDBRANCH   3   4
ENDBRANCH   2   3
ENDBRANCH   1   2
BRANCH   1  71
ATOM     71  O   UNL A   1      36.152  23.762  26.210  1.00  0.00    -0.376 OA
BRANCH  71  72
ATOM     72  C   UNL A   1      35.296  24.426  25.281  1.00  0.00     0.202 C 
BRANCH  72  73
ATOM     73  C   UNL A   1      33.966  24.952  25.823  1.00  0.00     0.261 C 
BRANCH  73  74
ATOM     74  O   UNL A   1      33.690  26.326  25.493  1.00  0.00    -0.460 OA
BRANCH  74  75
ATOM     75  C   UNL A   1      32.877  26.962  26.358  1.00  0.00     0.340 C 
ATOM     76  O   UNL A   1      31.851  26.518  26.887  1.00  0.00    -0.246 OA
BRANCH  75  77
ATOM     77  C   UNL A   1      33.278  28.357  26.535  1.00  0.00     0.083 A 
ATOM     78  C   UNL A   1      34.492  28.655  27.170  1.00  0.00     0.018 A 
ATOM     79  C   UNL A   1      32.339  29.360  26.228  1.00  0.00     0.055 A 
ATOM     80  C   UNL A   1      34.779  29.975  27.511  1.00  0.00     0.001 A 
ATOM     81  C   UNL A   1      32.654  30.676  26.580  1.00  0.00     0.027 A 
ATOM     82  C   UNL A   1      33.857  30.981  27.227  1.00  0.00     0.002 A 
BRANCH  79  83
ATOM     83  N   UNL A   1      31.117  29.013  25.636  1.00  0.00    -0.323 N 
ATOM     84  H   UNL A   1      30.410  28.752  26.269  1.00  0.00     0.170 HD
BRANCH  83  85
ATOM     85  C   UNL A   1      30.745  28.979  24.299  1.00  0.00     0.233 A 
ATOM     86  N   UNL A   1      29.936  29.889  23.789  1.00  0.00    -0.182 NA
ATOM     87  N   UNL A   1      31.331  28.015  23.604  1.00  0.00    -0.176 NA
ATOM     88  C   UNL A   1      29.783  29.764  22.478  1.00  0.00     0.228 A 
ATOM     89  C   UNL A   1      31.010  27.927  22.322  1.00  0.00     0.233 A 
ATOM     90  Cl  UNL A   1      28.972  31.051  21.697  1.00  0.00    -0.041 Cl
ATOM     91  N   UNL A   1      30.298  28.839  21.686  1.00  0.00    -0.182 NA
BRANCH  89  92
ATOM     92  N   UNL A   1      31.443  26.751  21.714  1.00  0.00    -0.324 N 
ATOM     93  H   UNL A   1      31.509  26.774  20.733  1.00  0.00     0.170 HD
BRANCH  92  94
ATOM     94  C   UNL A   1      31.797  25.544  22.322  1.00  0.00     0.041 A 
ATOM     95  C   UNL A   1      30.873  24.915  23.162  1.00  0.00     0.028 A 
ATOM     96  C   UNL A   1      32.980  24.877  22.007  1.00  0.00     0.028 A 
ATOM     97  C   UNL A   1      31.102  23.619  23.624  1.00  0.00     0.028 A 
ATOM     98  C   UNL A   1      33.232  23.596  22.502  1.00  0.00     0.028 A 
ATOM     99  C   UNL A   1      32.271  22.938  23.275  1.00  0.00     0.044 A 
BRANCH  99 100
ATOM    100  N   UNL A   1      32.416  21.557  23.591  1.00  0.00    -0.308 N 
ATOM    101  C   UNL A   1      32.507  21.237  25.027  1.00  0.00     0.154 C 
ATOM    102  C   UNL A   1      32.077  20.558  22.679  1.00  0.00     0.253 C 
ATOM    103  C   UNL A   1      33.032  19.829  25.266  1.00  0.00     0.183 C 
ATOM    104  C   UNL A   1      32.152  19.118  23.223  1.00  0.00     0.260 C 
ATOM    105  O   UNL A   1      31.847  20.737  21.480  1.00  0.00    -0.272 OA
ATOM    106  O   UNL A   1      32.185  18.879  24.618  1.00  0.00    -0.370 OA
ENDBRANCH  99 100
ENDBRANCH  92  94
ENDBRANCH  89  92
ENDBRANCH  83  85
ENDBRANCH  79  83
ENDBRANCH  75  77
ENDBRANCH  74  75
ENDBRANCH  73  74
ENDBRANCH  72  73
ENDBRANCH  71  72
ENDBRANCH   1  71
TORSDOF 25
ENDMDL
MODEL 2
REMARK VINA RESULT:     -10.2      1.344      2.128
REMARK SMILES O=C(OCCOCCOCCOC(=O)c1ccccc1Nc1nc(Cl)nc(Nc2ccc(N3CCOCC3=O)cc2)n1)c1ccc(-c2c3nc(c(-c4ccc(S(=O)(=O)[O-])cc4)c4ccc([nH]4)c(-c4ccc(S(=O)(=O)[O-])cc4)c4nc(c(-c5ccc(S(=O)(=O)[O-])cc5)c5ccc2[nH]5)C=C4)C=C3)cc1
REMARK SMILES IDX 8 1 7 2 6 3 5 4 4 5 3 6 2 7 1 8 43 9 44 10 102 11 45 12
REMARK SMILES IDX 101 13 46 14 47 15 48 16 95 17 49 18 100 19 94 20 96 21
REMARK SMILES IDX 50 22 99 23 93 24 92 25 51 27 81 28 62 29 80 30 63 31 66 32
REMARK SMILES IDX 79 33 97 34 64 35 65 36 78 38 98 39 67 40 52 41 53 42 61 43
REMARK SMILES IDX 54 44 60 45 55 46 56 47 57 48 58 49 59 50 82 51 83 52 91 53
REMARK SMILES IDX 84 54 90 55 85 56 86 57 87 58 88 59 89 60 68 61 69 62 77 63
REMARK SMILES IDX 70 64 76 65 71 66 72 67 73 68 74 69 75 70 9 71 10 72 11 73
REMARK SMILES IDX 12 74 13 75 14 76 15 77 16 78 20 79 17 80 19 81 18 82 21 83
REMARK SMILES IDX 22 85 23 86 42 87 24 88 27 89 25 90 26 91 28 92 29 94 30 95
REMARK SMILES IDX 41 96 31 97 40 98 32 99 33 100 34 101 38 102 35 103 37 104
REMARK SMILES IDX 39 105 36 106
REMARK H PARENT 96 26 66 37 21 84 28 93
REMARK Flexibility Score: inf
ROOT
ATOM      1  C   UNL A   1      37.872  23.765  25.744  1.00  0.00     0.188 C 
ENDROOT
BRANCH   1   2
ATOM      2  C   UNL A   1      38.027  22.244  25.791  1.00  0.00     0.188 C 
BRANCH   2   3
ATOM      3  O   UNL A   1      39.318  21.870  26.289  1.00  0.00    -0.376 OA
BRANCH   3   4
ATOM      4  C   UNL A   1      39.828  22.759  27.288  1.00  0.00     0.202 C 
BRANCH   4   5
ATOM      5  C   UNL A   1      41.335  23.025  27.184  1.00  0.00     0.261 C 
BRANCH   5   6
ATOM      6  O   UNL A   1      41.635  24.000  26.173  1.00  0.00    -0.460 OA
BRANCH   6   7
ATOM      7  C   UNL A   1      41.437  25.342  26.235  1.00  0.00     0.338 C 
ATOM      8  O   UNL A   1      41.339  25.970  25.181  1.00  0.00    -0.246 OA
BRANCH   7   9
ATOM      9  C   UNL A   1      41.261  26.092  27.515  1.00  0.00     0.060 A 
ATOM     10  C   UNL A   1      40.069  26.196  28.237  1.00  0.00     0.016 A 
ATOM     11  C   UNL A   1      42.408  26.702  28.049  1.00  0.00     0.016 A 
ATOM     12  C   UNL A   1      39.975  27.013  29.363  1.00  0.00     0.010 A 
ATOM     13  C   UNL A   1      42.338  27.469  29.215  1.00  0.00     0.010 A 
ATOM     14  C   UNL A   1      41.103  27.678  29.843  1.00  0.00    -0.014 A 
BRANCH  14  15
ATOM     15  C   UNL A   1      40.959  28.698  30.904  1.00  0.00     0.031 A 
ATOM     16  C   UNL A   1      41.890  28.637  32.078  1.00  0.00     0.074 A 
ATOM     17  C   UNL A   1      40.058  29.690  30.791  1.00  0.00     0.049 A 
ATOM     18  N   UNL A   1      41.906  29.370  33.160  1.00  0.00    -0.248 NA
ATOM     19  C   UNL A   1      42.956  27.622  32.021  1.00  0.00     0.031 C 
ATOM     20  C   UNL A   1      39.196  29.907  29.633  1.00  0.00     0.029 A 
ATOM     21  N   UNL A   1      39.722  30.706  31.650  1.00  0.00    -0.354 N 
ATOM     22  C   UNL A   1      42.963  28.887  33.921  1.00  0.00     0.074 A 
ATOM     23  C   UNL A   1      43.557  27.792  33.187  1.00  0.00     0.031 C 
ATOM     24  C   UNL A   1      38.419  30.978  29.856  1.00  0.00     0.029 A 
ATOM     25  C   UNL A   1      38.689  31.492  31.191  1.00  0.00     0.049 A 
ATOM     26  H   UNL A   1      40.175  30.859  32.510  1.00  0.00     0.167 HD
ATOM     27  C   UNL A   1      43.395  29.321  35.127  1.00  0.00     0.031 A 
ATOM     28  C   UNL A   1      38.017  32.494  31.790  1.00  0.00     0.031 A 
ATOM     29  C   UNL A   1      42.781  30.403  35.843  1.00  0.00     0.049 A 
ATOM     30  C   UNL A   1      38.462  32.907  33.167  1.00  0.00     0.074 A 
ATOM     31  C   UNL A   1      43.092  30.901  37.094  1.00  0.00     0.029 A 
ATOM     32  N   UNL A   1      41.717  31.155  35.362  1.00  0.00    -0.354 N 
ATOM     33  N   UNL A   1      39.448  32.423  33.888  1.00  0.00    -0.248 NA
ATOM     34  C   UNL A   1      37.723  34.001  33.809  1.00  0.00     0.031 C 
ATOM     35  C   UNL A   1      42.190  31.932  37.384  1.00  0.00     0.029 A 
ATOM     36  C   UNL A   1      41.348  32.104  36.295  1.00  0.00     0.049 A 
ATOM     37  H   UNL A   1      41.289  31.031  34.483  1.00  0.00     0.167 HD
ATOM     38  C   UNL A   1      39.466  33.173  35.057  1.00  0.00     0.074 A 
ATOM     39  C   UNL A   1      38.399  34.149  34.940  1.00  0.00     0.031 C 
ATOM     40  C   UNL A   1      40.287  33.067  36.131  1.00  0.00     0.031 A 
BRANCH  27  41
ATOM     41  C   UNL A   1      44.532  28.560  35.751  1.00  0.00    -0.014 A 
ATOM     42  C   UNL A   1      44.303  27.444  36.575  1.00  0.00     0.010 A 
ATOM     43  C   UNL A   1      45.849  29.014  35.561  1.00  0.00     0.010 A 
ATOM     44  C   UNL A   1      45.366  26.835  37.250  1.00  0.00     0.020 A 
ATOM     45  C   UNL A   1      46.917  28.393  36.214  1.00  0.00     0.020 A 
ATOM     46  C   UNL A   1      46.664  27.325  37.077  1.00  0.00     0.054 A 
BRANCH  46  47
ATOM     47  S   UNL A   1      48.022  26.552  37.999  1.00  0.00     0.124 S 
ATOM     48  O   UNL A   1      48.281  25.354  37.203  1.00  0.00    -0.237 OA
ATOM     49  O   UNL A   1      49.067  27.571  37.953  1.00  0.00    -0.237 OA
ATOM     50  O   UNL A   1      47.450  26.310  39.321  1.00  0.00    -0.744 OA
ENDBRANCH  46  47
ENDBRANCH  27  41
BRANCH  28  51
ATOM     51  C   UNL A   1      36.851  33.136  31.112  1.00  0.00    -0.014 A 
ATOM     52  C   UNL A   1      37.032  34.050  30.060  1.00  0.00     0.010 A 
ATOM     53  C   UNL A   1      35.536  32.817  31.506  1.00  0.00     0.010 A 
ATOM     54  C   UNL A   1      35.931  34.637  29.422  1.00  0.00     0.020 A 
ATOM     55  C   UNL A   1      34.433  33.384  30.857  1.00  0.00     0.020 A 
ATOM     56  C   UNL A   1      34.636  34.304  29.828  1.00  0.00     0.054 A 
BRANCH  56  57
ATOM     57  S   UNL A   1      33.203  35.022  28.975  1.00  0.00     0.124 S 
ATOM     58  O   UNL A   1      32.292  35.312  30.078  1.00  0.00    -0.237 OA
ATOM     59  O   UNL A   1      33.759  36.193  28.309  1.00  0.00    -0.237 OA
ATOM     60  O   UNL A   1      32.777  33.949  28.077  1.00  0.00    -0.744 OA
ENDBRANCH  56  57
ENDBRANCH  28  51
BRANCH  40  61
ATOM     61  C   UNL A   1      40.084  34.057  37.242  1.00  0.00    -0.014 A 
ATOM     62  C   UNL A   1      40.836  35.243  37.298  1.00  0.00     0.010 A 
ATOM     63  C   UNL A   1      39.079  33.825  38.197  1.00  0.00     0.010 A 
ATOM     64  C   UNL A   1      40.595  36.176  38.307  1.00  0.00     0.020 A 
ATOM     65  C   UNL A   1      38.822  34.766  39.193  1.00  0.00     0.020 A 
ATOM     66  C   UNL A   1      39.588  35.933  39.248  1.00  0.00     0.054 A 
BRANCH  66  67
ATOM     67  S   UNL A   1      39.247  37.190  40.509  1.00  0.00     0.124 S 
ATOM     68  O   UNL A   1      38.831  36.373  41.645  1.00  0.00    -0.237 OA
ATOM     69  O   UNL A   1      40.538  37.860  40.654  1.00  0.00    -0.237 OA
ATOM     70  O   UNL A   1      38.196  38.006  39.906  1.00  0.00    -0.744 OA
ENDBRANCH  66  67
ENDBRANCH  40  61
ENDBRANCH  14  15
ENDBRANCH   7   9
ENDBRANCH   6   7
ENDBRANCH   5   6
ENDBRANCH   4   5
ENDBRANCH   3   4
ENDBRANCH   2   3
ENDBRANCH   1   2
BRANCH   1  71
ATOM     71  O   UNL A   1      36.601  24.262  26.165  1.00  0.00    -0.376 OA
BRANCH  71  72
ATOM     72  C   UNL A   1      35.445  23.645  25.601  1.00  0.00     0.202 C 
BRANCH  72  73
ATOM     73  C   UNL A   1      34.086  24.185  26.050  1.00  0.00     0.261 C 
BRANCH  73  74
ATOM     74  O   UNL A   1      33.985  25.622  26.044  1.00  0.00    -0.460 OA
BRANCH  74  75
ATOM     75  C   UNL A   1      32.852  26.110  26.583  1.00  0.00     0.340 C 
ATOM     76  O   UNL A   1      31.934  25.468  27.108  1.00  0.00    -0.246 OA
BRANCH  75  77
ATOM     77  C   UNL A   1      32.743  27.554  26.372  1.00  0.00     0.083 A 
ATOM     78  C   UNL A   1      33.491  28.430  27.170  1.00  0.00     0.018 A 
ATOM     79  C   UNL A   1      31.745  28.021  25.497  1.00  0.00     0.055 A 
ATOM     80  C   UNL A   1      33.241  29.799  27.101  1.00  0.00     0.001 A 
ATOM     81  C   UNL A   1      31.516  29.399  25.446  1.00  0.00     0.027 A 
ATOM     82  C   UNL A   1      32.248  30.281  26.250  1.00  0.00     0.002 A 
BRANCH  79  83
ATOM     83  N   UNL A   1      30.987  27.107  24.752  1.00  0.00    -0.323 N 
ATOM     84  H   UNL A   1      30.047  27.024  25.030  1.00  0.00     0.170 HD
BRANCH  83  85
ATOM     85  C   UNL A   1      31.353  26.299  23.683  1.00  0.00     0.233 A 
ATOM     86  N   UNL A   1      31.902  26.808  22.596  1.00  0.00    -0.182 NA
ATOM     87  N   UNL A   1      31.165  25.006  23.900  1.00  0.00    -0.176 NA
ATOM     88  C   UNL A   1      32.286  25.879  21.732  1.00  0.00     0.228 A 
ATOM     89  C   UNL A   1      31.489  24.184  22.913  1.00  0.00     0.233 A 
ATOM     90  Cl  UNL A   1      33.243  26.428  20.425  1.00  0.00    -0.041 Cl
ATOM     91  N   UNL A   1      32.138  24.569  21.829  1.00  0.00    -0.182 NA
BRANCH  89  92
ATOM     92  N   UNL A   1      31.029  22.882  23.093  1.00  0.00    -0.324 N 
ATOM     93  H   UNL A   1      30.060  22.751  22.988  1.00  0.00     0.170 HD
BRANCH  92  94
ATOM     94  C   UNL A   1      31.770  21.739  23.404  1.00  0.00     0.041 A 
ATOM     95  C   UNL A   1      32.296  21.605  24.692  1.00  0.00     0.028 A 
ATOM     96  C   UNL A   1      31.880  20.667  22.519  1.00  0.00     0.028 A 
ATOM     97  C   UNL A   1      32.863  20.399  25.106  1.00  0.00     0.028 A 
ATOM     98  C   UNL A   1      32.486  19.472  22.916  1.00  0.00     0.028 A 
ATOM     99  C   UNL A   1      32.937  19.313  24.228  1.00  0.00     0.044 A 
BRANCH  99 100
ATOM    100  N   UNL A   1      33.343  18.035  24.706  1.00  0.00    -0.308 N 
ATOM    101  C   UNL A   1      32.270  17.032  24.838  1.00  0.00     0.154 C 
ATOM    102  C   UNL A   1      34.673  17.622  24.652  1.00  0.00     0.253 C 
ATOM    103  C   UNL A   1      32.696  15.847  25.692  1.00  0.00     0.183 C 
ATOM    104  C   UNL A   1      34.926  16.160  25.071  1.00  0.00     0.260 C 
ATOM    105  O   UNL A   1      35.638  18.355  24.415  1.00  0.00    -0.272 OA
ATOM    106  O   UNL A   1      33.856  15.236  25.127  1.00  0.00    -0.370 OA
ENDBRANCH  99 100
ENDBRANCH  92  94
ENDBRANCH  89  92
ENDBRANCH  83  85
ENDBRANCH  79  83
ENDBRANCH  75  77
ENDBRANCH  74  75
ENDBRANCH  73  74
ENDBRANCH  72  73
ENDBRANCH  71  72
ENDBRANCH   1  71
TORSDOF 25
ENDMDL
MODEL 3
REMARK VINA RESULT:      -9.6      6.169      9.562
REMARK SMILES O=C(OCCOCCOCCOC(=O)c1ccccc1Nc1nc(Cl)nc(Nc2ccc(N3CCOCC3=O)cc2)n1)c1ccc(-c2c3nc(c(-c4ccc(S(=O)(=O)[O-])cc4)c4ccc([nH]4)c(-c4ccc(S(=O)(=O)[O-])cc4)c4nc(c(-c5ccc(S(=O)(=O)[O-])cc5)c5ccc2[nH]5)C=C4)C=C3)cc1
REMARK SMILES IDX 8 1 7 2 6 3 5 4 4 5 3 6 2 7 1 8 43 9 44 10 102 11 45 12
REMARK SMILES IDX 101 13 46 14 47 15 48 16 95 17 49 18 100 19 94 20 96 21
REMARK SMILES IDX 50 22 99 23 93 24 92 25 51 27 81 28 62 29 80 30 63 31 66 32
REMARK SMILES IDX 79 33 97 34 64 35 65 36 78 38 98 39 67 40 52 41 53 42 61 43
REMARK SMILES IDX 54 44 60 45 55 46 56 47 57 48 58 49 59 50 82 51 83 52 91 53
REMARK SMILES IDX 84 54 90 55 85 56 86 57 87 58 88 59 89 60 68 61 69 62 77 63
REMARK SMILES IDX 70 64 76 65 71 66 72 67 73 68 74 69 75 70 9 71 10 72 11 73
REMARK SMILES IDX 12 74 13 75 14 76 15 77 16 78 20 79 17 80 19 81 18 82 21 83
REMARK SMILES IDX 22 85 23 86 42 87 24 88 27 89 25 90 26 91 28 92 29 94 30 95
REMARK SMILES IDX 41 96 31 97 40 98 32 99 33 100 34 101 38 102 35 103 37 104
REMARK SMILES IDX 39 105 36 106
REMARK H PARENT 96 26 66 37 21 84 28 93
REMARK Flexibility Score: inf
ROOT
ATOM      1  C   UNL A   1      40.190  21.289  26.699  1.00  0.00     0.188 C 
ENDROOT
BRANCH   1   2
ATOM      2  C   UNL A   1      40.886  19.950  26.446  1.00  0.00     0.188 C 
BRANCH   2   3
ATOM      3  O   UNL A   1      41.702  19.571  27.561  1.00  0.00    -0.376 OA
BRANCH   3   4
ATOM      4  C   UNL A   1      42.704  18.601  27.237  1.00  0.00     0.202 C 
BRANCH   4   5
ATOM      5  C   UNL A   1      42.861  18.336  25.735  1.00  0.00     0.261 C 
BRANCH   5   6
ATOM      6  O   UNL A   1      44.133  18.785  25.245  1.00  0.00    -0.460 OA
BRANCH   6   7
ATOM      7  C   UNL A   1      44.381  19.853  24.444  1.00  0.00     0.338 C 
ATOM      8  O   UNL A   1      44.555  19.657  23.242  1.00  0.00    -0.246 OA
BRANCH   7   9
ATOM      9  C   UNL A   1      44.384  21.266  24.931  1.00  0.00     0.060 A 
ATOM     10  C   UNL A   1      44.065  22.389  24.163  1.00  0.00     0.016 A 
ATOM     11  C   UNL A   1      44.692  21.463  26.287  1.00  0.00     0.016 A 
ATOM     12  C   UNL A   1      44.206  23.678  24.675  1.00  0.00     0.010 A 
ATOM     13  C   UNL A   1      44.771  22.749  26.827  1.00  0.00     0.010 A 
ATOM     14  C   UNL A   1      44.588  23.867  26.003  1.00  0.00    -0.014 A 
BRANCH  14  15
ATOM     15  C   UNL A   1      44.936  25.223  26.482  1.00  0.00     0.031 A 
ATOM     16  C   UNL A   1      46.288  25.772  26.138  1.00  0.00     0.074 A 
ATOM     17  C   UNL A   1      44.042  25.968  27.158  1.00  0.00     0.049 A 
ATOM     18  N   UNL A   1      46.843  26.895  26.509  1.00  0.00    -0.248 NA
ATOM     19  C   UNL A   1      47.124  24.950  25.246  1.00  0.00     0.031 C 
ATOM     20  C   UNL A   1      42.664  25.572  27.432  1.00  0.00     0.029 A 
ATOM     21  N   UNL A   1      44.150  27.211  27.726  1.00  0.00    -0.354 N 
ATOM     22  C   UNL A   1      48.100  26.902  25.916  1.00  0.00     0.074 A 
ATOM     23  C   UNL A   1      48.233  25.668  25.175  1.00  0.00     0.031 C 
ATOM     24  C   UNL A   1      42.056  26.545  28.128  1.00  0.00     0.029 A 
ATOM     25  C   UNL A   1      43.014  27.608  28.394  1.00  0.00     0.049 A 
ATOM     26  H   UNL A   1      44.960  27.766  27.663  1.00  0.00     0.167 HD
ATOM     27  C   UNL A   1      49.056  27.856  25.990  1.00  0.00     0.031 A 
ATOM     28  C   UNL A   1      42.781  28.693  29.160  1.00  0.00     0.031 A 
ATOM     29  C   UNL A   1      48.906  29.068  26.745  1.00  0.00     0.049 A 
ATOM     30  C   UNL A   1      43.888  29.702  29.295  1.00  0.00     0.074 A 
ATOM     31  C   UNL A   1      49.820  30.085  26.940  1.00  0.00     0.029 A 
ATOM     32  N   UNL A   1      47.754  29.422  27.434  1.00  0.00    -0.354 N 
ATOM     33  N   UNL A   1      45.084  29.683  28.751  1.00  0.00    -0.248 NA
ATOM     34  C   UNL A   1      43.621  30.879  30.129  1.00  0.00     0.031 C 
ATOM     35  C   UNL A   1      49.232  31.038  27.781  1.00  0.00     0.029 A 
ATOM     36  C   UNL A   1      47.937  30.635  28.070  1.00  0.00     0.049 A 
ATOM     37  H   UNL A   1      46.927  28.887  27.465  1.00  0.00     0.167 HD
ATOM     38  C   UNL A   1      45.702  30.860  29.154  1.00  0.00     0.074 A 
ATOM     39  C   UNL A   1      44.744  31.571  29.978  1.00  0.00     0.031 C 
ATOM     40  C   UNL A   1      46.948  31.314  28.871  1.00  0.00     0.031 A 
BRANCH  27  41
ATOM     41  C   UNL A   1      50.356  27.563  25.295  1.00  0.00    -0.014 A 
ATOM     42  C   UNL A   1      51.473  27.079  26.000  1.00  0.00     0.010 A 
ATOM     43  C   UNL A   1      50.480  27.843  23.922  1.00  0.00     0.010 A 
ATOM     44  C   UNL A   1      52.708  26.941  25.358  1.00  0.00     0.020 A 
ATOM     45  C   UNL A   1      51.707  27.683  23.271  1.00  0.00     0.020 A 
ATOM     46  C   UNL A   1      52.819  27.260  24.001  1.00  0.00     0.054 A 
BRANCH  46  47
ATOM     47  S   UNL A   1      54.440  27.121  23.198  1.00  0.00     0.124 S 
ATOM     48  O   UNL A   1      54.903  28.507  23.218  1.00  0.00    -0.237 OA
ATOM     49  O   UNL A   1      55.162  26.208  24.080  1.00  0.00    -0.237 OA
ATOM     50  O   UNL A   1      54.127  26.588  21.875  1.00  0.00    -0.744 OA
ENDBRANCH  46  47
ENDBRANCH  27  41
BRANCH  28  51
ATOM     51  C   UNL A   1      41.476  28.852  29.869  1.00  0.00    -0.014 A 
ATOM     52  C   UNL A   1      41.259  28.278  31.133  1.00  0.00     0.010 A 
ATOM     53  C   UNL A   1      40.438  29.606  29.286  1.00  0.00     0.010 A 
ATOM     54  C   UNL A   1      40.035  28.445  31.797  1.00  0.00     0.020 A 
ATOM     55  C   UNL A   1      39.222  29.793  29.954  1.00  0.00     0.020 A 
ATOM     56  C   UNL A   1      39.021  29.198  31.200  1.00  0.00     0.054 A 
BRANCH  56  57
ATOM     57  S   UNL A   1      37.450  29.460  32.073  1.00  0.00     0.124 S 
ATOM     58  O   UNL A   1      37.504  28.454  33.128  1.00  0.00    -0.237 OA
ATOM     59  O   UNL A   1      37.546  30.840  32.532  1.00  0.00    -0.237 OA
ATOM     60  O   UNL A   1      36.447  29.226  31.035  1.00  0.00    -0.744 OA
ENDBRANCH  56  57
ENDBRANCH  28  51
BRANCH  40  61
ATOM     61  C   UNL A   1      47.325  32.657  29.427  1.00  0.00    -0.014 A 
ATOM     62  C   UNL A   1      48.522  33.286  29.044  1.00  0.00     0.010 A 
ATOM     63  C   UNL A   1      46.432  33.324  30.284  1.00  0.00     0.010 A 
ATOM     64  C   UNL A   1      48.829  34.558  29.529  1.00  0.00     0.020 A 
ATOM     65  C   UNL A   1      46.727  34.604  30.752  1.00  0.00     0.020 A 
ATOM     66  C   UNL A   1      47.929  35.210  30.378  1.00  0.00     0.054 A 
BRANCH  66  67
ATOM     67  S   UNL A   1      48.317  36.890  30.940  1.00  0.00     0.124 S 
ATOM     68  O   UNL A   1      47.550  37.706  30.004  1.00  0.00    -0.237 OA
ATOM     69  O   UNL A   1      47.831  36.889  32.319  1.00  0.00    -0.237 OA
ATOM     70  O   UNL A   1      49.769  36.973  30.800  1.00  0.00    -0.744 OA
ENDBRANCH  66  67
ENDBRANCH  40  61
ENDBRANCH  14  15
ENDBRANCH   7   9
ENDBRANCH   6   7
ENDBRANCH   5   6
ENDBRANCH   4   5
ENDBRANCH   3   4
ENDBRANCH   2   3
ENDBRANCH   1   2
BRANCH   1  71
ATOM     71  O   UNL A   1      39.245  21.684  25.704  1.00  0.00    -0.376 OA
BRANCH  71  72
ATOM     72  C   UNL A   1      38.148  20.804  25.467  1.00  0.00     0.202 C 
BRANCH  72  73
ATOM     73  C   UNL A   1      37.023  21.329  24.574  1.00  0.00     0.261 C 
BRANCH  73  74
ATOM     74  O   UNL A   1      36.169  22.304  25.202  1.00  0.00    -0.460 OA
BRANCH  74  75
ATOM     75  C   UNL A   1      35.113  21.790  25.860  1.00  0.00     0.340 C 
ATOM     76  O   UNL A   1      35.034  21.537  27.068  1.00  0.00    -0.246 OA
BRANCH  75  77
ATOM     77  C   UNL A   1      34.039  21.424  24.938  1.00  0.00     0.083 A 
ATOM     78  C   UNL A   1      33.709  20.073  24.758  1.00  0.00     0.018 A 
ATOM     79  C   UNL A   1      33.497  22.432  24.119  1.00  0.00     0.055 A 
ATOM     80  C   UNL A   1      32.826  19.715  23.742  1.00  0.00     0.001 A 
ATOM     81  C   UNL A   1      32.613  22.045  23.108  1.00  0.00     0.027 A 
ATOM     82  C   UNL A   1      32.289  20.697  22.911  1.00  0.00     0.002 A 
BRANCH  79  83
ATOM     83  N   UNL A   1      33.891  23.765  24.302  1.00  0.00    -0.323 N 
ATOM     84  H   UNL A   1      34.832  23.952  24.085  1.00  0.00     0.170 HD
BRANCH  83  85
ATOM     85  C   UNL A   1      33.163  24.863  24.740  1.00  0.00     0.233 A 
ATOM     86  N   UNL A   1      31.853  24.801  24.893  1.00  0.00    -0.182 NA
ATOM     87  N   UNL A   1      33.910  25.913  25.047  1.00  0.00    -0.176 NA
ATOM     88  C   UNL A   1      31.345  25.904  25.424  1.00  0.00     0.228 A 
ATOM     89  C   UNL A   1      33.270  26.996  25.465  1.00  0.00     0.233 A 
ATOM     90  Cl  UNL A   1      29.705  25.813  25.903  1.00  0.00    -0.041 Cl
ATOM     91  N   UNL A   1      31.982  27.014  25.753  1.00  0.00    -0.182 NA
BRANCH  89  92
ATOM     92  N   UNL A   1      34.071  28.135  25.517  1.00  0.00    -0.324 N 
ATOM     93  H   UNL A   1      34.759  28.208  24.818  1.00  0.00     0.170 HD
BRANCH  92  94
ATOM     94  C   UNL A   1      34.020  29.185  26.436  1.00  0.00     0.041 A 
ATOM     95  C   UNL A   1      35.145  29.450  27.222  1.00  0.00     0.028 A 
ATOM     96  C   UNL A   1      32.939  30.064  26.494  1.00  0.00     0.028 A 
ATOM     97  C   UNL A   1      35.211  30.606  28.000  1.00  0.00     0.028 A 
ATOM     98  C   UNL A   1      32.984  31.200  27.305  1.00  0.00     0.028 A 
ATOM     99  C   UNL A   1      34.141  31.505  28.026  1.00  0.00     0.044 A 
BRANCH  99 100
ATOM    100  N   UNL A   1      34.284  32.768  28.669  1.00  0.00    -0.308 N 
ATOM    101  C   UNL A   1      33.702  33.918  27.954  1.00  0.00     0.154 C 
ATOM    102  C   UNL A   1      34.560  32.867  30.032  1.00  0.00     0.253 C 
ATOM    103  C   UNL A   1      34.213  35.245  28.495  1.00  0.00     0.183 C 
ATOM    104  C   UNL A   1      34.538  34.298  30.605  1.00  0.00     0.260 C 
ATOM    105  O   UNL A   1      34.925  31.936  30.755  1.00  0.00    -0.272 OA
ATOM    106  O   UNL A   1      33.916  35.348  29.887  1.00  0.00    -0.370 OA
ENDBRANCH  99 100
ENDBRANCH  92  94
ENDBRANCH  89  92
ENDBRANCH  83  85
ENDBRANCH  79  83
ENDBRANCH  75  77
ENDBRANCH  74  75
ENDBRANCH  73  74
ENDBRANCH  72  73
ENDBRANCH  71  72
ENDBRANCH   1  71
TORSDOF 25
ENDMDL
