MODEL 1
REMARK VINA RESULT:      -8.7      0.000      0.000
REMARK SMILES O=C(Cc1cccn(C(F)F)c1=O)OCCOCCOCCOC(=O)c1ccc(-c2c3nc(c(-c4ccc(S(=O)(=O)[O-])cc4)c4ccc([nH]4)c(-c4ccc(S(=O)(=O)[O-])cc4)c4nc(c(-c5ccc(S(=O)(=O)[O-])cc5)c5ccc2[nH]5)C=C4)C=C3)cc1
REMARK SMILES IDX 19 1 18 2 17 3 16 4 15 5 14 6 2 7 1 8 3 9 4 10 5 11 12 12
REMARK SMILES IDX 6 13 8 14 13 15 7 16 9 17 10 18 11 19 20 20 21 21 22 22
REMARK SMILES IDX 23 23 24 24 25 25 26 26 27 27 85 28 28 29 84 30 29 31 30 32
REMARK SMILES IDX 31 33 78 34 32 35 83 36 77 37 79 38 33 39 82 40 76 41 75 42
REMARK SMILES IDX 34 44 64 45 45 46 63 47 46 48 49 49 62 50 80 51 47 52 48 53
REMARK SMILES IDX 61 55 81 56 50 57 35 58 36 59 44 60 37 61 43 62 38 63 39 64
REMARK SMILES IDX 40 65 41 66 42 67 65 68 66 69 74 70 67 71 73 72 68 73 69 74
REMARK SMILES IDX 70 75 71 76 72 77 51 78 52 79 60 80 53 81 59 82 54 83 55 84
REMARK SMILES IDX 56 85 57 86 58 87
REMARK H PARENT 79 43 49 54
REMARK Flexibility Score: inf
ROOT
ATOM      1  C   UNL A   1      33.256  22.367  24.582  1.00  0.00     0.188 C 
ENDROOT
BRANCH   1   2
ATOM      2  C   UNL A   1      32.799  22.742  23.163  1.00  0.00     0.188 C 
BRANCH   2   3
ATOM      3  O   UNL A   1      31.719  23.655  23.128  1.00  0.00    -0.376 OA
BRANCH   3   4
ATOM      4  C   UNL A   1      32.020  24.962  22.686  1.00  0.00     0.202 C 
BRANCH   4   5
ATOM      5  C   UNL A   1      33.510  25.158  22.442  1.00  0.00     0.261 C 
BRANCH   5   6
ATOM      6  O   UNL A   1      33.968  26.525  22.312  1.00  0.00    -0.463 OA
BRANCH   6   7
ATOM      7  C   UNL A   1      33.860  27.600  23.118  1.00  0.00     0.310 C 
ATOM      8  O   UNL A   1      34.205  28.699  22.677  1.00  0.00    -0.252 OA
BRANCH   7   9
ATOM      9  C   UNL A   1      33.517  27.467  24.598  1.00  0.00     0.164 C 
BRANCH   9  10
ATOM     10  C   UNL A   1      33.474  28.685  25.456  1.00  0.00     0.029 A 
ATOM     11  C   UNL A   1      34.430  28.975  26.358  1.00  0.00     0.011 A 
ATOM     12  C   UNL A   1      32.294  29.592  25.337  1.00  0.00     0.258 A 
ATOM     13  C   UNL A   1      34.313  30.122  27.219  1.00  0.00     0.019 A 
ATOM     14  N   UNL A   1      32.164  30.540  26.331  1.00  0.00    -0.258 N 
ATOM     15  O   UNL A   1      31.456  29.408  24.460  1.00  0.00    -0.269 OA
ATOM     16  C   UNL A   1      33.186  30.842  27.210  1.00  0.00     0.095 A 
BRANCH  14  17
ATOM     17  C   UNL A   1      30.926  31.267  26.362  1.00  0.00     0.451 C 
ATOM     18  F   UNL A   1      30.985  32.243  27.311  1.00  0.00    -0.185 F 
ATOM     19  F   UNL A   1      30.720  31.892  25.177  1.00  0.00    -0.185 F 
ENDBRANCH  14  17
ENDBRANCH   9  10
ENDBRANCH   7   9
ENDBRANCH   6   7
ENDBRANCH   5   6
ENDBRANCH   4   5
ENDBRANCH   3   4
ENDBRANCH   2   3
ENDBRANCH   1   2
BRANCH   1  20
ATOM     20  O   UNL A   1      33.271  23.341  25.617  1.00  0.00    -0.376 OA
BRANCH  20  21
ATOM     21  C   UNL A   1      34.435  23.509  26.412  1.00  0.00     0.202 C 
BRANCH  21  22
ATOM     22  C   UNL A   1      35.770  22.976  25.870  1.00  0.00     0.261 C 
BRANCH  22  23
ATOM     23  O   UNL A   1      36.847  23.932  25.811  1.00  0.00    -0.460 OA
BRANCH  23  24
ATOM     24  C   UNL A   1      38.090  23.454  26.077  1.00  0.00     0.338 C 
ATOM     25  O   UNL A   1      38.570  22.407  25.670  1.00  0.00    -0.246 OA
BRANCH  24  26
ATOM     26  C   UNL A   1      38.890  24.474  26.803  1.00  0.00     0.060 A 
ATOM     27  C   UNL A   1      39.843  25.257  26.149  1.00  0.00     0.016 A 
ATOM     28  C   UNL A   1      38.655  24.665  28.174  1.00  0.00     0.016 A 
ATOM     29  C   UNL A   1      40.515  26.263  26.858  1.00  0.00     0.010 A 
ATOM     30  C   UNL A   1      39.336  25.663  28.884  1.00  0.00     0.010 A 
ATOM     31  C   UNL A   1      40.248  26.498  28.224  1.00  0.00    -0.014 A 
BRANCH  31  32
ATOM     32  C   UNL A   1      40.731  27.758  28.860  1.00  0.00     0.031 A 
ATOM     33  C   UNL A   1      42.149  27.973  29.299  1.00  0.00     0.074 A 
ATOM     34  C   UNL A   1      39.832  28.747  29.039  1.00  0.00     0.049 A 
ATOM     35  N   UNL A   1      42.724  29.089  29.676  1.00  0.00    -0.248 NA
ATOM     36  C   UNL A   1      43.032  26.801  29.333  1.00  0.00     0.031 C 
ATOM     37  C   UNL A   1      38.407  28.638  28.723  1.00  0.00     0.029 A 
ATOM     38  N   UNL A   1      39.977  30.033  29.497  1.00  0.00    -0.354 N 
ATOM     39  C   UNL A   1      44.047  28.768  29.954  1.00  0.00     0.074 A 
ATOM     40  C   UNL A   1      44.170  27.335  29.765  1.00  0.00     0.031 C 
ATOM     41  C   UNL A   1      37.820  29.822  28.940  1.00  0.00     0.029 A 
ATOM     42  C   UNL A   1      38.816  30.769  29.435  1.00  0.00     0.049 A 
ATOM     43  H   UNL A   1      40.828  30.393  29.836  1.00  0.00     0.167 HD
ATOM     44  C   UNL A   1      45.062  29.595  30.310  1.00  0.00     0.031 A 
ATOM     45  C   UNL A   1      38.571  32.065  29.714  1.00  0.00     0.031 A 
ATOM     46  C   UNL A   1      44.915  31.014  30.546  1.00  0.00     0.049 A 
ATOM     47  C   UNL A   1      39.704  32.961  30.119  1.00  0.00     0.074 A 
ATOM     48  C   UNL A   1      45.900  31.938  30.860  1.00  0.00     0.029 A 
ATOM     49  N   UNL A   1      43.717  31.715  30.517  1.00  0.00    -0.354 N 
ATOM     50  N   UNL A   1      40.975  32.668  30.251  1.00  0.00    -0.248 NA
ATOM     51  C   UNL A   1      39.378  34.368  30.389  1.00  0.00     0.031 C 
ATOM     52  C   UNL A   1      45.289  33.172  31.099  1.00  0.00     0.029 A 
ATOM     53  C   UNL A   1      43.932  33.046  30.849  1.00  0.00     0.049 A 
ATOM     54  H   UNL A   1      42.842  31.325  30.293  1.00  0.00     0.167 HD
ATOM     55  C   UNL A   1      41.602  33.853  30.620  1.00  0.00     0.074 A 
ATOM     56  C   UNL A   1      40.576  34.876  30.649  1.00  0.00     0.031 C 
ATOM     57  C   UNL A   1      42.910  34.064  30.916  1.00  0.00     0.031 A 
BRANCH  44  58
ATOM     58  C   UNL A   1      46.452  29.009  30.433  1.00  0.00    -0.014 A 
ATOM     59  C   UNL A   1      47.270  28.857  29.297  1.00  0.00     0.010 A 
ATOM     60  C   UNL A   1      46.892  28.479  31.660  1.00  0.00     0.010 A 
ATOM     61  C   UNL A   1      48.485  28.167  29.379  1.00  0.00     0.020 A 
ATOM     62  C   UNL A   1      48.120  27.816  31.753  1.00  0.00     0.020 A 
ATOM     63  C   UNL A   1      48.900  27.646  30.608  1.00  0.00     0.054 A 
BRANCH  63  64
ATOM     64  S   UNL A   1      50.469  26.739  30.697  1.00  0.00     0.124 S 
ATOM     65  O   UNL A   1      50.839  26.898  32.100  1.00  0.00    -0.237 OA
ATOM     66  O   UNL A   1      50.081  25.391  30.292  1.00  0.00    -0.237 OA
ATOM     67  O   UNL A   1      51.323  27.444  29.743  1.00  0.00    -0.744 OA
ENDBRANCH  63  64
ENDBRANCH  44  58
BRANCH  45  68
ATOM     68  C   UNL A   1      37.185  32.579  29.529  1.00  0.00    -0.014 A 
ATOM     69  C   UNL A   1      36.737  32.964  28.251  1.00  0.00     0.010 A 
ATOM     70  C   UNL A   1      36.361  32.819  30.643  1.00  0.00     0.010 A 
ATOM     71  C   UNL A   1      35.532  33.655  28.101  1.00  0.00     0.020 A 
ATOM     72  C   UNL A   1      35.137  33.477  30.491  1.00  0.00     0.020 A 
ATOM     73  C   UNL A   1      34.751  33.926  29.225  1.00  0.00     0.054 A 
BRANCH  73  74
ATOM     74  S   UNL A   1      33.248  34.920  29.019  1.00  0.00     0.124 S 
ATOM     75  O   UNL A   1      32.581  34.226  27.921  1.00  0.00    -0.237 OA
ATOM     76  O   UNL A   1      32.606  34.799  30.325  1.00  0.00    -0.237 OA
ATOM     77  O   UNL A   1      33.759  36.251  28.697  1.00  0.00    -0.744 OA
ENDBRANCH  73  74
ENDBRANCH  45  68
BRANCH  57  78
ATOM     78  C   UNL A   1      43.321  35.454  31.349  1.00  0.00    -0.014 A 
ATOM     79  C   UNL A   1      43.791  36.383  30.401  1.00  0.00     0.010 A 
ATOM     80  C   UNL A   1      43.334  35.810  32.710  1.00  0.00     0.010 A 
ATOM     81  C   UNL A   1      44.294  37.624  30.808  1.00  0.00     0.020 A 
ATOM     82  C   UNL A   1      43.800  37.064  33.117  1.00  0.00     0.020 A 
ATOM     83  C   UNL A   1      44.301  37.955  32.165  1.00  0.00     0.054 A 
BRANCH  83  84
ATOM     84  S   UNL A   1      44.971  39.562  32.672  1.00  0.00     0.124 S 
ATOM     85  O   UNL A   1      44.858  39.499  34.126  1.00  0.00    -0.237 OA
ATOM     86  O   UNL A   1      46.333  39.523  32.145  1.00  0.00    -0.237 OA
ATOM     87  O   UNL A   1      44.085  40.525  32.019  1.00  0.00    -0.744 OA
ENDBRANCH  83  84
ENDBRANCH  57  78
ENDBRANCH  31  32
ENDBRANCH  24  26
ENDBRANCH  23  24
ENDBRANCH  22  23
ENDBRANCH  21  22
ENDBRANCH  20  21
ENDBRANCH   1  20
TORSDOF 22
ENDMDL
MODEL 2
REMARK VINA RESULT:      -8.7      3.047      8.912
REMARK SMILES O=C(Cc1cccn(C(F)F)c1=O)OCCOCCOCCOC(=O)c1ccc(-c2c3nc(c(-c4ccc(S(=O)(=O)[O-])cc4)c4ccc([nH]4)c(-c4ccc(S(=O)(=O)[O-])cc4)c4nc(c(-c5ccc(S(=O)(=O)[O-])cc5)c5ccc2[nH]5)C=C4)C=C3)cc1
REMARK SMILES IDX 19 1 18 2 17 3 16 4 15 5 14 6 2 7 1 8 3 9 4 10 5 11 12 12
REMARK SMILES IDX 6 13 8 14 13 15 7 16 9 17 10 18 11 19 20 20 21 21 22 22
REMARK SMILES IDX 23 23 24 24 25 25 26 26 27 27 85 28 28 29 84 30 29 31 30 32
REMARK SMILES IDX 31 33 78 34 32 35 83 36 77 37 79 38 33 39 82 40 76 41 75 42
REMARK SMILES IDX 34 44 64 45 45 46 63 47 46 48 49 49 62 50 80 51 47 52 48 53
REMARK SMILES IDX 61 55 81 56 50 57 35 58 36 59 44 60 37 61 43 62 38 63 39 64
REMARK SMILES IDX 40 65 41 66 42 67 65 68 66 69 74 70 67 71 73 72 68 73 69 74
REMARK SMILES IDX 70 75 71 76 72 77 51 78 52 79 60 80 53 81 59 82 54 83 55 84
REMARK SMILES IDX 56 85 57 86 58 87
REMARK H PARENT 79 43 49 54
REMARK Flexibility Score: inf
ROOT
ATOM      1  C   UNL A   1      32.977  36.240  29.227  1.00  0.00     0.188 C 
ENDROOT
BRANCH   1   2
ATOM      2  C   UNL A   1      33.076  34.792  28.723  1.00  0.00     0.188 C 
BRANCH   2   3
ATOM      3  O   UNL A   1      34.383  34.400  28.349  1.00  0.00    -0.376 OA
BRANCH   3   4
ATOM      4  C   UNL A   1      34.517  33.100  27.815  1.00  0.00     0.202 C 
BRANCH   4   5
ATOM      5  C   UNL A   1      33.175  32.394  27.679  1.00  0.00     0.261 C 
BRANCH   5   6
ATOM      6  O   UNL A   1      33.219  30.966  27.448  1.00  0.00    -0.463 OA
BRANCH   6   7
ATOM      7  C   UNL A   1      32.376  30.120  26.821  1.00  0.00     0.310 C 
ATOM      8  O   UNL A   1      31.726  29.327  27.506  1.00  0.00    -0.252 OA
BRANCH   7   9
ATOM      9  C   UNL A   1      32.354  29.982  25.303  1.00  0.00     0.164 C 
BRANCH   9  10
ATOM     10  C   UNL A   1      31.257  29.213  24.649  1.00  0.00     0.029 A 
ATOM     11  C   UNL A   1      31.303  27.879  24.479  1.00  0.00     0.011 A 
ATOM     12  C   UNL A   1      30.082  29.969  24.121  1.00  0.00     0.258 A 
ATOM     13  C   UNL A   1      30.256  27.184  23.777  1.00  0.00     0.019 A 
ATOM     14  N   UNL A   1      29.237  29.260  23.291  1.00  0.00    -0.258 N 
ATOM     15  O   UNL A   1      29.965  31.170  24.344  1.00  0.00    -0.269 OA
ATOM     16  C   UNL A   1      29.286  27.884  23.178  1.00  0.00     0.095 A 
BRANCH  14  17
ATOM     17  C   UNL A   1      28.237  30.021  22.597  1.00  0.00     0.451 C 
ATOM     18  F   UNL A   1      28.351  29.822  21.254  1.00  0.00    -0.185 F 
ATOM     19  F   UNL A   1      26.998  29.596  22.946  1.00  0.00    -0.185 F 
ENDBRANCH  14  17
ENDBRANCH   9  10
ENDBRANCH   7   9
ENDBRANCH   6   7
ENDBRANCH   5   6
ENDBRANCH   4   5
ENDBRANCH   3   4
ENDBRANCH   2   3
ENDBRANCH   1   2
BRANCH   1  20
ATOM     20  O   UNL A   1      32.318  36.535  30.453  1.00  0.00    -0.376 OA
BRANCH  20  21
ATOM     21  C   UNL A   1      33.080  36.747  31.631  1.00  0.00     0.202 C 
BRANCH  21  22
ATOM     22  C   UNL A   1      33.430  35.530  32.500  1.00  0.00     0.261 C 
BRANCH  22  23
ATOM     23  O   UNL A   1      34.365  34.598  31.922  1.00  0.00    -0.460 OA
BRANCH  23  24
ATOM     24  C   UNL A   1      34.406  33.361  32.483  1.00  0.00     0.338 C 
ATOM     25  O   UNL A   1      33.512  32.817  33.112  1.00  0.00    -0.246 OA
BRANCH  24  26
ATOM     26  C   UNL A   1      35.648  32.652  32.076  1.00  0.00     0.060 A 
ATOM     27  C   UNL A   1      36.144  32.736  30.775  1.00  0.00     0.016 A 
ATOM     28  C   UNL A   1      36.342  31.904  33.040  1.00  0.00     0.016 A 
ATOM     29  C   UNL A   1      37.363  32.117  30.459  1.00  0.00     0.010 A 
ATOM     30  C   UNL A   1      37.554  31.277  32.720  1.00  0.00     0.010 A 
ATOM     31  C   UNL A   1      38.096  31.408  31.434  1.00  0.00    -0.014 A 
BRANCH  31  32
ATOM     32  C   UNL A   1      39.515  31.039  31.161  1.00  0.00     0.031 A 
ATOM     33  C   UNL A   1      39.931  29.727  30.566  1.00  0.00     0.074 A 
ATOM     34  C   UNL A   1      40.462  31.949  31.468  1.00  0.00     0.049 A 
ATOM     35  N   UNL A   1      41.106  29.379  30.101  1.00  0.00    -0.248 NA
ATOM     36  C   UNL A   1      38.917  28.669  30.488  1.00  0.00     0.031 C 
ATOM     37  C   UNL A   1      40.197  33.233  32.118  1.00  0.00     0.029 A 
ATOM     38  N   UNL A   1      41.819  31.954  31.255  1.00  0.00    -0.354 N 
ATOM     39  C   UNL A   1      40.969  28.076  29.637  1.00  0.00     0.074 A 
ATOM     40  C   UNL A   1      39.608  27.675  29.939  1.00  0.00     0.031 C 
ATOM     41  C   UNL A   1      41.340  33.926  32.199  1.00  0.00     0.029 A 
ATOM     42  C   UNL A   1      42.426  33.129  31.632  1.00  0.00     0.049 A 
ATOM     43  H   UNL A   1      42.308  31.192  30.870  1.00  0.00     0.167 HD
ATOM     44  C   UNL A   1      41.885  27.304  29.001  1.00  0.00     0.031 A 
ATOM     45  C   UNL A   1      43.703  33.545  31.516  1.00  0.00     0.031 A 
ATOM     46  C   UNL A   1      43.254  27.697  28.752  1.00  0.00     0.049 A 
ATOM     47  C   UNL A   1      44.706  32.671  30.822  1.00  0.00     0.074 A 
ATOM     48  C   UNL A   1      44.237  26.997  28.070  1.00  0.00     0.029 A 
ATOM     49  N   UNL A   1      43.845  28.875  29.188  1.00  0.00    -0.354 N 
ATOM     50  N   UNL A   1      44.526  31.494  30.273  1.00  0.00    -0.248 NA
ATOM     51  C   UNL A   1      46.076  33.188  30.708  1.00  0.00     0.031 C 
ATOM     52  C   UNL A   1      45.435  27.712  28.163  1.00  0.00     0.029 A 
ATOM     53  C   UNL A   1      45.186  28.902  28.827  1.00  0.00     0.049 A 
ATOM     54  H   UNL A   1      43.381  29.590  29.681  1.00  0.00     0.167 HD
ATOM     55  C   UNL A   1      45.760  31.128  29.747  1.00  0.00     0.074 A 
ATOM     56  C   UNL A   1      46.667  32.228  30.008  1.00  0.00     0.031 C 
ATOM     57  C   UNL A   1      46.106  29.978  29.115  1.00  0.00     0.031 A 
BRANCH  44  58
ATOM     58  C   UNL A   1      41.443  25.954  28.480  1.00  0.00    -0.014 A 
ATOM     59  C   UNL A   1      42.002  24.768  28.992  1.00  0.00     0.010 A 
ATOM     60  C   UNL A   1      40.570  25.870  27.377  1.00  0.00     0.010 A 
ATOM     61  C   UNL A   1      41.718  23.531  28.401  1.00  0.00     0.020 A 
ATOM     62  C   UNL A   1      40.260  24.633  26.804  1.00  0.00     0.020 A 
ATOM     63  C   UNL A   1      40.852  23.473  27.305  1.00  0.00     0.054 A 
BRANCH  63  64
ATOM     64  S   UNL A   1      40.506  21.865  26.538  1.00  0.00     0.124 S 
ATOM     65  O   UNL A   1      41.587  21.748  25.564  1.00  0.00    -0.237 OA
ATOM     66  O   UNL A   1      40.574  20.950  27.674  1.00  0.00    -0.237 OA
ATOM     67  O   UNL A   1      39.170  22.041  25.970  1.00  0.00    -0.744 OA
ENDBRANCH  63  64
ENDBRANCH  44  58
BRANCH  45  68
ATOM     68  C   UNL A   1      44.054  34.905  32.017  1.00  0.00    -0.014 A 
ATOM     69  C   UNL A   1      44.300  35.112  33.387  1.00  0.00     0.010 A 
ATOM     70  C   UNL A   1      44.004  36.014  31.155  1.00  0.00     0.010 A 
ATOM     71  C   UNL A   1      44.404  36.407  33.900  1.00  0.00     0.020 A 
ATOM     72  C   UNL A   1      44.144  37.311  31.660  1.00  0.00     0.020 A 
ATOM     73  C   UNL A   1      44.303  37.498  33.035  1.00  0.00     0.054 A 
BRANCH  73  74
ATOM     74  S   UNL A   1      44.329  39.170  33.740  1.00  0.00     0.124 S 
ATOM     75  O   UNL A   1      42.918  39.540  33.679  1.00  0.00    -0.237 OA
ATOM     76  O   UNL A   1      44.864  38.940  35.080  1.00  0.00    -0.237 OA
ATOM     77  O   UNL A   1      45.209  39.909  32.837  1.00  0.00    -0.744 OA
ENDBRANCH  73  74
ENDBRANCH  45  68
BRANCH  57  78
ATOM     78  C   UNL A   1      47.547  29.810  28.690  1.00  0.00    -0.014 A 
ATOM     79  C   UNL A   1      47.953  30.177  27.393  1.00  0.00     0.010 A 
ATOM     80  C   UNL A   1      48.483  29.197  29.544  1.00  0.00     0.010 A 
ATOM     81  C   UNL A   1      49.253  29.907  26.949  1.00  0.00     0.020 A 
ATOM     82  C   UNL A   1      49.794  28.960  29.117  1.00  0.00     0.020 A 
ATOM     83  C   UNL A   1      50.164  29.294  27.812  1.00  0.00     0.054 A 
BRANCH  83  84
ATOM     84  S   UNL A   1      51.838  28.939  27.212  1.00  0.00     0.124 S 
ATOM     85  O   UNL A   1      51.750  27.522  26.872  1.00  0.00    -0.237 OA
ATOM     86  O   UNL A   1      51.973  29.851  26.079  1.00  0.00    -0.237 OA
ATOM     87  O   UNL A   1      52.688  29.254  28.359  1.00  0.00    -0.744 OA
ENDBRANCH  83  84
ENDBRANCH  57  78
ENDBRANCH  31  32
ENDBRANCH  24  26
ENDBRANCH  23  24
ENDBRANCH  22  23
ENDBRANCH  21  22
ENDBRANCH  20  21
ENDBRANCH   1  20
TORSDOF 22
ENDMDL
MODEL 3
REMARK VINA RESULT:      -8.4      4.792      9.965
REMARK SMILES O=C(Cc1cccn(C(F)F)c1=O)OCCOCCOCCOC(=O)c1ccc(-c2c3nc(c(-c4ccc(S(=O)(=O)[O-])cc4)c4ccc([nH]4)c(-c4ccc(S(=O)(=O)[O-])cc4)c4nc(c(-c5ccc(S(=O)(=O)[O-])cc5)c5ccc2[nH]5)C=C4)C=C3)cc1
REMARK SMILES IDX 19 1 18 2 17 3 16 4 15 5 14 6 2 7 1 8 3 9 4 10 5 11 12 12
REMARK SMILES IDX 6 13 8 14 13 15 7 16 9 17 10 18 11 19 20 20 21 21 22 22
REMARK SMILES IDX 23 23 24 24 25 25 26 26 27 27 85 28 28 29 84 30 29 31 30 32
REMARK SMILES IDX 31 33 78 34 32 35 83 36 77 37 79 38 33 39 82 40 76 41 75 42
REMARK SMILES IDX 34 44 64 45 45 46 63 47 46 48 49 49 62 50 80 51 47 52 48 53
REMARK SMILES IDX 61 55 81 56 50 57 35 58 36 59 44 60 37 61 43 62 38 63 39 64
REMARK SMILES IDX 40 65 41 66 42 67 65 68 66 69 74 70 67 71 73 72 68 73 69 74
REMARK SMILES IDX 70 75 71 76 72 77 51 78 52 79 60 80 53 81 59 82 54 83 55 84
REMARK SMILES IDX 56 85 57 86 58 87
REMARK H PARENT 79 43 49 54
REMARK Flexibility Score: inf
ROOT
ATOM      1  C   UNL A   1      33.345  28.826  26.100  1.00  0.00     0.188 C 
ENDROOT
BRANCH   1   2
ATOM      2  C   UNL A   1      31.908  28.450  25.708  1.00  0.00     0.188 C 
BRANCH   2   3
ATOM      3  O   UNL A   1      31.707  28.317  24.314  1.00  0.00    -0.376 OA
BRANCH   3   4
ATOM      4  C   UNL A   1      30.427  27.883  23.906  1.00  0.00     0.202 C 
BRANCH   4   5
ATOM      5  C   UNL A   1      30.462  26.494  23.285  1.00  0.00     0.261 C 
BRANCH   5   6
ATOM      6  O   UNL A   1      31.461  25.582  23.801  1.00  0.00    -0.463 OA
BRANCH   6   7
ATOM      7  C   UNL A   1      31.542  24.878  24.948  1.00  0.00     0.310 C 
ATOM      8  O   UNL A   1      30.524  24.322  25.367  1.00  0.00    -0.252 OA
BRANCH   7   9
ATOM      9  C   UNL A   1      32.785  24.914  25.830  1.00  0.00     0.164 C 
BRANCH   9  10
ATOM     10  C   UNL A   1      33.664  23.713  25.915  1.00  0.00     0.029 A 
ATOM     11  C   UNL A   1      33.440  22.707  26.781  1.00  0.00     0.011 A 
ATOM     12  C   UNL A   1      34.866  23.653  25.032  1.00  0.00     0.258 A 
ATOM     13  C   UNL A   1      34.354  21.600  26.882  1.00  0.00     0.019 A 
ATOM     14  N   UNL A   1      35.786  22.671  25.338  1.00  0.00    -0.258 N 
ATOM     15  O   UNL A   1      35.045  24.506  24.168  1.00  0.00    -0.269 OA
ATOM     16  C   UNL A   1      35.503  21.628  26.198  1.00  0.00     0.095 A 
BRANCH  14  17
ATOM     17  C   UNL A   1      37.045  22.739  24.651  1.00  0.00     0.451 C 
ATOM     18  F   UNL A   1      38.009  22.120  25.387  1.00  0.00    -0.185 F 
ATOM     19  F   UNL A   1      36.973  22.075  23.472  1.00  0.00    -0.185 F 
ENDBRANCH  14  17
ENDBRANCH   9  10
ENDBRANCH   7   9
ENDBRANCH   6   7
ENDBRANCH   5   6
ENDBRANCH   4   5
ENDBRANCH   3   4
ENDBRANCH   2   3
ENDBRANCH   1   2
BRANCH   1  20
ATOM     20  O   UNL A   1      33.588  29.775  27.131  1.00  0.00    -0.376 OA
BRANCH  20  21
ATOM     21  C   UNL A   1      32.868  30.997  27.150  1.00  0.00     0.202 C 
BRANCH  21  22
ATOM     22  C   UNL A   1      33.562  32.241  27.726  1.00  0.00     0.261 C 
BRANCH  22  23
ATOM     23  O   UNL A   1      32.698  33.193  28.377  1.00  0.00    -0.460 OA
BRANCH  23  24
ATOM     24  C   UNL A   1      33.266  34.374  28.735  1.00  0.00     0.338 C 
ATOM     25  O   UNL A   1      32.815  35.491  28.530  1.00  0.00    -0.246 OA
BRANCH  24  26
ATOM     26  C   UNL A   1      34.458  34.135  29.590  1.00  0.00     0.060 A 
ATOM     27  C   UNL A   1      34.342  33.592  30.870  1.00  0.00     0.016 A 
ATOM     28  C   UNL A   1      35.728  34.441  29.076  1.00  0.00     0.016 A 
ATOM     29  C   UNL A   1      35.501  33.308  31.608  1.00  0.00     0.010 A 
ATOM     30  C   UNL A   1      36.885  34.167  29.819  1.00  0.00     0.010 A 
ATOM     31  C   UNL A   1      36.784  33.563  31.079  1.00  0.00    -0.014 A 
BRANCH  31  32
ATOM     32  C   UNL A   1      37.981  32.966  31.740  1.00  0.00     0.031 A 
ATOM     33  C   UNL A   1      38.516  33.429  33.062  1.00  0.00     0.074 A 
ATOM     34  C   UNL A   1      38.601  31.953  31.100  1.00  0.00     0.049 A 
ATOM     35  N   UNL A   1      39.419  32.859  33.821  1.00  0.00    -0.248 NA
ATOM     36  C   UNL A   1      37.987  34.688  33.601  1.00  0.00     0.031 C 
ATOM     37  C   UNL A   1      38.226  31.457  29.775  1.00  0.00     0.029 A 
ATOM     38  N   UNL A   1      39.646  31.147  31.478  1.00  0.00    -0.354 N 
ATOM     39  C   UNL A   1      39.543  33.662  34.947  1.00  0.00     0.074 A 
ATOM     40  C   UNL A   1      38.666  34.799  34.738  1.00  0.00     0.031 C 
ATOM     41  C   UNL A   1      38.987  30.397  29.475  1.00  0.00     0.029 A 
ATOM     42  C   UNL A   1      39.923  30.151  30.571  1.00  0.00     0.049 A 
ATOM     43  H   UNL A   1      40.148  31.269  32.316  1.00  0.00     0.167 HD
ATOM     44  C   UNL A   1      40.298  33.457  36.055  1.00  0.00     0.031 A 
ATOM     45  C   UNL A   1      40.805  29.132  30.612  1.00  0.00     0.031 A 
ATOM     46  C   UNL A   1      41.208  32.346  36.229  1.00  0.00     0.049 A 
ATOM     47  C   UNL A   1      41.642  28.928  31.841  1.00  0.00     0.074 A 
ATOM     48  C   UNL A   1      41.975  32.031  37.340  1.00  0.00     0.029 A 
ATOM     49  N   UNL A   1      41.494  31.383  35.271  1.00  0.00    -0.354 N 
ATOM     50  N   UNL A   1      41.651  29.624  32.952  1.00  0.00    -0.248 NA
ATOM     51  C   UNL A   1      42.568  27.788  31.835  1.00  0.00     0.031 C 
ATOM     52  C   UNL A   1      42.780  30.932  37.025  1.00  0.00     0.029 A 
ATOM     53  C   UNL A   1      42.455  30.502  35.750  1.00  0.00     0.049 A 
ATOM     54  H   UNL A   1      41.076  31.331  34.382  1.00  0.00     0.167 HD
ATOM     55  C   UNL A   1      42.584  29.008  33.778  1.00  0.00     0.074 A 
ATOM     56  C   UNL A   1      43.087  27.858  33.054  1.00  0.00     0.031 C 
ATOM     57  C   UNL A   1      42.989  29.374  35.021  1.00  0.00     0.031 A 
BRANCH  44  58
ATOM     58  C   UNL A   1      40.157  34.427  37.207  1.00  0.00    -0.014 A 
ATOM     59  C   UNL A   1      39.184  34.223  38.204  1.00  0.00     0.010 A 
ATOM     60  C   UNL A   1      40.901  35.623  37.222  1.00  0.00     0.010 A 
ATOM     61  C   UNL A   1      38.940  35.200  39.176  1.00  0.00     0.020 A 
ATOM     62  C   UNL A   1      40.683  36.588  38.211  1.00  0.00     0.020 A 
ATOM     63  C   UNL A   1      39.689  36.381  39.169  1.00  0.00     0.054 A 
BRANCH  63  64
ATOM     64  S   UNL A   1      39.352  37.647  40.424  1.00  0.00     0.124 S 
ATOM     65  O   UNL A   1      38.167  38.308  39.886  1.00  0.00    -0.237 OA
ATOM     66  O   UNL A   1      39.142  36.851  41.630  1.00  0.00    -0.237 OA
ATOM     67  O   UNL A   1      40.571  38.455  40.427  1.00  0.00    -0.744 OA
ENDBRANCH  63  64
ENDBRANCH  44  58
BRANCH  45  68
ATOM     68  C   UNL A   1      40.857  28.192  29.457  1.00  0.00    -0.014 A 
ATOM     69  C   UNL A   1      40.007  27.070  29.419  1.00  0.00     0.010 A 
ATOM     70  C   UNL A   1      41.846  28.335  28.468  1.00  0.00     0.010 A 
ATOM     71  C   UNL A   1      40.201  26.067  28.466  1.00  0.00     0.020 A 
ATOM     72  C   UNL A   1      42.018  27.350  27.491  1.00  0.00     0.020 A 
ATOM     73  C   UNL A   1      41.220  26.204  27.522  1.00  0.00     0.054 A 
BRANCH  73  74
ATOM     74  S   UNL A   1      41.523  24.838  26.367  1.00  0.00     0.124 S 
ATOM     75  O   UNL A   1      41.673  25.548  25.100  1.00  0.00    -0.237 OA
ATOM     76  O   UNL A   1      42.742  24.236  26.902  1.00  0.00    -0.237 OA
ATOM     77  O   UNL A   1      40.320  24.017  26.484  1.00  0.00    -0.744 OA
ENDBRANCH  73  74
ENDBRANCH  45  68
BRANCH  57  78
ATOM     78  C   UNL A   1      44.073  28.553  35.682  1.00  0.00    -0.014 A 
ATOM     79  C   UNL A   1      43.734  27.488  36.539  1.00  0.00     0.010 A 
ATOM     80  C   UNL A   1      45.429  28.895  35.532  1.00  0.00     0.010 A 
ATOM     81  C   UNL A   1      44.724  26.805  37.254  1.00  0.00     0.020 A 
ATOM     82  C   UNL A   1      46.426  28.190  36.216  1.00  0.00     0.020 A 
ATOM     83  C   UNL A   1      46.064  27.165  37.093  1.00  0.00     0.054 A 
BRANCH  83  84
ATOM     84  S   UNL A   1      47.331  26.278  38.041  1.00  0.00     0.124 S 
ATOM     85  O   UNL A   1      48.022  27.366  38.726  1.00  0.00    -0.237 OA
ATOM     86  O   UNL A   1      46.535  25.401  38.897  1.00  0.00    -0.237 OA
ATOM     87  O   UNL A   1      48.112  25.592  37.013  1.00  0.00    -0.744 OA
ENDBRANCH  83  84
ENDBRANCH  57  78
ENDBRANCH  31  32
ENDBRANCH  24  26
ENDBRANCH  23  24
ENDBRANCH  22  23
ENDBRANCH  21  22
ENDBRANCH  20  21
ENDBRANCH   1  20
TORSDOF 22
ENDMDL
