MODEL 1
REMARK VINA RESULT:      -9.0      0.000      0.000
REMARK SMILES C[C@H](CNS(=O)(=O)c1ccc(C(=O)OCCOCCOCCOC(=O)c2ccc(-c3c4nc(c(-c5ccc(S(=O)(=O)[O-])cc5)c5ccc([nH]5)c(-c5ccc(S(=O)(=O)[O-])cc5)c5nc(c(-c6ccc(S(=O)(=O)[O-])cc6)c6ccc3[nH]6)C=C5)C=C4)cc2)cc1F)[NH+](C)C
REMARK SMILES IDX 18 1 17 2 16 3 15 4 14 5 12 6 13 7 11 8 8 9 9 10 87 11 10 12
REMARK SMILES IDX 86 13 88 14 5 15 6 16 7 17 4 18 3 20 2 21 1 22 89 23 90 24
REMARK SMILES IDX 91 25 19 27 20 28 21 29 22 30 23 31 24 32 25 33 26 34 27 35
REMARK SMILES IDX 85 36 28 37 84 38 29 39 30 40 31 41 78 42 32 43 83 44 77 45
REMARK SMILES IDX 79 46 33 47 82 48 76 49 75 50 34 52 64 53 45 54 63 55 46 56
REMARK SMILES IDX 49 57 62 58 80 59 47 60 48 61 61 63 81 64 50 65 35 66 36 67
REMARK SMILES IDX 44 68 37 69 43 70 38 71 39 72 40 73 41 74 42 75 65 76 66 77
REMARK SMILES IDX 74 78 67 79 73 80 68 81 69 82 70 83 71 84 72 85 51 86 52 87
REMARK SMILES IDX 60 88 53 89 59 90 54 91 55 92 56 93 57 94 58 95
REMARK H PARENT 4 19 89 26 79 51 49 62
REMARK Flexibility Score: inf
ROOT
ATOM      1  C   UNL A   1      33.664  28.798  23.359  1.00  0.00     0.188 C 
ENDROOT
BRANCH   1   2
ATOM      2  O   UNL A   1      32.616  28.098  22.721  1.00  0.00    -0.376 OA
BRANCH   2   3
ATOM      3  C   UNL A   1      31.278  28.560  22.795  1.00  0.00     0.202 C 
BRANCH   3   4
ATOM      4  C   UNL A   1      30.050  27.638  22.877  1.00  0.00     0.261 C 
BRANCH   4   5
ATOM      5  O   UNL A   1      30.270  26.362  23.481  1.00  0.00    -0.460 OA
BRANCH   5   6
ATOM      6  C   UNL A   1      30.746  26.393  24.751  1.00  0.00     0.338 C 
ATOM      7  O   UNL A   1      30.404  27.144  25.648  1.00  0.00    -0.246 OA
BRANCH   6   8
ATOM      8  C   UNL A   1      31.642  25.239  24.966  1.00  0.00     0.063 A 
ATOM      9  C   UNL A   1      33.369  23.089  25.294  1.00  0.00     0.118 A 
ATOM     10  C   UNL A   1      33.734  24.130  24.438  1.00  0.00     0.026 A 
ATOM     11  C   UNL A   1      32.202  23.171  26.051  1.00  0.00     0.144 A 
ATOM     12  C   UNL A   1      32.864  25.207  24.274  1.00  0.00     0.017 A 
ATOM     13  C   UNL A   1      31.322  24.229  25.875  1.00  0.00     0.056 A 
ATOM     14  F   UNL A   1      31.861  22.209  26.917  1.00  0.00    -0.205 F 
BRANCH   9  15
ATOM     15  S   UNL A   1      34.314  21.606  25.349  1.00  0.00     0.243 S 
ATOM     16  O   UNL A   1      33.595  20.532  24.719  1.00  0.00    -0.207 OA
ATOM     17  O   UNL A   1      34.845  21.461  26.693  1.00  0.00    -0.207 OA
BRANCH  15  18
ATOM     18  N   UNL A   1      35.659  22.008  24.392  1.00  0.00    -0.205 NA
ATOM     19  H   UNL A   1      36.041  21.140  24.016  1.00  0.00     0.141 HD
BRANCH  18  20
ATOM     20  C   UNL A   1      36.760  22.728  25.064  1.00  0.00     0.163 C 
BRANCH  20  21
ATOM     21  C   UNL A   1      37.872  21.825  25.671  1.00  0.00     0.195 C 
ATOM     22  C   UNL A   1      38.024  20.451  25.007  1.00  0.00     0.076 C 
BRANCH  21  23
ATOM     23  N   UNL A   1      39.135  22.597  25.802  1.00  0.00    -0.337 N 
ATOM     24  C   UNL A   1      38.960  23.859  26.517  1.00  0.00     0.332 C 
ATOM     25  C   UNL A   1      40.243  21.836  26.386  1.00  0.00     0.332 C 
ATOM     26  H   UNL A   1      39.393  22.808  24.838  1.00  0.00     0.347 HD
ENDBRANCH  21  23
ENDBRANCH  20  21
ENDBRANCH  18  20
ENDBRANCH  15  18
ENDBRANCH   9  15
ENDBRANCH   6   8
ENDBRANCH   5   6
ENDBRANCH   4   5
ENDBRANCH   3   4
ENDBRANCH   2   3
ENDBRANCH   1   2
BRANCH   1  27
ATOM     27  C   UNL A   1      33.854  28.667  24.884  1.00  0.00     0.188 C 
BRANCH  27  28
ATOM     28  O   UNL A   1      33.313  29.655  25.726  1.00  0.00    -0.376 OA
BRANCH  28  29
ATOM     29  C   UNL A   1      33.988  30.019  26.919  1.00  0.00     0.202 C 
BRANCH  29  30
ATOM     30  C   UNL A   1      35.210  29.298  27.524  1.00  0.00     0.261 C 
BRANCH  30  31
ATOM     31  O   UNL A   1      36.265  30.091  28.070  1.00  0.00    -0.460 OA
BRANCH  31  32
ATOM     32  C   UNL A   1      36.839  29.594  29.195  1.00  0.00     0.338 C 
ATOM     33  O   UNL A   1      36.316  29.441  30.285  1.00  0.00    -0.246 OA
BRANCH  32  34
ATOM     34  C   UNL A   1      38.178  29.082  28.853  1.00  0.00     0.060 A 
ATOM     35  C   UNL A   1      38.915  28.385  29.823  1.00  0.00     0.016 A 
ATOM     36  C   UNL A   1      38.714  29.329  27.591  1.00  0.00     0.016 A 
ATOM     37  C   UNL A   1      40.207  27.945  29.535  1.00  0.00     0.010 A 
ATOM     38  C   UNL A   1      40.017  28.913  27.315  1.00  0.00     0.010 A 
ATOM     39  C   UNL A   1      40.779  28.247  28.293  1.00  0.00    -0.014 A 
BRANCH  39  40
ATOM     40  C   UNL A   1      42.234  28.080  28.067  1.00  0.00     0.031 A 
ATOM     41  C   UNL A   1      43.121  29.271  28.306  1.00  0.00     0.074 A 
ATOM     42  C   UNL A   1      42.751  26.924  27.614  1.00  0.00     0.049 A 
ATOM     43  N   UNL A   1      44.381  29.440  28.009  1.00  0.00    -0.248 NA
ATOM     44  C   UNL A   1      42.491  30.433  28.957  1.00  0.00     0.031 C 
ATOM     45  C   UNL A   1      42.007  25.684  27.406  1.00  0.00     0.029 A 
ATOM     46  N   UNL A   1      44.032  26.621  27.221  1.00  0.00    -0.354 N 
ATOM     47  C   UNL A   1      44.689  30.734  28.408  1.00  0.00     0.074 A 
ATOM     48  C   UNL A   1      43.481  31.312  28.954  1.00  0.00     0.031 C 
ATOM     49  C   UNL A   1      42.840  24.758  26.897  1.00  0.00     0.029 A 
ATOM     50  C   UNL A   1      44.160  25.356  26.697  1.00  0.00     0.049 A 
ATOM     51  H   UNL A   1      44.785  27.250  27.306  1.00  0.00     0.167 HD
ATOM     52  C   UNL A   1      45.873  31.386  28.324  1.00  0.00     0.031 A 
ATOM     53  C   UNL A   1      45.211  24.766  26.090  1.00  0.00     0.031 A 
ATOM     54  C   UNL A   1      47.064  30.807  27.763  1.00  0.00     0.049 A 
ATOM     55  C   UNL A   1      46.497  25.539  25.925  1.00  0.00     0.074 A 
ATOM     56  C   UNL A   1      48.317  31.378  27.635  1.00  0.00     0.029 A 
ATOM     57  N   UNL A   1      47.148  29.528  27.234  1.00  0.00    -0.354 N 
ATOM     58  N   UNL A   1      46.780  26.762  26.308  1.00  0.00    -0.248 NA
ATOM     59  C   UNL A   1      47.609  24.852  25.249  1.00  0.00     0.031 C 
ATOM     60  C   UNL A   1      49.143  30.468  26.971  1.00  0.00     0.029 A 
ATOM     61  C   UNL A   1      48.426  29.300  26.758  1.00  0.00     0.049 A 
ATOM     62  H   UNL A   1      46.408  28.880  27.202  1.00  0.00     0.167 HD
ATOM     63  C   UNL A   1      48.113  26.972  25.964  1.00  0.00     0.074 A 
ATOM     64  C   UNL A   1      48.579  25.753  25.335  1.00  0.00     0.031 C 
ATOM     65  C   UNL A   1      48.883  28.070  26.160  1.00  0.00     0.031 A 
BRANCH  52  66
ATOM     66  C   UNL A   1      45.923  32.812  28.802  1.00  0.00    -0.014 A 
ATOM     67  C   UNL A   1      45.607  33.884  27.948  1.00  0.00     0.010 A 
ATOM     68  C   UNL A   1      46.257  33.081  30.143  1.00  0.00     0.010 A 
ATOM     69  C   UNL A   1      45.662  35.199  28.415  1.00  0.00     0.020 A 
ATOM     70  C   UNL A   1      46.282  34.393  30.622  1.00  0.00     0.020 A 
ATOM     71  C   UNL A   1      46.001  35.445  29.749  1.00  0.00     0.054 A 
BRANCH  71  72
ATOM     72  S   UNL A   1      46.039  37.162  30.333  1.00  0.00     0.124 S 
ATOM     73  O   UNL A   1      47.437  37.313  30.732  1.00  0.00    -0.237 OA
ATOM     74  O   UNL A   1      45.640  37.913  29.145  1.00  0.00    -0.237 OA
ATOM     75  O   UNL A   1      45.075  37.177  31.431  1.00  0.00    -0.744 OA
ENDBRANCH  71  72
ENDBRANCH  52  66
BRANCH  53  76
ATOM     76  C   UNL A   1      45.087  23.377  25.565  1.00  0.00    -0.014 A 
ATOM     77  C   UNL A   1      45.686  22.301  26.243  1.00  0.00     0.010 A 
ATOM     78  C   UNL A   1      44.374  23.122  24.380  1.00  0.00     0.010 A 
ATOM     79  C   UNL A   1      45.588  21.000  25.737  1.00  0.00     0.020 A 
ATOM     80  C   UNL A   1      44.247  21.820  23.887  1.00  0.00     0.020 A 
ATOM     81  C   UNL A   1      44.866  20.768  24.564  1.00  0.00     0.054 A 
BRANCH  81  82
ATOM     82  S   UNL A   1      44.715  19.065  23.954  1.00  0.00     0.124 S 
ATOM     83  O   UNL A   1      43.559  18.577  24.702  1.00  0.00    -0.237 OA
ATOM     84  O   UNL A   1      44.506  19.262  22.522  1.00  0.00    -0.237 OA
ATOM     85  O   UNL A   1      45.994  18.457  24.314  1.00  0.00    -0.744 OA
ENDBRANCH  81  82
ENDBRANCH  53  76
BRANCH  65  86
ATOM     86  C   UNL A   1      50.339  27.999  25.776  1.00  0.00    -0.014 A 
ATOM     87  C   UNL A   1      51.317  27.515  26.661  1.00  0.00     0.010 A 
ATOM     88  C   UNL A   1      50.708  28.313  24.453  1.00  0.00     0.010 A 
ATOM     89  C   UNL A   1      52.637  27.349  26.230  1.00  0.00     0.020 A 
ATOM     90  C   UNL A   1      52.018  28.121  24.010  1.00  0.00     0.020 A 
ATOM     91  C   UNL A   1      52.977  27.643  24.904  1.00  0.00     0.054 A 
BRANCH  91  92
ATOM     92  S   UNL A   1      54.674  27.328  24.346  1.00  0.00     0.124 S 
ATOM     93  O   UNL A   1      55.105  26.274  25.260  1.00  0.00    -0.237 OA
ATOM     94  O   UNL A   1      54.482  26.918  22.957  1.00  0.00    -0.237 OA
ATOM     95  O   UNL A   1      55.343  28.616  24.522  1.00  0.00    -0.744 OA
ENDBRANCH  91  92
ENDBRANCH  65  86
ENDBRANCH  39  40
ENDBRANCH  32  34
ENDBRANCH  31  32
ENDBRANCH  30  31
ENDBRANCH  29  30
ENDBRANCH  28  29
ENDBRANCH  27  28
ENDBRANCH   1  27
TORSDOF 25
ENDMDL
MODEL 2
REMARK VINA RESULT:      -9.0      6.515     12.106
REMARK SMILES C[C@H](CNS(=O)(=O)c1ccc(C(=O)OCCOCCOCCOC(=O)c2ccc(-c3c4nc(c(-c5ccc(S(=O)(=O)[O-])cc5)c5ccc([nH]5)c(-c5ccc(S(=O)(=O)[O-])cc5)c5nc(c(-c6ccc(S(=O)(=O)[O-])cc6)c6ccc3[nH]6)C=C5)C=C4)cc2)cc1F)[NH+](C)C
REMARK SMILES IDX 18 1 17 2 16 3 15 4 14 5 12 6 13 7 11 8 8 9 9 10 87 11 10 12
REMARK SMILES IDX 86 13 88 14 5 15 6 16 7 17 4 18 3 20 2 21 1 22 89 23 90 24
REMARK SMILES IDX 91 25 19 27 20 28 21 29 22 30 23 31 24 32 25 33 26 34 27 35
REMARK SMILES IDX 85 36 28 37 84 38 29 39 30 40 31 41 78 42 32 43 83 44 77 45
REMARK SMILES IDX 79 46 33 47 82 48 76 49 75 50 34 52 64 53 45 54 63 55 46 56
REMARK SMILES IDX 49 57 62 58 80 59 47 60 48 61 61 63 81 64 50 65 35 66 36 67
REMARK SMILES IDX 44 68 37 69 43 70 38 71 39 72 40 73 41 74 42 75 65 76 66 77
REMARK SMILES IDX 74 78 67 79 73 80 68 81 69 82 70 83 71 84 72 85 51 86 52 87
REMARK SMILES IDX 60 88 53 89 59 90 54 91 55 92 56 93 57 94 58 95
REMARK H PARENT 4 19 89 26 79 51 49 62
REMARK Flexibility Score: inf
ROOT
ATOM      1  C   UNL A   1      38.379  22.547  26.031  1.00  0.00     0.188 C 
ENDROOT
BRANCH   1   2
ATOM      2  O   UNL A   1      38.229  21.158  25.827  1.00  0.00    -0.376 OA
BRANCH   2   3
ATOM      3  C   UNL A   1      37.405  20.657  24.787  1.00  0.00     0.202 C 
BRANCH   3   4
ATOM      4  C   UNL A   1      35.903  20.373  24.939  1.00  0.00     0.261 C 
BRANCH   4   5
ATOM      5  O   UNL A   1      35.027  21.430  24.540  1.00  0.00    -0.460 OA
BRANCH   5   6
ATOM      6  C   UNL A   1      33.714  21.097  24.456  1.00  0.00     0.338 C 
ATOM      7  O   UNL A   1      33.244  19.983  24.311  1.00  0.00    -0.246 OA
BRANCH   6   8
ATOM      8  C   UNL A   1      32.889  22.287  24.751  1.00  0.00     0.063 A 
ATOM      9  C   UNL A   1      31.368  24.522  25.387  1.00  0.00     0.118 A 
ATOM     10  C   UNL A   1      32.471  24.200  26.182  1.00  0.00     0.026 A 
ATOM     11  C   UNL A   1      31.092  23.792  24.233  1.00  0.00     0.144 A 
ATOM     12  C   UNL A   1      33.231  23.076  25.861  1.00  0.00     0.017 A 
ATOM     13  C   UNL A   1      31.830  22.660  23.921  1.00  0.00     0.056 A 
ATOM     14  F   UNL A   1      30.072  24.117  23.428  1.00  0.00    -0.205 F 
BRANCH   9  15
ATOM     15  S   UNL A   1      30.246  25.780  25.887  1.00  0.00     0.243 S 
ATOM     16  O   UNL A   1      29.123  25.202  26.577  1.00  0.00    -0.207 OA
ATOM     17  O   UNL A   1      30.048  26.678  24.764  1.00  0.00    -0.207 OA
BRANCH  15  18
ATOM     18  N   UNL A   1      31.179  26.668  26.994  1.00  0.00    -0.205 NA
ATOM     19  H   UNL A   1      30.563  26.958  27.754  1.00  0.00     0.141 HD
BRANCH  18  20
ATOM     20  C   UNL A   1      31.851  27.877  26.476  1.00  0.00     0.163 C 
BRANCH  20  21
ATOM     21  C   UNL A   1      33.402  27.882  26.607  1.00  0.00     0.195 C 
ATOM     22  C   UNL A   1      34.164  27.810  25.278  1.00  0.00     0.076 C 
BRANCH  21  23
ATOM     23  N   UNL A   1      33.829  28.980  27.512  1.00  0.00    -0.337 N 
ATOM     24  C   UNL A   1      35.257  29.277  27.413  1.00  0.00     0.332 C 
ATOM     25  C   UNL A   1      33.048  30.211  27.370  1.00  0.00     0.332 C 
ATOM     26  H   UNL A   1      33.642  28.614  28.446  1.00  0.00     0.347 HD
ENDBRANCH  21  23
ENDBRANCH  20  21
ENDBRANCH  18  20
ENDBRANCH  15  18
ENDBRANCH   9  15
ENDBRANCH   6   8
ENDBRANCH   5   6
ENDBRANCH   4   5
ENDBRANCH   3   4
ENDBRANCH   2   3
ENDBRANCH   1   2
BRANCH   1  27
ATOM     27  C   UNL A   1      39.626  23.083  26.763  1.00  0.00     0.188 C 
BRANCH  27  28
ATOM     28  O   UNL A   1      40.617  22.174  27.177  1.00  0.00    -0.376 OA
BRANCH  28  29
ATOM     29  C   UNL A   1      41.986  22.541  27.119  1.00  0.00     0.202 C 
BRANCH  29  30
ATOM     30  C   UNL A   1      42.677  23.282  25.956  1.00  0.00     0.261 C 
BRANCH  30  31
ATOM     31  O   UNL A   1      43.167  24.603  26.189  1.00  0.00    -0.460 OA
BRANCH  31  32
ATOM     32  C   UNL A   1      42.249  25.594  26.048  1.00  0.00     0.338 C 
ATOM     33  O   UNL A   1      41.471  25.752  25.124  1.00  0.00    -0.246 OA
BRANCH  32  34
ATOM     34  C   UNL A   1      42.203  26.373  27.298  1.00  0.00     0.060 A 
ATOM     35  C   UNL A   1      41.279  26.018  28.294  1.00  0.00     0.016 A 
ATOM     36  C   UNL A   1      43.043  27.472  27.463  1.00  0.00     0.016 A 
ATOM     37  C   UNL A   1      41.181  26.781  29.458  1.00  0.00     0.010 A 
ATOM     38  C   UNL A   1      42.923  28.249  28.616  1.00  0.00     0.010 A 
ATOM     39  C   UNL A   1      41.973  27.926  29.603  1.00  0.00    -0.014 A 
BRANCH  39  40
ATOM     40  C   UNL A   1      41.680  28.922  30.659  1.00  0.00     0.031 A 
ATOM     41  C   UNL A   1      42.501  28.870  31.918  1.00  0.00     0.074 A 
ATOM     42  C   UNL A   1      40.683  29.815  30.532  1.00  0.00     0.049 A 
ATOM     43  N   UNL A   1      42.325  29.497  33.050  1.00  0.00    -0.248 NA
ATOM     44  C   UNL A   1      43.671  27.974  31.898  1.00  0.00     0.031 C 
ATOM     45  C   UNL A   1      39.861  30.007  29.339  1.00  0.00     0.029 A 
ATOM     46  N   UNL A   1      40.177  30.714  31.439  1.00  0.00    -0.354 N 
ATOM     47  C   UNL A   1      43.342  29.053  33.886  1.00  0.00     0.074 A 
ATOM     48  C   UNL A   1      44.121  28.091  33.138  1.00  0.00     0.031 C 
ATOM     49  C   UNL A   1      38.934  30.947  29.597  1.00  0.00     0.029 A 
ATOM     50  C   UNL A   1      39.066  31.385  30.986  1.00  0.00     0.049 A 
ATOM     51  H   UNL A   1      40.573  30.862  32.328  1.00  0.00     0.167 HD
ATOM     52  C   UNL A   1      43.601  29.411  35.166  1.00  0.00     0.031 A 
ATOM     53  C   UNL A   1      38.229  32.223  31.633  1.00  0.00     0.031 A 
ATOM     54  C   UNL A   1      42.809  30.356  35.906  1.00  0.00     0.049 A 
ATOM     55  C   UNL A   1      38.483  32.543  33.086  1.00  0.00     0.074 A 
ATOM     56  C   UNL A   1      42.989  30.793  37.206  1.00  0.00     0.029 A 
ATOM     57  N   UNL A   1      41.687  31.004  35.414  1.00  0.00    -0.354 N 
ATOM     58  N   UNL A   1      39.449  32.120  33.868  1.00  0.00    -0.248 NA
ATOM     59  C   UNL A   1      37.537  33.457  33.746  1.00  0.00     0.031 C 
ATOM     60  C   UNL A   1      41.938  31.658  37.521  1.00  0.00     0.029 A 
ATOM     61  C   UNL A   1      41.150  31.821  36.392  1.00  0.00     0.049 A 
ATOM     62  H   UNL A   1      41.325  30.897  34.505  1.00  0.00     0.167 HD
ATOM     63  C   UNL A   1      39.254  32.753  35.093  1.00  0.00     0.074 A 
ATOM     64  C   UNL A   1      38.075  33.581  34.952  1.00  0.00     0.031 C 
ATOM     65  C   UNL A   1      39.991  32.663  36.227  1.00  0.00     0.031 A 
BRANCH  52  66
ATOM     66  C   UNL A   1      44.757  28.741  35.859  1.00  0.00    -0.014 A 
ATOM     67  C   UNL A   1      46.050  29.295  35.831  1.00  0.00     0.010 A 
ATOM     68  C   UNL A   1      44.537  27.554  36.582  1.00  0.00     0.010 A 
ATOM     69  C   UNL A   1      47.107  28.653  36.480  1.00  0.00     0.020 A 
ATOM     70  C   UNL A   1      45.585  26.927  37.259  1.00  0.00     0.020 A 
ATOM     71  C   UNL A   1      46.869  27.472  37.190  1.00  0.00     0.054 A 
BRANCH  71  72
ATOM     72  S   UNL A   1      48.256  26.676  38.044  1.00  0.00     0.124 S 
ATOM     73  O   UNL A   1      49.068  26.205  36.925  1.00  0.00    -0.237 OA
ATOM     74  O   UNL A   1      48.829  27.775  38.816  1.00  0.00    -0.237 OA
ATOM     75  O   UNL A   1      47.620  25.626  38.835  1.00  0.00    -0.744 OA
ENDBRANCH  71  72
ENDBRANCH  52  66
BRANCH  53  76
ATOM     76  C   UNL A   1      37.055  32.802  30.922  1.00  0.00    -0.014 A 
ATOM     77  C   UNL A   1      35.789  32.198  31.023  1.00  0.00     0.010 A 
ATOM     78  C   UNL A   1      37.195  33.959  30.134  1.00  0.00     0.010 A 
ATOM     79  C   UNL A   1      34.692  32.729  30.337  1.00  0.00     0.020 A 
ATOM     80  C   UNL A   1      36.095  34.512  29.471  1.00  0.00     0.020 A 
ATOM     81  C   UNL A   1      34.852  33.885  29.568  1.00  0.00     0.054 A 
BRANCH  81  82
ATOM     82  S   UNL A   1      33.402  34.581  28.726  1.00  0.00     0.124 S 
ATOM     83  O   UNL A   1      32.587  35.033  29.849  1.00  0.00    -0.237 OA
ATOM     84  O   UNL A   1      33.993  35.636  27.906  1.00  0.00    -0.237 OA
ATOM     85  O   UNL A   1      32.863  33.447  27.978  1.00  0.00    -0.744 OA
ENDBRANCH  81  82
ENDBRANCH  53  76
BRANCH  65  86
ATOM     86  C   UNL A   1      39.614  33.538  37.395  1.00  0.00    -0.014 A 
ATOM     87  C   UNL A   1      38.931  33.029  38.513  1.00  0.00     0.010 A 
ATOM     88  C   UNL A   1      40.065  34.872  37.418  1.00  0.00     0.010 A 
ATOM     89  C   UNL A   1      38.706  33.840  39.630  1.00  0.00     0.020 A 
ATOM     90  C   UNL A   1      39.868  35.676  38.542  1.00  0.00     0.020 A 
ATOM     91  C   UNL A   1      39.185  35.155  39.642  1.00  0.00     0.054 A 
BRANCH  91  92
ATOM     92  S   UNL A   1      38.962  36.153  41.140  1.00  0.00     0.124 S 
ATOM     93  O   UNL A   1      39.011  37.512  40.611  1.00  0.00    -0.237 OA
ATOM     94  O   UNL A   1      37.656  35.713  41.626  1.00  0.00    -0.237 OA
ATOM     95  O   UNL A   1      40.094  35.771  41.984  1.00  0.00    -0.744 OA
ENDBRANCH  91  92
ENDBRANCH  65  86
ENDBRANCH  39  40
ENDBRANCH  32  34
ENDBRANCH  31  32
ENDBRANCH  30  31
ENDBRANCH  29  30
ENDBRANCH  28  29
ENDBRANCH  27  28
ENDBRANCH   1  27
TORSDOF 25
ENDMDL
MODEL 3
REMARK VINA RESULT:      -9.0      2.559      8.975
REMARK SMILES C[C@H](CNS(=O)(=O)c1ccc(C(=O)OCCOCCOCCOC(=O)c2ccc(-c3c4nc(c(-c5ccc(S(=O)(=O)[O-])cc5)c5ccc([nH]5)c(-c5ccc(S(=O)(=O)[O-])cc5)c5nc(c(-c6ccc(S(=O)(=O)[O-])cc6)c6ccc3[nH]6)C=C5)C=C4)cc2)cc1F)[NH+](C)C
REMARK SMILES IDX 18 1 17 2 16 3 15 4 14 5 12 6 13 7 11 8 8 9 9 10 87 11 10 12
REMARK SMILES IDX 86 13 88 14 5 15 6 16 7 17 4 18 3 20 2 21 1 22 89 23 90 24
REMARK SMILES IDX 91 25 19 27 20 28 21 29 22 30 23 31 24 32 25 33 26 34 27 35
REMARK SMILES IDX 85 36 28 37 84 38 29 39 30 40 31 41 78 42 32 43 83 44 77 45
REMARK SMILES IDX 79 46 33 47 82 48 76 49 75 50 34 52 64 53 45 54 63 55 46 56
REMARK SMILES IDX 49 57 62 58 80 59 47 60 48 61 61 63 81 64 50 65 35 66 36 67
REMARK SMILES IDX 44 68 37 69 43 70 38 71 39 72 40 73 41 74 42 75 65 76 66 77
REMARK SMILES IDX 74 78 67 79 73 80 68 81 69 82 70 83 71 84 72 85 51 86 52 87
REMARK SMILES IDX 60 88 53 89 59 90 54 91 55 92 56 93 57 94 58 95
REMARK H PARENT 4 19 89 26 79 51 49 62
REMARK Flexibility Score: inf
ROOT
ATOM      1  C   UNL A   1      36.679  23.624  25.357  1.00  0.00     0.188 C 
ENDROOT
BRANCH   1   2
ATOM      2  O   UNL A   1      35.294  23.765  25.587  1.00  0.00    -0.376 OA
BRANCH   2   3
ATOM      3  C   UNL A   1      34.478  22.636  25.851  1.00  0.00     0.202 C 
BRANCH   3   4
ATOM      4  C   UNL A   1      33.540  21.989  24.819  1.00  0.00     0.261 C 
BRANCH   4   5
ATOM      5  O   UNL A   1      33.512  22.607  23.531  1.00  0.00    -0.460 OA
BRANCH   5   6
ATOM      6  C   UNL A   1      32.287  22.693  22.954  1.00  0.00     0.338 C 
ATOM      7  O   UNL A   1      31.527  21.777  22.697  1.00  0.00    -0.246 OA
BRANCH   6   8
ATOM      8  C   UNL A   1      31.904  24.115  22.830  1.00  0.00     0.063 A 
ATOM      9  C   UNL A   1      31.270  26.808  22.588  1.00  0.00     0.118 A 
ATOM     10  C   UNL A   1      32.500  26.352  22.108  1.00  0.00     0.026 A 
ATOM     11  C   UNL A   1      30.332  25.910  23.091  1.00  0.00     0.144 A 
ATOM     12  C   UNL A   1      32.816  25.000  22.232  1.00  0.00     0.017 A 
ATOM     13  C   UNL A   1      30.649  24.567  23.240  1.00  0.00     0.056 A 
ATOM     14  F   UNL A   1      29.127  26.319  23.507  1.00  0.00    -0.205 F 
BRANCH   9  15
ATOM     15  S   UNL A   1      30.928  28.531  22.671  1.00  0.00     0.243 S 
ATOM     16  O   UNL A   1      29.731  28.838  21.934  1.00  0.00    -0.207 OA
ATOM     17  O   UNL A   1      32.164  29.248  22.416  1.00  0.00    -0.207 OA
BRANCH  15  18
ATOM     18  N   UNL A   1      30.629  28.754  24.328  1.00  0.00    -0.205 NA
ATOM     19  H   UNL A   1      29.840  29.393  24.417  1.00  0.00     0.141 HD
BRANCH  18  20
ATOM     20  C   UNL A   1      31.740  29.299  25.135  1.00  0.00     0.163 C 
BRANCH  20  21
ATOM     21  C   UNL A   1      32.288  28.350  26.239  1.00  0.00     0.195 C 
ATOM     22  C   UNL A   1      31.445  28.293  27.520  1.00  0.00     0.076 C 
BRANCH  21  23
ATOM     23  N   UNL A   1      32.617  27.025  25.651  1.00  0.00    -0.337 N 
ATOM     24  C   UNL A   1      34.025  26.900  25.284  1.00  0.00     0.332 C 
ATOM     25  C   UNL A   1      32.208  25.886  26.476  1.00  0.00     0.332 C 
ATOM     26  H   UNL A   1      32.058  26.992  24.798  1.00  0.00     0.347 HD
ENDBRANCH  21  23
ENDBRANCH  20  21
ENDBRANCH  18  20
ENDBRANCH  15  18
ENDBRANCH   9  15
ENDBRANCH   6   8
ENDBRANCH   5   6
ENDBRANCH   4   5
ENDBRANCH   3   4
ENDBRANCH   2   3
ENDBRANCH   1   2
BRANCH   1  27
ATOM     27  C   UNL A   1      37.177  22.697  24.230  1.00  0.00     0.188 C 
BRANCH  27  28
ATOM     28  O   UNL A   1      37.601  21.395  24.554  1.00  0.00    -0.376 OA
BRANCH  28  29
ATOM     29  C   UNL A   1      38.584  21.198  25.557  1.00  0.00     0.202 C 
BRANCH  29  30
ATOM     30  C   UNL A   1      39.415  19.916  25.773  1.00  0.00     0.261 C 
BRANCH  30  31
ATOM     31  O   UNL A   1      40.430  19.926  26.778  1.00  0.00    -0.460 OA
BRANCH  31  32
ATOM     32  C   UNL A   1      41.699  19.778  26.319  1.00  0.00     0.338 C 
ATOM     33  O   UNL A   1      42.168  18.813  25.743  1.00  0.00    -0.246 OA
BRANCH  32  34
ATOM     34  C   UNL A   1      42.402  21.066  26.460  1.00  0.00     0.060 A 
ATOM     35  C   UNL A   1      42.649  21.576  27.744  1.00  0.00     0.016 A 
ATOM     36  C   UNL A   1      42.774  21.782  25.324  1.00  0.00     0.016 A 
ATOM     37  C   UNL A   1      43.260  22.821  27.895  1.00  0.00     0.010 A 
ATOM     38  C   UNL A   1      43.360  23.039  25.477  1.00  0.00     0.010 A 
ATOM     39  C   UNL A   1      43.577  23.577  26.760  1.00  0.00    -0.014 A 
BRANCH  39  40
ATOM     40  C   UNL A   1      43.928  25.012  26.878  1.00  0.00     0.031 A 
ATOM     41  C   UNL A   1      45.359  25.405  26.631  1.00  0.00     0.074 A 
ATOM     42  C   UNL A   1      43.020  25.934  27.244  1.00  0.00     0.049 A 
ATOM     43  N   UNL A   1      45.954  26.547  26.848  1.00  0.00    -0.248 NA
ATOM     44  C   UNL A   1      46.236  24.360  26.076  1.00  0.00     0.031 C 
ATOM     45  C   UNL A   1      41.595  25.688  27.448  1.00  0.00     0.029 A 
ATOM     46  N   UNL A   1      43.180  27.266  27.535  1.00  0.00    -0.354 N 
ATOM     47  C   UNL A   1      47.281  26.351  26.485  1.00  0.00     0.074 A 
ATOM     48  C   UNL A   1      47.407  24.978  26.049  1.00  0.00     0.031 C 
ATOM     49  C   UNL A   1      41.012  26.830  27.858  1.00  0.00     0.029 A 
ATOM     50  C   UNL A   1      42.032  27.869  27.992  1.00  0.00     0.049 A 
ATOM     51  H   UNL A   1      44.034  27.744  27.426  1.00  0.00     0.167 HD
ATOM     52  C   UNL A   1      48.305  27.236  26.517  1.00  0.00     0.031 A 
ATOM     53  C   UNL A   1      41.838  29.104  28.500  1.00  0.00     0.031 A 
ATOM     54  C   UNL A   1      48.172  28.595  26.968  1.00  0.00     0.049 A 
ATOM     55  C   UNL A   1      43.011  30.049  28.610  1.00  0.00     0.074 A 
ATOM     56  C   UNL A   1      49.145  29.576  27.035  1.00  0.00     0.029 A 
ATOM     57  N   UNL A   1      46.995  29.162  27.434  1.00  0.00    -0.354 N 
ATOM     58  N   UNL A   1      44.261  29.857  28.262  1.00  0.00    -0.248 NA
ATOM     59  C   UNL A   1      42.747  31.381  29.177  1.00  0.00     0.031 C 
ATOM     60  C   UNL A   1      48.571  30.717  27.600  1.00  0.00     0.029 A 
ATOM     61  C   UNL A   1      47.223  30.473  27.811  1.00  0.00     0.049 A 
ATOM     62  H   UNL A   1      46.128  28.699  27.489  1.00  0.00     0.167 HD
ATOM     63  C   UNL A   1      44.920  31.056  28.523  1.00  0.00     0.074 A 
ATOM     64  C   UNL A   1      43.932  31.965  29.064  1.00  0.00     0.031 C 
ATOM     65  C   UNL A   1      46.222  31.376  28.322  1.00  0.00     0.031 A 
BRANCH  52  66
ATOM     66  C   UNL A   1      49.665  26.747  26.098  1.00  0.00    -0.014 A 
ATOM     67  C   UNL A   1      50.387  25.827  26.880  1.00  0.00     0.010 A 
ATOM     68  C   UNL A   1      50.217  27.190  24.881  1.00  0.00     0.010 A 
ATOM     69  C   UNL A   1      51.649  25.389  26.472  1.00  0.00     0.020 A 
ATOM     70  C   UNL A   1      51.463  26.729  24.454  1.00  0.00     0.020 A 
ATOM     71  C   UNL A   1      52.180  25.844  25.261  1.00  0.00     0.054 A 
BRANCH  71  72
ATOM     72  S   UNL A   1      53.809  25.239  24.745  1.00  0.00     0.124 S 
ATOM     73  O   UNL A   1      53.898  25.743  23.377  1.00  0.00    -0.237 OA
ATOM     74  O   UNL A   1      54.706  25.874  25.707  1.00  0.00    -0.237 OA
ATOM     75  O   UNL A   1      53.696  23.787  24.866  1.00  0.00    -0.744 OA
ENDBRANCH  71  72
ENDBRANCH  52  66
BRANCH  53  76
ATOM     76  C   UNL A   1      40.485  29.515  28.971  1.00  0.00    -0.014 A 
ATOM     77  C   UNL A   1      39.417  29.630  28.064  1.00  0.00     0.010 A 
ATOM     78  C   UNL A   1      40.258  29.800  30.330  1.00  0.00     0.010 A 
ATOM     79  C   UNL A   1      38.153  30.038  28.504  1.00  0.00     0.020 A 
ATOM     80  C   UNL A   1      38.989  30.178  30.779  1.00  0.00     0.020 A 
ATOM     81  C   UNL A   1      37.947  30.306  29.860  1.00  0.00     0.054 A 
BRANCH  81  82
ATOM     82  S   UNL A   1      36.286  30.788  30.412  1.00  0.00     0.124 S 
ATOM     83  O   UNL A   1      36.041  29.842  31.497  1.00  0.00    -0.237 OA
ATOM     84  O   UNL A   1      36.481  32.178  30.814  1.00  0.00    -0.237 OA
ATOM     85  O   UNL A   1      35.461  30.599  29.220  1.00  0.00    -0.744 OA
ENDBRANCH  81  82
ENDBRANCH  53  76
BRANCH  65  86
ATOM     86  C   UNL A   1      46.660  32.790  28.602  1.00  0.00    -0.014 A 
ATOM     87  C   UNL A   1      47.125  33.186  29.867  1.00  0.00     0.010 A 
ATOM     88  C   UNL A   1      46.720  33.707  27.533  1.00  0.00     0.010 A 
ATOM     89  C   UNL A   1      47.638  34.473  30.058  1.00  0.00     0.020 A 
ATOM     90  C   UNL A   1      47.259  34.982  27.713  1.00  0.00     0.020 A 
ATOM     91  C   UNL A   1      47.712  35.360  28.978  1.00  0.00     0.054 A 
BRANCH  91  92
ATOM     92  S   UNL A   1      48.469  36.987  29.232  1.00  0.00     0.124 S 
ATOM     93  O   UNL A   1      47.331  37.885  29.060  1.00  0.00    -0.237 OA
ATOM     94  O   UNL A   1      48.992  36.887  30.593  1.00  0.00    -0.237 OA
ATOM     95  O   UNL A   1      49.487  37.066  28.185  1.00  0.00    -0.744 OA
ENDBRANCH  91  92
ENDBRANCH  65  86
ENDBRANCH  39  40
ENDBRANCH  32  34
ENDBRANCH  31  32
ENDBRANCH  30  31
ENDBRANCH  29  30
ENDBRANCH  28  29
ENDBRANCH  27  28
ENDBRANCH   1  27
TORSDOF 25
ENDMDL
