MODEL 1
REMARK VINA RESULT:      -9.6      0.000      0.000
REMARK SMILES O=C(OCCOCCOCCOC(=O)[C@H]1C[C@H]2CCCC[C@@H]2[N@@H+]1CC[C@@H]1CCCO1)c1ccc(-c2c3nc(c(-c4ccc(S(=O)(=O)[O-])cc4)c4ccc([nH]4)c(-c4ccc(S(=O)(=O)[O-])cc4)c4nc(c(-c5ccc(S(=O)(=O)[O-])cc5)c5ccc2[nH]5)C=C4)C=C3)cc1
REMARK SMILES IDX 7 1 6 2 5 3 4 4 3 5 2 6 1 7 31 8 32 9 90 10 33 11 89 12
REMARK SMILES IDX 34 13 35 14 36 15 83 16 37 17 88 18 82 19 84 20 38 21 87 22
REMARK SMILES IDX 81 23 80 24 39 26 69 27 50 28 68 29 51 30 54 31 67 32 85 33
REMARK SMILES IDX 52 34 53 35 66 37 86 38 55 39 40 40 41 41 49 42 42 43 48 44
REMARK SMILES IDX 43 45 44 46 45 47 46 48 47 49 70 50 71 51 79 52 72 53 78 54
REMARK SMILES IDX 73 55 74 56 75 57 76 58 77 59 56 60 57 61 65 62 58 63 64 64
REMARK SMILES IDX 59 65 60 66 61 67 62 68 63 69 8 70 9 71 10 72 11 73 12 74
REMARK SMILES IDX 13 75 14 76 15 77 16 78 23 79 17 80 22 81 18 83 21 84 19 85
REMARK SMILES IDX 20 86 24 87 25 88 26 89 27 90 30 91 28 92 29 93
REMARK H PARENT 84 25 54 36 23 82
REMARK Flexibility Score: inf
ROOT
ATOM      1  C   UNL A   1      39.079  21.871  26.001  1.00  0.00     0.188 C 
ENDROOT
BRANCH   1   2
ATOM      2  O   UNL A   1      39.696  20.593  26.167  1.00  0.00    -0.376 OA
BRANCH   2   3
ATOM      3  C   UNL A   1      41.037  20.635  26.666  1.00  0.00     0.202 C 
BRANCH   3   4
ATOM      4  C   UNL A   1      41.913  19.403  26.369  1.00  0.00     0.261 C 
BRANCH   4   5
ATOM      5  O   UNL A   1      42.543  19.429  25.074  1.00  0.00    -0.460 OA
BRANCH   5   6
ATOM      6  C   UNL A   1      43.772  19.902  24.751  1.00  0.00     0.338 C 
ATOM      7  O   UNL A   1      44.543  19.169  24.123  1.00  0.00    -0.246 OA
BRANCH   6   8
ATOM      8  C   UNL A   1      44.253  21.266  25.119  1.00  0.00     0.060 A 
ATOM      9  C   UNL A   1      44.971  21.555  26.276  1.00  0.00     0.016 A 
ATOM     10  C   UNL A   1      44.019  22.316  24.216  1.00  0.00     0.016 A 
ATOM     11  C   UNL A   1      45.327  22.848  26.609  1.00  0.00     0.010 A 
ATOM     12  C   UNL A   1      44.437  23.621  24.508  1.00  0.00     0.010 A 
ATOM     13  C   UNL A   1      45.055  23.892  25.733  1.00  0.00    -0.014 A 
BRANCH  13  14
ATOM     14  C   UNL A   1      45.307  25.258  26.229  1.00  0.00     0.031 A 
ATOM     15  C   UNL A   1      46.667  25.849  26.008  1.00  0.00     0.074 A 
ATOM     16  C   UNL A   1      44.273  25.999  26.672  1.00  0.00     0.049 A 
ATOM     17  N   UNL A   1      47.109  27.035  26.319  1.00  0.00    -0.248 NA
ATOM     18  C   UNL A   1      47.659  24.996  25.327  1.00  0.00     0.031 C 
ATOM     19  C   UNL A   1      42.887  25.531  26.783  1.00  0.00     0.029 A 
ATOM     20  N   UNL A   1      44.211  27.309  27.061  1.00  0.00    -0.354 N 
ATOM     21  C   UNL A   1      48.430  27.066  25.888  1.00  0.00     0.074 A 
ATOM     22  C   UNL A   1      48.728  25.776  25.314  1.00  0.00     0.031 C 
ATOM     23  C   UNL A   1      42.109  26.549  27.182  1.00  0.00     0.029 A 
ATOM     24  C   UNL A   1      42.948  27.714  27.427  1.00  0.00     0.049 A 
ATOM     25  H   UNL A   1      44.994  27.903  27.079  1.00  0.00     0.167 HD
ATOM     26  C   UNL A   1      49.311  28.089  25.964  1.00  0.00     0.031 A 
ATOM     27  C   UNL A   1      42.533  28.887  27.939  1.00  0.00     0.031 A 
ATOM     28  C   UNL A   1      48.986  29.355  26.558  1.00  0.00     0.049 A 
ATOM     29  C   UNL A   1      43.566  29.967  28.131  1.00  0.00     0.074 A 
ATOM     30  C   UNL A   1      49.808  30.443  26.785  1.00  0.00     0.029 A 
ATOM     31  N   UNL A   1      47.721  29.703  27.015  1.00  0.00    -0.354 N 
ATOM     32  N   UNL A   1      44.837  29.957  27.797  1.00  0.00    -0.248 NA
ATOM     33  C   UNL A   1      43.119  31.207  28.772  1.00  0.00     0.031 C 
ATOM     34  C   UNL A   1      49.050  31.429  27.425  1.00  0.00     0.029 A 
ATOM     35  C   UNL A   1      47.741  30.982  27.535  1.00  0.00     0.049 A 
ATOM     36  H   UNL A   1      46.927  29.122  26.974  1.00  0.00     0.167 HD
ATOM     37  C   UNL A   1      45.337  31.197  28.172  1.00  0.00     0.074 A 
ATOM     38  C   UNL A   1      44.223  31.939  28.731  1.00  0.00     0.031 C 
ATOM     39  C   UNL A   1      46.601  31.682  28.077  1.00  0.00     0.031 A 
BRANCH  26  40
ATOM     40  C   UNL A   1      50.703  27.838  25.455  1.00  0.00    -0.014 A 
ATOM     41  C   UNL A   1      50.998  27.870  24.079  1.00  0.00     0.010 A 
ATOM     42  C   UNL A   1      51.734  27.549  26.368  1.00  0.00     0.010 A 
ATOM     43  C   UNL A   1      52.288  27.580  23.625  1.00  0.00     0.020 A 
ATOM     44  C   UNL A   1      53.031  27.284  25.919  1.00  0.00     0.020 A 
ATOM     45  C   UNL A   1      53.297  27.286  24.549  1.00  0.00     0.054 A 
BRANCH  45  46
ATOM     46  S   UNL A   1      54.964  26.931  23.928  1.00  0.00     0.124 S 
ATOM     47  O   UNL A   1      55.686  28.148  24.291  1.00  0.00    -0.237 OA
ATOM     48  O   UNL A   1      55.334  25.735  24.671  1.00  0.00    -0.237 OA
ATOM     49  O   UNL A   1      54.763  26.734  22.491  1.00  0.00    -0.744 OA
ENDBRANCH  45  46
ENDBRANCH  26  40
BRANCH  27  50
ATOM     50  C   UNL A   1      41.119  29.069  28.379  1.00  0.00    -0.014 A 
ATOM     51  C   UNL A   1      40.092  29.353  27.463  1.00  0.00     0.010 A 
ATOM     52  C   UNL A   1      40.796  28.984  29.748  1.00  0.00     0.010 A 
ATOM     53  C   UNL A   1      38.785  29.586  27.908  1.00  0.00     0.020 A 
ATOM     54  C   UNL A   1      39.487  29.179  30.195  1.00  0.00     0.020 A 
ATOM     55  C   UNL A   1      38.492  29.503  29.273  1.00  0.00     0.054 A 
BRANCH  55  56
ATOM     56  S   UNL A   1      36.794  29.812  29.830  1.00  0.00     0.124 S 
ATOM     57  O   UNL A   1      36.830  31.239  30.131  1.00  0.00    -0.237 OA
ATOM     58  O   UNL A   1      36.004  29.430  28.663  1.00  0.00    -0.237 OA
ATOM     59  O   UNL A   1      36.648  28.932  30.989  1.00  0.00    -0.744 OA
ENDBRANCH  55  56
ENDBRANCH  27  50
BRANCH  39  60
ATOM     60  C   UNL A   1      46.824  33.090  28.551  1.00  0.00    -0.014 A 
ATOM     61  C   UNL A   1      47.272  33.358  29.855  1.00  0.00     0.010 A 
ATOM     62  C   UNL A   1      46.624  34.156  27.654  1.00  0.00     0.010 A 
ATOM     63  C   UNL A   1      47.480  34.674  30.268  1.00  0.00     0.020 A 
ATOM     64  C   UNL A   1      46.864  35.470  28.053  1.00  0.00     0.020 A 
ATOM     65  C   UNL A   1      47.275  35.722  29.364  1.00  0.00     0.054 A 
BRANCH  65  66
ATOM     66  S   UNL A   1      47.589  37.420  29.912  1.00  0.00     0.124 S 
ATOM     67  O   UNL A   1      46.261  37.849  30.343  1.00  0.00    -0.237 OA
ATOM     68  O   UNL A   1      48.568  37.235  30.980  1.00  0.00    -0.237 OA
ATOM     69  O   UNL A   1      48.099  38.082  28.714  1.00  0.00    -0.744 OA
ENDBRANCH  65  66
ENDBRANCH  39  60
ENDBRANCH  13  14
ENDBRANCH   6   8
ENDBRANCH   5   6
ENDBRANCH   4   5
ENDBRANCH   3   4
ENDBRANCH   2   3
ENDBRANCH   1   2
BRANCH   1  70
ATOM     70  C   UNL A   1      37.578  21.795  25.722  1.00  0.00     0.188 C 
BRANCH  70  71
ATOM     71  O   UNL A   1      37.110  22.435  24.536  1.00  0.00    -0.376 OA
BRANCH  71  72
ATOM     72  C   UNL A   1      36.208  23.525  24.700  1.00  0.00     0.202 C 
BRANCH  72  73
ATOM     73  C   UNL A   1      34.884  23.515  23.916  1.00  0.00     0.261 C 
BRANCH  73  74
ATOM     74  O   UNL A   1      34.168  24.763  23.890  1.00  0.00    -0.459 OA
BRANCH  74  75
ATOM     75  C   UNL A   1      33.142  24.852  24.789  1.00  0.00     0.365 C 
ATOM     76  O   UNL A   1      33.164  24.315  25.895  1.00  0.00    -0.245 OA
BRANCH  75  77
ATOM     77  C   UNL A   1      31.962  25.718  24.257  1.00  0.00     0.295 C 
ATOM     78  C   UNL A   1      31.110  26.095  25.485  1.00  0.00     0.087 C 
ATOM     79  N   UNL A   1      32.484  27.010  23.714  1.00  0.00    -0.320 N 
ATOM     80  C   UNL A   1      31.441  27.563  25.744  1.00  0.00     0.054 C 
ATOM     81  C   UNL A   1      32.674  27.838  24.900  1.00  0.00     0.188 C 
ATOM     82  H   UNL A   1      33.367  26.887  23.217  1.00  0.00     0.349 HD
ATOM     83  C   UNL A   1      31.691  27.989  27.182  1.00  0.00     0.010 C 
ATOM     84  C   UNL A   1      32.972  29.322  24.803  1.00  0.00     0.065 C 
ATOM     85  C   UNL A   1      32.119  29.463  27.252  1.00  0.00     0.001 C 
ATOM     86  C   UNL A   1      33.168  29.898  26.213  1.00  0.00     0.006 C 
BRANCH  79  87
ATOM     87  C   UNL A   1      31.792  27.589  22.553  1.00  0.00     0.265 C 
BRANCH  87  88
ATOM     88  C   UNL A   1      30.329  28.108  22.541  1.00  0.00     0.093 C 
BRANCH  88  89
ATOM     89  C   UNL A   1      29.981  29.609  22.397  1.00  0.00     0.123 C 
ATOM     90  C   UNL A   1      29.389  30.369  23.574  1.00  0.00     0.034 C 
ATOM     91  O   UNL A   1      29.157  29.840  21.256  1.00  0.00    -0.378 OA
ATOM     92  C   UNL A   1      28.295  31.233  22.989  1.00  0.00     0.031 C 
ATOM     93  C   UNL A   1      28.106  30.744  21.576  1.00  0.00     0.160 C 
ENDBRANCH  88  89
ENDBRANCH  87  88
ENDBRANCH  79  87
ENDBRANCH  75  77
ENDBRANCH  74  75
ENDBRANCH  73  74
ENDBRANCH  72  73
ENDBRANCH  71  72
ENDBRANCH  70  71
ENDBRANCH   1  70
TORSDOF 23
ENDMDL
MODEL 2
REMARK VINA RESULT:      -9.0      1.569      3.300
REMARK SMILES O=C(OCCOCCOCCOC(=O)[C@H]1C[C@H]2CCCC[C@@H]2[N@@H+]1CC[C@@H]1CCCO1)c1ccc(-c2c3nc(c(-c4ccc(S(=O)(=O)[O-])cc4)c4ccc([nH]4)c(-c4ccc(S(=O)(=O)[O-])cc4)c4nc(c(-c5ccc(S(=O)(=O)[O-])cc5)c5ccc2[nH]5)C=C4)C=C3)cc1
REMARK SMILES IDX 7 1 6 2 5 3 4 4 3 5 2 6 1 7 31 8 32 9 90 10 33 11 89 12
REMARK SMILES IDX 34 13 35 14 36 15 83 16 37 17 88 18 82 19 84 20 38 21 87 22
REMARK SMILES IDX 81 23 80 24 39 26 69 27 50 28 68 29 51 30 54 31 67 32 85 33
REMARK SMILES IDX 52 34 53 35 66 37 86 38 55 39 40 40 41 41 49 42 42 43 48 44
REMARK SMILES IDX 43 45 44 46 45 47 46 48 47 49 70 50 71 51 79 52 72 53 78 54
REMARK SMILES IDX 73 55 74 56 75 57 76 58 77 59 56 60 57 61 65 62 58 63 64 64
REMARK SMILES IDX 59 65 60 66 61 67 62 68 63 69 8 70 9 71 10 72 11 73 12 74
REMARK SMILES IDX 13 75 14 76 15 77 16 78 23 79 17 80 22 81 18 83 21 84 19 85
REMARK SMILES IDX 20 86 24 87 25 88 26 89 27 90 30 91 28 92 29 93
REMARK H PARENT 84 25 54 36 23 82
REMARK Flexibility Score: inf
ROOT
ATOM      1  C   UNL A   1      39.294  23.117  26.730  1.00  0.00     0.188 C 
ENDROOT
BRANCH   1   2
ATOM      2  O   UNL A   1      39.697  21.873  26.154  1.00  0.00    -0.376 OA
BRANCH   2   3
ATOM      3  C   UNL A   1      40.523  21.062  26.997  1.00  0.00     0.202 C 
BRANCH   3   4
ATOM      4  C   UNL A   1      40.908  19.676  26.444  1.00  0.00     0.261 C 
BRANCH   4   5
ATOM      5  O   UNL A   1      41.785  19.722  25.303  1.00  0.00    -0.460 OA
BRANCH   5   6
ATOM      6  C   UNL A   1      43.109  20.019  25.277  1.00  0.00     0.338 C 
ATOM      7  O   UNL A   1      43.907  19.135  24.950  1.00  0.00    -0.246 OA
BRANCH   6   8
ATOM      8  C   UNL A   1      43.660  21.360  25.631  1.00  0.00     0.060 A 
ATOM      9  C   UNL A   1      44.252  21.663  26.853  1.00  0.00     0.016 A 
ATOM     10  C   UNL A   1      43.634  22.365  24.650  1.00  0.00     0.016 A 
ATOM     11  C   UNL A   1      44.679  22.942  27.159  1.00  0.00     0.010 A 
ATOM     12  C   UNL A   1      44.127  23.648  24.923  1.00  0.00     0.010 A 
ATOM     13  C   UNL A   1      44.611  23.946  26.200  1.00  0.00    -0.014 A 
BRANCH  13  14
ATOM     14  C   UNL A   1      44.920  25.316  26.650  1.00  0.00     0.031 A 
ATOM     15  C   UNL A   1      46.314  25.829  26.443  1.00  0.00     0.074 A 
ATOM     16  C   UNL A   1      43.915  26.125  27.037  1.00  0.00     0.049 A 
ATOM     17  N   UNL A   1      46.808  27.003  26.720  1.00  0.00    -0.248 NA
ATOM     18  C   UNL A   1      47.276  24.901  25.821  1.00  0.00     0.031 C 
ATOM     19  C   UNL A   1      42.505  25.731  27.130  1.00  0.00     0.029 A 
ATOM     20  N   UNL A   1      43.911  27.450  27.375  1.00  0.00    -0.354 N 
ATOM     21  C   UNL A   1      48.139  26.950  26.323  1.00  0.00     0.074 A 
ATOM     22  C   UNL A   1      48.385  25.625  25.807  1.00  0.00     0.031 C 
ATOM     23  C   UNL A   1      41.770  26.802  27.469  1.00  0.00     0.029 A 
ATOM     24  C   UNL A   1      42.662  27.932  27.692  1.00  0.00     0.049 A 
ATOM     25  H   UNL A   1      44.723  28.005  27.390  1.00  0.00     0.167 HD
ATOM     26  C   UNL A   1      49.069  27.930  26.383  1.00  0.00     0.031 A 
ATOM     27  C   UNL A   1      42.295  29.144  28.147  1.00  0.00     0.031 A 
ATOM     28  C   UNL A   1      48.795  29.233  26.919  1.00  0.00     0.049 A 
ATOM     29  C   UNL A   1      43.377  30.177  28.325  1.00  0.00     0.074 A 
ATOM     30  C   UNL A   1      49.666  30.286  27.126  1.00  0.00     0.029 A 
ATOM     31  N   UNL A   1      47.538  29.661  27.329  1.00  0.00    -0.354 N 
ATOM     32  N   UNL A   1      44.654  30.090  28.025  1.00  0.00    -0.248 NA
ATOM     33  C   UNL A   1      42.978  31.463  28.907  1.00  0.00     0.031 C 
ATOM     34  C   UNL A   1      48.944  31.333  27.709  1.00  0.00     0.029 A 
ATOM     35  C   UNL A   1      47.611  30.958  27.801  1.00  0.00     0.049 A 
ATOM     36  H   UNL A   1      46.717  29.120  27.290  1.00  0.00     0.167 HD
ATOM     37  C   UNL A   1      45.207  31.318  28.366  1.00  0.00     0.074 A 
ATOM     38  C   UNL A   1      44.119  32.136  28.867  1.00  0.00     0.031 C 
ATOM     39  C   UNL A   1      46.496  31.734  28.286  1.00  0.00     0.031 A 
BRANCH  26  40
ATOM     40  C   UNL A   1      50.459  27.589  25.920  1.00  0.00    -0.014 A 
ATOM     41  C   UNL A   1      50.827  27.693  24.566  1.00  0.00     0.010 A 
ATOM     42  C   UNL A   1      51.410  27.142  26.855  1.00  0.00     0.010 A 
ATOM     43  C   UNL A   1      52.108  27.319  24.151  1.00  0.00     0.020 A 
ATOM     44  C   UNL A   1      52.701  26.792  26.448  1.00  0.00     0.020 A 
ATOM     45  C   UNL A   1      53.038  26.868  25.095  1.00  0.00     0.054 A 
BRANCH  45  46
ATOM     46  S   UNL A   1      54.697  26.407  24.526  1.00  0.00     0.124 S 
ATOM     47  O   UNL A   1      54.773  25.003  24.927  1.00  0.00    -0.237 OA
ATOM     48  O   UNL A   1      54.624  26.648  23.092  1.00  0.00    -0.237 OA
ATOM     49  O   UNL A   1      55.580  27.312  25.266  1.00  0.00    -0.744 OA
ENDBRANCH  45  46
ENDBRANCH  26  40
BRANCH  27  50
ATOM     50  C   UNL A   1      40.882  29.414  28.543  1.00  0.00    -0.014 A 
ATOM     51  C   UNL A   1      40.518  29.623  29.884  1.00  0.00     0.010 A 
ATOM     52  C   UNL A   1      39.872  29.432  27.559  1.00  0.00     0.010 A 
ATOM     53  C   UNL A   1      39.175  29.806  30.237  1.00  0.00     0.020 A 
ATOM     54  C   UNL A   1      38.536  29.651  27.902  1.00  0.00     0.020 A 
ATOM     55  C   UNL A   1      38.192  29.814  29.243  1.00  0.00     0.054 A 
BRANCH  55  56
ATOM     56  S   UNL A   1      36.458  30.048  29.722  1.00  0.00     0.124 S 
ATOM     57  O   UNL A   1      36.390  29.316  30.981  1.00  0.00    -0.237 OA
ATOM     58  O   UNL A   1      36.353  31.501  29.826  1.00  0.00    -0.237 OA
ATOM     59  O   UNL A   1      35.713  29.455  28.612  1.00  0.00    -0.744 OA
ENDBRANCH  55  56
ENDBRANCH  27  50
BRANCH  39  60
ATOM     60  C   UNL A   1      46.779  33.147  28.711  1.00  0.00    -0.014 A 
ATOM     61  C   UNL A   1      46.686  34.214  27.802  1.00  0.00     0.010 A 
ATOM     62  C   UNL A   1      47.095  33.409  30.057  1.00  0.00     0.010 A 
ATOM     63  C   UNL A   1      46.945  35.519  28.223  1.00  0.00     0.020 A 
ATOM     64  C   UNL A   1      47.320  34.716  30.489  1.00  0.00     0.020 A 
ATOM     65  C   UNL A   1      47.260  35.761  29.564  1.00  0.00     0.054 A 
BRANCH  65  66
ATOM     66  S   UNL A   1      47.554  37.468  30.095  1.00  0.00     0.124 S 
ATOM     67  O   UNL A   1      46.468  38.182  29.430  1.00  0.00    -0.237 OA
ATOM     68  O   UNL A   1      47.447  37.374  31.548  1.00  0.00    -0.237 OA
ATOM     69  O   UNL A   1      48.894  37.762  29.591  1.00  0.00    -0.744 OA
ENDBRANCH  65  66
ENDBRANCH  39  60
ENDBRANCH  13  14
ENDBRANCH   6   8
ENDBRANCH   5   6
ENDBRANCH   4   5
ENDBRANCH   3   4
ENDBRANCH   2   3
ENDBRANCH   1   2
BRANCH   1  70
ATOM     70  C   UNL A   1      38.081  23.745  26.042  1.00  0.00     0.188 C 
BRANCH  70  71
ATOM     71  O   UNL A   1      37.495  23.008  24.972  1.00  0.00    -0.376 OA
BRANCH  71  72
ATOM     72  C   UNL A   1      36.103  23.197  24.740  1.00  0.00     0.202 C 
BRANCH  72  73
ATOM     73  C   UNL A   1      35.390  24.372  25.433  1.00  0.00     0.261 C 
BRANCH  73  74
ATOM     74  O   UNL A   1      34.241  24.021  26.225  1.00  0.00    -0.459 OA
BRANCH  74  75
ATOM     75  C   UNL A   1      33.219  24.928  26.183  1.00  0.00     0.365 C 
ATOM     76  O   UNL A   1      33.340  26.101  26.533  1.00  0.00    -0.245 OA
BRANCH  75  77
ATOM     77  C   UNL A   1      31.901  24.311  25.627  1.00  0.00     0.295 C 
ATOM     78  C   UNL A   1      30.814  25.391  25.785  1.00  0.00     0.087 C 
ATOM     79  N   UNL A   1      32.030  24.077  24.155  1.00  0.00    -0.320 N 
ATOM     80  C   UNL A   1      30.596  25.923  24.370  1.00  0.00     0.054 C 
ATOM     81  C   UNL A   1      31.769  25.387  23.568  1.00  0.00     0.188 C 
ATOM     82  H   UNL A   1      32.963  23.750  23.900  1.00  0.00     0.349 HD
ATOM     83  C   UNL A   1      30.490  27.430  24.190  1.00  0.00     0.010 C 
ATOM     84  C   UNL A   1      31.564  25.571  22.076  1.00  0.00     0.065 C 
ATOM     85  C   UNL A   1      30.386  27.800  22.702  1.00  0.00     0.001 C 
ATOM     86  C   UNL A   1      31.361  27.062  21.768  1.00  0.00     0.006 C 
BRANCH  79  87
ATOM     87  C   UNL A   1      31.350  22.903  23.591  1.00  0.00     0.265 C 
BRANCH  87  88
ATOM     88  C   UNL A   1      32.045  21.716  22.872  1.00  0.00     0.093 C 
BRANCH  88  89
ATOM     89  C   UNL A   1      32.929  20.692  23.622  1.00  0.00     0.123 C 
ATOM     90  C   UNL A   1      32.443  19.264  23.815  1.00  0.00     0.034 C 
ATOM     91  O   UNL A   1      33.344  21.198  24.889  1.00  0.00    -0.378 OA
ATOM     92  C   UNL A   1      32.810  18.901  25.236  1.00  0.00     0.031 C 
ATOM     93  C   UNL A   1      33.228  20.194  25.889  1.00  0.00     0.160 C 
ENDBRANCH  88  89
ENDBRANCH  87  88
ENDBRANCH  79  87
ENDBRANCH  75  77
ENDBRANCH  74  75
ENDBRANCH  73  74
ENDBRANCH  72  73
ENDBRANCH  71  72
ENDBRANCH  70  71
ENDBRANCH   1  70
TORSDOF 23
ENDMDL
MODEL 3
REMARK VINA RESULT:      -8.8      1.654      2.805
REMARK SMILES O=C(OCCOCCOCCOC(=O)[C@H]1C[C@H]2CCCC[C@@H]2[N@@H+]1CC[C@@H]1CCCO1)c1ccc(-c2c3nc(c(-c4ccc(S(=O)(=O)[O-])cc4)c4ccc([nH]4)c(-c4ccc(S(=O)(=O)[O-])cc4)c4nc(c(-c5ccc(S(=O)(=O)[O-])cc5)c5ccc2[nH]5)C=C4)C=C3)cc1
REMARK SMILES IDX 7 1 6 2 5 3 4 4 3 5 2 6 1 7 31 8 32 9 90 10 33 11 89 12
REMARK SMILES IDX 34 13 35 14 36 15 83 16 37 17 88 18 82 19 84 20 38 21 87 22
REMARK SMILES IDX 81 23 80 24 39 26 69 27 50 28 68 29 51 30 54 31 67 32 85 33
REMARK SMILES IDX 52 34 53 35 66 37 86 38 55 39 40 40 41 41 49 42 42 43 48 44
REMARK SMILES IDX 43 45 44 46 45 47 46 48 47 49 70 50 71 51 79 52 72 53 78 54
REMARK SMILES IDX 73 55 74 56 75 57 76 58 77 59 56 60 57 61 65 62 58 63 64 64
REMARK SMILES IDX 59 65 60 66 61 67 62 68 63 69 8 70 9 71 10 72 11 73 12 74
REMARK SMILES IDX 13 75 14 76 15 77 16 78 23 79 17 80 22 81 18 83 21 84 19 85
REMARK SMILES IDX 20 86 24 87 25 88 26 89 27 90 30 91 28 92 29 93
REMARK H PARENT 84 25 54 36 23 82
REMARK Flexibility Score: inf
ROOT
ATOM      1  C   UNL A   1      39.608  23.256  26.817  1.00  0.00     0.188 C 
ENDROOT
BRANCH   1   2
ATOM      2  O   UNL A   1      39.821  21.972  26.227  1.00  0.00    -0.376 OA
BRANCH   2   3
ATOM      3  C   UNL A   1      40.654  21.093  26.990  1.00  0.00     0.202 C 
BRANCH   3   4
ATOM      4  C   UNL A   1      40.925  19.706  26.374  1.00  0.00     0.261 C 
BRANCH   4   5
ATOM      5  O   UNL A   1      41.842  19.726  25.265  1.00  0.00    -0.460 OA
BRANCH   5   6
ATOM      6  C   UNL A   1      43.166  20.020  25.279  1.00  0.00     0.338 C 
ATOM      7  O   UNL A   1      43.974  19.128  25.002  1.00  0.00    -0.246 OA
BRANCH   6   8
ATOM      8  C   UNL A   1      43.707  21.369  25.618  1.00  0.00     0.060 A 
ATOM      9  C   UNL A   1      44.350  21.674  26.815  1.00  0.00     0.016 A 
ATOM     10  C   UNL A   1      43.615  22.382  24.649  1.00  0.00     0.016 A 
ATOM     11  C   UNL A   1      44.764  22.959  27.111  1.00  0.00     0.010 A 
ATOM     12  C   UNL A   1      44.095  23.672  24.910  1.00  0.00     0.010 A 
ATOM     13  C   UNL A   1      44.632  23.969  26.166  1.00  0.00    -0.014 A 
BRANCH  13  14
ATOM     14  C   UNL A   1      44.935  25.341  26.614  1.00  0.00     0.031 A 
ATOM     15  C   UNL A   1      46.322  25.865  26.392  1.00  0.00     0.074 A 
ATOM     16  C   UNL A   1      43.927  26.142  27.012  1.00  0.00     0.049 A 
ATOM     17  N   UNL A   1      46.810  27.043  26.665  1.00  0.00    -0.248 NA
ATOM     18  C   UNL A   1      47.285  24.946  25.759  1.00  0.00     0.031 C 
ATOM     19  C   UNL A   1      42.521  25.737  27.120  1.00  0.00     0.029 A 
ATOM     20  N   UNL A   1      43.916  27.467  27.351  1.00  0.00    -0.354 N 
ATOM     21  C   UNL A   1      48.137  27.002  26.253  1.00  0.00     0.074 A 
ATOM     22  C   UNL A   1      48.387  25.679  25.733  1.00  0.00     0.031 C 
ATOM     23  C   UNL A   1      41.782  26.801  27.468  1.00  0.00     0.029 A 
ATOM     24  C   UNL A   1      42.667  27.938  27.681  1.00  0.00     0.049 A 
ATOM     25  H   UNL A   1      44.724  28.028  27.358  1.00  0.00     0.167 HD
ATOM     26  C   UNL A   1      49.059  27.989  26.304  1.00  0.00     0.031 A 
ATOM     27  C   UNL A   1      42.295  29.147  28.142  1.00  0.00     0.031 A 
ATOM     28  C   UNL A   1      48.780  29.290  26.844  1.00  0.00     0.049 A 
ATOM     29  C   UNL A   1      43.370  30.189  28.309  1.00  0.00     0.074 A 
ATOM     30  C   UNL A   1      49.645  30.350  27.042  1.00  0.00     0.029 A 
ATOM     31  N   UNL A   1      47.525  29.708  27.268  1.00  0.00    -0.354 N 
ATOM     32  N   UNL A   1      44.644  30.113  27.995  1.00  0.00    -0.248 NA
ATOM     33  C   UNL A   1      42.967  31.471  28.896  1.00  0.00     0.031 C 
ATOM     34  C   UNL A   1      48.921  31.391  27.633  1.00  0.00     0.029 A 
ATOM     35  C   UNL A   1      47.592  31.004  27.740  1.00  0.00     0.049 A 
ATOM     36  H   UNL A   1      46.708  29.159  27.237  1.00  0.00     0.167 HD
ATOM     37  C   UNL A   1      45.192  31.344  28.331  1.00  0.00     0.074 A 
ATOM     38  C   UNL A   1      44.102  32.153  28.844  1.00  0.00     0.031 C 
ATOM     39  C   UNL A   1      46.476  31.771  28.237  1.00  0.00     0.031 A 
BRANCH  26  40
ATOM     40  C   UNL A   1      50.447  27.660  25.826  1.00  0.00    -0.014 A 
ATOM     41  C   UNL A   1      50.935  28.148  24.600  1.00  0.00     0.010 A 
ATOM     42  C   UNL A   1      51.272  26.835  26.610  1.00  0.00     0.010 A 
ATOM     43  C   UNL A   1      52.208  27.785  24.150  1.00  0.00     0.020 A 
ATOM     44  C   UNL A   1      52.556  26.491  26.177  1.00  0.00     0.020 A 
ATOM     45  C   UNL A   1      53.010  26.955  24.941  1.00  0.00     0.054 A 
BRANCH  45  46
ATOM     46  S   UNL A   1      54.664  26.516  24.338  1.00  0.00     0.124 S 
ATOM     47  O   UNL A   1      54.438  26.405  22.898  1.00  0.00    -0.237 OA
ATOM     48  O   UNL A   1      55.472  27.650  24.762  1.00  0.00    -0.237 OA
ATOM     49  O   UNL A   1      54.956  25.253  25.019  1.00  0.00    -0.744 OA
ENDBRANCH  45  46
ENDBRANCH  26  40
BRANCH  27  50
ATOM     50  C   UNL A   1      40.884  29.405  28.553  1.00  0.00    -0.014 A 
ATOM     51  C   UNL A   1      40.535  29.620  29.897  1.00  0.00     0.010 A 
ATOM     52  C   UNL A   1      39.862  29.405  27.582  1.00  0.00     0.010 A 
ATOM     53  C   UNL A   1      39.194  29.792  30.265  1.00  0.00     0.020 A 
ATOM     54  C   UNL A   1      38.528  29.613  27.939  1.00  0.00     0.020 A 
ATOM     55  C   UNL A   1      38.199  29.782  29.283  1.00  0.00     0.054 A 
BRANCH  55  56
ATOM     56  S   UNL A   1      36.468  30.002  29.782  1.00  0.00     0.124 S 
ATOM     57  O   UNL A   1      35.752  29.423  28.651  1.00  0.00    -0.237 OA
ATOM     58  O   UNL A   1      36.400  29.247  31.030  1.00  0.00    -0.237 OA
ATOM     59  O   UNL A   1      36.336  31.451  29.930  1.00  0.00    -0.744 OA
ENDBRANCH  55  56
ENDBRANCH  27  50
BRANCH  39  60
ATOM     60  C   UNL A   1      46.752  33.186  28.660  1.00  0.00    -0.014 A 
ATOM     61  C   UNL A   1      46.640  34.253  27.753  1.00  0.00     0.010 A 
ATOM     62  C   UNL A   1      47.081  33.450  30.002  1.00  0.00     0.010 A 
ATOM     63  C   UNL A   1      46.892  35.559  28.172  1.00  0.00     0.020 A 
ATOM     64  C   UNL A   1      47.300  34.759  30.433  1.00  0.00     0.020 A 
ATOM     65  C   UNL A   1      47.221  35.803  29.510  1.00  0.00     0.054 A 
BRANCH  65  66
ATOM     66  S   UNL A   1      47.506  37.513  30.039  1.00  0.00     0.124 S 
ATOM     67  O   UNL A   1      46.415  38.220  29.376  1.00  0.00    -0.237 OA
ATOM     68  O   UNL A   1      47.404  37.419  31.492  1.00  0.00    -0.237 OA
ATOM     69  O   UNL A   1      48.843  37.813  29.531  1.00  0.00    -0.744 OA
ENDBRANCH  65  66
ENDBRANCH  39  60
ENDBRANCH  13  14
ENDBRANCH   6   8
ENDBRANCH   5   6
ENDBRANCH   4   5
ENDBRANCH   3   4
ENDBRANCH   2   3
ENDBRANCH   1   2
BRANCH   1  70
ATOM     70  C   UNL A   1      38.216  23.830  26.548  1.00  0.00     0.188 C 
BRANCH  70  71
ATOM     71  O   UNL A   1      37.762  23.811  25.196  1.00  0.00    -0.376 OA
BRANCH  71  72
ATOM     72  C   UNL A   1      36.505  23.193  24.943  1.00  0.00     0.202 C 
BRANCH  72  73
ATOM     73  C   UNL A   1      35.642  23.719  23.782  1.00  0.00     0.261 C 
BRANCH  73  74
ATOM     74  O   UNL A   1      34.712  24.764  24.123  1.00  0.00    -0.459 OA
BRANCH  74  75
ATOM     75  C   UNL A   1      33.699  24.942  23.223  1.00  0.00     0.365 C 
ATOM     76  O   UNL A   1      33.882  25.286  22.057  1.00  0.00    -0.245 OA
BRANCH  75  77
ATOM     77  C   UNL A   1      32.300  24.645  23.839  1.00  0.00     0.295 C 
ATOM     78  C   UNL A   1      31.899  23.238  23.353  1.00  0.00     0.087 C 
ATOM     79  N   UNL A   1      32.410  24.543  25.328  1.00  0.00    -0.320 N 
ATOM     80  C   UNL A   1      32.096  22.342  24.573  1.00  0.00     0.054 C 
ATOM     81  C   UNL A   1      32.896  23.185  25.551  1.00  0.00     0.188 C 
ATOM     82  H   UNL A   1      33.066  25.226  25.710  1.00  0.00     0.349 HD
ATOM     83  C   UNL A   1      32.781  21.001  24.363  1.00  0.00     0.010 C 
ATOM     84  C   UNL A   1      32.933  22.564  26.934  1.00  0.00     0.065 C 
ATOM     85  C   UNL A   1      32.999  20.279  25.702  1.00  0.00     0.001 C 
ATOM     86  C   UNL A   1      33.538  21.155  26.846  1.00  0.00     0.006 C 
BRANCH  79  87
ATOM     87  C   UNL A   1      31.277  25.028  26.129  1.00  0.00     0.265 C 
BRANCH  87  88
ATOM     88  C   UNL A   1      30.974  26.514  26.456  1.00  0.00     0.093 C 
BRANCH  88  89
ATOM     89  C   UNL A   1      32.083  27.527  26.829  1.00  0.00     0.123 C 
ATOM     90  C   UNL A   1      31.823  29.020  26.706  1.00  0.00     0.034 C 
ATOM     91  O   UNL A   1      33.303  27.228  26.152  1.00  0.00    -0.378 OA
ATOM     92  C   UNL A   1      33.083  29.602  26.105  1.00  0.00     0.031 C 
ATOM     93  C   UNL A   1      33.897  28.418  25.648  1.00  0.00     0.160 C 
ENDBRANCH  88  89
ENDBRANCH  87  88
ENDBRANCH  79  87
ENDBRANCH  75  77
ENDBRANCH  74  75
ENDBRANCH  73  74
ENDBRANCH  72  73
ENDBRANCH  71  72
ENDBRANCH  70  71
ENDBRANCH   1  70
TORSDOF 23
ENDMDL
