MODEL 1
REMARK VINA RESULT:     -10.1      0.000      0.000
REMARK SMILES Cc1ccc(OCC(=O)NNC(=O)[C@H]2CCCC[C@@H]2C(=O)OCCOCCOCCOC(=O)c2ccc(-c3c4nc(c(-c5ccc(S(=O)(=O)[O-])cc5)c5ccc([nH]5)c(-c5ccc(S(=O)(=O)[O-])cc5)c5nc(c(-c6ccc(S(=O)(=O)[O-])cc6)c6ccc3[nH]6)C=C5)C=C4)cc2)cc1
REMARK SMILES IDX 26 1 25 2 24 3 23 4 22 5 20 6 21 7 19 8 14 9 15 10 16 11
REMARK SMILES IDX 18 12 17 13 12 14 11 15 13 17 10 18 8 19 9 20 7 22 6 23 5 24
REMARK SMILES IDX 1 25 2 26 3 27 95 28 4 29 94 30 27 31 28 32 29 33 30 34
REMARK SMILES IDX 31 35 32 36 33 37 34 38 35 39 93 40 36 41 92 42 37 43 38 44
REMARK SMILES IDX 39 45 86 46 40 47 91 48 85 49 87 50 41 51 90 52 84 53 83 54
REMARK SMILES IDX 42 56 72 57 53 58 71 59 54 60 57 61 70 62 88 63 55 64 56 65
REMARK SMILES IDX 69 67 89 68 58 69 43 70 44 71 52 72 45 73 51 74 46 75 47 76
REMARK SMILES IDX 48 77 49 78 50 79 73 80 74 81 82 82 75 83 81 84 76 85 77 86
REMARK SMILES IDX 78 87 79 88 80 89 59 90 60 91 68 92 61 93 67 94 62 95 63 96
REMARK SMILES IDX 64 97 65 98 66 99
REMARK H PARENT 11 16 10 21 87 55 57 66
REMARK Flexibility Score: inf
ROOT
ATOM      1  C   UNL A   1      35.982  20.706  25.029  1.00  0.00     0.188 C 
ENDROOT
BRANCH   1   2
ATOM      2  O   UNL A   1      34.790  20.883  25.815  1.00  0.00    -0.376 OA
BRANCH   2   3
ATOM      3  C   UNL A   1      33.467  20.832  25.277  1.00  0.00     0.202 C 
BRANCH   3   4
ATOM      4  C   UNL A   1      32.602  22.207  25.204  1.00  0.00     0.261 C 
BRANCH   4   5
ATOM      5  O   UNL A   1      33.112  23.564  25.735  1.00  0.00    -0.463 OA
BRANCH   5   6
ATOM      6  C   UNL A   1      32.508  24.705  25.215  1.00  0.00     0.309 C 
ATOM      7  O   UNL A   1      31.290  24.788  25.332  1.00  0.00    -0.252 OA
BRANCH   6   8
ATOM      8  C   UNL A   1      33.241  25.844  24.379  1.00  0.00     0.111 C 
ATOM      9  C   UNL A   1      32.473  27.038  23.573  1.00  0.00     0.094 C 
ATOM     10  C   UNL A   1      31.897  26.789  22.144  1.00  0.00     0.014 C 
ATOM     11  C   UNL A   1      32.449  25.631  21.350  1.00  0.00     0.001 C 
ATOM     12  C   UNL A   1      34.061  25.055  23.348  1.00  0.00     0.016 C 
ATOM     13  C   UNL A   1      33.306  24.617  22.088  1.00  0.00     0.001 C 
BRANCH   9  14
ATOM     14  C   UNL A   1      33.452  28.157  23.182  1.00  0.00     0.242 C 
ATOM     15  N   UNL A   1      33.517  29.325  23.904  1.00  0.00    -0.267 N 
ATOM     16  H   UNL A   1      33.413  30.165  23.401  1.00  0.00     0.191 HD
ATOM     17  O   UNL A   1      33.915  28.208  22.038  1.00  0.00    -0.273 OA
BRANCH  15  18
ATOM     18  N   UNL A   1      33.718  29.435  25.273  1.00  0.00    -0.265 N 
ATOM     19  C   UNL A   1      32.716  29.887  26.111  1.00  0.00     0.276 C 
ATOM     20  O   UNL A   1      32.824  29.746  27.330  1.00  0.00    -0.269 OA
ATOM     21  H   UNL A   1      34.591  29.185  25.653  1.00  0.00     0.191 HD
BRANCH  19  22
ATOM     22  C   UNL A   1      31.402  30.432  25.510  1.00  0.00     0.331 C 
BRANCH  22  23
ATOM     23  O   UNL A   1      30.659  29.632  24.608  1.00  0.00    -0.484 OA
BRANCH  23  24
ATOM     24  C   UNL A   1      29.953  30.252  23.615  1.00  0.00     0.120 A 
ATOM     25  C   UNL A   1      27.722  32.613  20.776  1.00  0.00     0.044 C 
ATOM     26  C   UNL A   1      28.483  31.782  21.764  1.00  0.00    -0.051 A 
ATOM     27  C   UNL A   1      28.682  32.251  23.065  1.00  0.00     0.007 A 
ATOM     28  C   UNL A   1      29.004  30.533  21.409  1.00  0.00     0.007 A 
ATOM     29  C   UNL A   1      29.415  31.491  23.977  1.00  0.00     0.047 A 
ATOM     30  C   UNL A   1      29.726  29.765  22.332  1.00  0.00     0.047 A 
ENDBRANCH  23  24
ENDBRANCH  22  23
ENDBRANCH  19  22
ENDBRANCH  15  18
ENDBRANCH   9  14
ENDBRANCH   6   8
ENDBRANCH   5   6
ENDBRANCH   4   5
ENDBRANCH   3   4
ENDBRANCH   2   3
ENDBRANCH   1   2
BRANCH   1  31
ATOM     31  C   UNL A   1      36.827  21.890  24.545  1.00  0.00     0.188 C 
BRANCH  31  32
ATOM     32  O   UNL A   1      37.742  22.282  25.548  1.00  0.00    -0.376 OA
BRANCH  32  33
ATOM     33  C   UNL A   1      38.874  21.461  25.734  1.00  0.00     0.202 C 
BRANCH  33  34
ATOM     34  C   UNL A   1      39.933  22.124  26.620  1.00  0.00     0.261 C 
BRANCH  34  35
ATOM     35  O   UNL A   1      40.822  21.121  27.176  1.00  0.00    -0.460 OA
BRANCH  35  36
ATOM     36  C   UNL A   1      42.073  21.016  26.612  1.00  0.00     0.338 C 
ATOM     37  O   UNL A   1      42.547  19.936  26.302  1.00  0.00    -0.246 OA
BRANCH  36  38
ATOM     38  C   UNL A   1      42.678  22.374  26.321  1.00  0.00     0.060 A 
ATOM     39  C   UNL A   1      43.184  22.834  25.103  1.00  0.00     0.016 A 
ATOM     40  C   UNL A   1      42.898  23.218  27.368  1.00  0.00     0.016 A 
ATOM     41  C   UNL A   1      44.010  24.051  25.008  1.00  0.00     0.010 A 
ATOM     42  C   UNL A   1      43.802  24.294  27.224  1.00  0.00     0.010 A 
ATOM     43  C   UNL A   1      44.385  24.833  26.107  1.00  0.00    -0.014 A 
BRANCH  43  44
ATOM     44  C   UNL A   1      45.477  25.931  26.373  1.00  0.00     0.031 A 
ATOM     45  C   UNL A   1      47.031  25.800  26.584  1.00  0.00     0.074 A 
ATOM     46  C   UNL A   1      45.128  27.201  26.102  1.00  0.00     0.049 A 
ATOM     47  N   UNL A   1      48.024  26.208  25.818  1.00  0.00    -0.248 NA
ATOM     48  C   UNL A   1      47.570  25.223  27.820  1.00  0.00     0.031 C 
ATOM     49  C   UNL A   1      45.993  28.371  25.989  1.00  0.00     0.029 A 
ATOM     50  N   UNL A   1      43.847  27.719  26.172  1.00  0.00    -0.354 N 
ATOM     51  C   UNL A   1      49.246  25.726  26.355  1.00  0.00     0.074 A 
ATOM     52  C   UNL A   1      48.844  24.942  27.525  1.00  0.00     0.031 C 
ATOM     53  C   UNL A   1      45.280  29.452  26.337  1.00  0.00     0.029 A 
ATOM     54  C   UNL A   1      43.971  28.988  26.752  1.00  0.00     0.049 A 
ATOM     55  H   UNL A   1      43.016  27.285  25.873  1.00  0.00     0.167 HD
ATOM     56  C   UNL A   1      50.359  26.474  26.640  1.00  0.00     0.031 A 
ATOM     57  C   UNL A   1      43.470  29.121  28.011  1.00  0.00     0.031 A 
ATOM     58  C   UNL A   1      49.999  27.703  27.328  1.00  0.00     0.049 A 
ATOM     59  C   UNL A   1      44.581  29.176  29.051  1.00  0.00     0.074 A 
ATOM     60  C   UNL A   1      49.902  29.019  26.941  1.00  0.00     0.029 A 
ATOM     61  N   UNL A   1      49.368  27.615  28.568  1.00  0.00    -0.354 N 
ATOM     62  N   UNL A   1      45.819  28.754  28.905  1.00  0.00    -0.248 NA
ATOM     63  C   UNL A   1      44.375  29.861  30.315  1.00  0.00     0.031 C 
ATOM     64  C   UNL A   1      49.045  29.671  27.876  1.00  0.00     0.029 A 
ATOM     65  C   UNL A   1      48.689  28.776  28.875  1.00  0.00     0.049 A 
ATOM     66  H   UNL A   1      49.401  26.823  29.152  1.00  0.00     0.167 HD
ATOM     67  C   UNL A   1      46.574  29.133  29.999  1.00  0.00     0.074 A 
ATOM     68  C   UNL A   1      45.607  29.816  30.845  1.00  0.00     0.031 C 
ATOM     69  C   UNL A   1      47.932  28.928  30.127  1.00  0.00     0.031 A 
BRANCH  56  70
ATOM     70  C   UNL A   1      51.750  25.826  26.575  1.00  0.00    -0.014 A 
ATOM     71  C   UNL A   1      52.697  26.047  27.597  1.00  0.00     0.010 A 
ATOM     72  C   UNL A   1      52.210  25.065  25.465  1.00  0.00     0.010 A 
ATOM     73  C   UNL A   1      54.033  25.588  27.498  1.00  0.00     0.020 A 
ATOM     74  C   UNL A   1      53.535  24.578  25.369  1.00  0.00     0.020 A 
ATOM     75  C   UNL A   1      54.452  24.872  26.375  1.00  0.00     0.054 A 
BRANCH  75  76
ATOM     76  S   UNL A   1      56.206  24.392  26.218  1.00  0.00     0.124 S 
ATOM     77  O   UNL A   1      56.842  25.189  27.265  1.00  0.00    -0.237 OA
ATOM     78  O   UNL A   1      56.176  22.953  26.459  1.00  0.00    -0.237 OA
ATOM     79  O   UNL A   1      56.558  24.781  24.852  1.00  0.00    -0.744 OA
ENDBRANCH  75  76
ENDBRANCH  56  70
BRANCH  57  80
ATOM     80  C   UNL A   1      42.062  28.577  28.076  1.00  0.00    -0.014 A 
ATOM     81  C   UNL A   1      41.606  28.302  29.395  1.00  0.00     0.010 A 
ATOM     82  C   UNL A   1      41.088  28.786  27.086  1.00  0.00     0.010 A 
ATOM     83  C   UNL A   1      40.276  28.511  29.767  1.00  0.00     0.020 A 
ATOM     84  C   UNL A   1      39.723  28.922  27.451  1.00  0.00     0.020 A 
ATOM     85  C   UNL A   1      39.353  28.891  28.801  1.00  0.00     0.054 A 
BRANCH  85  86
ATOM     86  S   UNL A   1      37.758  29.553  29.394  1.00  0.00     0.124 S 
ATOM     87  O   UNL A   1      36.869  29.298  28.264  1.00  0.00    -0.237 OA
ATOM     88  O   UNL A   1      37.514  28.724  30.576  1.00  0.00    -0.237 OA
ATOM     89  O   UNL A   1      38.036  30.957  29.665  1.00  0.00    -0.744 OA
ENDBRANCH  85  86
ENDBRANCH  57  80
BRANCH  69  90
ATOM     90  C   UNL A   1      48.735  28.996  31.435  1.00  0.00    -0.014 A 
ATOM     91  C   UNL A   1      49.163  30.174  32.063  1.00  0.00     0.010 A 
ATOM     92  C   UNL A   1      49.074  27.797  32.120  1.00  0.00     0.010 A 
ATOM     93  C   UNL A   1      49.920  30.170  33.244  1.00  0.00     0.020 A 
ATOM     94  C   UNL A   1      49.802  27.774  33.320  1.00  0.00     0.020 A 
ATOM     95  C   UNL A   1      50.242  28.968  33.864  1.00  0.00     0.054 A 
BRANCH  95  96
ATOM     96  S   UNL A   1      51.217  29.011  35.384  1.00  0.00     0.124 S 
ATOM     97  O   UNL A   1      50.465  29.962  36.200  1.00  0.00    -0.237 OA
ATOM     98  O   UNL A   1      51.159  27.621  35.831  1.00  0.00    -0.237 OA
ATOM     99  O   UNL A   1      52.532  29.465  34.943  1.00  0.00    -0.744 OA
ENDBRANCH  95  96
ENDBRANCH  69  90
ENDBRANCH  43  44
ENDBRANCH  36  38
ENDBRANCH  35  36
ENDBRANCH  34  35
ENDBRANCH  33  34
ENDBRANCH  32  33
ENDBRANCH  31  32
ENDBRANCH   1  31
TORSDOF 25
ENDMDL
MODEL 2
REMARK VINA RESULT:      -9.6      3.730      5.085
REMARK SMILES Cc1ccc(OCC(=O)NNC(=O)[C@H]2CCCC[C@@H]2C(=O)OCCOCCOCCOC(=O)c2ccc(-c3c4nc(c(-c5ccc(S(=O)(=O)[O-])cc5)c5ccc([nH]5)c(-c5ccc(S(=O)(=O)[O-])cc5)c5nc(c(-c6ccc(S(=O)(=O)[O-])cc6)c6ccc3[nH]6)C=C5)C=C4)cc2)cc1
REMARK SMILES IDX 26 1 25 2 24 3 23 4 22 5 20 6 21 7 19 8 14 9 15 10 16 11
REMARK SMILES IDX 18 12 17 13 12 14 11 15 13 17 10 18 8 19 9 20 7 22 6 23 5 24
REMARK SMILES IDX 1 25 2 26 3 27 95 28 4 29 94 30 27 31 28 32 29 33 30 34
REMARK SMILES IDX 31 35 32 36 33 37 34 38 35 39 93 40 36 41 92 42 37 43 38 44
REMARK SMILES IDX 39 45 86 46 40 47 91 48 85 49 87 50 41 51 90 52 84 53 83 54
REMARK SMILES IDX 42 56 72 57 53 58 71 59 54 60 57 61 70 62 88 63 55 64 56 65
REMARK SMILES IDX 69 67 89 68 58 69 43 70 44 71 52 72 45 73 51 74 46 75 47 76
REMARK SMILES IDX 48 77 49 78 50 79 73 80 74 81 82 82 75 83 81 84 76 85 77 86
REMARK SMILES IDX 78 87 79 88 80 89 59 90 60 91 68 92 61 93 67 94 62 95 63 96
REMARK SMILES IDX 64 97 65 98 66 99
REMARK H PARENT 11 16 10 21 87 55 57 66
REMARK Flexibility Score: inf
ROOT
ATOM      1  C   UNL A   1      35.040  20.795  24.984  1.00  0.00     0.188 C 
ENDROOT
BRANCH   1   2
ATOM      2  O   UNL A   1      33.926  20.769  25.895  1.00  0.00    -0.376 OA
BRANCH   2   3
ATOM      3  C   UNL A   1      32.595  21.144  25.534  1.00  0.00     0.202 C 
BRANCH   3   4
ATOM      4  C   UNL A   1      32.107  22.668  25.831  1.00  0.00     0.261 C 
BRANCH   4   5
ATOM      5  O   UNL A   1      33.074  23.819  26.182  1.00  0.00    -0.463 OA
BRANCH   5   6
ATOM      6  C   UNL A   1      32.511  25.082  26.331  1.00  0.00     0.309 C 
ATOM      7  O   UNL A   1      31.436  25.144  26.918  1.00  0.00    -0.252 OA
BRANCH   6   8
ATOM      8  C   UNL A   1      33.079  26.431  25.705  1.00  0.00     0.111 C 
ATOM      9  C   UNL A   1      32.309  27.870  25.757  1.00  0.00     0.094 C 
ATOM     10  C   UNL A   1      31.200  28.215  24.715  1.00  0.00     0.014 C 
ATOM     11  C   UNL A   1      31.177  27.438  23.422  1.00  0.00     0.001 C 
ATOM     12  C   UNL A   1      33.280  26.077  24.225  1.00  0.00     0.016 C 
ATOM     13  C   UNL A   1      32.036  26.189  23.337  1.00  0.00     0.001 C 
BRANCH   9  14
ATOM     14  C   UNL A   1      33.264  29.018  25.394  1.00  0.00     0.242 C 
ATOM     15  N   UNL A   1      33.975  29.683  26.365  1.00  0.00    -0.267 N 
ATOM     16  H   UNL A   1      33.887  30.663  26.388  1.00  0.00     0.191 HD
ATOM     17  O   UNL A   1      33.141  29.614  24.318  1.00  0.00    -0.273 OA
BRANCH  15  18
ATOM     18  N   UNL A   1      34.806  29.105  27.314  1.00  0.00    -0.265 N 
ATOM     19  C   UNL A   1      35.600  29.880  28.140  1.00  0.00     0.276 C 
ATOM     20  O   UNL A   1      36.136  29.375  29.126  1.00  0.00    -0.269 OA
ATOM     21  H   UNL A   1      34.830  28.125  27.401  1.00  0.00     0.191 HD
BRANCH  19  22
ATOM     22  C   UNL A   1      35.692  31.403  27.905  1.00  0.00     0.331 C 
BRANCH  22  23
ATOM     23  O   UNL A   1      34.512  32.146  27.655  1.00  0.00    -0.484 OA
BRANCH  23  24
ATOM     24  C   UNL A   1      34.172  33.142  28.527  1.00  0.00     0.120 A 
ATOM     25  C   UNL A   1      33.433  36.087  31.592  1.00  0.00     0.044 C 
ATOM     26  C   UNL A   1      33.672  35.059  30.530  1.00  0.00    -0.051 A 
ATOM     27  C   UNL A   1      34.448  33.931  30.811  1.00  0.00     0.007 A 
ATOM     28  C   UNL A   1      33.130  35.203  29.247  1.00  0.00     0.007 A 
ATOM     29  C   UNL A   1      34.696  32.987  29.814  1.00  0.00     0.047 A 
ATOM     30  C   UNL A   1      33.368  34.245  28.253  1.00  0.00     0.047 A 
ENDBRANCH  23  24
ENDBRANCH  22  23
ENDBRANCH  19  22
ENDBRANCH  15  18
ENDBRANCH   9  14
ENDBRANCH   6   8
ENDBRANCH   5   6
ENDBRANCH   4   5
ENDBRANCH   3   4
ENDBRANCH   2   3
ENDBRANCH   1   2
BRANCH   1  31
ATOM     31  C   UNL A   1      35.491  22.080  24.280  1.00  0.00     0.188 C 
BRANCH  31  32
ATOM     32  O   UNL A   1      36.142  22.938  25.196  1.00  0.00    -0.376 OA
BRANCH  32  33
ATOM     33  C   UNL A   1      37.440  22.567  25.604  1.00  0.00     0.202 C 
BRANCH  33  34
ATOM     34  C   UNL A   1      38.264  23.767  26.081  1.00  0.00     0.261 C 
BRANCH  34  35
ATOM     35  O   UNL A   1      38.934  23.453  27.328  1.00  0.00    -0.460 OA
BRANCH  35  36
ATOM     36  C   UNL A   1      40.270  23.135  27.254  1.00  0.00     0.338 C 
ATOM     37  O   UNL A   1      40.662  22.151  26.650  1.00  0.00    -0.246 OA
BRANCH  36  38
ATOM     38  C   UNL A   1      41.142  24.204  27.879  1.00  0.00     0.060 A 
ATOM     39  C   UNL A   1      40.927  25.585  27.874  1.00  0.00     0.016 A 
ATOM     40  C   UNL A   1      42.349  23.833  28.391  1.00  0.00     0.016 A 
ATOM     41  C   UNL A   1      41.981  26.542  28.252  1.00  0.00     0.010 A 
ATOM     42  C   UNL A   1      43.348  24.806  28.610  1.00  0.00     0.010 A 
ATOM     43  C   UNL A   1      43.282  26.175  28.617  1.00  0.00    -0.014 A 
BRANCH  43  44
ATOM     44  C   UNL A   1      44.659  26.923  28.736  1.00  0.00     0.031 A 
ATOM     45  C   UNL A   1      45.958  26.824  27.854  1.00  0.00     0.074 A 
ATOM     46  C   UNL A   1      44.677  28.023  29.509  1.00  0.00     0.049 A 
ATOM     47  N   UNL A   1      46.506  27.719  27.056  1.00  0.00    -0.248 NA
ATOM     48  C   UNL A   1      46.808  25.629  27.908  1.00  0.00     0.031 C 
ATOM     49  C   UNL A   1      45.709  29.052  29.590  1.00  0.00     0.029 A 
ATOM     50  N   UNL A   1      43.868  28.253  30.607  1.00  0.00    -0.354 N 
ATOM     51  C   UNL A   1      47.584  27.114  26.359  1.00  0.00     0.074 A 
ATOM     52  C   UNL A   1      47.580  25.724  26.820  1.00  0.00     0.031 C 
ATOM     53  C   UNL A   1      45.683  29.574  30.825  1.00  0.00     0.029 A 
ATOM     54  C   UNL A   1      44.688  28.837  31.581  1.00  0.00     0.049 A 
ATOM     55  H   UNL A   1      42.909  28.049  30.688  1.00  0.00     0.167 HD
ATOM     56  C   UNL A   1      48.868  27.588  26.279  1.00  0.00     0.031 A 
ATOM     57  C   UNL A   1      44.962  28.069  32.671  1.00  0.00     0.031 A 
ATOM     58  C   UNL A   1      49.343  28.029  27.579  1.00  0.00     0.049 A 
ATOM     59  C   UNL A   1      46.385  27.528  32.629  1.00  0.00     0.074 A 
ATOM     60  C   UNL A   1      49.520  29.263  28.162  1.00  0.00     0.029 A 
ATOM     61  N   UNL A   1      49.428  27.096  28.612  1.00  0.00    -0.354 N 
ATOM     62  N   UNL A   1      47.155  27.416  31.568  1.00  0.00    -0.248 NA
ATOM     63  C   UNL A   1      47.085  27.197  33.858  1.00  0.00     0.031 C 
ATOM     64  C   UNL A   1      49.526  29.064  29.575  1.00  0.00     0.029 A 
ATOM     65  C   UNL A   1      49.436  27.707  29.849  1.00  0.00     0.049 A 
ATOM     66  H   UNL A   1      49.476  26.122  28.476  1.00  0.00     0.167 HD
ATOM     67  C   UNL A   1      48.432  27.052  31.953  1.00  0.00     0.074 A 
ATOM     68  C   UNL A   1      48.316  26.926  33.398  1.00  0.00     0.031 C 
ATOM     69  C   UNL A   1      49.508  26.935  31.099  1.00  0.00     0.031 A 
BRANCH  56  70
ATOM     70  C   UNL A   1      49.724  27.267  25.044  1.00  0.00    -0.014 A 
ATOM     71  C   UNL A   1      51.117  27.084  25.161  1.00  0.00     0.010 A 
ATOM     72  C   UNL A   1      49.208  27.235  23.719  1.00  0.00     0.010 A 
ATOM     73  C   UNL A   1      51.954  26.934  24.028  1.00  0.00     0.020 A 
ATOM     74  C   UNL A   1      50.032  27.058  22.583  1.00  0.00     0.020 A 
ATOM     75  C   UNL A   1      51.411  26.942  22.742  1.00  0.00     0.054 A 
BRANCH  75  76
ATOM     76  S   UNL A   1      52.521  26.863  21.296  1.00  0.00     0.124 S 
ATOM     77  O   UNL A   1      53.781  26.423  21.894  1.00  0.00    -0.237 OA
ATOM     78  O   UNL A   1      51.866  25.886  20.431  1.00  0.00    -0.237 OA
ATOM     79  O   UNL A   1      52.531  28.232  20.782  1.00  0.00    -0.744 OA
ENDBRANCH  75  76
ENDBRANCH  56  70
BRANCH  57  80
ATOM     80  C   UNL A   1      43.688  27.493  33.241  1.00  0.00    -0.014 A 
ATOM     81  C   UNL A   1      43.806  26.147  33.686  1.00  0.00     0.010 A 
ATOM     82  C   UNL A   1      42.646  28.263  33.785  1.00  0.00     0.010 A 
ATOM     83  C   UNL A   1      43.119  25.686  34.812  1.00  0.00     0.020 A 
ATOM     84  C   UNL A   1      41.893  27.766  34.881  1.00  0.00     0.020 A 
ATOM     85  C   UNL A   1      42.216  26.528  35.447  1.00  0.00     0.054 A 
BRANCH  85  86
ATOM     86  S   UNL A   1      41.674  26.047  37.123  1.00  0.00     0.124 S 
ATOM     87  O   UNL A   1      40.585  26.985  37.385  1.00  0.00    -0.237 OA
ATOM     88  O   UNL A   1      41.261  24.658  36.914  1.00  0.00    -0.237 OA
ATOM     89  O   UNL A   1      42.863  26.226  37.945  1.00  0.00    -0.744 OA
ENDBRANCH  85  86
ENDBRANCH  57  80
BRANCH  69  90
ATOM     90  C   UNL A   1      50.824  26.201  31.401  1.00  0.00    -0.014 A 
ATOM     91  C   UNL A   1      50.942  25.027  32.158  1.00  0.00     0.010 A 
ATOM     92  C   UNL A   1      52.048  26.697  30.873  1.00  0.00     0.010 A 
ATOM     93  C   UNL A   1      52.178  24.420  32.424  1.00  0.00     0.020 A 
ATOM     94  C   UNL A   1      53.290  26.085  31.101  1.00  0.00     0.020 A 
ATOM     95  C   UNL A   1      53.349  24.955  31.899  1.00  0.00     0.054 A 
BRANCH  95  96
ATOM     96  S   UNL A   1      54.917  24.139  32.267  1.00  0.00     0.124 S 
ATOM     97  O   UNL A   1      55.691  24.411  31.058  1.00  0.00    -0.237 OA
ATOM     98  O   UNL A   1      55.362  24.844  33.466  1.00  0.00    -0.237 OA
ATOM     99  O   UNL A   1      54.545  22.742  32.473  1.00  0.00    -0.744 OA
ENDBRANCH  95  96
ENDBRANCH  69  90
ENDBRANCH  43  44
ENDBRANCH  36  38
ENDBRANCH  35  36
ENDBRANCH  34  35
ENDBRANCH  33  34
ENDBRANCH  32  33
ENDBRANCH  31  32
ENDBRANCH   1  31
TORSDOF 25
ENDMDL
MODEL 3
REMARK VINA RESULT:      -9.2      1.672      2.162
REMARK SMILES Cc1ccc(OCC(=O)NNC(=O)[C@H]2CCCC[C@@H]2C(=O)OCCOCCOCCOC(=O)c2ccc(-c3c4nc(c(-c5ccc(S(=O)(=O)[O-])cc5)c5ccc([nH]5)c(-c5ccc(S(=O)(=O)[O-])cc5)c5nc(c(-c6ccc(S(=O)(=O)[O-])cc6)c6ccc3[nH]6)C=C5)C=C4)cc2)cc1
REMARK SMILES IDX 26 1 25 2 24 3 23 4 22 5 20 6 21 7 19 8 14 9 15 10 16 11
REMARK SMILES IDX 18 12 17 13 12 14 11 15 13 17 10 18 8 19 9 20 7 22 6 23 5 24
REMARK SMILES IDX 1 25 2 26 3 27 95 28 4 29 94 30 27 31 28 32 29 33 30 34
REMARK SMILES IDX 31 35 32 36 33 37 34 38 35 39 93 40 36 41 92 42 37 43 38 44
REMARK SMILES IDX 39 45 86 46 40 47 91 48 85 49 87 50 41 51 90 52 84 53 83 54
REMARK SMILES IDX 42 56 72 57 53 58 71 59 54 60 57 61 70 62 88 63 55 64 56 65
REMARK SMILES IDX 69 67 89 68 58 69 43 70 44 71 52 72 45 73 51 74 46 75 47 76
REMARK SMILES IDX 48 77 49 78 50 79 73 80 74 81 82 82 75 83 81 84 76 85 77 86
REMARK SMILES IDX 78 87 79 88 80 89 59 90 60 91 68 92 61 93 67 94 62 95 63 96
REMARK SMILES IDX 64 97 65 98 66 99
REMARK H PARENT 11 16 10 21 87 55 57 66
REMARK Flexibility Score: inf
ROOT
ATOM      1  C   UNL A   1      35.753  20.874  24.779  1.00  0.00     0.188 C 
ENDROOT
BRANCH   1   2
ATOM      2  O   UNL A   1      34.447  21.436  25.003  1.00  0.00    -0.376 OA
BRANCH   2   3
ATOM      3  C   UNL A   1      33.924  21.743  26.297  1.00  0.00     0.202 C 
BRANCH   3   4
ATOM      4  C   UNL A   1      32.321  21.969  26.457  1.00  0.00     0.261 C 
BRANCH   4   5
ATOM      5  O   UNL A   1      31.700  23.066  27.348  1.00  0.00    -0.463 OA
BRANCH   5   6
ATOM      6  C   UNL A   1      31.325  24.246  26.714  1.00  0.00     0.309 C 
ATOM      7  O   UNL A   1      30.168  24.618  26.877  1.00  0.00    -0.252 OA
BRANCH   6   8
ATOM      8  C   UNL A   1      32.227  25.085  25.707  1.00  0.00     0.111 C 
ATOM      9  C   UNL A   1      32.009  26.668  25.369  1.00  0.00     0.094 C 
ATOM     10  C   UNL A   1      30.953  27.115  24.312  1.00  0.00     0.014 C 
ATOM     11  C   UNL A   1      30.489  26.098  23.299  1.00  0.00     0.001 C 
ATOM     12  C   UNL A   1      32.091  24.316  24.385  1.00  0.00     0.016 C 
ATOM     13  C   UNL A   1      30.850  24.644  23.547  1.00  0.00     0.001 C 
BRANCH   9  14
ATOM     14  C   UNL A   1      33.239  27.253  24.656  1.00  0.00     0.242 C 
ATOM     15  N   UNL A   1      33.400  28.612  24.522  1.00  0.00    -0.267 N 
ATOM     16  H   UNL A   1      33.550  28.955  23.612  1.00  0.00     0.191 HD
ATOM     17  O   UNL A   1      33.898  26.557  23.877  1.00  0.00    -0.273 OA
BRANCH  15  18
ATOM     18  N   UNL A   1      33.374  29.547  25.548  1.00  0.00    -0.265 N 
ATOM     19  C   UNL A   1      32.232  30.277  25.824  1.00  0.00     0.276 C 
ATOM     20  O   UNL A   1      32.148  30.912  26.876  1.00  0.00    -0.269 OA
ATOM     21  H   UNL A   1      34.183  29.692  26.090  1.00  0.00     0.191 HD
BRANCH  19  22
ATOM     22  C   UNL A   1      31.011  30.175  24.884  1.00  0.00     0.331 C 
BRANCH  22  23
ATOM     23  O   UNL A   1      30.059  31.224  24.855  1.00  0.00    -0.484 OA
BRANCH  23  24
ATOM     24  C   UNL A   1      29.467  31.533  23.663  1.00  0.00     0.120 A 
ATOM     25  C   UNL A   1      27.617  32.024  19.797  1.00  0.00     0.044 C 
ATOM     26  C   UNL A   1      28.273  31.863  21.133  1.00  0.00    -0.051 A 
ATOM     27  C   UNL A   1      28.851  30.641  21.485  1.00  0.00     0.007 A 
ATOM     28  C   UNL A   1      28.322  32.922  22.047  1.00  0.00     0.007 A 
ATOM     29  C   UNL A   1      29.437  30.482  22.742  1.00  0.00     0.047 A 
ATOM     30  C   UNL A   1      28.925  32.763  23.302  1.00  0.00     0.047 A 
ENDBRANCH  23  24
ENDBRANCH  22  23
ENDBRANCH  19  22
ENDBRANCH  15  18
ENDBRANCH   9  14
ENDBRANCH   6   8
ENDBRANCH   5   6
ENDBRANCH   4   5
ENDBRANCH   3   4
ENDBRANCH   2   3
ENDBRANCH   1   2
BRANCH   1  31
ATOM     31  C   UNL A   1      37.017  21.739  24.722  1.00  0.00     0.188 C 
BRANCH  31  32
ATOM     32  O   UNL A   1      38.115  21.039  25.270  1.00  0.00    -0.376 OA
BRANCH  32  33
ATOM     33  C   UNL A   1      39.084  21.806  25.952  1.00  0.00     0.202 C 
BRANCH  33  34
ATOM     34  C   UNL A   1      40.352  21.003  26.254  1.00  0.00     0.261 C 
BRANCH  34  35
ATOM     35  O   UNL A   1      41.530  21.778  25.912  1.00  0.00    -0.460 OA
BRANCH  35  36
ATOM     36  C   UNL A   1      42.729  21.104  25.872  1.00  0.00     0.338 C 
ATOM     37  O   UNL A   1      42.818  19.982  25.400  1.00  0.00    -0.246 OA
BRANCH  36  38
ATOM     38  C   UNL A   1      43.880  21.968  26.343  1.00  0.00     0.060 A 
ATOM     39  C   UNL A   1      43.929  22.765  27.489  1.00  0.00     0.016 A 
ATOM     40  C   UNL A   1      44.951  22.121  25.514  1.00  0.00     0.016 A 
ATOM     41  C   UNL A   1      44.977  23.782  27.691  1.00  0.00     0.010 A 
ATOM     42  C   UNL A   1      45.841  23.200  25.710  1.00  0.00     0.010 A 
ATOM     43  C   UNL A   1      45.986  24.065  26.763  1.00  0.00    -0.014 A 
BRANCH  43  44
ATOM     44  C   UNL A   1      46.989  25.252  26.535  1.00  0.00     0.031 A 
ATOM     45  C   UNL A   1      48.538  25.350  26.799  1.00  0.00     0.074 A 
ATOM     46  C   UNL A   1      46.568  26.247  25.735  1.00  0.00     0.049 A 
ATOM     47  N   UNL A   1      49.534  25.464  25.942  1.00  0.00    -0.248 NA
ATOM     48  C   UNL A   1      49.059  25.410  28.169  1.00  0.00     0.031 C 
ATOM     49  C   UNL A   1      47.356  27.317  25.134  1.00  0.00     0.029 A 
ATOM     50  N   UNL A   1      45.253  26.642  25.560  1.00  0.00    -0.354 N 
ATOM     51  C   UNL A   1      50.760  25.361  26.648  1.00  0.00     0.074 A 
ATOM     52  C   UNL A   1      50.361  25.131  28.039  1.00  0.00     0.031 C 
ATOM     53  C   UNL A   1      46.558  28.383  24.969  1.00  0.00     0.029 A 
ATOM     54  C   UNL A   1      45.266  28.042  25.531  1.00  0.00     0.049 A 
ATOM     55  H   UNL A   1      44.467  26.056  25.471  1.00  0.00     0.167 HD
ATOM     56  C   UNL A   1      51.807  26.244  26.591  1.00  0.00     0.031 A 
ATOM     57  C   UNL A   1      44.702  28.667  26.602  1.00  0.00     0.031 A 
ATOM     58  C   UNL A   1      51.336  27.616  26.671  1.00  0.00     0.049 A 
ATOM     59  C   UNL A   1      45.760  29.254  27.525  1.00  0.00     0.074 A 
ATOM     60  C   UNL A   1      51.168  28.623  25.749  1.00  0.00     0.029 A 
ATOM     61  N   UNL A   1      50.658  28.025  27.820  1.00  0.00    -0.354 N 
ATOM     62  N   UNL A   1      47.029  28.910  27.591  1.00  0.00    -0.248 NA
ATOM     63  C   UNL A   1      45.454  30.400  28.364  1.00  0.00     0.031 C 
ATOM     64  C   UNL A   1      50.228  29.545  26.299  1.00  0.00     0.029 A 
ATOM     65  C   UNL A   1      49.890  29.146  27.584  1.00  0.00     0.049 A 
ATOM     66  H   UNL A   1      50.719  27.569  28.690  1.00  0.00     0.167 HD
ATOM     67  C   UNL A   1      47.709  29.785  28.419  1.00  0.00     0.074 A 
ATOM     68  C   UNL A   1      46.662  30.687  28.873  1.00  0.00     0.031 C 
ATOM     69  C   UNL A   1      49.070  29.764  28.637  1.00  0.00     0.031 A 
BRANCH  56  70
ATOM     70  C   UNL A   1      53.240  25.745  26.829  1.00  0.00    -0.014 A 
ATOM     71  C   UNL A   1      53.802  24.749  26.003  1.00  0.00     0.010 A 
ATOM     72  C   UNL A   1      54.044  26.160  27.925  1.00  0.00     0.010 A 
ATOM     73  C   UNL A   1      55.061  24.162  26.282  1.00  0.00     0.020 A 
ATOM     74  C   UNL A   1      55.315  25.599  28.197  1.00  0.00     0.020 A 
ATOM     75  C   UNL A   1      55.803  24.575  27.389  1.00  0.00     0.054 A 
BRANCH  75  76
ATOM     76  S   UNL A   1      57.366  23.724  27.793  1.00  0.00     0.124 S 
ATOM     77  O   UNL A   1      58.250  24.838  28.130  1.00  0.00    -0.237 OA
ATOM     78  O   UNL A   1      56.992  22.862  28.910  1.00  0.00    -0.237 OA
ATOM     79  O   UNL A   1      57.713  23.017  26.560  1.00  0.00    -0.744 OA
ENDBRANCH  75  76
ENDBRANCH  56  70
BRANCH  57  80
ATOM     80  C   UNL A   1      43.333  28.094  26.882  1.00  0.00    -0.014 A 
ATOM     81  C   UNL A   1      43.189  27.544  28.187  1.00  0.00     0.010 A 
ATOM     82  C   UNL A   1      42.161  28.484  26.214  1.00  0.00     0.010 A 
ATOM     83  C   UNL A   1      41.990  27.647  28.895  1.00  0.00     0.020 A 
ATOM     84  C   UNL A   1      40.924  28.516  26.909  1.00  0.00     0.020 A 
ATOM     85  C   UNL A   1      40.879  28.200  28.272  1.00  0.00     0.054 A 
BRANCH  85  86
ATOM     86  S   UNL A   1      39.488  28.696  29.345  1.00  0.00     0.124 S 
ATOM     87  O   UNL A   1      38.323  28.336  28.541  1.00  0.00    -0.237 OA
ATOM     88  O   UNL A   1      39.712  27.858  30.526  1.00  0.00    -0.237 OA
ATOM     89  O   UNL A   1      39.689  30.124  29.549  1.00  0.00    -0.744 OA
ENDBRANCH  85  86
ENDBRANCH  57  80
BRANCH  69  90
ATOM     90  C   UNL A   1      49.808  30.456  29.794  1.00  0.00    -0.014 A 
ATOM     91  C   UNL A   1      50.979  31.217  29.668  1.00  0.00     0.010 A 
ATOM     92  C   UNL A   1      49.290  30.371  31.115  1.00  0.00     0.010 A 
ATOM     93  C   UNL A   1      51.623  31.801  30.770  1.00  0.00     0.020 A 
ATOM     94  C   UNL A   1      49.902  30.975  32.224  1.00  0.00     0.020 A 
ATOM     95  C   UNL A   1      51.084  31.672  32.044  1.00  0.00     0.054 A 
BRANCH  95  96
ATOM     96  S   UNL A   1      51.947  32.441  33.432  1.00  0.00     0.124 S 
ATOM     97  O   UNL A   1      50.838  32.949  34.235  1.00  0.00    -0.237 OA
ATOM     98  O   UNL A   1      52.674  31.314  34.011  1.00  0.00    -0.237 OA
ATOM     99  O   UNL A   1      52.784  33.458  32.803  1.00  0.00    -0.744 OA
ENDBRANCH  95  96
ENDBRANCH  69  90
ENDBRANCH  43  44
ENDBRANCH  36  38
ENDBRANCH  35  36
ENDBRANCH  34  35
ENDBRANCH  33  34
ENDBRANCH  32  33
ENDBRANCH  31  32
ENDBRANCH   1  31
TORSDOF 25
ENDMDL
