MODEL 1
REMARK VINA RESULT:     -10.3      0.000      0.000
REMARK SMILES O=C(OCCOCCOCCOC(=O)c1nn(Cc2ccc(F)cc2)c2c1CN(C(=O)[C@H]1CC1(F)F)CC2)c1ccc(-c2c3nc(c(-c4ccc(S(=O)(=O)[O-])cc4)c4ccc([nH]4)c(-c4ccc(S(=O)(=O)[O-])cc4)c4nc(c(-c5ccc(S(=O)(=O)[O-])cc5)c5ccc2[nH]5)C=C4)C=C3)cc1
REMARK SMILES IDX 7 1 6 2 5 3 4 4 3 5 2 6 1 7 39 8 40 9 98 10 41 11 97 12
REMARK SMILES IDX 42 13 43 14 44 15 91 16 45 17 96 18 90 19 92 20 46 21 95 22
REMARK SMILES IDX 89 23 88 24 47 26 77 27 58 28 76 29 59 30 62 31 75 32 93 33
REMARK SMILES IDX 60 34 61 35 74 37 94 38 63 39 48 40 49 41 57 42 50 43 56 44
REMARK SMILES IDX 51 45 52 46 53 47 54 48 55 49 78 50 79 51 87 52 80 53 86 54
REMARK SMILES IDX 81 55 82 56 83 57 84 58 85 59 64 60 65 61 73 62 66 63 72 64
REMARK SMILES IDX 67 65 68 66 69 67 70 68 71 69 8 70 9 71 10 72 11 73 12 74
REMARK SMILES IDX 13 75 14 76 15 77 16 78 27 79 17 80 26 81 28 82 38 83 29 84
REMARK SMILES IDX 37 85 18 86 19 87 20 88 25 89 21 90 24 91 22 92 23 93 30 94
REMARK SMILES IDX 31 95 32 96 33 97 34 98 35 99 36 100
REMARK H PARENT 92 25 62 36
REMARK Flexibility Score: inf
ROOT
ATOM      1  C   UNL A   1      42.018  22.221  27.515  1.00  0.00     0.188 C 
ENDROOT
BRANCH   1   2
ATOM      2  O   UNL A   1      42.521  21.774  26.263  1.00  0.00    -0.376 OA
BRANCH   2   3
ATOM      3  C   UNL A   1      43.578  22.513  25.687  1.00  0.00     0.202 C 
BRANCH   3   4
ATOM      4  C   UNL A   1      44.920  22.393  26.416  1.00  0.00     0.261 C 
BRANCH   4   5
ATOM      5  O   UNL A   1      45.773  23.543  26.291  1.00  0.00    -0.460 OA
BRANCH   5   6
ATOM      6  C   UNL A   1      45.720  24.603  25.464  1.00  0.00     0.338 C 
ATOM      7  O   UNL A   1      46.192  24.493  24.335  1.00  0.00    -0.246 OA
BRANCH   6   8
ATOM      8  C   UNL A   1      45.300  25.958  25.918  1.00  0.00     0.060 A 
ATOM      9  C   UNL A   1      45.834  26.657  27.000  1.00  0.00     0.016 A 
ATOM     10  C   UNL A   1      44.225  26.532  25.208  1.00  0.00     0.016 A 
ATOM     11  C   UNL A   1      45.235  27.831  27.444  1.00  0.00     0.010 A 
ATOM     12  C   UNL A   1      43.624  27.705  25.646  1.00  0.00     0.010 A 
ATOM     13  C   UNL A   1      44.088  28.308  26.812  1.00  0.00    -0.014 A 
BRANCH  13  14
ATOM     14  C   UNL A   1      43.330  29.349  27.498  1.00  0.00     0.031 A 
ATOM     15  C   UNL A   1      43.812  30.749  27.403  1.00  0.00     0.074 A 
ATOM     16  C   UNL A   1      42.192  29.065  28.161  1.00  0.00     0.049 A 
ATOM     17  N   UNL A   1      44.203  31.531  28.358  1.00  0.00    -0.248 NA
ATOM     18  C   UNL A   1      43.902  31.344  26.064  1.00  0.00     0.031 C 
ATOM     19  C   UNL A   1      41.428  27.812  28.124  1.00  0.00     0.029 A 
ATOM     20  N   UNL A   1      41.410  29.887  28.916  1.00  0.00    -0.354 N 
ATOM     21  C   UNL A   1      44.422  32.775  27.775  1.00  0.00     0.074 A 
ATOM     22  C   UNL A   1      44.328  32.576  26.347  1.00  0.00     0.031 C 
ATOM     23  C   UNL A   1      40.191  28.039  28.612  1.00  0.00     0.029 A 
ATOM     24  C   UNL A   1      40.129  29.398  29.119  1.00  0.00     0.049 A 
ATOM     25  H   UNL A   1      41.725  30.745  29.283  1.00  0.00     0.167 HD
ATOM     26  C   UNL A   1      44.486  33.931  28.494  1.00  0.00     0.031 A 
ATOM     27  C   UNL A   1      39.061  30.085  29.588  1.00  0.00     0.031 A 
ATOM     28  C   UNL A   1      44.638  33.706  29.903  1.00  0.00     0.049 A 
ATOM     29  C   UNL A   1      39.560  31.270  30.322  1.00  0.00     0.074 A 
ATOM     30  C   UNL A   1      45.590  33.114  30.707  1.00  0.00     0.029 A 
ATOM     31  N   UNL A   1      43.529  33.884  30.697  1.00  0.00    -0.354 N 
ATOM     32  N   UNL A   1      40.213  31.203  31.449  1.00  0.00    -0.248 NA
ATOM     33  C   UNL A   1      39.658  32.544  29.626  1.00  0.00     0.031 C 
ATOM     34  C   UNL A   1      44.866  32.561  31.802  1.00  0.00     0.029 A 
ATOM     35  C   UNL A   1      43.515  32.860  31.608  1.00  0.00     0.049 A 
ATOM     36  H   UNL A   1      42.870  34.610  30.623  1.00  0.00     0.167 HD
ATOM     37  C   UNL A   1      41.116  32.255  31.406  1.00  0.00     0.074 A 
ATOM     38  C   UNL A   1      40.640  33.114  30.328  1.00  0.00     0.031 C 
ATOM     39  C   UNL A   1      42.314  32.185  32.058  1.00  0.00     0.031 A 
BRANCH  26  40
ATOM     40  C   UNL A   1      44.084  35.279  27.953  1.00  0.00    -0.014 A 
ATOM     41  C   UNL A   1      44.679  36.445  28.478  1.00  0.00     0.010 A 
ATOM     42  C   UNL A   1      42.945  35.447  27.139  1.00  0.00     0.010 A 
ATOM     43  C   UNL A   1      44.127  37.711  28.241  1.00  0.00     0.020 A 
ATOM     44  C   UNL A   1      42.414  36.708  26.860  1.00  0.00     0.020 A 
ATOM     45  C   UNL A   1      42.987  37.830  27.444  1.00  0.00     0.054 A 
BRANCH  45  46
ATOM     46  S   UNL A   1      42.208  39.452  27.238  1.00  0.00     0.124 S 
ATOM     47  O   UNL A   1      41.755  39.739  28.595  1.00  0.00    -0.237 OA
ATOM     48  O   UNL A   1      43.314  40.271  26.751  1.00  0.00    -0.237 OA
ATOM     49  O   UNL A   1      41.152  39.197  26.262  1.00  0.00    -0.744 OA
ENDBRANCH  45  46
ENDBRANCH  26  40
BRANCH  27  50
ATOM     50  C   UNL A   1      37.652  29.920  29.161  1.00  0.00    -0.014 A 
ATOM     51  C   UNL A   1      36.623  30.683  29.739  1.00  0.00     0.010 A 
ATOM     52  C   UNL A   1      37.348  29.183  27.996  1.00  0.00     0.010 A 
ATOM     53  C   UNL A   1      35.353  30.746  29.141  1.00  0.00     0.020 A 
ATOM     54  C   UNL A   1      36.084  29.229  27.403  1.00  0.00     0.020 A 
ATOM     55  C   UNL A   1      35.099  30.032  27.966  1.00  0.00     0.054 A 
BRANCH  55  56
ATOM     56  S   UNL A   1      33.518  30.262  27.104  1.00  0.00     0.124 S 
ATOM     57  O   UNL A   1      32.673  29.252  27.732  1.00  0.00    -0.237 OA
ATOM     58  O   UNL A   1      33.187  31.649  27.414  1.00  0.00    -0.237 OA
ATOM     59  O   UNL A   1      33.852  30.009  25.702  1.00  0.00    -0.744 OA
ENDBRANCH  55  56
ENDBRANCH  27  50
BRANCH  39  60
ATOM     60  C   UNL A   1      42.501  31.113  33.107  1.00  0.00    -0.014 A 
ATOM     61  C   UNL A   1      42.420  31.372  34.489  1.00  0.00     0.010 A 
ATOM     62  C   UNL A   1      42.602  29.777  32.680  1.00  0.00     0.010 A 
ATOM     63  C   UNL A   1      42.462  30.323  35.418  1.00  0.00     0.020 A 
ATOM     64  C   UNL A   1      42.625  28.726  33.601  1.00  0.00     0.020 A 
ATOM     65  C   UNL A   1      42.561  29.005  34.967  1.00  0.00     0.054 A 
BRANCH  65  66
ATOM     66  S   UNL A   1      42.530  27.652  36.175  1.00  0.00     0.124 S 
ATOM     67  O   UNL A   1      41.191  27.098  35.996  1.00  0.00    -0.237 OA
ATOM     68  O   UNL A   1      43.630  26.796  35.734  1.00  0.00    -0.237 OA
ATOM     69  O   UNL A   1      42.757  28.323  37.455  1.00  0.00    -0.744 OA
ENDBRANCH  65  66
ENDBRANCH  39  60
ENDBRANCH  13  14
ENDBRANCH   6   8
ENDBRANCH   5   6
ENDBRANCH   4   5
ENDBRANCH   3   4
ENDBRANCH   2   3
ENDBRANCH   1   2
BRANCH   1  70
ATOM     70  C   UNL A   1      40.527  22.609  27.450  1.00  0.00     0.188 C 
BRANCH  70  71
ATOM     71  O   UNL A   1      39.799  22.491  26.229  1.00  0.00    -0.376 OA
BRANCH  71  72
ATOM     72  C   UNL A   1      39.144  21.280  25.904  1.00  0.00     0.202 C 
BRANCH  72  73
ATOM     73  C   UNL A   1      37.813  21.403  25.166  1.00  0.00     0.261 C 
BRANCH  73  74
ATOM     74  O   UNL A   1      37.508  22.713  24.672  1.00  0.00    -0.458 OA
BRANCH  74  75
ATOM     75  C   UNL A   1      36.623  23.453  25.412  1.00  0.00     0.359 C 
ATOM     76  O   UNL A   1      36.904  24.072  26.428  1.00  0.00    -0.244 OA
BRANCH  75  77
ATOM     77  C   UNL A   1      35.281  23.455  24.819  1.00  0.00     0.175 A 
ATOM     78  N   UNL A   1      34.866  24.494  24.066  1.00  0.00    -0.165 NA
ATOM     79  C   UNL A   1      34.274  22.448  24.889  1.00  0.00     0.028 A 
ATOM     80  N   UNL A   1      33.622  24.157  23.659  1.00  0.00    -0.264 N 
ATOM     81  C   UNL A   1      33.212  22.967  24.176  1.00  0.00     0.046 A 
ATOM     82  C   UNL A   1      34.236  21.120  25.578  1.00  0.00     0.159 C 
ATOM     83  C   UNL A   1      31.900  22.292  23.997  1.00  0.00     0.078 C 
ATOM     84  N   UNL A   1      32.985  20.413  25.227  1.00  0.00    -0.337 N 
ATOM     85  C   UNL A   1      31.760  21.229  25.105  1.00  0.00     0.126 C 
BRANCH  80  86
ATOM     86  C   UNL A   1      32.954  24.968  22.648  1.00  0.00     0.180 C 
BRANCH  86  87
ATOM     87  C   UNL A   1      32.338  26.219  23.221  1.00  0.00    -0.026 A 
ATOM     88  C   UNL A   1      31.650  26.172  24.448  1.00  0.00     0.008 A 
ATOM     89  C   UNL A   1      32.461  27.449  22.558  1.00  0.00     0.008 A 
ATOM     90  C   UNL A   1      31.106  27.329  25.001  1.00  0.00     0.039 A 
ATOM     91  C   UNL A   1      31.918  28.608  23.116  1.00  0.00     0.039 A 
ATOM     92  C   UNL A   1      31.249  28.538  24.333  1.00  0.00     0.123 A 
ATOM     93  F   UNL A   1      30.739  29.652  24.872  1.00  0.00    -0.207 F 
ENDBRANCH  86  87
ENDBRANCH  80  86
BRANCH  84  94
ATOM     94  C   UNL A   1      33.018  19.025  25.156  1.00  0.00     0.232 C 
ATOM     95  O   UNL A   1      32.333  18.304  25.869  1.00  0.00    -0.274 OA
BRANCH  94  96
ATOM     96  C   UNL A   1      33.896  18.415  24.135  1.00  0.00     0.154 C 
ATOM     97  C   UNL A   1      35.148  17.653  24.543  1.00  0.00     0.097 C 
ATOM     98  C   UNL A   1      33.965  16.940  24.006  1.00  0.00     0.260 C 
ATOM     99  F   UNL A   1      33.291  16.071  24.831  1.00  0.00    -0.206 F 
ATOM    100  F   UNL A   1      34.059  16.341  22.770  1.00  0.00    -0.206 F 
ENDBRANCH  94  96
ENDBRANCH  84  94
ENDBRANCH  75  77
ENDBRANCH  74  75
ENDBRANCH  73  74
ENDBRANCH  72  73
ENDBRANCH  71  72
ENDBRANCH  70  71
ENDBRANCH   1  70
TORSDOF 24
ENDMDL
MODEL 2
REMARK VINA RESULT:     -10.2      1.910      2.614
REMARK SMILES O=C(OCCOCCOCCOC(=O)c1nn(Cc2ccc(F)cc2)c2c1CN(C(=O)[C@H]1CC1(F)F)CC2)c1ccc(-c2c3nc(c(-c4ccc(S(=O)(=O)[O-])cc4)c4ccc([nH]4)c(-c4ccc(S(=O)(=O)[O-])cc4)c4nc(c(-c5ccc(S(=O)(=O)[O-])cc5)c5ccc2[nH]5)C=C4)C=C3)cc1
REMARK SMILES IDX 7 1 6 2 5 3 4 4 3 5 2 6 1 7 39 8 40 9 98 10 41 11 97 12
REMARK SMILES IDX 42 13 43 14 44 15 91 16 45 17 96 18 90 19 92 20 46 21 95 22
REMARK SMILES IDX 89 23 88 24 47 26 77 27 58 28 76 29 59 30 62 31 75 32 93 33
REMARK SMILES IDX 60 34 61 35 74 37 94 38 63 39 48 40 49 41 57 42 50 43 56 44
REMARK SMILES IDX 51 45 52 46 53 47 54 48 55 49 78 50 79 51 87 52 80 53 86 54
REMARK SMILES IDX 81 55 82 56 83 57 84 58 85 59 64 60 65 61 73 62 66 63 72 64
REMARK SMILES IDX 67 65 68 66 69 67 70 68 71 69 8 70 9 71 10 72 11 73 12 74
REMARK SMILES IDX 13 75 14 76 15 77 16 78 27 79 17 80 26 81 28 82 38 83 29 84
REMARK SMILES IDX 37 85 18 86 19 87 20 88 25 89 21 90 24 91 22 92 23 93 30 94
REMARK SMILES IDX 31 95 32 96 33 97 34 98 35 99 36 100
REMARK H PARENT 92 25 62 36
REMARK Flexibility Score: inf
ROOT
ATOM      1  C   UNL A   1      42.543  20.723  25.860  1.00  0.00     0.188 C 
ENDROOT
BRANCH   1   2
ATOM      2  O   UNL A   1      42.472  21.861  25.012  1.00  0.00    -0.376 OA
BRANCH   2   3
ATOM      3  C   UNL A   1      43.113  23.040  25.453  1.00  0.00     0.202 C 
BRANCH   3   4
ATOM      4  C   UNL A   1      44.052  22.854  26.649  1.00  0.00     0.261 C 
BRANCH   4   5
ATOM      5  O   UNL A   1      44.988  23.927  26.846  1.00  0.00    -0.460 OA
BRANCH   5   6
ATOM      6  C   UNL A   1      45.053  25.159  26.311  1.00  0.00     0.338 C 
ATOM      7  O   UNL A   1      45.815  25.350  25.366  1.00  0.00    -0.246 OA
BRANCH   6   8
ATOM      8  C   UNL A   1      44.400  26.344  26.933  1.00  0.00     0.060 A 
ATOM      9  C   UNL A   1      43.447  27.162  26.327  1.00  0.00     0.016 A 
ATOM     10  C   UNL A   1      44.852  26.678  28.227  1.00  0.00     0.016 A 
ATOM     11  C   UNL A   1      43.049  28.347  26.935  1.00  0.00     0.010 A 
ATOM     12  C   UNL A   1      44.456  27.860  28.840  1.00  0.00     0.010 A 
ATOM     13  C   UNL A   1      43.613  28.728  28.152  1.00  0.00    -0.014 A 
BRANCH  13  14
ATOM     14  C   UNL A   1      43.401  30.105  28.586  1.00  0.00     0.031 A 
ATOM     15  C   UNL A   1      44.337  31.149  28.099  1.00  0.00     0.074 A 
ATOM     16  C   UNL A   1      42.356  30.440  29.368  1.00  0.00     0.049 A 
ATOM     17  N   UNL A   1      45.128  31.905  28.789  1.00  0.00    -0.248 NA
ATOM     18  C   UNL A   1      44.426  31.352  26.647  1.00  0.00     0.031 C 
ATOM     19  C   UNL A   1      41.195  29.609  29.706  1.00  0.00     0.029 A 
ATOM     20  N   UNL A   1      42.053  31.646  29.926  1.00  0.00    -0.354 N 
ATOM     21  C   UNL A   1      45.689  32.805  27.888  1.00  0.00     0.074 A 
ATOM     22  C   UNL A   1      45.308  32.350  26.571  1.00  0.00     0.031 C 
ATOM     23  C   UNL A   1      40.216  30.401  30.191  1.00  0.00     0.029 A 
ATOM     24  C   UNL A   1      40.730  31.752  30.327  1.00  0.00     0.049 A 
ATOM     25  H   UNL A   1      42.710  32.371  30.036  1.00  0.00     0.167 HD
ATOM     26  C   UNL A   1      46.279  33.971  28.274  1.00  0.00     0.031 A 
ATOM     27  C   UNL A   1      40.071  32.886  30.662  1.00  0.00     0.031 A 
ATOM     28  C   UNL A   1      46.557  34.019  29.681  1.00  0.00     0.049 A 
ATOM     29  C   UNL A   1      41.073  33.912  31.029  1.00  0.00     0.074 A 
ATOM     30  C   UNL A   1      47.343  33.295  30.553  1.00  0.00     0.029 A 
ATOM     31  N   UNL A   1      45.726  34.785  30.465  1.00  0.00    -0.354 N 
ATOM     32  N   UNL A   1      41.825  33.845  32.092  1.00  0.00    -0.248 NA
ATOM     33  C   UNL A   1      41.516  34.861  30.018  1.00  0.00     0.031 C 
ATOM     34  C   UNL A   1      46.647  33.323  31.796  1.00  0.00     0.029 A 
ATOM     35  C   UNL A   1      45.484  34.074  31.613  1.00  0.00     0.049 A 
ATOM     36  H   UNL A   1      45.371  35.675  30.244  1.00  0.00     0.167 HD
ATOM     37  C   UNL A   1      43.029  34.424  31.721  1.00  0.00     0.074 A 
ATOM     38  C   UNL A   1      42.735  35.142  30.486  1.00  0.00     0.031 C 
ATOM     39  C   UNL A   1      44.206  34.037  32.295  1.00  0.00     0.031 A 
BRANCH  26  40
ATOM     40  C   UNL A   1      46.313  35.214  27.423  1.00  0.00    -0.014 A 
ATOM     41  C   UNL A   1      47.549  35.689  26.934  1.00  0.00     0.010 A 
ATOM     42  C   UNL A   1      45.205  36.079  27.321  1.00  0.00     0.010 A 
ATOM     43  C   UNL A   1      47.674  36.985  26.416  1.00  0.00     0.020 A 
ATOM     44  C   UNL A   1      45.310  37.355  26.765  1.00  0.00     0.020 A 
ATOM     45  C   UNL A   1      46.554  37.815  26.350  1.00  0.00     0.054 A 
BRANCH  45  46
ATOM     46  S   UNL A   1      46.744  39.528  25.792  1.00  0.00     0.124 S 
ATOM     47  O   UNL A   1      46.885  39.357  24.350  1.00  0.00    -0.237 OA
ATOM     48  O   UNL A   1      45.496  40.142  26.240  1.00  0.00    -0.237 OA
ATOM     49  O   UNL A   1      47.942  39.980  26.494  1.00  0.00    -0.744 OA
ENDBRANCH  45  46
ENDBRANCH  26  40
BRANCH  27  50
ATOM     50  C   UNL A   1      38.650  33.194  30.379  1.00  0.00    -0.014 A 
ATOM     51  C   UNL A   1      38.285  34.034  29.314  1.00  0.00     0.010 A 
ATOM     52  C   UNL A   1      37.627  32.453  31.010  1.00  0.00     0.010 A 
ATOM     53  C   UNL A   1      36.956  34.089  28.864  1.00  0.00     0.020 A 
ATOM     54  C   UNL A   1      36.300  32.513  30.579  1.00  0.00     0.020 A 
ATOM     55  C   UNL A   1      35.975  33.313  29.489  1.00  0.00     0.054 A 
BRANCH  55  56
ATOM     56  S   UNL A   1      34.302  33.250  28.790  1.00  0.00     0.124 S 
ATOM     57  O   UNL A   1      34.460  33.988  27.540  1.00  0.00    -0.237 OA
ATOM     58  O   UNL A   1      34.069  31.815  28.654  1.00  0.00    -0.237 OA
ATOM     59  O   UNL A   1      33.480  33.913  29.802  1.00  0.00    -0.744 OA
ENDBRANCH  55  56
ENDBRANCH  27  50
BRANCH  39  60
ATOM     60  C   UNL A   1      44.154  33.236  33.575  1.00  0.00    -0.014 A 
ATOM     61  C   UNL A   1      44.199  33.828  34.853  1.00  0.00     0.010 A 
ATOM     62  C   UNL A   1      43.889  31.857  33.484  1.00  0.00     0.010 A 
ATOM     63  C   UNL A   1      44.007  33.058  36.007  1.00  0.00     0.020 A 
ATOM     64  C   UNL A   1      43.678  31.087  34.632  1.00  0.00     0.020 A 
ATOM     65  C   UNL A   1      43.744  31.690  35.889  1.00  0.00     0.054 A 
BRANCH  65  66
ATOM     66  S   UNL A   1      43.415  30.720  37.386  1.00  0.00     0.124 S 
ATOM     67  O   UNL A   1      43.145  29.390  36.849  1.00  0.00    -0.237 OA
ATOM     68  O   UNL A   1      44.660  30.854  38.140  1.00  0.00    -0.237 OA
ATOM     69  O   UNL A   1      42.264  31.391  37.989  1.00  0.00    -0.744 OA
ENDBRANCH  65  66
ENDBRANCH  39  60
ENDBRANCH  13  14
ENDBRANCH   6   8
ENDBRANCH   5   6
ENDBRANCH   4   5
ENDBRANCH   3   4
ENDBRANCH   2   3
ENDBRANCH   1   2
BRANCH   1  70
ATOM     70  C   UNL A   1      41.212  20.441  26.587  1.00  0.00     0.188 C 
BRANCH  70  71
ATOM     71  O   UNL A   1      40.457  21.508  27.157  1.00  0.00    -0.376 OA
BRANCH  71  72
ATOM     72  C   UNL A   1      39.553  22.247  26.359  1.00  0.00     0.202 C 
BRANCH  72  73
ATOM     73  C   UNL A   1      38.395  21.465  25.742  1.00  0.00     0.261 C 
BRANCH  73  74
ATOM     74  O   UNL A   1      37.637  22.174  24.754  1.00  0.00    -0.458 OA
BRANCH  74  75
ATOM     75  C   UNL A   1      36.819  23.173  25.213  1.00  0.00     0.359 C 
ATOM     76  O   UNL A   1      37.140  24.022  26.032  1.00  0.00    -0.244 OA
BRANCH  75  77
ATOM     77  C   UNL A   1      35.500  23.139  24.572  1.00  0.00     0.175 A 
ATOM     78  N   UNL A   1      35.119  24.126  23.735  1.00  0.00    -0.165 NA
ATOM     79  C   UNL A   1      34.486  22.142  24.671  1.00  0.00     0.028 A 
ATOM     80  N   UNL A   1      33.890  23.765  23.306  1.00  0.00    -0.264 N 
ATOM     81  C   UNL A   1      33.454  22.614  23.886  1.00  0.00     0.046 A 
ATOM     82  C   UNL A   1      34.416  20.864  25.447  1.00  0.00     0.159 C 
ATOM     83  C   UNL A   1      32.147  21.932  23.704  1.00  0.00     0.078 C 
ATOM     84  N   UNL A   1      33.175  20.138  25.098  1.00  0.00    -0.337 N 
ATOM     85  C   UNL A   1      31.960  20.947  24.876  1.00  0.00     0.126 C 
BRANCH  80  86
ATOM     86  C   UNL A   1      33.263  24.507  22.218  1.00  0.00     0.180 C 
BRANCH  86  87
ATOM     87  C   UNL A   1      32.442  25.673  22.707  1.00  0.00    -0.026 A 
ATOM     88  C   UNL A   1      32.974  26.975  22.680  1.00  0.00     0.008 A 
ATOM     89  C   UNL A   1      31.131  25.483  23.171  1.00  0.00     0.008 A 
ATOM     90  C   UNL A   1      32.210  28.062  23.100  1.00  0.00     0.039 A 
ATOM     91  C   UNL A   1      30.366  26.575  23.587  1.00  0.00     0.039 A 
ATOM     92  C   UNL A   1      30.911  27.853  23.545  1.00  0.00     0.123 A 
ATOM     93  F   UNL A   1      30.173  28.900  23.934  1.00  0.00    -0.207 F 
ENDBRANCH  86  87
ENDBRANCH  80  86
BRANCH  84  94
ATOM     94  C   UNL A   1      33.203  18.749  25.123  1.00  0.00     0.232 C 
ATOM     95  O   UNL A   1      32.426  18.076  25.787  1.00  0.00    -0.274 OA
BRANCH  94  96
ATOM     96  C   UNL A   1      34.198  18.071  24.265  1.00  0.00     0.154 C 
ATOM     97  C   UNL A   1      35.026  16.913  24.801  1.00  0.00     0.097 C 
ATOM     98  C   UNL A   1      33.954  16.683  23.804  1.00  0.00     0.260 C 
ATOM     99  F   UNL A   1      32.860  15.940  24.176  1.00  0.00    -0.206 F 
ATOM    100  F   UNL A   1      34.307  16.287  22.534  1.00  0.00    -0.206 F 
ENDBRANCH  94  96
ENDBRANCH  84  94
ENDBRANCH  75  77
ENDBRANCH  74  75
ENDBRANCH  73  74
ENDBRANCH  72  73
ENDBRANCH  71  72
ENDBRANCH  70  71
ENDBRANCH   1  70
TORSDOF 24
ENDMDL
MODEL 3
REMARK VINA RESULT:     -10.0      3.666      9.066
REMARK SMILES O=C(OCCOCCOCCOC(=O)c1nn(Cc2ccc(F)cc2)c2c1CN(C(=O)[C@H]1CC1(F)F)CC2)c1ccc(-c2c3nc(c(-c4ccc(S(=O)(=O)[O-])cc4)c4ccc([nH]4)c(-c4ccc(S(=O)(=O)[O-])cc4)c4nc(c(-c5ccc(S(=O)(=O)[O-])cc5)c5ccc2[nH]5)C=C4)C=C3)cc1
REMARK SMILES IDX 7 1 6 2 5 3 4 4 3 5 2 6 1 7 39 8 40 9 98 10 41 11 97 12
REMARK SMILES IDX 42 13 43 14 44 15 91 16 45 17 96 18 90 19 92 20 46 21 95 22
REMARK SMILES IDX 89 23 88 24 47 26 77 27 58 28 76 29 59 30 62 31 75 32 93 33
REMARK SMILES IDX 60 34 61 35 74 37 94 38 63 39 48 40 49 41 57 42 50 43 56 44
REMARK SMILES IDX 51 45 52 46 53 47 54 48 55 49 78 50 79 51 87 52 80 53 86 54
REMARK SMILES IDX 81 55 82 56 83 57 84 58 85 59 64 60 65 61 73 62 66 63 72 64
REMARK SMILES IDX 67 65 68 66 69 67 70 68 71 69 8 70 9 71 10 72 11 73 12 74
REMARK SMILES IDX 13 75 14 76 15 77 16 78 27 79 17 80 26 81 28 82 38 83 29 84
REMARK SMILES IDX 37 85 18 86 19 87 20 88 25 89 21 90 24 91 22 92 23 93 30 94
REMARK SMILES IDX 31 95 32 96 33 97 34 98 35 99 36 100
REMARK H PARENT 92 25 62 36
REMARK Flexibility Score: inf
ROOT
ATOM      1  C   UNL A   1      46.445  26.120  29.350  1.00  0.00     0.188 C 
ENDROOT
BRANCH   1   2
ATOM      2  O   UNL A   1      47.100  26.225  28.093  1.00  0.00    -0.376 OA
BRANCH   2   3
ATOM      3  C   UNL A   1      46.943  25.151  27.188  1.00  0.00     0.202 C 
BRANCH   3   4
ATOM      4  C   UNL A   1      46.773  25.563  25.723  1.00  0.00     0.261 C 
BRANCH   4   5
ATOM      5  O   UNL A   1      45.628  26.391  25.463  1.00  0.00    -0.460 OA
BRANCH   5   6
ATOM      6  C   UNL A   1      45.508  27.723  25.317  1.00  0.00     0.338 C 
ATOM      7  O   UNL A   1      46.053  28.260  24.355  1.00  0.00    -0.246 OA
BRANCH   6   8
ATOM      8  C   UNL A   1      44.921  28.599  26.367  1.00  0.00     0.060 A 
ATOM      9  C   UNL A   1      45.638  29.392  27.262  1.00  0.00     0.016 A 
ATOM     10  C   UNL A   1      43.516  28.555  26.481  1.00  0.00     0.016 A 
ATOM     11  C   UNL A   1      44.991  30.021  28.320  1.00  0.00     0.010 A 
ATOM     12  C   UNL A   1      42.864  29.183  27.535  1.00  0.00     0.010 A 
ATOM     13  C   UNL A   1      43.618  29.850  28.495  1.00  0.00    -0.014 A 
BRANCH  13  14
ATOM     14  C   UNL A   1      43.051  30.264  29.774  1.00  0.00     0.031 A 
ATOM     15  C   UNL A   1      42.940  29.253  30.855  1.00  0.00     0.074 A 
ATOM     16  C   UNL A   1      42.681  31.541  29.996  1.00  0.00     0.049 A 
ATOM     17  N   UNL A   1      41.872  28.816  31.440  1.00  0.00    -0.248 NA
ATOM     18  C   UNL A   1      44.182  28.623  31.322  1.00  0.00     0.031 C 
ATOM     19  C   UNL A   1      42.974  32.711  29.160  1.00  0.00     0.029 A 
ATOM     20  N   UNL A   1      42.067  32.079  31.087  1.00  0.00    -0.354 N 
ATOM     21  C   UNL A   1      42.305  27.988  32.470  1.00  0.00     0.074 A 
ATOM     22  C   UNL A   1      43.727  27.818  32.283  1.00  0.00     0.031 C 
ATOM     23  C   UNL A   1      42.762  33.830  29.883  1.00  0.00     0.029 A 
ATOM     24  C   UNL A   1      42.191  33.458  31.166  1.00  0.00     0.049 A 
ATOM     25  H   UNL A   1      41.582  31.542  31.755  1.00  0.00     0.167 HD
ATOM     26  C   UNL A   1      41.513  27.635  33.522  1.00  0.00     0.031 A 
ATOM     27  C   UNL A   1      41.930  34.238  32.241  1.00  0.00     0.031 A 
ATOM     28  C   UNL A   1      40.124  27.918  33.297  1.00  0.00     0.049 A 
ATOM     29  C   UNL A   1      41.023  33.491  33.143  1.00  0.00     0.074 A 
ATOM     30  C   UNL A   1      39.169  27.499  32.395  1.00  0.00     0.029 A 
ATOM     31  N   UNL A   1      39.590  29.014  33.933  1.00  0.00    -0.354 N 
ATOM     32  N   UNL A   1      39.786  33.202  32.851  1.00  0.00    -0.248 NA
ATOM     33  C   UNL A   1      41.592  32.733  34.246  1.00  0.00     0.031 C 
ATOM     34  C   UNL A   1      38.305  28.618  32.216  1.00  0.00     0.029 A 
ATOM     35  C   UNL A   1      38.776  29.649  33.031  1.00  0.00     0.049 A 
ATOM     36  H   UNL A   1      39.761  29.290  34.862  1.00  0.00     0.167 HD
ATOM     37  C   UNL A   1      39.553  31.971  33.444  1.00  0.00     0.074 A 
ATOM     38  C   UNL A   1      40.650  31.797  34.390  1.00  0.00     0.031 C 
ATOM     39  C   UNL A   1      38.655  31.089  32.914  1.00  0.00     0.031 A 
BRANCH  26  40
ATOM     40  C   UNL A   1      42.039  27.324  34.900  1.00  0.00    -0.014 A 
ATOM     41  C   UNL A   1      42.857  28.265  35.561  1.00  0.00     0.010 A 
ATOM     42  C   UNL A   1      41.977  26.027  35.448  1.00  0.00     0.010 A 
ATOM     43  C   UNL A   1      43.615  27.905  36.684  1.00  0.00     0.020 A 
ATOM     44  C   UNL A   1      42.692  25.672  36.592  1.00  0.00     0.020 A 
ATOM     45  C   UNL A   1      43.537  26.604  37.182  1.00  0.00     0.054 A 
BRANCH  45  46
ATOM     46  S   UNL A   1      44.606  26.109  38.558  1.00  0.00     0.124 S 
ATOM     47  O   UNL A   1      45.843  26.817  38.242  1.00  0.00    -0.237 OA
ATOM     48  O   UNL A   1      43.870  26.603  39.719  1.00  0.00    -0.237 OA
ATOM     49  O   UNL A   1      44.663  24.655  38.435  1.00  0.00    -0.744 OA
ENDBRANCH  45  46
ENDBRANCH  26  40
BRANCH  27  50
ATOM     50  C   UNL A   1      42.672  35.453  32.649  1.00  0.00    -0.014 A 
ATOM     51  C   UNL A   1      43.488  36.147  31.740  1.00  0.00     0.010 A 
ATOM     52  C   UNL A   1      42.376  36.082  33.878  1.00  0.00     0.010 A 
ATOM     53  C   UNL A   1      43.947  37.443  32.030  1.00  0.00     0.020 A 
ATOM     54  C   UNL A   1      42.840  37.364  34.180  1.00  0.00     0.020 A 
ATOM     55  C   UNL A   1      43.604  38.049  33.242  1.00  0.00     0.054 A 
BRANCH  55  56
ATOM     56  S   UNL A   1      44.046  39.785  33.531  1.00  0.00     0.124 S 
ATOM     57  O   UNL A   1      44.729  39.721  34.819  1.00  0.00    -0.237 OA
ATOM     58  O   UNL A   1      44.891  40.092  32.380  1.00  0.00    -0.237 OA
ATOM     59  O   UNL A   1      42.755  40.472  33.546  1.00  0.00    -0.744 OA
ENDBRANCH  55  56
ENDBRANCH  27  50
BRANCH  39  60
ATOM     60  C   UNL A   1      37.665  31.597  31.892  1.00  0.00    -0.014 A 
ATOM     61  C   UNL A   1      36.315  31.858  32.195  1.00  0.00     0.010 A 
ATOM     62  C   UNL A   1      38.153  31.973  30.627  1.00  0.00     0.010 A 
ATOM     63  C   UNL A   1      35.472  32.459  31.252  1.00  0.00     0.020 A 
ATOM     64  C   UNL A   1      37.321  32.590  29.688  1.00  0.00     0.020 A 
ATOM     65  C   UNL A   1      35.982  32.824  30.003  1.00  0.00     0.054 A 
BRANCH  65  66
ATOM     66  S   UNL A   1      34.901  33.677  28.821  1.00  0.00     0.124 S 
ATOM     67  O   UNL A   1      34.920  32.778  27.670  1.00  0.00    -0.237 OA
ATOM     68  O   UNL A   1      33.631  33.754  29.539  1.00  0.00    -0.237 OA
ATOM     69  O   UNL A   1      35.562  34.965  28.612  1.00  0.00    -0.744 OA
ENDBRANCH  65  66
ENDBRANCH  39  60
ENDBRANCH  13  14
ENDBRANCH   6   8
ENDBRANCH   5   6
ENDBRANCH   4   5
ENDBRANCH   3   4
ENDBRANCH   2   3
ENDBRANCH   1   2
BRANCH   1  70
ATOM     70  C   UNL A   1      44.921  25.926  29.210  1.00  0.00     0.188 C 
BRANCH  70  71
ATOM     71  O   UNL A   1      44.294  24.741  29.691  1.00  0.00    -0.376 OA
BRANCH  71  72
ATOM     72  C   UNL A   1      43.047  24.330  29.164  1.00  0.00     0.202 C 
BRANCH  72  73
ATOM     73  C   UNL A   1      42.277  25.367  28.351  1.00  0.00     0.261 C 
BRANCH  73  74
ATOM     74  O   UNL A   1      40.899  25.054  28.108  1.00  0.00    -0.458 OA
BRANCH  74  75
ATOM     75  C   UNL A   1      40.536  24.881  26.798  1.00  0.00     0.359 C 
ATOM     76  O   UNL A   1      40.630  25.732  25.925  1.00  0.00    -0.244 OA
BRANCH  75  77
ATOM     77  C   UNL A   1      40.049  23.521  26.540  1.00  0.00     0.175 A 
ATOM     78  N   UNL A   1      38.728  23.278  26.412  1.00  0.00    -0.165 NA
ATOM     79  C   UNL A   1      40.802  22.324  26.360  1.00  0.00     0.028 A 
ATOM     80  N   UNL A   1      38.639  21.956  26.151  1.00  0.00    -0.264 N 
ATOM     81  C   UNL A   1      39.852  21.340  26.168  1.00  0.00     0.046 A 
ATOM     82  C   UNL A   1      42.273  22.056  26.396  1.00  0.00     0.159 C 
ATOM     83  C   UNL A   1      40.152  19.898  25.973  1.00  0.00     0.078 C 
ATOM     84  N   UNL A   1      42.531  20.647  26.024  1.00  0.00    -0.337 N 
ATOM     85  C   UNL A   1      41.573  19.634  26.513  1.00  0.00     0.126 C 
BRANCH  80  86
ATOM     86  C   UNL A   1      37.358  21.389  25.746  1.00  0.00     0.180 C 
BRANCH  86  87
ATOM     87  C   UNL A   1      36.398  22.432  25.232  1.00  0.00    -0.026 A 
ATOM     88  C   UNL A   1      36.385  22.770  23.867  1.00  0.00     0.008 A 
ATOM     89  C   UNL A   1      35.489  23.061  26.097  1.00  0.00     0.008 A 
ATOM     90  C   UNL A   1      35.479  23.709  23.377  1.00  0.00     0.039 A 
ATOM     91  C   UNL A   1      34.580  23.999  25.603  1.00  0.00     0.039 A 
ATOM     92  C   UNL A   1      34.581  24.311  24.249  1.00  0.00     0.123 A 
ATOM     93  F   UNL A   1      33.701  25.202  23.775  1.00  0.00    -0.207 F 
ENDBRANCH  86  87
ENDBRANCH  80  86
BRANCH  84  94
ATOM     94  C   UNL A   1      43.712  20.355  25.352  1.00  0.00     0.232 C 
ATOM     95  O   UNL A   1      44.026  19.222  25.013  1.00  0.00    -0.274 OA
BRANCH  94  96
ATOM     96  C   UNL A   1      44.595  21.489  25.002  1.00  0.00     0.154 C 
ATOM     97  C   UNL A   1      45.542  22.082  26.034  1.00  0.00     0.097 C 
ATOM     98  C   UNL A   1      46.060  21.280  24.901  1.00  0.00     0.260 C 
ATOM     99  F   UNL A   1      46.678  20.083  25.171  1.00  0.00    -0.206 F 
ATOM    100  F   UNL A   1      46.799  21.913  23.927  1.00  0.00    -0.206 F 
ENDBRANCH  94  96
ENDBRANCH  84  94
ENDBRANCH  75  77
ENDBRANCH  74  75
ENDBRANCH  73  74
ENDBRANCH  72  73
ENDBRANCH  71  72
ENDBRANCH  70  71
ENDBRANCH   1  70
TORSDOF 24
ENDMDL
