MODEL 1
REMARK VINA RESULT:      -7.3      0.000      0.000
REMARK SMILES C[C@@H](C(=O)OCCOCCOCCOC(=O)c1ccc(-c2c3nc(c(-c4ccc(S(=O)(=O)[O-])cc4)c4ccc([nH]4)c(-c4ccc(S(=O)(=O)[O-])cc4)c4nc(c(-c5ccc(S(=O)(=O)[O-])cc5)c5ccc2[nH]5)C=C4)C=C3)cc1)c1cc(/C=C/S(C)(=O)=O)cc(C(=O)c2ccccc2)c1
REMARK SMILES IDX 9 1 8 2 7 3 6 4 5 5 3 6 4 7 2 8 1 9 77 10 78 11 96 12 79 13
REMARK SMILES IDX 87 14 86 15 80 16 81 17 82 18 83 19 84 20 85 21 88 22 89 23
REMARK SMILES IDX 90 24 91 25 95 26 92 27 94 28 93 29 10 30 11 31 12 32 13 33
REMARK SMILES IDX 14 34 15 35 16 36 17 37 18 38 76 39 19 40 75 41 20 42 21 43
REMARK SMILES IDX 22 44 69 45 23 46 74 47 68 48 70 49 24 50 73 51 67 52 66 53
REMARK SMILES IDX 25 55 55 56 36 57 54 58 37 59 40 60 53 61 71 62 38 63 39 64
REMARK SMILES IDX 52 66 72 67 41 68 26 69 27 70 35 71 28 72 34 73 29 74 30 75
REMARK SMILES IDX 31 76 32 77 33 78 56 79 57 80 65 81 58 82 64 83 59 84 60 85
REMARK SMILES IDX 61 86 62 87 63 88 42 89 43 90 51 91 44 92 50 93 45 94 46 95
REMARK SMILES IDX 47 96 48 97 49 98
REMARK H PARENT 70 54 40 65
REMARK Flexibility Score: inf
ROOT
ATOM      1  C   UNL A   1      36.602  30.262  27.973  1.00  0.00     0.188 C 
ENDROOT
BRANCH   1   2
ATOM      2  O   UNL A   1      37.291  29.130  28.478  1.00  0.00    -0.376 OA
BRANCH   2   3
ATOM      3  C   UNL A   1      37.601  29.053  29.863  1.00  0.00     0.202 C 
BRANCH   3   4
ATOM      4  C   UNL A   1      39.031  28.672  30.246  1.00  0.00     0.261 C 
BRANCH   4   5
ATOM      5  O   UNL A   1      39.293  27.286  29.985  1.00  0.00    -0.463 OA
BRANCH   5   6
ATOM      6  C   UNL A   1      39.889  27.037  28.792  1.00  0.00     0.313 C 
ATOM      7  O   UNL A   1      39.629  26.063  28.093  1.00  0.00    -0.252 OA
BRANCH   6   8
ATOM      8  C   UNL A   1      40.826  28.154  28.341  1.00  0.00     0.126 C 
ATOM      9  C   UNL A   1      40.533  28.781  26.974  1.00  0.00     0.025 C 
BRANCH   8  10
ATOM     10  C   UNL A   1      42.303  27.823  28.521  1.00  0.00    -0.033 A 
ATOM     11  C   UNL A   1      43.154  27.439  27.473  1.00  0.00     0.012 A 
ATOM     12  C   UNL A   1      42.827  27.832  29.816  1.00  0.00     0.016 A 
ATOM     13  C   UNL A   1      44.495  27.079  27.696  1.00  0.00    -0.024 A 
ATOM     14  C   UNL A   1      44.114  27.346  30.077  1.00  0.00     0.023 A 
ATOM     15  C   UNL A   1      44.963  27.006  29.017  1.00  0.00     0.020 A 
BRANCH  13  16
ATOM     16  C   UNL A   1      45.378  26.734  26.564  1.00  0.00     0.020 C 
ATOM     17  C   UNL A   1      45.872  27.667  25.733  1.00  0.00     0.106 C 
BRANCH  17  18
ATOM     18  S   UNL A   1      47.099  27.288  24.557  1.00  0.00     0.168 S 
ATOM     19  C   UNL A   1      48.576  27.279  25.530  1.00  0.00     0.163 C 
ATOM     20  O   UNL A   1      46.889  25.919  24.127  1.00  0.00    -0.225 OA
ATOM     21  O   UNL A   1      47.239  28.359  23.591  1.00  0.00    -0.225 OA
ENDBRANCH  17  18
ENDBRANCH  13  16
BRANCH  14  22
ATOM     22  C   UNL A   1      44.540  27.147  31.493  1.00  0.00     0.193 C 
ATOM     23  O   UNL A   1      45.047  28.065  32.126  1.00  0.00    -0.289 OA
BRANCH  22  24
ATOM     24  C   UNL A   1      44.302  25.828  32.151  1.00  0.00     0.022 A 
ATOM     25  C   UNL A   1      44.342  24.666  31.376  1.00  0.00     0.012 A 
ATOM     26  C   UNL A   1      44.116  25.733  33.539  1.00  0.00     0.012 A 
ATOM     27  C   UNL A   1      44.266  23.416  31.996  1.00  0.00     0.001 A 
ATOM     28  C   UNL A   1      44.056  24.483  34.155  1.00  0.00     0.001 A 
ATOM     29  C   UNL A   1      44.141  23.325  33.384  1.00  0.00     0.000 A 
ENDBRANCH  22  24
ENDBRANCH  14  22
ENDBRANCH   8  10
ENDBRANCH   6   8
ENDBRANCH   5   6
ENDBRANCH   4   5
ENDBRANCH   3   4
ENDBRANCH   2   3
ENDBRANCH   1   2
BRANCH   1  30
ATOM     30  C   UNL A   1      35.229  30.122  27.293  1.00  0.00     0.188 C 
BRANCH  30  31
ATOM     31  O   UNL A   1      34.308  31.195  27.269  1.00  0.00    -0.376 OA
BRANCH  31  32
ATOM     32  C   UNL A   1      34.663  32.397  27.929  1.00  0.00     0.202 C 
BRANCH  32  33
ATOM     33  C   UNL A   1      33.595  33.485  28.072  1.00  0.00     0.261 C 
BRANCH  33  34
ATOM     34  O   UNL A   1      34.015  34.641  28.813  1.00  0.00    -0.460 OA
BRANCH  34  35
ATOM     35  C   UNL A   1      33.579  34.680  30.099  1.00  0.00     0.338 C 
ATOM     36  O   UNL A   1      32.437  34.888  30.475  1.00  0.00    -0.246 OA
BRANCH  35  37
ATOM     37  C   UNL A   1      34.658  34.274  31.027  1.00  0.00     0.060 A 
ATOM     38  C   UNL A   1      35.428  35.282  31.627  1.00  0.00     0.016 A 
ATOM     39  C   UNL A   1      34.971  32.932  31.245  1.00  0.00     0.016 A 
ATOM     40  C   UNL A   1      36.545  34.953  32.401  1.00  0.00     0.010 A 
ATOM     41  C   UNL A   1      36.096  32.607  32.013  1.00  0.00     0.010 A 
ATOM     42  C   UNL A   1      36.914  33.614  32.563  1.00  0.00    -0.014 A 
BRANCH  42  43
ATOM     43  C   UNL A   1      38.222  33.249  33.173  1.00  0.00     0.031 A 
ATOM     44  C   UNL A   1      38.381  33.325  34.661  1.00  0.00     0.074 A 
ATOM     45  C   UNL A   1      39.273  32.852  32.432  1.00  0.00     0.049 A 
ATOM     46  N   UNL A   1      39.453  33.128  35.381  1.00  0.00    -0.248 NA
ATOM     47  C   UNL A   1      37.169  33.621  35.439  1.00  0.00     0.031 C 
ATOM     48  C   UNL A   1      39.223  32.598  31.005  1.00  0.00     0.029 A 
ATOM     49  N   UNL A   1      40.588  32.630  32.761  1.00  0.00    -0.354 N 
ATOM     50  C   UNL A   1      39.039  33.229  36.699  1.00  0.00     0.074 A 
ATOM     51  C   UNL A   1      37.633  33.571  36.680  1.00  0.00     0.031 C 
ATOM     52  C   UNL A   1      40.465  32.383  30.545  1.00  0.00     0.029 A 
ATOM     53  C   UNL A   1      41.398  32.464  31.659  1.00  0.00     0.049 A 
ATOM     54  H   UNL A   1      40.917  32.594  33.688  1.00  0.00     0.167 HD
ATOM     55  C   UNL A   1      39.761  33.018  37.824  1.00  0.00     0.031 A 
ATOM     56  C   UNL A   1      42.740  32.411  31.548  1.00  0.00     0.031 A 
ATOM     57  C   UNL A   1      41.168  32.718  37.842  1.00  0.00     0.049 A 
ATOM     58  C   UNL A   1      43.563  32.396  32.803  1.00  0.00     0.074 A 
ATOM     59  C   UNL A   1      41.984  32.487  38.935  1.00  0.00     0.029 A 
ATOM     60  N   UNL A   1      41.974  32.628  36.716  1.00  0.00    -0.354 N 
ATOM     61  N   UNL A   1      43.157  32.459  34.048  1.00  0.00    -0.248 NA
ATOM     62  C   UNL A   1      45.017  32.250  32.648  1.00  0.00     0.031 C 
ATOM     63  C   UNL A   1      43.294  32.313  38.474  1.00  0.00     0.029 A 
ATOM     64  C   UNL A   1      43.285  32.379  37.090  1.00  0.00     0.049 A 
ATOM     65  H   UNL A   1      41.661  32.726  35.788  1.00  0.00     0.167 HD
ATOM     66  C   UNL A   1      44.294  32.294  34.826  1.00  0.00     0.074 A 
ATOM     67  C   UNL A   1      45.409  32.150  33.912  1.00  0.00     0.031 C 
ATOM     68  C   UNL A   1      44.393  32.238  36.177  1.00  0.00     0.031 A 
BRANCH  55  69
ATOM     69  C   UNL A   1      39.024  33.123  39.128  1.00  0.00    -0.014 A 
ATOM     70  C   UNL A   1      39.211  34.234  39.971  1.00  0.00     0.010 A 
ATOM     71  C   UNL A   1      38.138  32.105  39.516  1.00  0.00     0.010 A 
ATOM     72  C   UNL A   1      38.554  34.304  41.202  1.00  0.00     0.020 A 
ATOM     73  C   UNL A   1      37.461  32.183  40.736  1.00  0.00     0.020 A 
ATOM     74  C   UNL A   1      37.688  33.274  41.578  1.00  0.00     0.054 A 
BRANCH  74  75
ATOM     75  S   UNL A   1      36.845  33.390  43.180  1.00  0.00     0.124 S 
ATOM     76  O   UNL A   1      36.844  34.831  43.415  1.00  0.00    -0.237 OA
ATOM     77  O   UNL A   1      35.539  32.799  42.900  1.00  0.00    -0.237 OA
ATOM     78  O   UNL A   1      37.697  32.613  44.077  1.00  0.00    -0.744 OA
ENDBRANCH  74  75
ENDBRANCH  55  69
BRANCH  56  79
ATOM     79  C   UNL A   1      43.382  32.382  30.204  1.00  0.00    -0.014 A 
ATOM     80  C   UNL A   1      43.619  31.170  29.533  1.00  0.00     0.010 A 
ATOM     81  C   UNL A   1      43.769  33.587  29.586  1.00  0.00     0.010 A 
ATOM     82  C   UNL A   1      44.254  31.162  28.285  1.00  0.00     0.020 A 
ATOM     83  C   UNL A   1      44.388  33.585  28.331  1.00  0.00     0.020 A 
ATOM     84  C   UNL A   1      44.637  32.370  27.692  1.00  0.00     0.054 A 
BRANCH  84  85
ATOM     85  S   UNL A   1      45.431  32.331  26.060  1.00  0.00     0.124 S 
ATOM     86  O   UNL A   1      44.366  32.817  25.188  1.00  0.00    -0.237 OA
ATOM     87  O   UNL A   1      46.564  33.236  26.239  1.00  0.00    -0.237 OA
ATOM     88  O   UNL A   1      45.792  30.926  25.881  1.00  0.00    -0.744 OA
ENDBRANCH  84  85
ENDBRANCH  56  79
BRANCH  68  89
ATOM     89  C   UNL A   1      45.751  31.953  36.755  1.00  0.00    -0.014 A 
ATOM     90  C   UNL A   1      46.613  32.989  37.154  1.00  0.00     0.010 A 
ATOM     91  C   UNL A   1      46.154  30.617  36.939  1.00  0.00     0.010 A 
ATOM     92  C   UNL A   1      47.864  32.694  37.702  1.00  0.00     0.020 A 
ATOM     93  C   UNL A   1      47.393  30.318  37.510  1.00  0.00     0.020 A 
ATOM     94  C   UNL A   1      48.247  31.361  37.877  1.00  0.00     0.054 A 
BRANCH  94  95
ATOM     95  S   UNL A   1      49.854  31.003  38.635  1.00  0.00     0.124 S 
ATOM     96  O   UNL A   1      49.464  30.355  39.884  1.00  0.00    -0.237 OA
ATOM     97  O   UNL A   1      50.490  30.134  37.648  1.00  0.00    -0.237 OA
ATOM     98  O   UNL A   1      50.470  32.321  38.783  1.00  0.00    -0.744 OA
ENDBRANCH  94  95
ENDBRANCH  68  89
ENDBRANCH  42  43
ENDBRANCH  35  37
ENDBRANCH  34  35
ENDBRANCH  33  34
ENDBRANCH  32  33
ENDBRANCH  31  32
ENDBRANCH  30  31
ENDBRANCH   1  30
TORSDOF 25
ENDMDL
MODEL 2
REMARK VINA RESULT:      -7.2      4.673      6.524
REMARK SMILES C[C@@H](C(=O)OCCOCCOCCOC(=O)c1ccc(-c2c3nc(c(-c4ccc(S(=O)(=O)[O-])cc4)c4ccc([nH]4)c(-c4ccc(S(=O)(=O)[O-])cc4)c4nc(c(-c5ccc(S(=O)(=O)[O-])cc5)c5ccc2[nH]5)C=C4)C=C3)cc1)c1cc(/C=C/S(C)(=O)=O)cc(C(=O)c2ccccc2)c1
REMARK SMILES IDX 9 1 8 2 7 3 6 4 5 5 3 6 4 7 2 8 1 9 77 10 78 11 96 12 79 13
REMARK SMILES IDX 87 14 86 15 80 16 81 17 82 18 83 19 84 20 85 21 88 22 89 23
REMARK SMILES IDX 90 24 91 25 95 26 92 27 94 28 93 29 10 30 11 31 12 32 13 33
REMARK SMILES IDX 14 34 15 35 16 36 17 37 18 38 76 39 19 40 75 41 20 42 21 43
REMARK SMILES IDX 22 44 69 45 23 46 74 47 68 48 70 49 24 50 73 51 67 52 66 53
REMARK SMILES IDX 25 55 55 56 36 57 54 58 37 59 40 60 53 61 71 62 38 63 39 64
REMARK SMILES IDX 52 66 72 67 41 68 26 69 27 70 35 71 28 72 34 73 29 74 30 75
REMARK SMILES IDX 31 76 32 77 33 78 56 79 57 80 65 81 58 82 64 83 59 84 60 85
REMARK SMILES IDX 61 86 62 87 63 88 42 89 43 90 51 91 44 92 50 93 45 94 46 95
REMARK SMILES IDX 47 96 48 97 49 98
REMARK H PARENT 70 54 40 65
REMARK Flexibility Score: inf
ROOT
ATOM      1  C   UNL A   1      36.329  30.226  27.916  1.00  0.00     0.188 C 
ENDROOT
BRANCH   1   2
ATOM      2  O   UNL A   1      37.100  29.051  28.110  1.00  0.00    -0.376 OA
BRANCH   2   3
ATOM      3  C   UNL A   1      37.573  28.726  29.411  1.00  0.00     0.202 C 
BRANCH   3   4
ATOM      4  C   UNL A   1      39.086  28.630  29.607  1.00  0.00     0.261 C 
BRANCH   4   5
ATOM      5  O   UNL A   1      39.559  27.291  29.396  1.00  0.00    -0.463 OA
BRANCH   5   6
ATOM      6  C   UNL A   1      40.008  27.041  28.140  1.00  0.00     0.313 C 
ATOM      7  O   UNL A   1      39.601  26.116  27.445  1.00  0.00    -0.252 OA
BRANCH   6   8
ATOM      8  C   UNL A   1      40.981  28.098  27.626  1.00  0.00     0.126 C 
ATOM      9  C   UNL A   1      40.544  28.880  26.381  1.00  0.00     0.025 C 
BRANCH   8  10
ATOM     10  C   UNL A   1      42.421  27.608  27.526  1.00  0.00    -0.033 A 
ATOM     11  C   UNL A   1      42.780  26.303  27.155  1.00  0.00     0.012 A 
ATOM     12  C   UNL A   1      43.442  28.486  27.893  1.00  0.00     0.016 A 
ATOM     13  C   UNL A   1      44.120  25.875  27.138  1.00  0.00    -0.024 A 
ATOM     14  C   UNL A   1      44.765  28.042  28.018  1.00  0.00     0.023 A 
ATOM     15  C   UNL A   1      45.113  26.750  27.605  1.00  0.00     0.020 A 
BRANCH  13  16
ATOM     16  C   UNL A   1      44.468  24.513  26.690  1.00  0.00     0.020 C 
ATOM     17  C   UNL A   1      44.258  24.100  25.427  1.00  0.00     0.106 C 
BRANCH  17  18
ATOM     18  S   UNL A   1      44.889  22.587  24.842  1.00  0.00     0.168 S 
ATOM     19  C   UNL A   1      43.862  21.400  25.658  1.00  0.00     0.163 C 
ATOM     20  O   UNL A   1      44.570  22.494  23.430  1.00  0.00    -0.225 OA
ATOM     21  O   UNL A   1      46.240  22.370  25.318  1.00  0.00    -0.225 OA
ENDBRANCH  17  18
ENDBRANCH  13  16
BRANCH  14  22
ATOM     22  C   UNL A   1      45.775  28.944  28.645  1.00  0.00     0.193 C 
ATOM     23  O   UNL A   1      46.337  28.624  29.684  1.00  0.00    -0.289 OA
BRANCH  22  24
ATOM     24  C   UNL A   1      46.131  30.227  27.968  1.00  0.00     0.022 A 
ATOM     25  C   UNL A   1      45.195  31.264  27.945  1.00  0.00     0.012 A 
ATOM     26  C   UNL A   1      47.410  30.431  27.427  1.00  0.00     0.012 A 
ATOM     27  C   UNL A   1      45.560  32.518  27.446  1.00  0.00     0.001 A 
ATOM     28  C   UNL A   1      47.775  31.688  26.944  1.00  0.00     0.001 A 
ATOM     29  C   UNL A   1      46.853  32.733  26.963  1.00  0.00     0.000 A 
ENDBRANCH  22  24
ENDBRANCH  14  22
ENDBRANCH   8  10
ENDBRANCH   6   8
ENDBRANCH   5   6
ENDBRANCH   4   5
ENDBRANCH   3   4
ENDBRANCH   2   3
ENDBRANCH   1   2
BRANCH   1  30
ATOM     30  C   UNL A   1      34.811  30.152  27.678  1.00  0.00     0.188 C 
BRANCH  30  31
ATOM     31  O   UNL A   1      34.011  31.319  27.676  1.00  0.00    -0.376 OA
BRANCH  31  32
ATOM     32  C   UNL A   1      34.626  32.554  27.992  1.00  0.00     0.202 C 
BRANCH  32  33
ATOM     33  C   UNL A   1      33.860  33.536  28.882  1.00  0.00     0.261 C 
BRANCH  33  34
ATOM     34  O   UNL A   1      34.686  34.332  29.746  1.00  0.00    -0.460 OA
BRANCH  34  35
ATOM     35  C   UNL A   1      34.927  33.782  30.965  1.00  0.00     0.338 C 
ATOM     36  O   UNL A   1      34.094  33.471  31.801  1.00  0.00    -0.246 OA
BRANCH  35  37
ATOM     37  C   UNL A   1      36.362  33.448  31.111  1.00  0.00     0.060 A 
ATOM     38  C   UNL A   1      37.152  34.268  31.931  1.00  0.00     0.016 A 
ATOM     39  C   UNL A   1      36.948  32.403  30.396  1.00  0.00     0.016 A 
ATOM     40  C   UNL A   1      38.535  34.081  31.996  1.00  0.00     0.010 A 
ATOM     41  C   UNL A   1      38.335  32.226  30.455  1.00  0.00     0.010 A 
ATOM     42  C   UNL A   1      39.144  33.087  31.223  1.00  0.00    -0.014 A 
BRANCH  42  43
ATOM     43  C   UNL A   1      40.625  33.023  31.086  1.00  0.00     0.031 A 
ATOM     44  C   UNL A   1      41.383  31.971  31.837  1.00  0.00     0.074 A 
ATOM     45  C   UNL A   1      41.312  33.880  30.309  1.00  0.00     0.049 A 
ATOM     46  N   UNL A   1      42.675  31.793  31.919  1.00  0.00    -0.248 NA
ATOM     47  C   UNL A   1      40.583  30.968  32.555  1.00  0.00     0.031 C 
ATOM     48  C   UNL A   1      40.703  34.853  29.422  1.00  0.00     0.029 A 
ATOM     49  N   UNL A   1      42.660  34.102  30.165  1.00  0.00    -0.354 N 
ATOM     50  C   UNL A   1      42.845  30.633  32.656  1.00  0.00     0.074 A 
ATOM     51  C   UNL A   1      41.528  30.185  33.057  1.00  0.00     0.031 C 
ATOM     52  C   UNL A   1      41.652  35.657  28.921  1.00  0.00     0.029 A 
ATOM     53  C   UNL A   1      42.945  35.238  29.442  1.00  0.00     0.049 A 
ATOM     54  H   UNL A   1      43.350  33.510  30.542  1.00  0.00     0.167 HD
ATOM     55  C   UNL A   1      43.996  29.980  32.941  1.00  0.00     0.031 A 
ATOM     56  C   UNL A   1      44.107  35.890  29.240  1.00  0.00     0.031 A 
ATOM     57  C   UNL A   1      45.306  30.449  32.577  1.00  0.00     0.049 A 
ATOM     58  C   UNL A   1      45.375  35.269  29.751  1.00  0.00     0.074 A 
ATOM     59  C   UNL A   1      46.531  29.854  32.822  1.00  0.00     0.029 A 
ATOM     60  N   UNL A   1      45.566  31.637  31.908  1.00  0.00    -0.354 N 
ATOM     61  N   UNL A   1      45.526  34.153  30.420  1.00  0.00    -0.248 NA
ATOM     62  C   UNL A   1      46.632  35.962  29.437  1.00  0.00     0.031 C 
ATOM     63  C   UNL A   1      47.535  30.708  32.352  1.00  0.00     0.029 A 
ATOM     64  C   UNL A   1      46.934  31.810  31.764  1.00  0.00     0.049 A 
ATOM     65  H   UNL A   1      44.882  32.264  31.585  1.00  0.00     0.167 HD
ATOM     66  C   UNL A   1      46.896  33.973  30.551  1.00  0.00     0.074 A 
ATOM     67  C   UNL A   1      47.531  35.107  29.910  1.00  0.00     0.031 C 
ATOM     68  C   UNL A   1      47.562  32.942  31.127  1.00  0.00     0.031 A 
BRANCH  55  69
ATOM     69  C   UNL A   1      43.870  28.692  33.701  1.00  0.00    -0.014 A 
ATOM     70  C   UNL A   1      43.972  28.672  35.104  1.00  0.00     0.010 A 
ATOM     71  C   UNL A   1      43.649  27.489  33.009  1.00  0.00     0.010 A 
ATOM     72  C   UNL A   1      43.896  27.464  35.800  1.00  0.00     0.020 A 
ATOM     73  C   UNL A   1      43.549  26.281  33.704  1.00  0.00     0.020 A 
ATOM     74  C   UNL A   1      43.692  26.275  35.093  1.00  0.00     0.054 A 
BRANCH  74  75
ATOM     75  S   UNL A   1      43.595  24.719  36.021  1.00  0.00     0.124 S 
ATOM     76  O   UNL A   1      43.058  25.167  37.304  1.00  0.00    -0.237 OA
ATOM     77  O   UNL A   1      42.686  23.916  35.207  1.00  0.00    -0.237 OA
ATOM     78  O   UNL A   1      44.977  24.249  36.054  1.00  0.00    -0.744 OA
ENDBRANCH  74  75
ENDBRANCH  55  69
BRANCH  56  79
ATOM     79  C   UNL A   1      44.120  37.203  28.536  1.00  0.00    -0.014 A 
ATOM     80  C   UNL A   1      43.642  38.370  29.156  1.00  0.00     0.010 A 
ATOM     81  C   UNL A   1      44.616  37.288  27.221  1.00  0.00     0.010 A 
ATOM     82  C   UNL A   1      43.633  39.588  28.466  1.00  0.00     0.020 A 
ATOM     83  C   UNL A   1      44.625  38.507  26.533  1.00  0.00     0.020 A 
ATOM     84  C   UNL A   1      44.122  39.649  27.157  1.00  0.00     0.054 A 
BRANCH  84  85
ATOM     85  S   UNL A   1      44.126  41.247  26.297  1.00  0.00     0.124 S 
ATOM     86  O   UNL A   1      44.990  40.979  25.151  1.00  0.00    -0.237 OA
ATOM     87  O   UNL A   1      42.712  41.445  25.990  1.00  0.00    -0.237 OA
ATOM     88  O   UNL A   1      44.673  42.175  27.287  1.00  0.00    -0.744 OA
ENDBRANCH  84  85
ENDBRANCH  56  79
BRANCH  68  89
ATOM     89  C   UNL A   1      49.063  32.960  31.041  1.00  0.00    -0.014 A 
ATOM     90  C   UNL A   1      49.845  33.633  31.995  1.00  0.00     0.010 A 
ATOM     91  C   UNL A   1      49.702  32.253  30.006  1.00  0.00     0.010 A 
ATOM     92  C   UNL A   1      51.239  33.621  31.899  1.00  0.00     0.020 A 
ATOM     93  C   UNL A   1      51.096  32.216  29.921  1.00  0.00     0.020 A 
ATOM     94  C   UNL A   1      51.856  32.914  30.863  1.00  0.00     0.054 A 
BRANCH  94  95
ATOM     95  S   UNL A   1      53.667  32.872  30.787  1.00  0.00     0.124 S 
ATOM     96  O   UNL A   1      53.933  33.515  29.504  1.00  0.00    -0.237 OA
ATOM     97  O   UNL A   1      54.058  33.639  31.968  1.00  0.00    -0.237 OA
ATOM     98  O   UNL A   1      53.984  31.446  30.847  1.00  0.00    -0.744 OA
ENDBRANCH  94  95
ENDBRANCH  68  89
ENDBRANCH  42  43
ENDBRANCH  35  37
ENDBRANCH  34  35
ENDBRANCH  33  34
ENDBRANCH  32  33
ENDBRANCH  31  32
ENDBRANCH  30  31
ENDBRANCH   1  30
TORSDOF 25
ENDMDL
MODEL 3
REMARK VINA RESULT:      -7.0      5.893     10.508
REMARK SMILES C[C@@H](C(=O)OCCOCCOCCOC(=O)c1ccc(-c2c3nc(c(-c4ccc(S(=O)(=O)[O-])cc4)c4ccc([nH]4)c(-c4ccc(S(=O)(=O)[O-])cc4)c4nc(c(-c5ccc(S(=O)(=O)[O-])cc5)c5ccc2[nH]5)C=C4)C=C3)cc1)c1cc(/C=C/S(C)(=O)=O)cc(C(=O)c2ccccc2)c1
REMARK SMILES IDX 9 1 8 2 7 3 6 4 5 5 3 6 4 7 2 8 1 9 77 10 78 11 96 12 79 13
REMARK SMILES IDX 87 14 86 15 80 16 81 17 82 18 83 19 84 20 85 21 88 22 89 23
REMARK SMILES IDX 90 24 91 25 95 26 92 27 94 28 93 29 10 30 11 31 12 32 13 33
REMARK SMILES IDX 14 34 15 35 16 36 17 37 18 38 76 39 19 40 75 41 20 42 21 43
REMARK SMILES IDX 22 44 69 45 23 46 74 47 68 48 70 49 24 50 73 51 67 52 66 53
REMARK SMILES IDX 25 55 55 56 36 57 54 58 37 59 40 60 53 61 71 62 38 63 39 64
REMARK SMILES IDX 52 66 72 67 41 68 26 69 27 70 35 71 28 72 34 73 29 74 30 75
REMARK SMILES IDX 31 76 32 77 33 78 56 79 57 80 65 81 58 82 64 83 59 84 60 85
REMARK SMILES IDX 61 86 62 87 63 88 42 89 43 90 51 91 44 92 50 93 45 94 46 95
REMARK SMILES IDX 47 96 48 97 49 98
REMARK H PARENT 70 54 40 65
REMARK Flexibility Score: inf
ROOT
ATOM      1  C   UNL A   1      37.052  30.701  30.388  1.00  0.00     0.188 C 
ENDROOT
BRANCH   1   2
ATOM      2  O   UNL A   1      36.809  29.418  29.835  1.00  0.00    -0.376 OA
BRANCH   2   3
ATOM      3  C   UNL A   1      37.882  28.679  29.267  1.00  0.00     0.202 C 
BRANCH   3   4
ATOM      4  C   UNL A   1      38.800  27.920  30.225  1.00  0.00     0.261 C 
BRANCH   4   5
ATOM      5  O   UNL A   1      40.123  28.475  30.235  1.00  0.00    -0.463 OA
BRANCH   5   6
ATOM      6  C   UNL A   1      40.858  28.209  29.125  1.00  0.00     0.313 C 
ATOM      7  O   UNL A   1      40.923  28.962  28.158  1.00  0.00    -0.252 OA
BRANCH   6   8
ATOM      8  C   UNL A   1      41.697  26.941  29.246  1.00  0.00     0.126 C 
ATOM      9  C   UNL A   1      43.213  27.136  29.371  1.00  0.00     0.025 C 
BRANCH   8  10
ATOM     10  C   UNL A   1      41.333  25.867  28.228  1.00  0.00    -0.033 A 
ATOM     11  C   UNL A   1      40.020  25.588  27.819  1.00  0.00     0.012 A 
ATOM     12  C   UNL A   1      42.358  25.063  27.724  1.00  0.00     0.016 A 
ATOM     13  C   UNL A   1      39.724  24.544  26.925  1.00  0.00    -0.024 A 
ATOM     14  C   UNL A   1      42.073  23.934  26.945  1.00  0.00     0.023 A 
ATOM     15  C   UNL A   1      40.763  23.694  26.513  1.00  0.00     0.020 A 
BRANCH  13  16
ATOM     16  C   UNL A   1      38.339  24.312  26.472  1.00  0.00     0.020 C 
ATOM     17  C   UNL A   1      38.011  23.285  25.669  1.00  0.00     0.106 C 
BRANCH  17  18
ATOM     18  S   UNL A   1      36.352  22.875  25.337  1.00  0.00     0.168 S 
ATOM     19  C   UNL A   1      36.322  21.130  25.623  1.00  0.00     0.163 C 
ATOM     20  O   UNL A   1      35.535  23.469  26.378  1.00  0.00    -0.225 OA
ATOM     21  O   UNL A   1      36.039  23.076  23.937  1.00  0.00    -0.225 OA
ENDBRANCH  17  18
ENDBRANCH  13  16
BRANCH  14  22
ATOM     22  C   UNL A   1      43.171  22.973  26.635  1.00  0.00     0.193 C 
ATOM     23  O   UNL A   1      44.320  23.367  26.488  1.00  0.00    -0.289 OA
BRANCH  22  24
ATOM     24  C   UNL A   1      42.863  21.514  26.548  1.00  0.00     0.022 A 
ATOM     25  C   UNL A   1      43.452  20.756  25.532  1.00  0.00     0.012 A 
ATOM     26  C   UNL A   1      42.058  20.884  27.510  1.00  0.00     0.012 A 
ATOM     27  C   UNL A   1      43.292  19.367  25.521  1.00  0.00     0.001 A 
ATOM     28  C   UNL A   1      41.914  19.497  27.504  1.00  0.00     0.001 A 
ATOM     29  C   UNL A   1      42.539  18.739  26.516  1.00  0.00     0.000 A 
ENDBRANCH  22  24
ENDBRANCH  14  22
ENDBRANCH   8  10
ENDBRANCH   6   8
ENDBRANCH   5   6
ENDBRANCH   4   5
ENDBRANCH   3   4
ENDBRANCH   2   3
ENDBRANCH   1   2
BRANCH   1  30
ATOM     30  C   UNL A   1      35.969  31.793  30.375  1.00  0.00     0.188 C 
BRANCH  30  31
ATOM     31  O   UNL A   1      35.229  32.107  31.539  1.00  0.00    -0.376 OA
BRANCH  31  32
ATOM     32  C   UNL A   1      35.539  33.306  32.226  1.00  0.00     0.202 C 
BRANCH  32  33
ATOM     33  C   UNL A   1      36.589  34.237  31.616  1.00  0.00     0.261 C 
BRANCH  33  34
ATOM     34  O   UNL A   1      37.710  34.516  32.469  1.00  0.00    -0.460 OA
BRANCH  34  35
ATOM     35  C   UNL A   1      38.689  33.574  32.447  1.00  0.00     0.338 C 
ATOM     36  O   UNL A   1      38.599  32.422  32.837  1.00  0.00    -0.246 OA
BRANCH  35  37
ATOM     37  C   UNL A   1      39.879  34.078  31.726  1.00  0.00     0.060 A 
ATOM     38  C   UNL A   1      39.826  34.143  30.326  1.00  0.00     0.016 A 
ATOM     39  C   UNL A   1      41.059  34.403  32.396  1.00  0.00     0.016 A 
ATOM     40  C   UNL A   1      40.965  34.479  29.589  1.00  0.00     0.010 A 
ATOM     41  C   UNL A   1      42.201  34.729  31.654  1.00  0.00     0.010 A 
ATOM     42  C   UNL A   1      42.174  34.731  30.245  1.00  0.00    -0.014 A 
BRANCH  42  43
ATOM     43  C   UNL A   1      43.448  34.851  29.485  1.00  0.00     0.031 A 
ATOM     44  C   UNL A   1      44.316  33.640  29.318  1.00  0.00     0.074 A 
ATOM     45  C   UNL A   1      43.852  36.013  28.940  1.00  0.00     0.049 A 
ATOM     46  N   UNL A   1      45.495  33.548  28.764  1.00  0.00    -0.248 NA
ATOM     47  C   UNL A   1      43.768  32.364  29.802  1.00  0.00     0.031 C 
ATOM     48  C   UNL A   1      43.054  37.223  28.902  1.00  0.00     0.029 A 
ATOM     49  N   UNL A   1      45.038  36.381  28.353  1.00  0.00    -0.354 N 
ATOM     50  C   UNL A   1      45.813  32.200  28.787  1.00  0.00     0.074 A 
ATOM     51  C   UNL A   1      44.734  31.519  29.471  1.00  0.00     0.031 C 
ATOM     52  C   UNL A   1      43.803  38.239  28.445  1.00  0.00     0.029 A 
ATOM     53  C   UNL A   1      45.135  37.738  28.139  1.00  0.00     0.049 A 
ATOM     54  H   UNL A   1      45.745  35.741  28.111  1.00  0.00     0.167 HD
ATOM     55  C   UNL A   1      46.891  31.582  28.252  1.00  0.00     0.031 A 
ATOM     56  C   UNL A   1      46.180  38.502  27.767  1.00  0.00     0.031 A 
ATOM     57  C   UNL A   1      47.982  32.265  27.610  1.00  0.00     0.049 A 
ATOM     58  C   UNL A   1      47.461  37.824  27.377  1.00  0.00     0.074 A 
ATOM     59  C   UNL A   1      49.118  31.722  27.036  1.00  0.00     0.029 A 
ATOM     60  N   UNL A   1      48.085  33.642  27.472  1.00  0.00    -0.354 N 
ATOM     61  N   UNL A   1      47.739  36.543  27.372  1.00  0.00    -0.248 NA
ATOM     62  C   UNL A   1      48.552  38.681  26.892  1.00  0.00     0.031 C 
ATOM     63  C   UNL A   1      49.935  32.772  26.602  1.00  0.00     0.029 A 
ATOM     64  C   UNL A   1      49.283  33.969  26.854  1.00  0.00     0.049 A 
ATOM     65  H   UNL A   1      47.409  34.291  27.770  1.00  0.00     0.167 HD
ATOM     66  C   UNL A   1      49.009  36.433  26.824  1.00  0.00     0.074 A 
ATOM     67  C   UNL A   1      49.455  37.780  26.528  1.00  0.00     0.031 C 
ATOM     68  C   UNL A   1      49.724  35.311  26.564  1.00  0.00     0.031 A 
BRANCH  55  69
ATOM     69  C   UNL A   1      46.935  30.086  28.363  1.00  0.00    -0.014 A 
ATOM     70  C   UNL A   1      47.514  29.465  29.486  1.00  0.00     0.010 A 
ATOM     71  C   UNL A   1      46.395  29.291  27.338  1.00  0.00     0.010 A 
ATOM     72  C   UNL A   1      47.589  28.073  29.562  1.00  0.00     0.020 A 
ATOM     73  C   UNL A   1      46.447  27.897  27.422  1.00  0.00     0.020 A 
ATOM     74  C   UNL A   1      47.060  27.298  28.525  1.00  0.00     0.054 A 
BRANCH  74  75
ATOM     75  S   UNL A   1      47.168  25.492  28.648  1.00  0.00     0.124 S 
ATOM     76  O   UNL A   1      46.929  25.082  27.267  1.00  0.00    -0.237 OA
ATOM     77  O   UNL A   1      48.528  25.284  29.138  1.00  0.00    -0.237 OA
ATOM     78  O   UNL A   1      46.109  25.146  29.593  1.00  0.00    -0.744 OA
ENDBRANCH  74  75
ENDBRANCH  55  69
BRANCH  56  79
ATOM     79  C   UNL A   1      46.061  39.987  27.758  1.00  0.00    -0.014 A 
ATOM     80  C   UNL A   1      45.765  40.691  26.577  1.00  0.00     0.010 A 
ATOM     81  C   UNL A   1      46.250  40.713  28.950  1.00  0.00     0.010 A 
ATOM     82  C   UNL A   1      45.688  42.089  26.584  1.00  0.00     0.020 A 
ATOM     83  C   UNL A   1      46.158  42.109  28.964  1.00  0.00     0.020 A 
ATOM     84  C   UNL A   1      45.889  42.790  27.777  1.00  0.00     0.054 A 
BRANCH  84  85
ATOM     85  S   UNL A   1      45.754  44.600  27.762  1.00  0.00     0.124 S 
ATOM     86  O   UNL A   1      47.154  45.013  27.718  1.00  0.00    -0.237 OA
ATOM     87  O   UNL A   1      44.984  44.850  26.546  1.00  0.00    -0.237 OA
ATOM     88  O   UNL A   1      45.051  44.908  29.007  1.00  0.00    -0.744 OA
ENDBRANCH  84  85
ENDBRANCH  56  79
BRANCH  68  89
ATOM     89  C   UNL A   1      51.047  35.484  25.871  1.00  0.00    -0.014 A 
ATOM     90  C   UNL A   1      52.256  35.501  26.590  1.00  0.00     0.010 A 
ATOM     91  C   UNL A   1      51.081  35.589  24.469  1.00  0.00     0.010 A 
ATOM     92  C   UNL A   1      53.472  35.649  25.918  1.00  0.00     0.020 A 
ATOM     93  C   UNL A   1      52.297  35.710  23.792  1.00  0.00     0.020 A 
ATOM     94  C   UNL A   1      53.486  35.752  24.524  1.00  0.00     0.054 A 
BRANCH  94  95
ATOM     95  S   UNL A   1      55.080  35.894  23.672  1.00  0.00     0.124 S 
ATOM     96  O   UNL A   1      55.174  34.607  22.987  1.00  0.00    -0.237 OA
ATOM     97  O   UNL A   1      54.882  37.053  22.806  1.00  0.00    -0.237 OA
ATOM     98  O   UNL A   1      56.038  36.093  24.758  1.00  0.00    -0.744 OA
ENDBRANCH  94  95
ENDBRANCH  68  89
ENDBRANCH  42  43
ENDBRANCH  35  37
ENDBRANCH  34  35
ENDBRANCH  33  34
ENDBRANCH  32  33
ENDBRANCH  31  32
ENDBRANCH  30  31
ENDBRANCH   1  30
TORSDOF 25
ENDMDL
