MODEL 1
REMARK VINA RESULT:     -10.3      0.000      0.000
REMARK SMILES CC1=C(CC(=O)OCCOCCOCCOC(=O)c2ccc(-c3c4nc(c(-c5ccc(S(=O)(=O)[O-])cc5)c5ccc([nH]5)c(-c5ccc(S(=O)(=O)[O-])cc5)c5nc(c(-c6ccc(S(=O)(=O)[O-])cc6)c6ccc3[nH]6)C=C5)C=C4)cc2)c2cc(F)ccc2/C1=C\c1ccc([S@@+](C)[O-])cc1
REMARK SMILES IDX 11 1 10 2 9 3 8 4 7 5 5 6 6 7 4 8 3 9 1 10 2 11 86 12 79 13
REMARK SMILES IDX 85 14 87 15 80 16 84 17 81 18 83 19 82 20 88 21 89 22 96 23
REMARK SMILES IDX 90 24 95 25 91 26 92 27 93 28 94 29 12 30 13 31 14 32 15 33
REMARK SMILES IDX 16 34 17 35 18 36 19 37 20 38 78 39 21 40 77 41 22 42 23 43
REMARK SMILES IDX 24 44 71 45 25 46 76 47 70 48 72 49 26 50 75 51 69 52 68 53
REMARK SMILES IDX 27 55 57 56 38 57 56 58 39 59 42 60 55 61 73 62 40 63 41 64
REMARK SMILES IDX 54 66 74 67 43 68 28 69 29 70 37 71 30 72 36 73 31 74 32 75
REMARK SMILES IDX 33 76 34 77 35 78 58 79 59 80 67 81 60 82 66 83 61 84 62 85
REMARK SMILES IDX 63 86 64 87 65 88 44 89 45 90 53 91 46 92 52 93 47 94 48 95
REMARK SMILES IDX 49 96 50 97 51 98
REMARK H PARENT 72 54 42 65
REMARK Flexibility Score: inf
ROOT
ATOM      1  C   UNL A   1      38.936  20.487  25.769  1.00  0.00     0.188 C 
ENDROOT
BRANCH   1   2
ATOM      2  O   UNL A   1      38.924  21.833  25.295  1.00  0.00    -0.376 OA
BRANCH   2   3
ATOM      3  C   UNL A   1      37.826  22.657  25.676  1.00  0.00     0.202 C 
BRANCH   3   4
ATOM      4  C   UNL A   1      36.457  21.989  25.538  1.00  0.00     0.261 C 
BRANCH   4   5
ATOM      5  O   UNL A   1      35.785  21.923  26.812  1.00  0.00    -0.463 OA
BRANCH   5   6
ATOM      6  C   UNL A   1      34.438  21.767  26.754  1.00  0.00     0.310 C 
ATOM      7  O   UNL A   1      33.733  21.537  27.730  1.00  0.00    -0.252 OA
BRANCH   6   8
ATOM      8  C   UNL A   1      33.864  22.057  25.368  1.00  0.00     0.159 C 
BRANCH   8   9
ATOM      9  C   UNL A   1      33.166  23.365  25.129  1.00  0.00    -0.025 C 
ATOM     10  C   UNL A   1      34.687  24.440  23.401  1.00  0.00     0.045 C 
ATOM     11  C   UNL A   1      33.507  24.390  24.313  1.00  0.00    -0.039 C 
ATOM     12  C   UNL A   1      32.477  25.447  24.363  1.00  0.00    -0.014 C 
ATOM     13  C   UNL A   1      31.835  23.683  25.685  1.00  0.00    -0.011 A 
ATOM     14  C   UNL A   1      31.433  24.972  25.292  1.00  0.00    -0.010 A 
ATOM     15  C   UNL A   1      32.479  26.578  23.627  1.00  0.00     0.017 C 
ATOM     16  C   UNL A   1      30.976  22.892  26.435  1.00  0.00     0.048 A 
ATOM     17  C   UNL A   1      30.231  25.512  25.739  1.00  0.00     0.012 A 
ATOM     18  C   UNL A   1      29.752  23.430  26.835  1.00  0.00     0.123 A 
ATOM     19  C   UNL A   1      29.391  24.737  26.531  1.00  0.00     0.040 A 
ATOM     20  F   UNL A   1      28.904  22.674  27.543  1.00  0.00    -0.207 F 
BRANCH  15  21
ATOM     21  C   UNL A   1      31.415  27.589  23.629  1.00  0.00    -0.025 A 
ATOM     22  C   UNL A   1      30.426  27.569  22.640  1.00  0.00     0.013 A 
ATOM     23  C   UNL A   1      31.458  28.659  24.530  1.00  0.00     0.013 A 
ATOM     24  C   UNL A   1      29.547  28.651  22.495  1.00  0.00     0.061 A 
ATOM     25  C   UNL A   1      30.564  29.729  24.397  1.00  0.00     0.061 A 
ATOM     26  C   UNL A   1      29.617  29.746  23.364  1.00  0.00     0.152 A 
BRANCH  26  27
ATOM     27  S   UNL A   1      28.639  31.247  23.083  1.00  0.00    -0.018 S 
ATOM     28  C   UNL A   1      28.280  31.071  21.325  1.00  0.00     0.346 C 
ATOM     29  O   UNL A   1      27.289  31.063  23.865  1.00  0.00    -0.612 OA
ENDBRANCH  26  27
ENDBRANCH  15  21
ENDBRANCH   8   9
ENDBRANCH   6   8
ENDBRANCH   5   6
ENDBRANCH   4   5
ENDBRANCH   3   4
ENDBRANCH   2   3
ENDBRANCH   1   2
BRANCH   1  30
ATOM     30  C   UNL A   1      40.302  19.845  26.055  1.00  0.00     0.188 C 
BRANCH  30  31
ATOM     31  O   UNL A   1      41.376  20.668  25.608  1.00  0.00    -0.376 OA
BRANCH  31  32
ATOM     32  C   UNL A   1      42.504  20.654  26.473  1.00  0.00     0.202 C 
BRANCH  32  33
ATOM     33  C   UNL A   1      42.612  21.978  27.231  1.00  0.00     0.261 C 
BRANCH  33  34
ATOM     34  O   UNL A   1      41.642  22.961  26.820  1.00  0.00    -0.460 OA
BRANCH  34  35
ATOM     35  C   UNL A   1      42.141  24.089  26.268  1.00  0.00     0.338 C 
ATOM     36  O   UNL A   1      42.641  24.208  25.167  1.00  0.00    -0.246 OA
BRANCH  35  37
ATOM     37  C   UNL A   1      41.877  25.202  27.198  1.00  0.00     0.060 A 
ATOM     38  C   UNL A   1      40.836  25.136  28.117  1.00  0.00     0.016 A 
ATOM     39  C   UNL A   1      42.729  26.307  27.185  1.00  0.00     0.016 A 
ATOM     40  C   UNL A   1      40.668  26.180  29.037  1.00  0.00     0.010 A 
ATOM     41  C   UNL A   1      42.596  27.322  28.134  1.00  0.00     0.010 A 
ATOM     42  C   UNL A   1      41.563  27.270  29.074  1.00  0.00    -0.014 A 
BRANCH  42  43
ATOM     43  C   UNL A   1      41.466  28.286  30.156  1.00  0.00     0.031 A 
ATOM     44  C   UNL A   1      40.388  29.335  30.167  1.00  0.00     0.074 A 
ATOM     45  C   UNL A   1      42.382  28.262  31.147  1.00  0.00     0.049 A 
ATOM     46  N   UNL A   1      40.070  30.168  31.125  1.00  0.00    -0.248 NA
ATOM     47  C   UNL A   1      39.578  29.490  28.948  1.00  0.00     0.031 C 
ATOM     48  C   UNL A   1      43.539  27.366  31.196  1.00  0.00     0.029 A 
ATOM     49  N   UNL A   1      42.474  28.986  32.311  1.00  0.00    -0.354 N 
ATOM     50  C   UNL A   1      39.010  30.923  30.639  1.00  0.00     0.074 A 
ATOM     51  C   UNL A   1      38.784  30.503  29.274  1.00  0.00     0.031 C 
ATOM     52  C   UNL A   1      44.180  27.539  32.362  1.00  0.00     0.029 A 
ATOM     53  C   UNL A   1      43.493  28.569  33.136  1.00  0.00     0.049 A 
ATOM     54  H   UNL A   1      41.869  29.731  32.533  1.00  0.00     0.167 HD
ATOM     55  C   UNL A   1      38.269  31.856  31.287  1.00  0.00     0.031 A 
ATOM     56  C   UNL A   1      43.819  28.939  34.391  1.00  0.00     0.031 A 
ATOM     57  C   UNL A   1      38.501  32.264  32.649  1.00  0.00     0.049 A 
ATOM     58  C   UNL A   1      42.964  29.946  35.106  1.00  0.00     0.074 A 
ATOM     59  C   UNL A   1      37.761  33.148  33.415  1.00  0.00     0.029 A 
ATOM     60  N   UNL A   1      39.544  31.820  33.447  1.00  0.00    -0.354 N 
ATOM     61  N   UNL A   1      41.890  30.563  34.673  1.00  0.00    -0.248 NA
ATOM     62  C   UNL A   1      43.344  30.291  36.483  1.00  0.00     0.031 C 
ATOM     63  C   UNL A   1      38.387  33.280  34.657  1.00  0.00     0.029 A 
ATOM     64  C   UNL A   1      39.479  32.428  34.689  1.00  0.00     0.049 A 
ATOM     65  H   UNL A   1      40.228  31.168  33.172  1.00  0.00     0.167 HD
ATOM     66  C   UNL A   1      41.456  31.355  35.730  1.00  0.00     0.074 A 
ATOM     67  C   UNL A   1      42.372  31.127  36.829  1.00  0.00     0.031 C 
ATOM     68  C   UNL A   1      40.395  32.195  35.779  1.00  0.00     0.031 A 
BRANCH  55  69
ATOM     69  C   UNL A   1      37.093  32.467  30.567  1.00  0.00    -0.014 A 
ATOM     70  C   UNL A   1      37.284  33.532  29.668  1.00  0.00     0.010 A 
ATOM     71  C   UNL A   1      35.781  32.083  30.901  1.00  0.00     0.010 A 
ATOM     72  C   UNL A   1      36.188  34.221  29.138  1.00  0.00     0.020 A 
ATOM     73  C   UNL A   1      34.682  32.751  30.353  1.00  0.00     0.020 A 
ATOM     74  C   UNL A   1      34.893  33.833  29.495  1.00  0.00     0.054 A 
BRANCH  74  75
ATOM     75  S   UNL A   1      33.481  34.761  28.834  1.00  0.00     0.124 S 
ATOM     76  O   UNL A   1      34.115  35.982  28.347  1.00  0.00    -0.237 OA
ATOM     77  O   UNL A   1      32.963  33.864  27.804  1.00  0.00    -0.237 OA
ATOM     78  O   UNL A   1      32.609  34.930  29.994  1.00  0.00    -0.744 OA
ENDBRANCH  74  75
ENDBRANCH  55  69
BRANCH  56  79
ATOM     79  C   UNL A   1      44.956  28.260  35.072  1.00  0.00    -0.014 A 
ATOM     80  C   UNL A   1      46.267  28.754  34.947  1.00  0.00     0.010 A 
ATOM     81  C   UNL A   1      44.743  27.059  35.773  1.00  0.00     0.010 A 
ATOM     82  C   UNL A   1      47.349  28.038  35.467  1.00  0.00     0.020 A 
ATOM     83  C   UNL A   1      45.820  26.353  36.318  1.00  0.00     0.020 A 
ATOM     84  C   UNL A   1      47.119  26.833  36.136  1.00  0.00     0.054 A 
BRANCH  84  85
ATOM     85  S   UNL A   1      48.539  25.891  36.759  1.00  0.00     0.124 S 
ATOM     86  O   UNL A   1      49.558  26.188  35.754  1.00  0.00    -0.237 OA
ATOM     87  O   UNL A   1      48.763  26.482  38.075  1.00  0.00    -0.237 OA
ATOM     88  O   UNL A   1      48.056  24.513  36.773  1.00  0.00    -0.744 OA
ENDBRANCH  84  85
ENDBRANCH  56  79
BRANCH  68  89
ATOM     89  C   UNL A   1      40.141  32.954  37.055  1.00  0.00    -0.014 A 
ATOM     90  C   UNL A   1      38.920  32.790  37.734  1.00  0.00     0.010 A 
ATOM     91  C   UNL A   1      41.045  33.937  37.496  1.00  0.00     0.010 A 
ATOM     92  C   UNL A   1      38.588  33.621  38.806  1.00  0.00     0.020 A 
ATOM     93  C   UNL A   1      40.726  34.753  38.585  1.00  0.00     0.020 A 
ATOM     94  C   UNL A   1      39.488  34.608  39.215  1.00  0.00     0.054 A 
BRANCH  94  95
ATOM     95  S   UNL A   1      39.019  35.712  40.576  1.00  0.00     0.124 S 
ATOM     96  O   UNL A   1      40.297  35.935  41.245  1.00  0.00    -0.237 OA
ATOM     97  O   UNL A   1      38.463  36.868  39.878  1.00  0.00    -0.237 OA
ATOM     98  O   UNL A   1      38.047  34.926  41.334  1.00  0.00    -0.744 OA
ENDBRANCH  94  95
ENDBRANCH  68  89
ENDBRANCH  42  43
ENDBRANCH  35  37
ENDBRANCH  34  35
ENDBRANCH  33  34
ENDBRANCH  32  33
ENDBRANCH  31  32
ENDBRANCH  30  31
ENDBRANCH   1  30
TORSDOF 23
ENDMDL
MODEL 2
REMARK VINA RESULT:     -10.1      5.789     13.223
REMARK SMILES CC1=C(CC(=O)OCCOCCOCCOC(=O)c2ccc(-c3c4nc(c(-c5ccc(S(=O)(=O)[O-])cc5)c5ccc([nH]5)c(-c5ccc(S(=O)(=O)[O-])cc5)c5nc(c(-c6ccc(S(=O)(=O)[O-])cc6)c6ccc3[nH]6)C=C5)C=C4)cc2)c2cc(F)ccc2/C1=C\c1ccc([S@@+](C)[O-])cc1
REMARK SMILES IDX 11 1 10 2 9 3 8 4 7 5 5 6 6 7 4 8 3 9 1 10 2 11 86 12 79 13
REMARK SMILES IDX 85 14 87 15 80 16 84 17 81 18 83 19 82 20 88 21 89 22 96 23
REMARK SMILES IDX 90 24 95 25 91 26 92 27 93 28 94 29 12 30 13 31 14 32 15 33
REMARK SMILES IDX 16 34 17 35 18 36 19 37 20 38 78 39 21 40 77 41 22 42 23 43
REMARK SMILES IDX 24 44 71 45 25 46 76 47 70 48 72 49 26 50 75 51 69 52 68 53
REMARK SMILES IDX 27 55 57 56 38 57 56 58 39 59 42 60 55 61 73 62 40 63 41 64
REMARK SMILES IDX 54 66 74 67 43 68 28 69 29 70 37 71 30 72 36 73 31 74 32 75
REMARK SMILES IDX 33 76 34 77 35 78 58 79 59 80 67 81 60 82 66 83 61 84 62 85
REMARK SMILES IDX 63 86 64 87 65 88 44 89 45 90 53 91 46 92 52 93 47 94 48 95
REMARK SMILES IDX 49 96 50 97 51 98
REMARK H PARENT 72 54 42 65
REMARK Flexibility Score: inf
ROOT
ATOM      1  C   UNL A   1      33.522  35.668  33.009  1.00  0.00     0.188 C 
ENDROOT
BRANCH   1   2
ATOM      2  O   UNL A   1      33.864  36.781  32.184  1.00  0.00    -0.376 OA
BRANCH   2   3
ATOM      3  C   UNL A   1      33.114  36.971  30.988  1.00  0.00     0.202 C 
BRANCH   3   4
ATOM      4  C   UNL A   1      33.028  35.735  30.092  1.00  0.00     0.261 C 
BRANCH   4   5
ATOM      5  O   UNL A   1      34.004  35.798  29.033  1.00  0.00    -0.463 OA
BRANCH   5   6
ATOM      6  C   UNL A   1      34.320  34.609  28.459  1.00  0.00     0.310 C 
ATOM      7  O   UNL A   1      34.617  34.476  27.277  1.00  0.00    -0.252 OA
BRANCH   6   8
ATOM      8  C   UNL A   1      34.418  33.467  29.470  1.00  0.00     0.159 C 
BRANCH   8   9
ATOM      9  C   UNL A   1      35.493  32.432  29.298  1.00  0.00    -0.025 C 
ATOM     10  C   UNL A   1      34.322  30.735  27.814  1.00  0.00     0.045 C 
ATOM     11  C   UNL A   1      35.464  31.264  28.613  1.00  0.00    -0.039 C 
ATOM     12  C   UNL A   1      36.785  30.606  28.675  1.00  0.00    -0.014 C 
ATOM     13  C   UNL A   1      36.880  32.624  29.766  1.00  0.00    -0.011 A 
ATOM     14  C   UNL A   1      37.661  31.493  29.464  1.00  0.00    -0.010 A 
ATOM     15  C   UNL A   1      37.116  29.456  28.052  1.00  0.00     0.017 C 
ATOM     16  C   UNL A   1      37.470  33.729  30.363  1.00  0.00     0.048 A 
ATOM     17  C   UNL A   1      38.994  31.421  29.855  1.00  0.00     0.012 A 
ATOM     18  C   UNL A   1      38.821  33.661  30.707  1.00  0.00     0.123 A 
ATOM     19  C   UNL A   1      39.573  32.511  30.497  1.00  0.00     0.040 A 
ATOM     20  F   UNL A   1      39.409  34.724  31.266  1.00  0.00    -0.207 F 
BRANCH  15  21
ATOM     21  C   UNL A   1      38.450  28.844  28.059  1.00  0.00    -0.025 A 
ATOM     22  C   UNL A   1      38.828  27.999  29.107  1.00  0.00     0.013 A 
ATOM     23  C   UNL A   1      39.401  29.210  27.099  1.00  0.00     0.013 A 
ATOM     24  C   UNL A   1      40.164  27.595  29.245  1.00  0.00     0.061 A 
ATOM     25  C   UNL A   1      40.730  28.788  27.227  1.00  0.00     0.061 A 
ATOM     26  C   UNL A   1      41.128  27.998  28.314  1.00  0.00     0.152 A 
BRANCH  26  27
ATOM     27  S   UNL A   1      42.893  27.669  28.571  1.00  0.00    -0.018 S 
ATOM     28  C   UNL A   1      43.560  28.260  27.003  1.00  0.00     0.346 C 
ATOM     29  O   UNL A   1      43.380  28.652  29.695  1.00  0.00    -0.612 OA
ENDBRANCH  26  27
ENDBRANCH  15  21
ENDBRANCH   8   9
ENDBRANCH   6   8
ENDBRANCH   5   6
ENDBRANCH   4   5
ENDBRANCH   3   4
ENDBRANCH   2   3
ENDBRANCH   1   2
BRANCH   1  30
ATOM     30  C   UNL A   1      34.582  35.163  33.999  1.00  0.00     0.188 C 
BRANCH  30  31
ATOM     31  O   UNL A   1      35.903  35.331  33.489  1.00  0.00    -0.376 OA
BRANCH  31  32
ATOM     32  C   UNL A   1      36.819  34.342  33.940  1.00  0.00     0.202 C 
BRANCH  32  33
ATOM     33  C   UNL A   1      36.402  33.816  35.314  1.00  0.00     0.261 C 
BRANCH  33  34
ATOM     34  O   UNL A   1      37.474  33.789  36.274  1.00  0.00    -0.460 OA
BRANCH  34  35
ATOM     35  C   UNL A   1      37.812  32.569  36.750  1.00  0.00     0.338 C 
ATOM     36  O   UNL A   1      37.227  31.924  37.597  1.00  0.00    -0.246 OA
BRANCH  35  37
ATOM     37  C   UNL A   1      38.975  32.090  35.979  1.00  0.00     0.060 A 
ATOM     38  C   UNL A   1      38.805  31.347  34.816  1.00  0.00     0.016 A 
ATOM     39  C   UNL A   1      40.256  32.445  36.402  1.00  0.00     0.016 A 
ATOM     40  C   UNL A   1      39.933  30.979  34.070  1.00  0.00     0.010 A 
ATOM     41  C   UNL A   1      41.376  32.125  35.633  1.00  0.00     0.010 A 
ATOM     42  C   UNL A   1      41.227  31.387  34.455  1.00  0.00    -0.014 A 
BRANCH  42  43
ATOM     43  C   UNL A   1      42.393  31.125  33.569  1.00  0.00     0.031 A 
ATOM     44  C   UNL A   1      43.175  29.842  33.644  1.00  0.00     0.074 A 
ATOM     45  C   UNL A   1      42.756  32.075  32.682  1.00  0.00     0.049 A 
ATOM     46  N   UNL A   1      44.095  29.398  32.825  1.00  0.00    -0.248 NA
ATOM     47  C   UNL A   1      42.915  28.953  34.788  1.00  0.00     0.031 C 
ATOM     48  C   UNL A   1      42.149  33.404  32.584  1.00  0.00     0.029 A 
ATOM     49  N   UNL A   1      43.698  32.066  31.682  1.00  0.00    -0.354 N 
ATOM     50  C   UNL A   1      44.502  28.171  33.336  1.00  0.00     0.074 A 
ATOM     51  C   UNL A   1      43.784  27.972  34.575  1.00  0.00     0.031 C 
ATOM     52  C   UNL A   1      42.678  34.052  31.535  1.00  0.00     0.029 A 
ATOM     53  C   UNL A   1      43.673  33.195  30.897  1.00  0.00     0.049 A 
ATOM     54  H   UNL A   1      44.329  31.323  31.541  1.00  0.00     0.167 HD
ATOM     55  C   UNL A   1      45.368  27.277  32.799  1.00  0.00     0.031 A 
ATOM     56  C   UNL A   1      44.342  33.498  29.765  1.00  0.00     0.031 A 
ATOM     57  C   UNL A   1      46.075  27.486  31.561  1.00  0.00     0.049 A 
ATOM     58  C   UNL A   1      45.269  32.480  29.165  1.00  0.00     0.074 A 
ATOM     59  C   UNL A   1      46.918  26.610  30.899  1.00  0.00     0.029 A 
ATOM     60  N   UNL A   1      46.024  28.643  30.799  1.00  0.00    -0.354 N 
ATOM     61  N   UNL A   1      45.551  31.273  29.597  1.00  0.00    -0.248 NA
ATOM     62  C   UNL A   1      45.949  32.847  27.915  1.00  0.00     0.031 C 
ATOM     63  C   UNL A   1      47.419  27.256  29.767  1.00  0.00     0.029 A 
ATOM     64  C   UNL A   1      46.838  28.512  29.687  1.00  0.00     0.049 A 
ATOM     65  H   UNL A   1      45.488  29.440  31.017  1.00  0.00     0.167 HD
ATOM     66  C   UNL A   1      46.427  30.732  28.663  1.00  0.00     0.074 A 
ATOM     67  C   UNL A   1      46.616  31.733  27.634  1.00  0.00     0.031 C 
ATOM     68  C   UNL A   1      47.020  29.514  28.665  1.00  0.00     0.031 A 
BRANCH  55  69
ATOM     69  C   UNL A   1      45.567  25.958  33.500  1.00  0.00    -0.014 A 
ATOM     70  C   UNL A   1      46.690  25.751  34.322  1.00  0.00     0.010 A 
ATOM     71  C   UNL A   1      44.716  24.872  33.222  1.00  0.00     0.010 A 
ATOM     72  C   UNL A   1      46.976  24.478  34.828  1.00  0.00     0.020 A 
ATOM     73  C   UNL A   1      44.983  23.605  33.747  1.00  0.00     0.020 A 
ATOM     74  C   UNL A   1      46.126  23.410  34.526  1.00  0.00     0.054 A 
BRANCH  74  75
ATOM     75  S   UNL A   1      46.532  21.756  35.154  1.00  0.00     0.124 S 
ATOM     76  O   UNL A   1      46.376  21.927  36.595  1.00  0.00    -0.237 OA
ATOM     77  O   UNL A   1      45.530  20.913  34.505  1.00  0.00    -0.237 OA
ATOM     78  O   UNL A   1      47.902  21.543  34.695  1.00  0.00    -0.744 OA
ENDBRANCH  74  75
ENDBRANCH  55  69
BRANCH  56  79
ATOM     79  C   UNL A   1      44.063  34.793  29.085  1.00  0.00    -0.014 A 
ATOM     80  C   UNL A   1      44.751  35.962  29.456  1.00  0.00     0.010 A 
ATOM     81  C   UNL A   1      43.037  34.880  28.127  1.00  0.00     0.010 A 
ATOM     82  C   UNL A   1      44.389  37.200  28.918  1.00  0.00     0.020 A 
ATOM     83  C   UNL A   1      42.689  36.112  27.566  1.00  0.00     0.020 A 
ATOM     84  C   UNL A   1      43.349  37.269  27.987  1.00  0.00     0.054 A 
BRANCH  84  85
ATOM     85  S   UNL A   1      42.859  38.892  27.339  1.00  0.00     0.124 S 
ATOM     86  O   UNL A   1      41.641  38.563  26.603  1.00  0.00    -0.237 OA
ATOM     87  O   UNL A   1      42.667  39.677  28.555  1.00  0.00    -0.237 OA
ATOM     88  O   UNL A   1      43.999  39.290  26.518  1.00  0.00    -0.744 OA
ENDBRANCH  84  85
ENDBRANCH  56  79
BRANCH  68  89
ATOM     89  C   UNL A   1      47.945  29.167  27.528  1.00  0.00    -0.014 A 
ATOM     90  C   UNL A   1      47.475  28.379  26.462  1.00  0.00     0.010 A 
ATOM     91  C   UNL A   1      49.311  29.491  27.592  1.00  0.00     0.010 A 
ATOM     92  C   UNL A   1      48.360  27.888  25.500  1.00  0.00     0.020 A 
ATOM     93  C   UNL A   1      50.196  29.022  26.616  1.00  0.00     0.020 A 
ATOM     94  C   UNL A   1      49.718  28.200  25.592  1.00  0.00     0.054 A 
BRANCH  94  95
ATOM     95  S   UNL A   1      50.862  27.512  24.363  1.00  0.00     0.124 S 
ATOM     96  O   UNL A   1      49.989  26.635  23.589  1.00  0.00    -0.237 OA
ATOM     97  O   UNL A   1      51.340  28.703  23.665  1.00  0.00    -0.237 OA
ATOM     98  O   UNL A   1      51.868  26.831  25.177  1.00  0.00    -0.744 OA
ENDBRANCH  94  95
ENDBRANCH  68  89
ENDBRANCH  42  43
ENDBRANCH  35  37
ENDBRANCH  34  35
ENDBRANCH  33  34
ENDBRANCH  32  33
ENDBRANCH  31  32
ENDBRANCH  30  31
ENDBRANCH   1  30
TORSDOF 23
ENDMDL
MODEL 3
REMARK VINA RESULT:      -9.9      1.607      2.260
REMARK SMILES CC1=C(CC(=O)OCCOCCOCCOC(=O)c2ccc(-c3c4nc(c(-c5ccc(S(=O)(=O)[O-])cc5)c5ccc([nH]5)c(-c5ccc(S(=O)(=O)[O-])cc5)c5nc(c(-c6ccc(S(=O)(=O)[O-])cc6)c6ccc3[nH]6)C=C5)C=C4)cc2)c2cc(F)ccc2/C1=C\c1ccc([S@@+](C)[O-])cc1
REMARK SMILES IDX 11 1 10 2 9 3 8 4 7 5 5 6 6 7 4 8 3 9 1 10 2 11 86 12 79 13
REMARK SMILES IDX 85 14 87 15 80 16 84 17 81 18 83 19 82 20 88 21 89 22 96 23
REMARK SMILES IDX 90 24 95 25 91 26 92 27 93 28 94 29 12 30 13 31 14 32 15 33
REMARK SMILES IDX 16 34 17 35 18 36 19 37 20 38 78 39 21 40 77 41 22 42 23 43
REMARK SMILES IDX 24 44 71 45 25 46 76 47 70 48 72 49 26 50 75 51 69 52 68 53
REMARK SMILES IDX 27 55 57 56 38 57 56 58 39 59 42 60 55 61 73 62 40 63 41 64
REMARK SMILES IDX 54 66 74 67 43 68 28 69 29 70 37 71 30 72 36 73 31 74 32 75
REMARK SMILES IDX 33 76 34 77 35 78 58 79 59 80 67 81 60 82 66 83 61 84 62 85
REMARK SMILES IDX 63 86 64 87 65 88 44 89 45 90 53 91 46 92 52 93 47 94 48 95
REMARK SMILES IDX 49 96 50 97 51 98
REMARK H PARENT 72 54 42 65
REMARK Flexibility Score: inf
ROOT
ATOM      1  C   UNL A   1      37.133  21.195  25.748  1.00  0.00     0.188 C 
ENDROOT
BRANCH   1   2
ATOM      2  O   UNL A   1      37.034  22.613  25.623  1.00  0.00    -0.376 OA
BRANCH   2   3
ATOM      3  C   UNL A   1      35.987  23.265  26.335  1.00  0.00     0.202 C 
BRANCH   3   4
ATOM      4  C   UNL A   1      34.770  22.384  26.621  1.00  0.00     0.261 C 
BRANCH   4   5
ATOM      5  O   UNL A   1      33.832  23.063  27.480  1.00  0.00    -0.463 OA
BRANCH   5   6
ATOM      6  C   UNL A   1      32.778  23.641  26.851  1.00  0.00     0.310 C 
ATOM      7  O   UNL A   1      31.713  23.905  27.400  1.00  0.00    -0.252 OA
BRANCH   6   8
ATOM      8  C   UNL A   1      33.102  24.073  25.421  1.00  0.00     0.159 C 
BRANCH   8   9
ATOM      9  C   UNL A   1      32.349  25.226  24.821  1.00  0.00    -0.025 C 
ATOM     10  C   UNL A   1      30.828  24.031  23.174  1.00  0.00     0.045 C 
ATOM     11  C   UNL A   1      31.395  25.228  23.860  1.00  0.00    -0.039 C 
ATOM     12  C   UNL A   1      30.898  26.601  23.639  1.00  0.00    -0.014 C 
ATOM     13  C   UNL A   1      32.449  26.608  25.333  1.00  0.00    -0.011 A 
ATOM     14  C   UNL A   1      31.632  27.470  24.579  1.00  0.00    -0.010 A 
ATOM     15  C   UNL A   1      29.905  26.947  22.793  1.00  0.00     0.017 C 
ATOM     16  C   UNL A   1      33.148  27.101  26.424  1.00  0.00     0.048 A 
ATOM     17  C   UNL A   1      31.600  28.836  24.843  1.00  0.00     0.012 A 
ATOM     18  C   UNL A   1      33.069  28.466  26.707  1.00  0.00     0.123 A 
ATOM     19  C   UNL A   1      32.340  29.339  25.909  1.00  0.00     0.040 A 
ATOM     20  F   UNL A   1      33.722  28.954  27.768  1.00  0.00    -0.207 F 
BRANCH  15  21
ATOM     21  C   UNL A   1      29.367  28.303  22.631  1.00  0.00    -0.025 A 
ATOM     22  C   UNL A   1      30.127  29.287  21.992  1.00  0.00     0.013 A 
ATOM     23  C   UNL A   1      28.156  28.659  23.236  1.00  0.00     0.013 A 
ATOM     24  C   UNL A   1      29.727  30.630  22.033  1.00  0.00     0.061 A 
ATOM     25  C   UNL A   1      27.747  29.999  23.257  1.00  0.00     0.061 A 
ATOM     26  C   UNL A   1      28.540  30.998  22.678  1.00  0.00     0.152 A 
BRANCH  26  27
ATOM     27  S   UNL A   1      28.095  32.738  22.930  1.00  0.00    -0.018 S 
ATOM     28  C   UNL A   1      29.714  33.427  23.331  1.00  0.00     0.346 C 
ATOM     29  O   UNL A   1      27.671  33.307  21.529  1.00  0.00    -0.612 OA
ENDBRANCH  26  27
ENDBRANCH  15  21
ENDBRANCH   8   9
ENDBRANCH   6   8
ENDBRANCH   5   6
ENDBRANCH   4   5
ENDBRANCH   3   4
ENDBRANCH   2   3
ENDBRANCH   1   2
BRANCH   1  30
ATOM     30  C   UNL A   1      38.492  20.547  25.441  1.00  0.00     0.188 C 
BRANCH  30  31
ATOM     31  O   UNL A   1      39.555  21.495  25.504  1.00  0.00    -0.376 OA
BRANCH  31  32
ATOM     32  C   UNL A   1      40.373  21.359  26.658  1.00  0.00     0.202 C 
BRANCH  32  33
ATOM     33  C   UNL A   1      40.159  22.540  27.606  1.00  0.00     0.261 C 
BRANCH  33  34
ATOM     34  O   UNL A   1      39.839  23.772  26.933  1.00  0.00    -0.460 OA
BRANCH  34  35
ATOM     35  C   UNL A   1      40.869  24.624  26.736  1.00  0.00     0.338 C 
ATOM     36  O   UNL A   1      41.750  24.530  25.904  1.00  0.00    -0.246 OA
BRANCH  35  37
ATOM     37  C   UNL A   1      40.688  25.770  27.645  1.00  0.00     0.060 A 
ATOM     38  C   UNL A   1      39.743  25.733  28.665  1.00  0.00     0.016 A 
ATOM     39  C   UNL A   1      41.523  26.879  27.507  1.00  0.00     0.016 A 
ATOM     40  C   UNL A   1      39.657  26.810  29.557  1.00  0.00     0.010 A 
ATOM     41  C   UNL A   1      41.475  27.928  28.426  1.00  0.00     0.010 A 
ATOM     42  C   UNL A   1      40.541  27.906  29.465  1.00  0.00    -0.014 A 
BRANCH  42  43
ATOM     43  C   UNL A   1      40.542  28.961  30.513  1.00  0.00     0.031 A 
ATOM     44  C   UNL A   1      39.508  30.054  30.541  1.00  0.00     0.074 A 
ATOM     45  C   UNL A   1      41.506  28.934  31.456  1.00  0.00     0.049 A 
ATOM     46  N   UNL A   1      39.274  30.933  31.483  1.00  0.00    -0.248 NA
ATOM     47  C   UNL A   1      38.642  30.201  29.360  1.00  0.00     0.031 C 
ATOM     48  C   UNL A   1      42.628  27.992  31.478  1.00  0.00     0.029 A 
ATOM     49  N   UNL A   1      41.688  29.693  32.586  1.00  0.00    -0.354 N 
ATOM     50  C   UNL A   1      38.221  31.714  31.024  1.00  0.00     0.074 A 
ATOM     51  C   UNL A   1      37.907  31.257  29.689  1.00  0.00     0.031 C 
ATOM     52  C   UNL A   1      43.336  28.178  32.602  1.00  0.00     0.029 A 
ATOM     53  C   UNL A   1      42.732  29.262  33.373  1.00  0.00     0.049 A 
ATOM     54  H   UNL A   1      41.126  30.469  32.812  1.00  0.00     0.167 HD
ATOM     55  C   UNL A   1      37.553  32.698  31.675  1.00  0.00     0.031 A 
ATOM     56  C   UNL A   1      43.138  29.661  34.596  1.00  0.00     0.031 A 
ATOM     57  C   UNL A   1      37.872  33.143  33.007  1.00  0.00     0.049 A 
ATOM     58  C   UNL A   1      42.362  30.726  35.316  1.00  0.00     0.074 A 
ATOM     59  C   UNL A   1      37.210  34.083  33.777  1.00  0.00     0.029 A 
ATOM     60  N   UNL A   1      38.937  32.683  33.767  1.00  0.00    -0.354 N 
ATOM     61  N   UNL A   1      41.292  31.372  34.917  1.00  0.00    -0.248 NA
ATOM     62  C   UNL A   1      42.827  31.102  36.659  1.00  0.00     0.031 C 
ATOM     63  C   UNL A   1      37.904  34.231  34.980  1.00  0.00     0.029 A 
ATOM     64  C   UNL A   1      38.962  33.336  34.988  1.00  0.00     0.049 A 
ATOM     65  H   UNL A   1      39.580  31.994  33.481  1.00  0.00     0.167 HD
ATOM     66  C   UNL A   1      40.947  32.218  35.965  1.00  0.00     0.074 A 
ATOM     67  C   UNL A   1      41.909  31.990  37.023  1.00  0.00     0.031 C 
ATOM     68  C   UNL A   1      39.924  33.103  36.037  1.00  0.00     0.031 A 
BRANCH  55  69
ATOM     69  C   UNL A   1      36.366  33.333  30.995  1.00  0.00    -0.014 A 
ATOM     70  C   UNL A   1      36.436  33.702  29.639  1.00  0.00     0.010 A 
ATOM     71  C   UNL A   1      35.233  33.701  31.745  1.00  0.00     0.010 A 
ATOM     72  C   UNL A   1      35.411  34.453  29.053  1.00  0.00     0.020 A 
ATOM     73  C   UNL A   1      34.195  34.428  31.156  1.00  0.00     0.020 A 
ATOM     74  C   UNL A   1      34.302  34.822  29.820  1.00  0.00     0.054 A 
BRANCH  74  75
ATOM     75  S   UNL A   1      33.000  35.830  29.059  1.00  0.00     0.124 S 
ATOM     76  O   UNL A   1      33.766  36.902  28.432  1.00  0.00    -0.237 OA
ATOM     77  O   UNL A   1      32.361  34.889  28.142  1.00  0.00    -0.237 OA
ATOM     78  O   UNL A   1      32.174  36.235  30.194  1.00  0.00    -0.744 OA
ENDBRANCH  74  75
ENDBRANCH  55  69
BRANCH  56  79
ATOM     79  C   UNL A   1      44.281  28.959  35.242  1.00  0.00    -0.014 A 
ATOM     80  C   UNL A   1      44.075  27.777  35.977  1.00  0.00     0.010 A 
ATOM     81  C   UNL A   1      45.569  29.524  35.203  1.00  0.00     0.010 A 
ATOM     82  C   UNL A   1      45.123  27.198  36.699  1.00  0.00     0.020 A 
ATOM     83  C   UNL A   1      46.625  28.933  35.903  1.00  0.00     0.020 A 
ATOM     84  C   UNL A   1      46.388  27.790  36.670  1.00  0.00     0.054 A 
BRANCH  84  85
ATOM     85  S   UNL A   1      47.722  27.054  37.656  1.00  0.00     0.124 S 
ATOM     86  O   UNL A   1      48.900  27.385  36.858  1.00  0.00    -0.237 OA
ATOM     87  O   UNL A   1      47.606  27.759  38.929  1.00  0.00    -0.237 OA
ATOM     88  O   UNL A   1      47.373  25.637  37.698  1.00  0.00    -0.744 OA
ENDBRANCH  84  85
ENDBRANCH  56  79
BRANCH  68  89
ATOM     89  C   UNL A   1      39.768  33.915  37.296  1.00  0.00    -0.014 A 
ATOM     90  C   UNL A   1      40.121  35.277  37.296  1.00  0.00     0.010 A 
ATOM     91  C   UNL A   1      39.419  33.297  38.509  1.00  0.00     0.010 A 
ATOM     92  C   UNL A   1      40.166  35.997  38.492  1.00  0.00     0.020 A 
ATOM     93  C   UNL A   1      39.438  34.022  39.704  1.00  0.00     0.020 A 
ATOM     94  C   UNL A   1      39.839  35.360  39.691  1.00  0.00     0.054 A 
BRANCH  94  95
ATOM     95  S   UNL A   1      39.952  36.297  41.241  1.00  0.00     0.124 S 
ATOM     96  O   UNL A   1      40.622  35.348  42.124  1.00  0.00    -0.237 OA
ATOM     97  O   UNL A   1      40.740  37.464  40.855  1.00  0.00    -0.237 OA
ATOM     98  O   UNL A   1      38.556  36.579  41.571  1.00  0.00    -0.744 OA
ENDBRANCH  94  95
ENDBRANCH  68  89
ENDBRANCH  42  43
ENDBRANCH  35  37
ENDBRANCH  34  35
ENDBRANCH  33  34
ENDBRANCH  32  33
ENDBRANCH  31  32
ENDBRANCH  30  31
ENDBRANCH   1  30
TORSDOF 23
ENDMDL
