MODEL 1
REMARK VINA RESULT:      -7.9      0.000      0.000
REMARK SMILES O=C(OCCOCCOCCOC(=O)[C@H]1CC[C@H](CNC(=O)c2ccccc2O)O1)c1ccc(-c2c3nc(c(-c4ccc(S(=O)(=O)[O-])cc4)c4ccc([nH]4)c(-c4ccc(S(=O)(=O)[O-])cc4)c4nc(c(-c5ccc(S(=O)(=O)[O-])cc5)c5ccc2[nH]5)C=C4)C=C3)cc1
REMARK SMILES IDX 8 1 7 2 6 3 5 4 4 5 3 6 2 7 1 8 31 9 32 10 90 11 33 12 89 13
REMARK SMILES IDX 34 14 35 15 36 16 83 17 37 18 88 19 82 20 84 21 38 22 87 23
REMARK SMILES IDX 81 24 80 25 39 27 69 28 50 29 68 30 51 31 54 32 67 33 85 34
REMARK SMILES IDX 52 35 53 36 66 38 86 39 55 40 40 41 41 42 49 43 42 44 48 45
REMARK SMILES IDX 43 46 44 47 45 48 46 49 47 50 70 51 71 52 79 53 72 54 78 55
REMARK SMILES IDX 73 56 74 57 75 58 76 59 77 60 56 61 57 62 65 63 58 64 64 65
REMARK SMILES IDX 59 66 60 67 61 68 62 69 63 70 9 71 10 72 11 73 12 74 13 75
REMARK SMILES IDX 14 76 15 77 16 78 30 79 17 80 18 81 19 82 20 83 21 84 22 86
REMARK SMILES IDX 23 87 24 88 28 89 25 90 27 91 26 92 29 93
REMARK H PARENT 84 26 54 37 20 85 29 94
REMARK Flexibility Score: inf
ROOT
ATOM      1  C   UNL A   1      36.818  32.728  31.527  1.00  0.00     0.188 C 
ENDROOT
BRANCH   1   2
ATOM      2  C   UNL A   1      36.689  33.699  30.351  1.00  0.00     0.188 C 
BRANCH   2   3
ATOM      3  O   UNL A   1      35.476  34.453  30.368  1.00  0.00    -0.376 OA
BRANCH   3   4
ATOM      4  C   UNL A   1      34.442  33.964  29.508  1.00  0.00     0.202 C 
BRANCH   4   5
ATOM      5  C   UNL A   1      34.871  33.057  28.338  1.00  0.00     0.261 C 
BRANCH   5   6
ATOM      6  O   UNL A   1      34.079  31.868  28.182  1.00  0.00    -0.460 OA
BRANCH   6   7
ATOM      7  C   UNL A   1      34.500  30.606  27.915  1.00  0.00     0.338 C 
ATOM      8  O   UNL A   1      33.724  29.839  27.342  1.00  0.00    -0.246 OA
BRANCH   7   9
ATOM      9  C   UNL A   1      35.844  30.080  28.304  1.00  0.00     0.060 A 
ATOM     10  C   UNL A   1      36.154  29.540  29.551  1.00  0.00     0.016 A 
ATOM     11  C   UNL A   1      36.847  30.070  27.321  1.00  0.00     0.016 A 
ATOM     12  C   UNL A   1      37.430  29.108  29.866  1.00  0.00     0.010 A 
ATOM     13  C   UNL A   1      38.130  29.597  27.611  1.00  0.00     0.010 A 
ATOM     14  C   UNL A   1      38.430  29.156  28.905  1.00  0.00    -0.014 A 
BRANCH  14  15
ATOM     15  C   UNL A   1      39.811  28.923  29.351  1.00  0.00     0.031 A 
ATOM     16  C   UNL A   1      40.461  27.635  28.946  1.00  0.00     0.074 A 
ATOM     17  C   UNL A   1      40.493  29.903  29.967  1.00  0.00     0.049 A 
ATOM     18  N   UNL A   1      41.636  27.166  29.257  1.00  0.00    -0.248 NA
ATOM     19  C   UNL A   1      39.677  26.755  28.057  1.00  0.00     0.031 C 
ATOM     20  C   UNL A   1      39.974  31.245  30.253  1.00  0.00     0.029 A 
ATOM     21  N   UNL A   1      41.779  29.936  30.433  1.00  0.00    -0.354 N 
ATOM     22  C   UNL A   1      41.715  25.922  28.643  1.00  0.00     0.074 A 
ATOM     23  C   UNL A   1      40.471  25.703  27.946  1.00  0.00     0.031 C 
ATOM     24  C   UNL A   1      40.943  31.974  30.830  1.00  0.00     0.029 A 
ATOM     25  C   UNL A   1      42.117  31.129  31.024  1.00  0.00     0.049 A 
ATOM     26  H   UNL A   1      42.402  29.178  30.352  1.00  0.00     0.167 HD
ATOM     27  C   UNL A   1      42.738  25.039  28.679  1.00  0.00     0.031 A 
ATOM     28  C   UNL A   1      43.238  31.473  31.684  1.00  0.00     0.031 A 
ATOM     29  C   UNL A   1      43.955  25.293  29.397  1.00  0.00     0.049 A 
ATOM     30  C   UNL A   1      44.322  30.436  31.805  1.00  0.00     0.074 A 
ATOM     31  C   UNL A   1      45.046  24.466  29.575  1.00  0.00     0.029 A 
ATOM     32  N   UNL A   1      44.235  26.483  30.060  1.00  0.00    -0.354 N 
ATOM     33  N   UNL A   1      44.359  29.224  31.298  1.00  0.00    -0.248 NA
ATOM     34  C   UNL A   1      45.506  30.799  32.592  1.00  0.00     0.031 C 
ATOM     35  C   UNL A   1      45.959  25.133  30.399  1.00  0.00     0.029 A 
ATOM     36  C   UNL A   1      45.471  26.405  30.671  1.00  0.00     0.049 A 
ATOM     37  H   UNL A   1      43.639  27.265  30.091  1.00  0.00     0.167 HD
ATOM     38  C   UNL A   1      45.580  28.686  31.684  1.00  0.00     0.074 A 
ATOM     39  C   UNL A   1      46.255  29.712  32.457  1.00  0.00     0.031 C 
ATOM     40  C   UNL A   1      46.102  27.460  31.427  1.00  0.00     0.031 A 
BRANCH  27  41
ATOM     41  C   UNL A   1      42.520  23.707  28.011  1.00  0.00    -0.014 A 
ATOM     42  C   UNL A   1      41.851  22.651  28.658  1.00  0.00     0.010 A 
ATOM     43  C   UNL A   1      43.046  23.494  26.724  1.00  0.00     0.010 A 
ATOM     44  C   UNL A   1      41.762  21.393  28.051  1.00  0.00     0.020 A 
ATOM     45  C   UNL A   1      42.931  22.249  26.101  1.00  0.00     0.020 A 
ATOM     46  C   UNL A   1      42.310  21.199  26.779  1.00  0.00     0.054 A 
BRANCH  46  47
ATOM     47  S   UNL A   1      42.193  19.555  26.022  1.00  0.00     0.124 S 
ATOM     48  O   UNL A   1      40.767  19.465  25.716  1.00  0.00    -0.237 OA
ATOM     49  O   UNL A   1      43.078  19.671  24.869  1.00  0.00    -0.237 OA
ATOM     50  O   UNL A   1      42.660  18.654  27.077  1.00  0.00    -0.744 OA
ENDBRANCH  46  47
ENDBRANCH  27  41
BRANCH  28  51
ATOM     51  C   UNL A   1      43.351  32.815  32.322  1.00  0.00    -0.014 A 
ATOM     52  C   UNL A   1      43.759  33.940  31.585  1.00  0.00     0.010 A 
ATOM     53  C   UNL A   1      43.022  32.979  33.682  1.00  0.00     0.010 A 
ATOM     54  C   UNL A   1      43.842  35.197  32.196  1.00  0.00     0.020 A 
ATOM     55  C   UNL A   1      43.073  34.237  34.289  1.00  0.00     0.020 A 
ATOM     56  C   UNL A   1      43.492  35.338  33.542  1.00  0.00     0.054 A 
BRANCH  56  57
ATOM     57  S   UNL A   1      43.553  36.987  34.296  1.00  0.00     0.124 S 
ATOM     58  O   UNL A   1      44.483  37.689  33.418  1.00  0.00    -0.237 OA
ATOM     59  O   UNL A   1      42.160  37.417  34.219  1.00  0.00    -0.237 OA
ATOM     60  O   UNL A   1      44.043  36.726  35.648  1.00  0.00    -0.744 OA
ENDBRANCH  56  57
ENDBRANCH  28  51
BRANCH  40  61
ATOM     61  C   UNL A   1      47.484  27.183  31.947  1.00  0.00    -0.014 A 
ATOM     62  C   UNL A   1      48.626  27.638  31.267  1.00  0.00     0.010 A 
ATOM     63  C   UNL A   1      47.628  26.526  33.182  1.00  0.00     0.010 A 
ATOM     64  C   UNL A   1      49.894  27.421  31.807  1.00  0.00     0.020 A 
ATOM     65  C   UNL A   1      48.892  26.337  33.740  1.00  0.00     0.020 A 
ATOM     66  C   UNL A   1      50.019  26.776  33.042  1.00  0.00     0.054 A 
BRANCH  66  67
ATOM     67  S   UNL A   1      51.672  26.567  33.751  1.00  0.00     0.124 S 
ATOM     68  O   UNL A   1      51.369  26.309  35.155  1.00  0.00    -0.237 OA
ATOM     69  O   UNL A   1      52.199  25.429  33.001  1.00  0.00    -0.237 OA
ATOM     70  O   UNL A   1      52.330  27.844  33.479  1.00  0.00    -0.744 OA
ENDBRANCH  66  67
ENDBRANCH  40  61
ENDBRANCH  14  15
ENDBRANCH   7   9
ENDBRANCH   6   7
ENDBRANCH   5   6
ENDBRANCH   4   5
ENDBRANCH   3   4
ENDBRANCH   2   3
ENDBRANCH   1   2
BRANCH   1  71
ATOM     71  O   UNL A   1      37.925  32.918  32.404  1.00  0.00    -0.376 OA
BRANCH  71  72
ATOM     72  C   UNL A   1      37.677  33.623  33.612  1.00  0.00     0.202 C 
BRANCH  72  73
ATOM     73  C   UNL A   1      38.865  33.961  34.530  1.00  0.00     0.261 C 
BRANCH  73  74
ATOM     74  O   UNL A   1      39.237  32.961  35.495  1.00  0.00    -0.461 OA
BRANCH  74  75
ATOM     75  C   UNL A   1      38.217  32.141  35.883  1.00  0.00     0.335 C 
ATOM     76  O   UNL A   1      37.115  32.548  36.249  1.00  0.00    -0.249 OA
BRANCH  75  77
ATOM     77  C   UNL A   1      38.615  30.644  35.829  1.00  0.00     0.228 C 
ATOM     78  C   UNL A   1      38.549  30.161  34.385  1.00  0.00     0.047 C 
ATOM     79  O   UNL A   1      39.951  30.323  36.273  1.00  0.00    -0.361 OA
ATOM     80  C   UNL A   1      39.956  30.449  33.920  1.00  0.00     0.037 C 
ATOM     81  C   UNL A   1      40.774  29.997  35.121  1.00  0.00     0.138 C 
BRANCH  81  82
ATOM     82  C   UNL A   1      41.123  28.487  35.095  1.00  0.00     0.148 C 
BRANCH  82  83
ATOM     83  N   UNL A   1      41.625  28.005  36.382  1.00  0.00    -0.349 N 
ATOM     84  C   UNL A   1      42.348  26.888  36.699  1.00  0.00     0.255 C 
ATOM     85  H   UNL A   1      41.405  28.580  37.150  1.00  0.00     0.163 HD
ATOM     86  O   UNL A   1      42.580  26.643  37.887  1.00  0.00    -0.269 OA
BRANCH  84  87
ATOM     87  C   UNL A   1      42.798  25.930  35.672  1.00  0.00     0.081 A 
ATOM     88  C   UNL A   1      42.201  24.660  35.686  1.00  0.00     0.018 A 
ATOM     89  C   UNL A   1      43.839  26.195  34.777  1.00  0.00     0.128 A 
ATOM     90  C   UNL A   1      42.605  23.684  34.776  1.00  0.00     0.001 A 
ATOM     91  C   UNL A   1      44.238  25.218  33.861  1.00  0.00     0.047 A 
ATOM     92  C   UNL A   1      43.614  23.967  33.859  1.00  0.00     0.004 A 
BRANCH  89  93
ATOM     93  O   UNL A   1      44.497  27.392  34.809  1.00  0.00    -0.507 OA
ATOM     94  H   UNL A   1      45.189  27.562  34.202  1.00  0.00     0.293 HD
ENDBRANCH  89  93
ENDBRANCH  84  87
ENDBRANCH  82  83
ENDBRANCH  81  82
ENDBRANCH  75  77
ENDBRANCH  74  75
ENDBRANCH  73  74
ENDBRANCH  72  73
ENDBRANCH  71  72
ENDBRANCH   1  71
TORSDOF 24
ENDMDL
MODEL 2
REMARK VINA RESULT:      -7.7      5.151      8.134
REMARK SMILES O=C(OCCOCCOCCOC(=O)[C@H]1CC[C@H](CNC(=O)c2ccccc2O)O1)c1ccc(-c2c3nc(c(-c4ccc(S(=O)(=O)[O-])cc4)c4ccc([nH]4)c(-c4ccc(S(=O)(=O)[O-])cc4)c4nc(c(-c5ccc(S(=O)(=O)[O-])cc5)c5ccc2[nH]5)C=C4)C=C3)cc1
REMARK SMILES IDX 8 1 7 2 6 3 5 4 4 5 3 6 2 7 1 8 31 9 32 10 90 11 33 12 89 13
REMARK SMILES IDX 34 14 35 15 36 16 83 17 37 18 88 19 82 20 84 21 38 22 87 23
REMARK SMILES IDX 81 24 80 25 39 27 69 28 50 29 68 30 51 31 54 32 67 33 85 34
REMARK SMILES IDX 52 35 53 36 66 38 86 39 55 40 40 41 41 42 49 43 42 44 48 45
REMARK SMILES IDX 43 46 44 47 45 48 46 49 47 50 70 51 71 52 79 53 72 54 78 55
REMARK SMILES IDX 73 56 74 57 75 58 76 59 77 60 56 61 57 62 65 63 58 64 64 65
REMARK SMILES IDX 59 66 60 67 61 68 62 69 63 70 9 71 10 72 11 73 12 74 13 75
REMARK SMILES IDX 14 76 15 77 16 78 30 79 17 80 18 81 19 82 20 83 21 84 22 86
REMARK SMILES IDX 23 87 24 88 28 89 25 90 27 91 26 92 29 93
REMARK H PARENT 84 26 54 37 20 85 29 94
REMARK Flexibility Score: inf
ROOT
ATOM      1  C   UNL A   1      35.489  33.234  28.098  1.00  0.00     0.188 C 
ENDROOT
BRANCH   1   2
ATOM      2  C   UNL A   1      34.842  33.670  29.413  1.00  0.00     0.188 C 
BRANCH   2   3
ATOM      3  O   UNL A   1      35.315  32.942  30.548  1.00  0.00    -0.376 OA
BRANCH   3   4
ATOM      4  C   UNL A   1      36.722  33.045  30.793  1.00  0.00     0.202 C 
BRANCH   4   5
ATOM      5  C   UNL A   1      37.511  31.728  30.927  1.00  0.00     0.261 C 
BRANCH   5   6
ATOM      6  O   UNL A   1      37.366  30.829  29.816  1.00  0.00    -0.460 OA
BRANCH   6   7
ATOM      7  C   UNL A   1      37.857  29.571  29.682  1.00  0.00     0.338 C 
ATOM      8  O   UNL A   1      37.122  28.623  29.965  1.00  0.00    -0.246 OA
BRANCH   7   9
ATOM      9  C   UNL A   1      39.253  29.267  29.241  1.00  0.00     0.060 A 
ATOM     10  C   UNL A   1      40.283  28.863  30.088  1.00  0.00     0.016 A 
ATOM     11  C   UNL A   1      39.526  29.332  27.864  1.00  0.00     0.016 A 
ATOM     12  C   UNL A   1      41.567  28.638  29.625  1.00  0.00     0.010 A 
ATOM     13  C   UNL A   1      40.809  29.065  27.377  1.00  0.00     0.010 A 
ATOM     14  C   UNL A   1      41.842  28.760  28.270  1.00  0.00    -0.014 A 
BRANCH  14  15
ATOM     15  C   UNL A   1      43.254  28.755  27.861  1.00  0.00     0.031 A 
ATOM     16  C   UNL A   1      43.780  27.514  27.207  1.00  0.00     0.074 A 
ATOM     17  C   UNL A   1      43.981  29.882  27.944  1.00  0.00     0.049 A 
ATOM     18  N   UNL A   1      44.991  27.235  26.814  1.00  0.00    -0.248 NA
ATOM     19  C   UNL A   1      42.801  26.439  26.955  1.00  0.00     0.031 C 
ATOM     20  C   UNL A   1      43.486  31.177  28.424  1.00  0.00     0.029 A 
ATOM     21  N   UNL A   1      45.281  30.130  27.595  1.00  0.00    -0.354 N 
ATOM     22  C   UNL A   1      44.929  25.941  26.310  1.00  0.00     0.074 A 
ATOM     23  C   UNL A   1      43.567  25.486  26.452  1.00  0.00     0.031 C 
ATOM     24  C   UNL A   1      44.469  32.086  28.320  1.00  0.00     0.029 A 
ATOM     25  C   UNL A   1      45.678  31.421  27.845  1.00  0.00     0.049 A 
ATOM     26  H   UNL A   1      45.874  29.449  27.203  1.00  0.00     0.167 HD
ATOM     27  C   UNL A   1      45.934  25.200  25.792  1.00  0.00     0.031 A 
ATOM     28  C   UNL A   1      46.898  31.980  27.738  1.00  0.00     0.031 A 
ATOM     29  C   UNL A   1      47.279  25.690  25.682  1.00  0.00     0.049 A 
ATOM     30  C   UNL A   1      48.026  31.106  27.261  1.00  0.00     0.074 A 
ATOM     31  C   UNL A   1      48.408  25.031  25.240  1.00  0.00     0.029 A 
ATOM     32  N   UNL A   1      47.670  26.980  26.024  1.00  0.00    -0.354 N 
ATOM     33  N   UNL A   1      47.984  29.852  26.868  1.00  0.00    -0.248 NA
ATOM     34  C   UNL A   1      49.364  31.708  27.222  1.00  0.00     0.031 C 
ATOM     35  C   UNL A   1      49.494  25.904  25.374  1.00  0.00     0.029 A 
ATOM     36  C   UNL A   1      49.028  27.131  25.827  1.00  0.00     0.049 A 
ATOM     37  H   UNL A   1      47.066  27.682  26.358  1.00  0.00     0.167 HD
ATOM     38  C   UNL A   1      49.285  29.520  26.513  1.00  0.00     0.074 A 
ATOM     39  C   UNL A   1      50.086  30.711  26.727  1.00  0.00     0.031 C 
ATOM     40  C   UNL A   1      49.779  28.343  26.051  1.00  0.00     0.031 A 
BRANCH  27  41
ATOM     41  C   UNL A   1      45.616  23.777  25.417  1.00  0.00    -0.014 A 
ATOM     42  C   UNL A   1      45.166  23.429  24.130  1.00  0.00     0.010 A 
ATOM     43  C   UNL A   1      45.723  22.773  26.396  1.00  0.00     0.010 A 
ATOM     44  C   UNL A   1      44.776  22.115  23.848  1.00  0.00     0.020 A 
ATOM     45  C   UNL A   1      45.365  21.453  26.110  1.00  0.00     0.020 A 
ATOM     46  C   UNL A   1      44.871  21.137  24.843  1.00  0.00     0.054 A 
BRANCH  46  47
ATOM     47  S   UNL A   1      44.346  19.446  24.456  1.00  0.00     0.124 S 
ATOM     48  O   UNL A   1      42.957  19.451  24.909  1.00  0.00    -0.237 OA
ATOM     49  O   UNL A   1      44.536  19.375  23.012  1.00  0.00    -0.237 OA
ATOM     50  O   UNL A   1      45.253  18.611  25.244  1.00  0.00    -0.744 OA
ENDBRANCH  46  47
ENDBRANCH  27  41
BRANCH  28  51
ATOM     51  C   UNL A   1      47.112  33.397  28.148  1.00  0.00    -0.014 A 
ATOM     52  C   UNL A   1      46.977  34.450  27.227  1.00  0.00     0.010 A 
ATOM     53  C   UNL A   1      47.431  33.703  29.486  1.00  0.00     0.010 A 
ATOM     54  C   UNL A   1      47.165  35.777  27.634  1.00  0.00     0.020 A 
ATOM     55  C   UNL A   1      47.587  35.027  29.904  1.00  0.00     0.020 A 
ATOM     56  C   UNL A   1      47.462  36.056  28.971  1.00  0.00     0.054 A 
BRANCH  56  57
ATOM     57  S   UNL A   1      47.643  37.787  29.486  1.00  0.00     0.124 S 
ATOM     58  O   UNL A   1      47.472  37.694  30.931  1.00  0.00    -0.237 OA
ATOM     59  O   UNL A   1      48.991  38.109  29.026  1.00  0.00    -0.237 OA
ATOM     60  O   UNL A   1      46.568  38.470  28.769  1.00  0.00    -0.744 OA
ENDBRANCH  56  57
ENDBRANCH  28  51
BRANCH  40  61
ATOM     61  C   UNL A   1      51.240  28.305  25.703  1.00  0.00    -0.014 A 
ATOM     62  C   UNL A   1      52.197  27.833  26.617  1.00  0.00     0.010 A 
ATOM     63  C   UNL A   1      51.641  28.671  24.406  1.00  0.00     0.010 A 
ATOM     64  C   UNL A   1      53.539  27.749  26.243  1.00  0.00     0.020 A 
ATOM     65  C   UNL A   1      52.976  28.556  24.018  1.00  0.00     0.020 A 
ATOM     66  C   UNL A   1      53.918  28.106  24.944  1.00  0.00     0.054 A 
BRANCH  66  67
ATOM     67  S   UNL A   1      55.656  27.923  24.465  1.00  0.00     0.124 S 
ATOM     68  O   UNL A   1      55.705  28.673  23.213  1.00  0.00    -0.237 OA
ATOM     69  O   UNL A   1      56.363  28.530  25.590  1.00  0.00    -0.237 OA
ATOM     70  O   UNL A   1      55.829  26.478  24.334  1.00  0.00    -0.744 OA
ENDBRANCH  66  67
ENDBRANCH  40  61
ENDBRANCH  14  15
ENDBRANCH   7   9
ENDBRANCH   6   7
ENDBRANCH   5   6
ENDBRANCH   4   5
ENDBRANCH   3   4
ENDBRANCH   2   3
ENDBRANCH   1   2
BRANCH   1  71
ATOM     71  O   UNL A   1      35.246  31.897  27.669  1.00  0.00    -0.376 OA
BRANCH  71  72
ATOM     72  C   UNL A   1      33.892  31.526  27.449  1.00  0.00     0.202 C 
BRANCH  72  73
ATOM     73  C   UNL A   1      33.550  30.035  27.280  1.00  0.00     0.261 C 
BRANCH  73  74
ATOM     74  O   UNL A   1      33.358  29.569  25.933  1.00  0.00    -0.461 OA
BRANCH  74  75
ATOM     75  C   UNL A   1      32.138  29.005  25.696  1.00  0.00     0.335 C 
ATOM     76  O   UNL A   1      31.235  29.569  25.079  1.00  0.00    -0.249 OA
BRANCH  75  77
ATOM     77  C   UNL A   1      32.017  27.587  26.309  1.00  0.00     0.228 C 
ATOM     78  C   UNL A   1      30.961  26.799  25.542  1.00  0.00     0.047 C 
ATOM     79  O   UNL A   1      33.204  26.769  26.263  1.00  0.00    -0.361 OA
ATOM     80  C   UNL A   1      31.805  26.154  24.471  1.00  0.00     0.037 C 
ATOM     81  C   UNL A   1      33.034  25.731  25.262  1.00  0.00     0.138 C 
BRANCH  81  82
ATOM     82  C   UNL A   1      32.890  24.337  25.923  1.00  0.00     0.148 C 
BRANCH  82  83
ATOM     83  N   UNL A   1      32.348  23.334  25.006  1.00  0.00    -0.349 N 
ATOM     84  C   UNL A   1      32.973  22.366  24.269  1.00  0.00     0.255 C 
ATOM     85  H   UNL A   1      31.370  23.360  24.900  1.00  0.00     0.163 HD
ATOM     86  O   UNL A   1      32.303  21.686  23.484  1.00  0.00    -0.269 OA
BRANCH  84  87
ATOM     87  C   UNL A   1      34.431  22.156  24.328  1.00  0.00     0.081 A 
ATOM     88  C   UNL A   1      35.223  22.980  23.515  1.00  0.00     0.018 A 
ATOM     89  C   UNL A   1      35.031  21.128  25.064  1.00  0.00     0.128 A 
ATOM     90  C   UNL A   1      36.607  22.813  23.481  1.00  0.00     0.001 A 
ATOM     91  C   UNL A   1      36.418  20.966  25.034  1.00  0.00     0.047 A 
ATOM     92  C   UNL A   1      37.203  21.814  24.247  1.00  0.00     0.004 A 
BRANCH  89  93
ATOM     93  O   UNL A   1      34.269  20.256  25.788  1.00  0.00    -0.507 OA
ATOM     94  H   UNL A   1      34.373  19.333  25.668  1.00  0.00     0.293 HD
ENDBRANCH  89  93
ENDBRANCH  84  87
ENDBRANCH  82  83
ENDBRANCH  81  82
ENDBRANCH  75  77
ENDBRANCH  74  75
ENDBRANCH  73  74
ENDBRANCH  72  73
ENDBRANCH  71  72
ENDBRANCH   1  71
TORSDOF 24
ENDMDL
MODEL 3
REMARK VINA RESULT:      -7.4      3.978      7.329
REMARK SMILES O=C(OCCOCCOCCOC(=O)[C@H]1CC[C@H](CNC(=O)c2ccccc2O)O1)c1ccc(-c2c3nc(c(-c4ccc(S(=O)(=O)[O-])cc4)c4ccc([nH]4)c(-c4ccc(S(=O)(=O)[O-])cc4)c4nc(c(-c5ccc(S(=O)(=O)[O-])cc5)c5ccc2[nH]5)C=C4)C=C3)cc1
REMARK SMILES IDX 8 1 7 2 6 3 5 4 4 5 3 6 2 7 1 8 31 9 32 10 90 11 33 12 89 13
REMARK SMILES IDX 34 14 35 15 36 16 83 17 37 18 88 19 82 20 84 21 38 22 87 23
REMARK SMILES IDX 81 24 80 25 39 27 69 28 50 29 68 30 51 31 54 32 67 33 85 34
REMARK SMILES IDX 52 35 53 36 66 38 86 39 55 40 40 41 41 42 49 43 42 44 48 45
REMARK SMILES IDX 43 46 44 47 45 48 46 49 47 50 70 51 71 52 79 53 72 54 78 55
REMARK SMILES IDX 73 56 74 57 75 58 76 59 77 60 56 61 57 62 65 63 58 64 64 65
REMARK SMILES IDX 59 66 60 67 61 68 62 69 63 70 9 71 10 72 11 73 12 74 13 75
REMARK SMILES IDX 14 76 15 77 16 78 30 79 17 80 18 81 19 82 20 83 21 84 22 86
REMARK SMILES IDX 23 87 24 88 28 89 25 90 27 91 26 92 29 93
REMARK H PARENT 84 26 54 37 20 85 29 94
REMARK Flexibility Score: inf
ROOT
ATOM      1  C   UNL A   1      34.021  34.503  28.702  1.00  0.00     0.188 C 
ENDROOT
BRANCH   1   2
ATOM      2  C   UNL A   1      33.160  35.455  29.534  1.00  0.00     0.188 C 
BRANCH   2   3
ATOM      3  O   UNL A   1      33.128  35.124  30.924  1.00  0.00    -0.376 OA
BRANCH   3   4
ATOM      4  C   UNL A   1      34.296  35.493  31.665  1.00  0.00     0.202 C 
BRANCH   4   5
ATOM      5  C   UNL A   1      34.443  34.909  33.083  1.00  0.00     0.261 C 
BRANCH   5   6
ATOM      6  O   UNL A   1      34.772  33.511  33.123  1.00  0.00    -0.460 OA
BRANCH   6   7
ATOM      7  C   UNL A   1      34.982  32.667  32.081  1.00  0.00     0.338 C 
ATOM      8  O   UNL A   1      34.003  32.253  31.458  1.00  0.00    -0.246 OA
BRANCH   7   9
ATOM      9  C   UNL A   1      36.333  32.184  31.663  1.00  0.00     0.060 A 
ATOM     10  C   UNL A   1      37.266  31.600  32.517  1.00  0.00     0.016 A 
ATOM     11  C   UNL A   1      36.659  32.267  30.299  1.00  0.00     0.016 A 
ATOM     12  C   UNL A   1      38.520  31.211  32.078  1.00  0.00     0.010 A 
ATOM     13  C   UNL A   1      37.905  31.839  29.833  1.00  0.00     0.010 A 
ATOM     14  C   UNL A   1      38.853  31.350  30.739  1.00  0.00    -0.014 A 
BRANCH  14  15
ATOM     15  C   UNL A   1      40.263  31.159  30.368  1.00  0.00     0.031 A 
ATOM     16  C   UNL A   1      40.642  29.851  29.742  1.00  0.00     0.074 A 
ATOM     17  C   UNL A   1      41.127  32.185  30.457  1.00  0.00     0.049 A 
ATOM     18  N   UNL A   1      41.817  29.414  29.384  1.00  0.00    -0.248 NA
ATOM     19  C   UNL A   1      39.540  28.907  29.475  1.00  0.00     0.031 C 
ATOM     20  C   UNL A   1      40.790  33.539  30.909  1.00  0.00     0.029 A 
ATOM     21  N   UNL A   1      42.456  32.259  30.141  1.00  0.00    -0.354 N 
ATOM     22  C   UNL A   1      41.602  28.131  28.894  1.00  0.00     0.074 A 
ATOM     23  C   UNL A   1      40.190  27.856  29.004  1.00  0.00     0.031 C 
ATOM     24  C   UNL A   1      41.884  34.313  30.822  1.00  0.00     0.029 A 
ATOM     25  C   UNL A   1      43.009  33.492  30.386  1.00  0.00     0.049 A 
ATOM     26  H   UNL A   1      42.967  31.502  29.772  1.00  0.00     0.167 HD
ATOM     27  C   UNL A   1      42.516  27.261  28.410  1.00  0.00     0.031 A 
ATOM     28  C   UNL A   1      44.293  33.889  30.306  1.00  0.00     0.031 A 
ATOM     29  C   UNL A   1      43.916  27.573  28.331  1.00  0.00     0.049 A 
ATOM     30  C   UNL A   1      45.311  32.870  29.869  1.00  0.00     0.074 A 
ATOM     31  C   UNL A   1      44.962  26.768  27.927  1.00  0.00     0.029 A 
ATOM     32  N   UNL A   1      44.460  28.807  28.669  1.00  0.00    -0.354 N 
ATOM     33  N   UNL A   1      45.118  31.627  29.489  1.00  0.00    -0.248 NA
ATOM     34  C   UNL A   1      46.715  33.296  29.859  1.00  0.00     0.031 C 
ATOM     35  C   UNL A   1      46.147  27.497  28.080  1.00  0.00     0.029 A 
ATOM     36  C   UNL A   1      45.831  28.780  28.506  1.00  0.00     0.049 A 
ATOM     37  H   UNL A   1      43.943  29.585  28.979  1.00  0.00     0.167 HD
ATOM     38  C   UNL A   1      46.374  31.126  29.173  1.00  0.00     0.074 A 
ATOM     39  C   UNL A   1      47.316  32.208  29.394  1.00  0.00     0.031 C 
ATOM     40  C   UNL A   1      46.725  29.889  28.737  1.00  0.00     0.031 A 
BRANCH  27  41
ATOM     41  C   UNL A   1      42.028  25.884  28.043  1.00  0.00    -0.014 A 
ATOM     42  C   UNL A   1      42.308  24.758  28.839  1.00  0.00     0.010 A 
ATOM     43  C   UNL A   1      41.316  25.710  26.842  1.00  0.00     0.010 A 
ATOM     44  C   UNL A   1      41.932  23.480  28.413  1.00  0.00     0.020 A 
ATOM     45  C   UNL A   1      40.912  24.439  26.428  1.00  0.00     0.020 A 
ATOM     46  C   UNL A   1      41.243  23.328  27.205  1.00  0.00     0.054 A 
BRANCH  46  47
ATOM     47  S   UNL A   1      40.782  21.659  26.668  1.00  0.00     0.124 S 
ATOM     48  O   UNL A   1      39.471  21.887  26.067  1.00  0.00    -0.237 OA
ATOM     49  O   UNL A   1      41.850  21.316  25.737  1.00  0.00    -0.237 OA
ATOM     50  O   UNL A   1      40.769  20.886  27.912  1.00  0.00    -0.744 OA
ENDBRANCH  46  47
ENDBRANCH  27  41
BRANCH  28  51
ATOM     51  C   UNL A   1      44.676  35.272  30.706  1.00  0.00    -0.014 A 
ATOM     52  C   UNL A   1      44.997  35.583  32.038  1.00  0.00     0.010 A 
ATOM     53  C   UNL A   1      44.747  36.291  29.735  1.00  0.00     0.010 A 
ATOM     54  C   UNL A   1      45.373  36.885  32.392  1.00  0.00     0.020 A 
ATOM     55  C   UNL A   1      45.153  37.584  30.077  1.00  0.00     0.020 A 
ATOM     56  C   UNL A   1      45.454  37.875  31.408  1.00  0.00     0.054 A 
BRANCH  56  57
ATOM     57  S   UNL A   1      46.000  39.539  31.881  1.00  0.00     0.124 S 
ATOM     58  O   UNL A   1      44.784  40.106  32.455  1.00  0.00    -0.237 OA
ATOM     59  O   UNL A   1      47.076  39.258  32.828  1.00  0.00    -0.237 OA
ATOM     60  O   UNL A   1      46.431  40.130  30.616  1.00  0.00    -0.744 OA
ENDBRANCH  56  57
ENDBRANCH  28  51
BRANCH  40  61
ATOM     61  C   UNL A   1      48.177  29.659  28.429  1.00  0.00    -0.014 A 
ATOM     62  C   UNL A   1      49.052  29.118  29.387  1.00  0.00     0.010 A 
ATOM     63  C   UNL A   1      48.646  29.914  27.128  1.00  0.00     0.010 A 
ATOM     64  C   UNL A   1      50.380  28.856  29.051  1.00  0.00     0.020 A 
ATOM     65  C   UNL A   1      49.964  29.622  26.780  1.00  0.00     0.020 A 
ATOM     66  C   UNL A   1      50.827  29.104  27.748  1.00  0.00     0.054 A 
BRANCH  66  67
ATOM     67  S   UNL A   1      52.538  28.692  27.322  1.00  0.00     0.124 S 
ATOM     68  O   UNL A   1      52.979  27.964  28.507  1.00  0.00    -0.237 OA
ATOM     69  O   UNL A   1      52.381  27.889  26.111  1.00  0.00    -0.237 OA
ATOM     70  O   UNL A   1      53.168  29.995  27.120  1.00  0.00    -0.744 OA
ENDBRANCH  66  67
ENDBRANCH  40  61
ENDBRANCH  14  15
ENDBRANCH   7   9
ENDBRANCH   6   7
ENDBRANCH   5   6
ENDBRANCH   4   5
ENDBRANCH   3   4
ENDBRANCH   2   3
ENDBRANCH   1   2
BRANCH   1  71
ATOM     71  O   UNL A   1      33.361  33.762  27.679  1.00  0.00    -0.376 OA
BRANCH  71  72
ATOM     72  C   UNL A   1      32.964  32.436  27.998  1.00  0.00     0.202 C 
BRANCH  72  73
ATOM     73  C   UNL A   1      33.805  31.262  27.464  1.00  0.00     0.261 C 
BRANCH  73  74
ATOM     74  O   UNL A   1      33.152  29.983  27.395  1.00  0.00    -0.461 OA
BRANCH  74  75
ATOM     75  C   UNL A   1      33.973  28.944  27.062  1.00  0.00     0.335 C 
ATOM     76  O   UNL A   1      35.198  29.036  26.997  1.00  0.00    -0.249 OA
BRANCH  75  77
ATOM     77  C   UNL A   1      33.183  27.646  26.757  1.00  0.00     0.228 C 
ATOM     78  C   UNL A   1      32.002  27.980  25.853  1.00  0.00     0.047 C 
ATOM     79  O   UNL A   1      33.906  26.608  26.063  1.00  0.00    -0.361 OA
ATOM     80  C   UNL A   1      32.623  27.803  24.490  1.00  0.00     0.037 C 
ATOM     81  C   UNL A   1      33.442  26.536  24.688  1.00  0.00     0.138 C 
BRANCH  81  82
ATOM     82  C   UNL A   1      32.636  25.236  24.439  1.00  0.00     0.148 C 
BRANCH  82  83
ATOM     83  N   UNL A   1      32.760  24.753  23.064  1.00  0.00    -0.349 N 
ATOM     84  C   UNL A   1      33.503  23.733  22.538  1.00  0.00     0.255 C 
ATOM     85  H   UNL A   1      32.218  25.245  22.405  1.00  0.00     0.163 HD
ATOM     86  O   UNL A   1      33.515  23.571  21.313  1.00  0.00    -0.269 OA
BRANCH  84  87
ATOM     87  C   UNL A   1      34.348  22.866  23.380  1.00  0.00     0.081 A 
ATOM     88  C   UNL A   1      35.736  23.050  23.288  1.00  0.00     0.018 A 
ATOM     89  C   UNL A   1      33.839  21.826  24.166  1.00  0.00     0.128 A 
ATOM     90  C   UNL A   1      36.603  22.238  24.018  1.00  0.00     0.001 A 
ATOM     91  C   UNL A   1      34.709  21.018  24.902  1.00  0.00     0.047 A 
ATOM     92  C   UNL A   1      36.088  21.231  24.831  1.00  0.00     0.004 A 
BRANCH  89  93
ATOM     93  O   UNL A   1      32.498  21.569  24.196  1.00  0.00    -0.507 OA
ATOM     94  H   UNL A   1      32.190  20.718  24.434  1.00  0.00     0.293 HD
ENDBRANCH  89  93
ENDBRANCH  84  87
ENDBRANCH  82  83
ENDBRANCH  81  82
ENDBRANCH  75  77
ENDBRANCH  74  75
ENDBRANCH  73  74
ENDBRANCH  72  73
ENDBRANCH  71  72
ENDBRANCH   1  71
TORSDOF 24
ENDMDL
