MODEL 1
REMARK VINA RESULT:     -11.2      0.000      0.000
REMARK SMILES Cc1ccc(Nc2c(F)cccc2Cl)c(CC(=O)OCCOCCOCCOC(=O)c2ccc(-c3c4nc(c(-c5ccc(S(=O)(=O)[O-])cc5)c5ccc([nH]5)c(-c5ccc(S(=O)(=O)[O-])cc5)c5nc(c(-c6ccc(S(=O)(=O)[O-])cc6)c6ccc3[nH]6)C=C5)C=C4)cc2)c1
REMARK SMILES IDX 23 1 22 2 21 3 20 4 19 5 17 6 18 7 16 8 15 9 1 10 2 11 3 12
REMARK SMILES IDX 91 13 4 14 5 15 6 16 7 18 8 19 13 20 9 21 10 22 12 23 14 24
REMARK SMILES IDX 11 25 24 26 25 27 26 28 27 29 28 30 29 31 30 32 31 33 32 34
REMARK SMILES IDX 90 35 33 36 89 37 34 38 35 39 36 40 83 41 37 42 88 43 82 44
REMARK SMILES IDX 84 45 38 46 87 47 81 48 80 49 39 51 69 52 50 53 68 54 51 55
REMARK SMILES IDX 54 56 67 57 85 58 52 59 53 60 66 62 86 63 55 64 40 65 41 66
REMARK SMILES IDX 49 67 42 68 48 69 43 70 44 71 45 72 46 73 47 74 70 75 71 76
REMARK SMILES IDX 79 77 72 78 78 79 73 80 74 81 75 82 76 83 77 84 56 85 57 86
REMARK SMILES IDX 65 87 58 88 64 89 59 90 60 91 61 92 62 93 63 94
REMARK H PARENT 6 17 84 50 54 61
REMARK Flexibility Score: inf
ROOT
ATOM      1  C   UNL A   1      36.537  31.486  28.049  1.00  0.00     0.188 C 
ENDROOT
BRANCH   1   2
ATOM      2  O   UNL A   1      35.689  30.457  28.479  1.00  0.00    -0.376 OA
BRANCH   2   3
ATOM      3  C   UNL A   1      35.387  29.366  27.641  1.00  0.00     0.202 C 
BRANCH   3   4
ATOM      4  C   UNL A   1      34.040  28.824  26.910  1.00  0.00     0.261 C 
BRANCH   4   5
ATOM      5  O   UNL A   1      32.819  27.487  27.080  1.00  0.00    -0.463 OA
BRANCH   5   6
ATOM      6  C   UNL A   1      31.993  26.283  26.324  1.00  0.00     0.310 C 
ATOM      7  O   UNL A   1      32.087  25.047  26.295  1.00  0.00    -0.252 OA
BRANCH   6   8
ATOM      8  C   UNL A   1      30.751  26.725  25.787  1.00  0.00     0.160 C 
BRANCH   8   9
ATOM      9  C   UNL A   1      30.961  26.471  24.332  1.00  0.00    -0.013 A 
ATOM     10  C   UNL A   1      28.423  28.861  22.770  1.00  0.00     0.044 C 
ATOM     11  C   UNL A   1      29.723  28.213  23.111  1.00  0.00    -0.051 A 
ATOM     12  C   UNL A   1      30.947  28.793  22.871  1.00  0.00     0.005 A 
ATOM     13  C   UNL A   1      29.731  27.014  23.787  1.00  0.00     0.009 A 
ATOM     14  C   UNL A   1      32.140  28.127  23.266  1.00  0.00     0.026 A 
ATOM     15  C   UNL A   1      32.311  26.660  23.922  1.00  0.00     0.042 A 
BRANCH  15  16
ATOM     16  N   UNL A   1      33.876  25.442  23.588  1.00  0.00    -0.352 N 
ATOM     17  H   UNL A   1      34.685  25.935  23.318  1.00  0.00     0.167 HD
BRANCH  16  18
ATOM     18  C   UNL A   1      34.158  23.632  23.667  1.00  0.00     0.094 A 
ATOM     19  C   UNL A   1      33.120  22.566  23.336  1.00  0.00     0.148 A 
ATOM     20  C   UNL A   1      35.178  23.079  24.476  1.00  0.00     0.067 A 
ATOM     21  F   UNL A   1      32.045  22.690  22.535  1.00  0.00    -0.205 F 
ATOM     22  C   UNL A   1      33.084  21.261  23.845  1.00  0.00     0.041 A 
ATOM     23  C   UNL A   1      35.079  21.737  25.001  1.00  0.00     0.023 A 
ATOM     24  Cl  UNL A   1      36.714  23.724  24.785  1.00  0.00    -0.082 Cl
ATOM     25  C   UNL A   1      34.039  20.853  24.726  1.00  0.00     0.005 A 
ENDBRANCH  16  18
ENDBRANCH  15  16
ENDBRANCH   8   9
ENDBRANCH   6   8
ENDBRANCH   5   6
ENDBRANCH   4   5
ENDBRANCH   3   4
ENDBRANCH   2   3
ENDBRANCH   1   2
BRANCH   1  26
ATOM     26  C   UNL A   1      36.205  32.924  28.407  1.00  0.00     0.188 C 
BRANCH  26  27
ATOM     27  O   UNL A   1      35.382  33.626  27.508  1.00  0.00    -0.376 OA
BRANCH  27  28
ATOM     28  C   UNL A   1      34.318  34.335  28.143  1.00  0.00     0.202 C 
BRANCH  28  29
ATOM     29  C   UNL A   1      34.325  34.586  29.725  1.00  0.00     0.261 C 
BRANCH  29  30
ATOM     30  O   UNL A   1      33.913  33.463  30.626  1.00  0.00    -0.460 OA
BRANCH  30  31
ATOM     31  C   UNL A   1      34.350  33.219  31.964  1.00  0.00     0.338 C 
ATOM     32  O   UNL A   1      33.534  33.318  32.861  1.00  0.00    -0.246 OA
BRANCH  31  33
ATOM     33  C   UNL A   1      35.951  32.660  32.068  1.00  0.00     0.060 A 
ATOM     34  C   UNL A   1      36.953  31.051  32.551  1.00  0.00     0.016 A 
ATOM     35  C   UNL A   1      36.198  34.023  33.229  1.00  0.00     0.016 A 
ATOM     36  C   UNL A   1      37.848  31.000  34.223  1.00  0.00     0.010 A 
ATOM     37  C   UNL A   1      36.959  33.800  34.780  1.00  0.00     0.010 A 
ATOM     38  C   UNL A   1      37.839  32.381  35.425  1.00  0.00    -0.014 A 
BRANCH  38  39
ATOM     39  C   UNL A   1      38.783  32.788  37.017  1.00  0.00     0.031 A 
ATOM     40  C   UNL A   1      38.142  32.732  38.829  1.00  0.00     0.074 A 
ATOM     41  C   UNL A   1      40.132  32.843  37.075  1.00  0.00     0.049 A 
ATOM     42  N   UNL A   1      38.066  33.715  39.709  1.00  0.00    -0.248 NA
ATOM     43  C   UNL A   1      37.062  31.642  39.513  1.00  0.00     0.031 C 
ATOM     44  C   UNL A   1      40.972  32.703  38.278  1.00  0.00     0.029 A 
ATOM     45  N   UNL A   1      41.067  32.923  36.058  1.00  0.00    -0.354 N 
ATOM     46  C   UNL A   1      37.228  33.266  40.791  1.00  0.00     0.074 A 
ATOM     47  C   UNL A   1      36.280  32.367  40.279  1.00  0.00     0.031 C 
ATOM     48  C   UNL A   1      42.247  33.012  37.972  1.00  0.00     0.029 A 
ATOM     49  C   UNL A   1      42.238  33.483  36.598  1.00  0.00     0.049 A 
ATOM     50  H   UNL A   1      40.936  32.639  35.125  1.00  0.00     0.167 HD
ATOM     51  C   UNL A   1      37.678  33.087  42.076  1.00  0.00     0.031 A 
ATOM     52  C   UNL A   1      42.538  34.736  36.169  1.00  0.00     0.031 A 
ATOM     53  C   UNL A   1      39.061  33.498  42.084  1.00  0.00     0.049 A 
ATOM     54  C   UNL A   1      42.176  35.706  37.289  1.00  0.00     0.074 A 
ATOM     55  C   UNL A   1      40.267  32.824  42.060  1.00  0.00     0.029 A 
ATOM     56  N   UNL A   1      39.304  34.754  41.567  1.00  0.00    -0.354 N 
ATOM     57  N   UNL A   1      41.344  35.417  38.265  1.00  0.00    -0.248 NA
ATOM     58  C   UNL A   1      42.884  36.956  37.541  1.00  0.00     0.031 C 
ATOM     59  C   UNL A   1      41.225  33.701  41.445  1.00  0.00     0.029 A 
ATOM     60  C   UNL A   1      40.586  34.880  41.087  1.00  0.00     0.049 A 
ATOM     61  H   UNL A   1      38.635  35.476  41.545  1.00  0.00     0.167 HD
ATOM     62  C   UNL A   1      41.491  36.301  39.291  1.00  0.00     0.074 A 
ATOM     63  C   UNL A   1      42.431  37.279  38.767  1.00  0.00     0.031 C 
ATOM     64  C   UNL A   1      40.938  36.184  40.537  1.00  0.00     0.031 A 
BRANCH  51  65
ATOM     65  C   UNL A   1      36.980  32.225  43.161  1.00  0.00    -0.014 A 
ATOM     66  C   UNL A   1      35.809  32.715  43.769  1.00  0.00     0.010 A 
ATOM     67  C   UNL A   1      37.376  30.932  43.606  1.00  0.00     0.010 A 
ATOM     68  C   UNL A   1      35.087  31.980  44.735  1.00  0.00     0.020 A 
ATOM     69  C   UNL A   1      36.700  30.208  44.615  1.00  0.00     0.020 A 
ATOM     70  C   UNL A   1      35.532  30.727  45.151  1.00  0.00     0.054 A 
BRANCH  70  71
ATOM     71  S   UNL A   1      34.521  29.761  46.313  1.00  0.00     0.124 S 
ATOM     72  O   UNL A   1      35.278  28.518  46.438  1.00  0.00    -0.237 OA
ATOM     73  O   UNL A   1      34.511  30.614  47.497  1.00  0.00    -0.237 OA
ATOM     74  O   UNL A   1      33.233  29.630  45.633  1.00  0.00    -0.744 OA
ENDBRANCH  70  71
ENDBRANCH  51  65
BRANCH  52  75
ATOM     75  C   UNL A   1      42.405  34.755  34.662  1.00  0.00    -0.014 A 
ATOM     76  C   UNL A   1      43.358  33.961  33.956  1.00  0.00     0.010 A 
ATOM     77  C   UNL A   1      41.203  35.045  33.984  1.00  0.00     0.010 A 
ATOM     78  C   UNL A   1      43.124  33.466  32.662  1.00  0.00     0.020 A 
ATOM     79  C   UNL A   1      40.972  34.564  32.668  1.00  0.00     0.020 A 
ATOM     80  C   UNL A   1      41.948  33.807  32.004  1.00  0.00     0.054 A 
BRANCH  80  81
ATOM     81  S   UNL A   1      41.716  33.260  30.278  1.00  0.00     0.124 S 
ATOM     82  O   UNL A   1      43.039  32.747  29.942  1.00  0.00    -0.237 OA
ATOM     83  O   UNL A   1      40.676  32.235  30.369  1.00  0.00    -0.237 OA
ATOM     84  O   UNL A   1      41.333  34.484  29.581  1.00  0.00    -0.744 OA
ENDBRANCH  80  81
ENDBRANCH  52  75
BRANCH  64  85
ATOM     85  C   UNL A   1      40.604  37.395  41.385  1.00  0.00    -0.014 A 
ATOM     86  C   UNL A   1      41.171  37.615  42.644  1.00  0.00     0.010 A 
ATOM     87  C   UNL A   1      39.844  38.461  40.833  1.00  0.00     0.010 A 
ATOM     88  C   UNL A   1      40.882  38.769  43.369  1.00  0.00     0.020 A 
ATOM     89  C   UNL A   1      39.654  39.668  41.494  1.00  0.00     0.020 A 
ATOM     90  C   UNL A   1      40.119  39.781  42.791  1.00  0.00     0.054 A 
BRANCH  90  91
ATOM     91  S   UNL A   1      39.709  41.236  43.767  1.00  0.00     0.124 S 
ATOM     92  O   UNL A   1      40.920  42.038  43.610  1.00  0.00    -0.237 OA
ATOM     93  O   UNL A   1      38.522  41.753  43.092  1.00  0.00    -0.237 OA
ATOM     94  O   UNL A   1      39.479  40.704  45.107  1.00  0.00    -0.744 OA
ENDBRANCH  90  91
ENDBRANCH  64  85
ENDBRANCH  38  39
ENDBRANCH  31  33
ENDBRANCH  30  31
ENDBRANCH  29  30
ENDBRANCH  28  29
ENDBRANCH  27  28
ENDBRANCH  26  27
ENDBRANCH   1  26
TORSDOF 23
ENDMDL
MODEL 2
REMARK VINA RESULT:     -10.8      1.607      3.254
REMARK SMILES Cc1ccc(Nc2c(F)cccc2Cl)c(CC(=O)OCCOCCOCCOC(=O)c2ccc(-c3c4nc(c(-c5ccc(S(=O)(=O)[O-])cc5)c5ccc([nH]5)c(-c5ccc(S(=O)(=O)[O-])cc5)c5nc(c(-c6ccc(S(=O)(=O)[O-])cc6)c6ccc3[nH]6)C=C5)C=C4)cc2)c1
REMARK SMILES IDX 23 1 22 2 21 3 20 4 19 5 17 6 18 7 16 8 15 9 1 10 2 11 3 12
REMARK SMILES IDX 91 13 4 14 5 15 6 16 7 18 8 19 13 20 9 21 10 22 12 23 14 24
REMARK SMILES IDX 11 25 24 26 25 27 26 28 27 29 28 30 29 31 30 32 31 33 32 34
REMARK SMILES IDX 90 35 33 36 89 37 34 38 35 39 36 40 83 41 37 42 88 43 82 44
REMARK SMILES IDX 84 45 38 46 87 47 81 48 80 49 39 51 69 52 50 53 68 54 51 55
REMARK SMILES IDX 54 56 67 57 85 58 52 59 53 60 66 62 86 63 55 64 40 65 41 66
REMARK SMILES IDX 49 67 42 68 48 69 43 70 44 71 45 72 46 73 47 74 70 75 71 76
REMARK SMILES IDX 79 77 72 78 78 79 73 80 74 81 75 82 76 83 77 84 56 85 57 86
REMARK SMILES IDX 65 87 58 88 64 89 59 90 60 91 61 92 62 93 63 94
REMARK H PARENT 6 17 84 50 54 61
REMARK Flexibility Score: inf
ROOT
ATOM      1  C   UNL A   1      36.693  31.366  28.104  1.00  0.00     0.188 C 
ENDROOT
BRANCH   1   2
ATOM      2  O   UNL A   1      35.714  30.517  28.635  1.00  0.00    -0.376 OA
BRANCH   2   3
ATOM      3  C   UNL A   1      35.271  29.383  27.926  1.00  0.00     0.202 C 
BRANCH   3   4
ATOM      4  C   UNL A   1      33.914  28.997  27.118  1.00  0.00     0.261 C 
BRANCH   4   5
ATOM      5  O   UNL A   1      33.172  27.573  26.267  1.00  0.00    -0.463 OA
BRANCH   5   6
ATOM      6  C   UNL A   1      33.372  26.401  25.131  1.00  0.00     0.310 C 
ATOM      7  O   UNL A   1      33.830  26.373  23.980  1.00  0.00    -0.252 OA
BRANCH   6   8
ATOM      8  C   UNL A   1      33.221  25.090  25.665  1.00  0.00     0.160 C 
BRANCH   8   9
ATOM      9  C   UNL A   1      32.235  24.502  24.712  1.00  0.00    -0.013 A 
ATOM     10  C   UNL A   1      33.371  20.857  24.594  1.00  0.00     0.044 C 
ATOM     11  C   UNL A   1      32.511  22.058  24.804  1.00  0.00    -0.051 A 
ATOM     12  C   UNL A   1      31.348  22.041  25.538  1.00  0.00     0.005 A 
ATOM     13  C   UNL A   1      32.925  23.284  24.332  1.00  0.00     0.009 A 
ATOM     14  C   UNL A   1      30.608  23.241  25.727  1.00  0.00     0.026 A 
ATOM     15  C   UNL A   1      30.884  24.709  25.110  1.00  0.00     0.042 A 
BRANCH  15  16
ATOM     16  N   UNL A   1      29.443  26.021  24.614  1.00  0.00    -0.352 N 
ATOM     17  H   UNL A   1      28.636  25.920  25.169  1.00  0.00     0.167 HD
BRANCH  16  18
ATOM     18  C   UNL A   1      29.273  27.362  23.374  1.00  0.00     0.094 A 
ATOM     19  C   UNL A   1      30.421  27.972  22.578  1.00  0.00     0.148 A 
ATOM     20  C   UNL A   1      28.172  28.249  23.393  1.00  0.00     0.067 A 
ATOM     21  F   UNL A   1      31.604  27.403  22.277  1.00  0.00    -0.205 F 
ATOM     22  C   UNL A   1      30.458  29.266  22.043  1.00  0.00     0.041 A 
ATOM     23  C   UNL A   1      28.272  29.585  22.854  1.00  0.00     0.023 A 
ATOM     24  Cl  UNL A   1      26.566  27.893  23.801  1.00  0.00    -0.082 Cl
ATOM     25  C   UNL A   1      29.400  30.104  22.223  1.00  0.00     0.005 A 
ENDBRANCH  16  18
ENDBRANCH  15  16
ENDBRANCH   8   9
ENDBRANCH   6   8
ENDBRANCH   5   6
ENDBRANCH   4   5
ENDBRANCH   3   4
ENDBRANCH   2   3
ENDBRANCH   1   2
BRANCH   1  26
ATOM     26  C   UNL A   1      36.712  32.829  28.510  1.00  0.00     0.188 C 
BRANCH  26  27
ATOM     27  O   UNL A   1      35.873  33.697  27.789  1.00  0.00    -0.376 OA
BRANCH  27  28
ATOM     28  C   UNL A   1      34.559  33.804  28.334  1.00  0.00     0.202 C 
BRANCH  28  29
ATOM     29  C   UNL A   1      34.331  34.260  29.853  1.00  0.00     0.261 C 
BRANCH  29  30
ATOM     30  O   UNL A   1      33.884  33.231  30.846  1.00  0.00    -0.460 OA
BRANCH  30  31
ATOM     31  C   UNL A   1      34.362  33.047  32.178  1.00  0.00     0.338 C 
ATOM     32  O   UNL A   1      33.566  33.153  33.093  1.00  0.00    -0.246 OA
BRANCH  31  33
ATOM     33  C   UNL A   1      35.982  32.539  32.260  1.00  0.00     0.060 A 
ATOM     34  C   UNL A   1      37.042  30.973  32.757  1.00  0.00     0.016 A 
ATOM     35  C   UNL A   1      36.212  33.936  33.383  1.00  0.00     0.016 A 
ATOM     36  C   UNL A   1      37.976  30.989  34.409  1.00  0.00     0.010 A 
ATOM     37  C   UNL A   1      37.014  33.774  34.920  1.00  0.00     0.010 A 
ATOM     38  C   UNL A   1      37.951  32.398  35.578  1.00  0.00    -0.014 A 
BRANCH  38  39
ATOM     39  C   UNL A   1      38.916  32.871  37.139  1.00  0.00     0.031 A 
ATOM     40  C   UNL A   1      38.302  32.887  38.960  1.00  0.00     0.074 A 
ATOM     41  C   UNL A   1      40.265  32.933  37.175  1.00  0.00     0.049 A 
ATOM     42  N   UNL A   1      38.235  33.905  39.801  1.00  0.00    -0.248 NA
ATOM     43  C   UNL A   1      37.235  31.823  39.704  1.00  0.00     0.031 C 
ATOM     44  C   UNL A   1      41.124  32.843  38.370  1.00  0.00     0.029 A 
ATOM     45  N   UNL A   1      41.186  32.974  36.142  1.00  0.00    -0.354 N 
ATOM     46  C   UNL A   1      37.415  33.498  40.913  1.00  0.00     0.074 A 
ATOM     47  C   UNL A   1      36.462  32.576  40.452  1.00  0.00     0.031 C 
ATOM     48  C   UNL A   1      42.393  33.143  38.032  1.00  0.00     0.029 A 
ATOM     49  C   UNL A   1      42.362  33.558  36.641  1.00  0.00     0.049 A 
ATOM     50  H   UNL A   1      41.042  32.651  35.223  1.00  0.00     0.167 HD
ATOM     51  C   UNL A   1      37.885  33.372  42.197  1.00  0.00     0.031 A 
ATOM     52  C   UNL A   1      42.653  34.793  36.157  1.00  0.00     0.031 A 
ATOM     53  C   UNL A   1      39.266  33.787  42.168  1.00  0.00     0.049 A 
ATOM     54  C   UNL A   1      42.304  35.807  37.242  1.00  0.00     0.074 A 
ATOM     55  C   UNL A   1      40.473  33.116  42.154  1.00  0.00     0.029 A 
ATOM     56  N   UNL A   1      39.497  35.021  41.597  1.00  0.00    -0.354 N 
ATOM     57  N   UNL A   1      41.486  35.555  38.241  1.00  0.00    -0.248 NA
ATOM     58  C   UNL A   1      43.011  37.069  37.433  1.00  0.00     0.031 C 
ATOM     59  C   UNL A   1      41.420  33.969  41.490  1.00  0.00     0.029 A 
ATOM     60  C   UNL A   1      40.772  35.132  41.093  1.00  0.00     0.049 A 
ATOM     61  H   UNL A   1      38.826  35.741  41.556  1.00  0.00     0.167 HD
ATOM     62  C   UNL A   1      41.646  36.481  39.228  1.00  0.00     0.074 A 
ATOM     63  C   UNL A   1      42.576  37.439  38.652  1.00  0.00     0.031 C 
ATOM     64  C   UNL A   1      41.112  36.413  40.486  1.00  0.00     0.031 A 
BRANCH  51  65
ATOM     65  C   UNL A   1      37.205  32.554  43.326  1.00  0.00    -0.014 A 
ATOM     66  C   UNL A   1      36.041  33.064  43.931  1.00  0.00     0.010 A 
ATOM     67  C   UNL A   1      37.612  31.280  43.818  1.00  0.00     0.010 A 
ATOM     68  C   UNL A   1      35.335  32.367  44.935  1.00  0.00     0.020 A 
ATOM     69  C   UNL A   1      36.953  30.597  44.865  1.00  0.00     0.020 A 
ATOM     70  C   UNL A   1      35.791  31.134  45.396  1.00  0.00     0.054 A 
BRANCH  70  71
ATOM     71  S   UNL A   1      34.801  30.212  46.611  1.00  0.00     0.124 S 
ATOM     72  O   UNL A   1      34.630  28.914  45.965  1.00  0.00    -0.237 OA
ATOM     73  O   UNL A   1      35.666  30.223  47.786  1.00  0.00    -0.237 OA
ATOM     74  O   UNL A   1      33.575  31.002  46.736  1.00  0.00    -0.744 OA
ENDBRANCH  70  71
ENDBRANCH  51  65
BRANCH  52  75
ATOM     75  C   UNL A   1      42.497  34.751  34.653  1.00  0.00    -0.014 A 
ATOM     76  C   UNL A   1      43.471  33.970  33.962  1.00  0.00     0.010 A 
ATOM     77  C   UNL A   1      41.275  34.968  33.983  1.00  0.00     0.010 A 
ATOM     78  C   UNL A   1      43.240  33.418  32.690  1.00  0.00     0.020 A 
ATOM     79  C   UNL A   1      41.045  34.429  32.690  1.00  0.00     0.020 A 
ATOM     80  C   UNL A   1      42.041  33.687  32.039  1.00  0.00     0.054 A 
BRANCH  80  81
ATOM     81  S   UNL A   1      41.807  33.068  30.338  1.00  0.00     0.124 S 
ATOM     82  O   UNL A   1      40.353  32.997  30.239  1.00  0.00    -0.237 OA
ATOM     83  O   UNL A   1      42.419  34.100  29.499  1.00  0.00    -0.237 OA
ATOM     84  O   UNL A   1      42.489  31.778  30.346  1.00  0.00    -0.744 OA
ENDBRANCH  80  81
ENDBRANCH  52  75
BRANCH  64  85
ATOM     85  C   UNL A   1      40.786  37.657  41.290  1.00  0.00    -0.014 A 
ATOM     86  C   UNL A   1      40.016  38.706  40.777  1.00  0.00     0.010 A 
ATOM     87  C   UNL A   1      41.090  37.706  42.677  1.00  0.00     0.010 A 
ATOM     88  C   UNL A   1      39.691  39.807  41.565  1.00  0.00     0.020 A 
ATOM     89  C   UNL A   1      40.661  38.738  43.502  1.00  0.00     0.020 A 
ATOM     90  C   UNL A   1      40.023  39.818  42.919  1.00  0.00     0.054 A 
BRANCH  90  91
ATOM     91  S   UNL A   1      39.645  41.275  43.903  1.00  0.00     0.124 S 
ATOM     92  O   UNL A   1      40.959  41.596  44.458  1.00  0.00    -0.237 OA
ATOM     93  O   UNL A   1      39.137  42.215  42.908  1.00  0.00    -0.237 OA
ATOM     94  O   UNL A   1      38.658  40.798  44.867  1.00  0.00    -0.744 OA
ENDBRANCH  90  91
ENDBRANCH  64  85
ENDBRANCH  38  39
ENDBRANCH  31  33
ENDBRANCH  30  31
ENDBRANCH  29  30
ENDBRANCH  28  29
ENDBRANCH  27  28
ENDBRANCH  26  27
ENDBRANCH   1  26
TORSDOF 23
ENDMDL
MODEL 3
REMARK VINA RESULT:     -10.8      7.054     12.370
REMARK SMILES Cc1ccc(Nc2c(F)cccc2Cl)c(CC(=O)OCCOCCOCCOC(=O)c2ccc(-c3c4nc(c(-c5ccc(S(=O)(=O)[O-])cc5)c5ccc([nH]5)c(-c5ccc(S(=O)(=O)[O-])cc5)c5nc(c(-c6ccc(S(=O)(=O)[O-])cc6)c6ccc3[nH]6)C=C5)C=C4)cc2)c1
REMARK SMILES IDX 23 1 22 2 21 3 20 4 19 5 17 6 18 7 16 8 15 9 1 10 2 11 3 12
REMARK SMILES IDX 91 13 4 14 5 15 6 16 7 18 8 19 13 20 9 21 10 22 12 23 14 24
REMARK SMILES IDX 11 25 24 26 25 27 26 28 27 29 28 30 29 31 30 32 31 33 32 34
REMARK SMILES IDX 90 35 33 36 89 37 34 38 35 39 36 40 83 41 37 42 88 43 82 44
REMARK SMILES IDX 84 45 38 46 87 47 81 48 80 49 39 51 69 52 50 53 68 54 51 55
REMARK SMILES IDX 54 56 67 57 85 58 52 59 53 60 66 62 86 63 55 64 40 65 41 66
REMARK SMILES IDX 49 67 42 68 48 69 43 70 44 71 45 72 46 73 47 74 70 75 71 76
REMARK SMILES IDX 79 77 72 78 78 79 73 80 74 81 75 82 76 83 77 84 56 85 57 86
REMARK SMILES IDX 65 87 58 88 64 89 59 90 60 91 61 92 62 93 63 94
REMARK H PARENT 6 17 84 50 54 61
REMARK Flexibility Score: inf
ROOT
ATOM      1  C   UNL A   1      34.824  32.631  28.519  1.00  0.00     0.188 C 
ENDROOT
BRANCH   1   2
ATOM      2  O   UNL A   1      34.087  31.445  28.419  1.00  0.00    -0.376 OA
BRANCH   2   3
ATOM      3  C   UNL A   1      33.703  30.930  27.165  1.00  0.00     0.202 C 
BRANCH   3   4
ATOM      4  C   UNL A   1      32.656  29.789  26.669  1.00  0.00     0.261 C 
BRANCH   4   5
ATOM      5  O   UNL A   1      32.614  28.000  26.349  1.00  0.00    -0.463 OA
BRANCH   5   6
ATOM      6  C   UNL A   1      31.808  26.586  26.583  1.00  0.00     0.310 C 
ATOM      7  O   UNL A   1      30.645  26.287  26.893  1.00  0.00    -0.252 OA
BRANCH   6   8
ATOM      8  C   UNL A   1      32.520  25.461  26.081  1.00  0.00     0.160 C 
BRANCH   8   9
ATOM      9  C   UNL A   1      32.222  25.560  24.623  1.00  0.00    -0.013 A 
ATOM     10  C   UNL A   1      34.817  23.174  23.152  1.00  0.00     0.044 C 
ATOM     11  C   UNL A   1      33.499  23.779  23.502  1.00  0.00    -0.051 A 
ATOM     12  C   UNL A   1      32.302  23.111  23.389  1.00  0.00     0.005 A 
ATOM     13  C   UNL A   1      33.453  25.036  24.062  1.00  0.00     0.009 A 
ATOM     14  C   UNL A   1      31.092  23.744  23.786  1.00  0.00     0.026 A 
ATOM     15  C   UNL A   1      30.866  25.256  24.309  1.00  0.00     0.042 A 
BRANCH  15  16
ATOM     16  N   UNL A   1      29.215  26.346  23.951  1.00  0.00    -0.352 N 
ATOM     17  H   UNL A   1      28.409  25.952  24.359  1.00  0.00     0.167 HD
BRANCH  16  18
ATOM     18  C   UNL A   1      28.850  27.900  23.048  1.00  0.00     0.094 A 
ATOM     19  C   UNL A   1      29.891  28.801  22.393  1.00  0.00     0.148 A 
ATOM     20  C   UNL A   1      27.659  28.627  23.282  1.00  0.00     0.067 A 
ATOM     21  F   UNL A   1      31.116  28.453  21.956  1.00  0.00    -0.205 F 
ATOM     22  C   UNL A   1      29.765  30.177  22.163  1.00  0.00     0.041 A 
ATOM     23  C   UNL A   1      27.591  30.052  23.056  1.00  0.00     0.023 A 
ATOM     24  Cl  UNL A   1      26.120  28.007  23.622  1.00  0.00    -0.082 Cl
ATOM     25  C   UNL A   1      28.629  30.825  22.542  1.00  0.00     0.005 A 
ENDBRANCH  16  18
ENDBRANCH  15  16
ENDBRANCH   8   9
ENDBRANCH   6   8
ENDBRANCH   5   6
ENDBRANCH   4   5
ENDBRANCH   3   4
ENDBRANCH   2   3
ENDBRANCH   1   2
BRANCH   1  26
ATOM     26  C   UNL A   1      35.225  33.147  29.890  1.00  0.00     0.188 C 
BRANCH  26  27
ATOM     27  O   UNL A   1      34.181  33.438  30.787  1.00  0.00    -0.376 OA
BRANCH  27  28
ATOM     28  C   UNL A   1      34.390  32.909  32.096  1.00  0.00     0.202 C 
BRANCH  28  29
ATOM     29  C   UNL A   1      35.177  33.751  33.209  1.00  0.00     0.261 C 
BRANCH  29  30
ATOM     30  O   UNL A   1      36.319  33.095  33.923  1.00  0.00    -0.460 OA
BRANCH  30  31
ATOM     31  C   UNL A   1      37.205  32.099  33.410  1.00  0.00     0.338 C 
ATOM     32  O   UNL A   1      36.846  30.936  33.451  1.00  0.00    -0.246 OA
BRANCH  31  33
ATOM     33  C   UNL A   1      38.590  32.737  32.660  1.00  0.00     0.060 A 
ATOM     34  C   UNL A   1      39.444  32.818  30.903  1.00  0.00     0.016 A 
ATOM     35  C   UNL A   1      39.516  31.744  33.853  1.00  0.00     0.016 A 
ATOM     36  C   UNL A   1      40.954  31.717  30.569  1.00  0.00     0.010 A 
ATOM     37  C   UNL A   1      40.827  30.700  33.379  1.00  0.00     0.010 A 
ATOM     38  C   UNL A   1      41.672  30.575  31.806  1.00  0.00    -0.014 A 
BRANCH  38  39
ATOM     39  C   UNL A   1      43.259  29.545  31.927  1.00  0.00     0.031 A 
ATOM     40  C   UNL A   1      43.714  27.940  30.973  1.00  0.00     0.074 A 
ATOM     41  C   UNL A   1      44.402  30.023  32.467  1.00  0.00     0.049 A 
ATOM     42  N   UNL A   1      43.989  26.741  31.456  1.00  0.00    -0.248 NA
ATOM     43  C   UNL A   1      43.338  27.536  29.385  1.00  0.00     0.031 C 
ATOM     44  C   UNL A   1      45.769  29.526  32.227  1.00  0.00     0.029 A 
ATOM     45  N   UNL A   1      44.618  31.134  33.263  1.00  0.00    -0.354 N 
ATOM     46  C   UNL A   1      43.941  25.808  30.360  1.00  0.00     0.074 A 
ATOM     47  C   UNL A   1      43.002  26.267  29.423  1.00  0.00     0.031 C 
ATOM     48  C   UNL A   1      46.619  30.120  33.087  1.00  0.00     0.029 A 
ATOM     49  C   UNL A   1      45.804  30.917  33.986  1.00  0.00     0.049 A 
ATOM     50  H   UNL A   1      44.045  31.933  33.313  1.00  0.00     0.167 HD
ATOM     51  C   UNL A   1      45.033  25.109  29.909  1.00  0.00     0.031 A 
ATOM     52  C   UNL A   1      45.647  30.727  35.322  1.00  0.00     0.031 A 
ATOM     53  C   UNL A   1      46.128  25.458  30.782  1.00  0.00     0.049 A 
ATOM     54  C   UNL A   1      45.816  29.236  35.598  1.00  0.00     0.074 A 
ATOM     55  C   UNL A   1      47.210  26.310  30.677  1.00  0.00     0.029 A 
ATOM     56  N   UNL A   1      45.875  25.308  32.130  1.00  0.00    -0.354 N 
ATOM     57  N   UNL A   1      45.692  28.305  34.678  1.00  0.00    -0.248 NA
ATOM     58  C   UNL A   1      46.366  28.697  36.837  1.00  0.00     0.031 C 
ATOM     59  C   UNL A   1      47.551  26.720  32.012  1.00  0.00     0.029 A 
ATOM     60  C   UNL A   1      46.663  26.131  32.901  1.00  0.00     0.049 A 
ATOM     61  H   UNL A   1      45.208  24.684  32.497  1.00  0.00     0.167 HD
ATOM     62  C   UNL A   1      46.246  27.137  35.110  1.00  0.00     0.074 A 
ATOM     63  C   UNL A   1      46.608  27.419  36.489  1.00  0.00     0.031 C 
ATOM     64  C   UNL A   1      46.477  26.027  34.343  1.00  0.00     0.031 A 
BRANCH  51  65
ATOM     65  C   UNL A   1      45.159  24.441  28.515  1.00  0.00    -0.014 A 
ATOM     66  C   UNL A   1      46.054  24.987  27.576  1.00  0.00     0.010 A 
ATOM     67  C   UNL A   1      44.479  23.272  28.067  1.00  0.00     0.010 A 
ATOM     68  C   UNL A   1      46.262  24.419  26.300  1.00  0.00     0.020 A 
ATOM     69  C   UNL A   1      44.629  22.726  26.771  1.00  0.00     0.020 A 
ATOM     70  C   UNL A   1      45.553  23.288  25.904  1.00  0.00     0.054 A 
BRANCH  70  71
ATOM     71  S   UNL A   1      45.923  22.518  24.299  1.00  0.00     0.124 S 
ATOM     72  O   UNL A   1      46.585  21.275  24.686  1.00  0.00    -0.237 OA
ATOM     73  O   UNL A   1      44.594  22.368  23.714  1.00  0.00    -0.237 OA
ATOM     74  O   UNL A   1      46.786  23.493  23.633  1.00  0.00    -0.744 OA
ENDBRANCH  70  71
ENDBRANCH  51  65
BRANCH  52  75
ATOM     75  C   UNL A   1      44.719  31.805  35.839  1.00  0.00    -0.014 A 
ATOM     76  C   UNL A   1      45.178  33.144  35.652  1.00  0.00     0.010 A 
ATOM     77  C   UNL A   1      43.329  31.633  36.000  1.00  0.00     0.010 A 
ATOM     78  C   UNL A   1      44.307  34.245  35.608  1.00  0.00     0.020 A 
ATOM     79  C   UNL A   1      42.448  32.746  35.975  1.00  0.00     0.020 A 
ATOM     80  C   UNL A   1      42.947  34.047  35.814  1.00  0.00     0.054 A 
BRANCH  80  81
ATOM     81  S   UNL A   1      41.846  35.502  35.878  1.00  0.00     0.124 S 
ATOM     82  O   UNL A   1      41.717  35.722  37.314  1.00  0.00    -0.237 OA
ATOM     83  O   UNL A   1      42.595  36.543  35.173  1.00  0.00    -0.237 OA
ATOM     84  O   UNL A   1      40.632  35.041  35.211  1.00  0.00    -0.744 OA
ENDBRANCH  80  81
ENDBRANCH  52  75
BRANCH  64  85
ATOM     85  C   UNL A   1      46.489  24.630  34.934  1.00  0.00    -0.014 A 
ATOM     86  C   UNL A   1      47.671  23.925  35.180  1.00  0.00     0.010 A 
ATOM     87  C   UNL A   1      45.290  24.067  35.449  1.00  0.00     0.010 A 
ATOM     88  C   UNL A   1      47.644  22.666  35.776  1.00  0.00     0.020 A 
ATOM     89  C   UNL A   1      45.268  22.873  36.159  1.00  0.00     0.020 A 
ATOM     90  C   UNL A   1      46.441  22.147  36.253  1.00  0.00     0.054 A 
BRANCH  90  91
ATOM     91  S   UNL A   1      46.420  20.497  36.966  1.00  0.00     0.124 S 
ATOM     92  O   UNL A   1      47.837  20.143  36.915  1.00  0.00    -0.237 OA
ATOM     93  O   UNL A   1      45.878  20.728  38.302  1.00  0.00    -0.237 OA
ATOM     94  O   UNL A   1      45.553  19.740  36.067  1.00  0.00    -0.744 OA
ENDBRANCH  90  91
ENDBRANCH  64  85
ENDBRANCH  38  39
ENDBRANCH  31  33
ENDBRANCH  30  31
ENDBRANCH  29  30
ENDBRANCH  28  29
ENDBRANCH  27  28
ENDBRANCH  26  27
ENDBRANCH   1  26
TORSDOF 23
ENDMDL
