MODEL 1
REMARK VINA RESULT:     -11.0      0.000      0.000
REMARK SMILES NS(=O)(=O)c1ccc(-n2nc(C(F)(F)F)cc2-c2ccc(CC(=O)OCCOCCOCCOC(=O)c3ccc(-c4c5nc(c(-c6ccc(S(=O)(=O)[O-])cc6)c6ccc([nH]6)c(-c6ccc(S(=O)(=O)[O-])cc6)c6nc(c(-c7ccc(S(=O)(=O)[O-])cc7)c7ccc4[nH]7)C=C6)C=C5)cc3)cc2)cc1
REMARK SMILES IDX 29 1 28 2 27 3 26 4 25 5 23 6 24 7 22 8 21 9 18 10 19 11
REMARK SMILES IDX 98 12 20 13 97 14 17 15 9 16 10 17 11 18 16 19 8 20 5 21
REMARK SMILES IDX 6 22 100 23 7 24 99 25 2 26 3 27 4 28 1 29 12 32 13 33 14 34
REMARK SMILES IDX 15 35 30 36 31 37 32 38 33 39 34 40 35 41 36 42 37 43 38 44
REMARK SMILES IDX 96 45 39 46 95 47 40 48 41 49 42 50 89 51 43 52 94 53 88 54
REMARK SMILES IDX 90 55 44 56 93 57 87 58 86 59 45 61 75 62 56 63 74 64 57 65
REMARK SMILES IDX 60 66 73 67 91 68 58 69 59 70 72 72 92 73 61 74 46 75 47 76
REMARK SMILES IDX 55 77 48 78 54 79 49 80 50 81 51 82 52 83 53 84 76 85 77 86
REMARK SMILES IDX 85 87 78 88 84 89 79 90 80 91 81 92 82 93 83 94 62 95 63 96
REMARK SMILES IDX 71 97 64 98 70 99 65 100 66 101 67 102 68 103 69 104
REMARK H PARENT 1 30 1 31 90 60 60 71
REMARK Flexibility Score: inf
ROOT
ATOM      1  C   UNL A   1      38.066  20.312  25.244  1.00  0.00     0.188 C 
ENDROOT
BRANCH   1   2
ATOM      2  O   UNL A   1      37.432  21.589  25.215  1.00  0.00    -0.376 OA
BRANCH   2   3
ATOM      3  C   UNL A   1      36.313  21.747  24.364  1.00  0.00     0.202 C 
BRANCH   3   4
ATOM      4  C   UNL A   1      34.995  21.363  25.048  1.00  0.00     0.261 C 
BRANCH   4   5
ATOM      5  O   UNL A   1      33.906  21.066  24.142  1.00  0.00    -0.463 OA
BRANCH   5   6
ATOM      6  C   UNL A   1      32.656  21.370  24.575  1.00  0.00     0.310 C 
ATOM      7  O   UNL A   1      31.973  20.609  25.261  1.00  0.00    -0.252 OA
BRANCH   6   8
ATOM      8  C   UNL A   1      32.077  22.691  24.092  1.00  0.00     0.158 C 
BRANCH   8   9
ATOM      9  C   UNL A   1      32.472  24.029  24.697  1.00  0.00    -0.037 A 
ATOM     10  C   UNL A   1      33.106  26.602  25.747  1.00  0.00     0.000 A 
ATOM     11  C   UNL A   1      32.046  25.857  26.273  1.00  0.00     0.010 A 
ATOM     12  C   UNL A   1      33.837  26.056  24.685  1.00  0.00     0.010 A 
ATOM     13  C   UNL A   1      31.719  24.598  25.742  1.00  0.00     0.005 A 
ATOM     14  C   UNL A   1      33.539  24.776  24.182  1.00  0.00     0.005 A 
BRANCH  10  15
ATOM     15  C   UNL A   1      33.349  27.971  26.214  1.00  0.00     0.075 A 
ATOM     16  N   UNL A   1      32.851  29.149  25.660  1.00  0.00    -0.233 N 
ATOM     17  N   UNL A   1      33.506  30.242  26.142  1.00  0.00    -0.163 NA
ATOM     18  C   UNL A   1      34.274  29.793  27.145  1.00  0.00     0.167 A 
ATOM     19  C   UNL A   1      34.238  28.379  27.196  1.00  0.00     0.064 A 
BRANCH  16  20
ATOM     20  C   UNL A   1      31.708  29.380  24.847  1.00  0.00     0.065 A 
ATOM     21  C   UNL A   1      29.298  29.774  23.488  1.00  0.00     0.082 A 
ATOM     22  C   UNL A   1      30.017  28.586  23.305  1.00  0.00     0.024 A 
ATOM     23  C   UNL A   1      29.789  30.777  24.327  1.00  0.00     0.024 A 
ATOM     24  C   UNL A   1      31.239  28.400  23.966  1.00  0.00     0.030 A 
ATOM     25  C   UNL A   1      30.975  30.564  25.032  1.00  0.00     0.030 A 
BRANCH  21  26
ATOM     26  S   UNL A   1      27.810  30.101  22.588  1.00  0.00     0.238 S 
ATOM     27  O   UNL A   1      28.087  30.008  21.176  1.00  0.00    -0.207 OA
ATOM     28  O   UNL A   1      27.133  31.224  23.195  1.00  0.00    -0.207 OA
BRANCH  26  29
ATOM     29  N   UNL A   1      26.813  28.771  22.890  1.00  0.00    -0.225 NA
ATOM     30  H   UNL A   1      25.848  29.013  22.665  1.00  0.00     0.137 HD
ATOM     31  H   UNL A   1      26.878  28.514  23.874  1.00  0.00     0.137 HD
ENDBRANCH  26  29
ENDBRANCH  21  26
ENDBRANCH  16  20
BRANCH  18  32
ATOM     32  C   UNL A   1      35.036  30.717  28.057  1.00  0.00     0.435 C 
ATOM     33  F   UNL A   1      35.979  31.457  27.422  1.00  0.00    -0.164 F 
ATOM     34  F   UNL A   1      34.208  31.590  28.697  1.00  0.00    -0.164 F 
ATOM     35  F   UNL A   1      35.682  30.030  29.043  1.00  0.00    -0.164 F 
ENDBRANCH  18  32
ENDBRANCH  10  15
ENDBRANCH   8   9
ENDBRANCH   6   8
ENDBRANCH   5   6
ENDBRANCH   4   5
ENDBRANCH   3   4
ENDBRANCH   2   3
ENDBRANCH   1   2
BRANCH   1  36
ATOM     36  C   UNL A   1      39.345  20.109  26.073  1.00  0.00     0.188 C 
BRANCH  36  37
ATOM     37  O   UNL A   1      40.592  19.803  25.467  1.00  0.00    -0.376 OA
BRANCH  37  38
ATOM     38  C   UNL A   1      41.777  19.783  26.245  1.00  0.00     0.202 C 
BRANCH  38  39
ATOM     39  C   UNL A   1      42.909  20.689  25.821  1.00  0.00     0.261 C 
BRANCH  39  40
ATOM     40  O   UNL A   1      42.788  21.951  26.440  1.00  0.00    -0.460 OA
BRANCH  40  41
ATOM     41  C   UNL A   1      42.668  22.997  25.595  1.00  0.00     0.338 C 
ATOM     42  O   UNL A   1      43.206  23.161  24.515  1.00  0.00    -0.246 OA
BRANCH  41  43
ATOM     43  C   UNL A   1      41.846  23.997  26.266  1.00  0.00     0.060 A 
ATOM     44  C   UNL A   1      41.781  25.244  25.643  1.00  0.00     0.016 A 
ATOM     45  C   UNL A   1      41.537  23.796  27.619  1.00  0.00     0.016 A 
ATOM     46  C   UNL A   1      41.672  26.348  26.449  1.00  0.00     0.010 A 
ATOM     47  C   UNL A   1      41.484  24.896  28.424  1.00  0.00     0.010 A 
ATOM     48  C   UNL A   1      41.640  26.146  27.830  1.00  0.00    -0.014 A 
BRANCH  48  49
ATOM     49  C   UNL A   1      41.830  27.283  28.689  1.00  0.00     0.031 A 
ATOM     50  C   UNL A   1      43.004  28.101  28.353  1.00  0.00     0.074 A 
ATOM     51  C   UNL A   1      40.898  27.626  29.592  1.00  0.00     0.049 A 
ATOM     52  N   UNL A   1      44.055  28.292  29.074  1.00  0.00    -0.248 NA
ATOM     53  C   UNL A   1      43.083  28.651  26.991  1.00  0.00     0.031 C 
ATOM     54  C   UNL A   1      39.556  27.058  29.756  1.00  0.00     0.029 A 
ATOM     55  N   UNL A   1      40.908  28.673  30.454  1.00  0.00    -0.354 N 
ATOM     56  C   UNL A   1      44.850  29.149  28.330  1.00  0.00     0.074 A 
ATOM     57  C   UNL A   1      44.307  29.171  26.996  1.00  0.00     0.031 C 
ATOM     58  C   UNL A   1      38.809  27.917  30.483  1.00  0.00     0.029 A 
ATOM     59  C   UNL A   1      39.647  29.028  30.908  1.00  0.00     0.049 A 
ATOM     60  H   UNL A   1      41.731  29.136  30.732  1.00  0.00     0.167 HD
ATOM     61  C   UNL A   1      45.746  29.985  28.914  1.00  0.00     0.031 A 
ATOM     62  C   UNL A   1      39.312  30.208  31.485  1.00  0.00     0.031 A 
ATOM     63  C   UNL A   1      45.984  29.657  30.293  1.00  0.00     0.049 A 
ATOM     64  C   UNL A   1      40.568  30.852  31.954  1.00  0.00     0.074 A 
ATOM     65  C   UNL A   1      46.463  28.542  30.949  1.00  0.00     0.029 A 
ATOM     66  N   UNL A   1      45.336  30.417  31.241  1.00  0.00    -0.354 N 
ATOM     67  N   UNL A   1      41.295  30.385  32.930  1.00  0.00    -0.248 NA
ATOM     68  C   UNL A   1      41.259  31.780  31.068  1.00  0.00     0.031 C 
ATOM     69  C   UNL A   1      45.722  28.473  32.163  1.00  0.00     0.029 A 
ATOM     70  C   UNL A   1      44.851  29.564  32.202  1.00  0.00     0.049 A 
ATOM     71  H   UNL A   1      45.237  31.397  31.231  1.00  0.00     0.167 HD
ATOM     72  C   UNL A   1      42.611  30.607  32.542  1.00  0.00     0.074 A 
ATOM     73  C   UNL A   1      42.522  31.583  31.461  1.00  0.00     0.031 C 
ATOM     74  C   UNL A   1      43.615  29.766  32.935  1.00  0.00     0.031 A 
BRANCH  61  75
ATOM     75  C   UNL A   1      46.107  31.313  28.319  1.00  0.00    -0.014 A 
ATOM     76  C   UNL A   1      45.220  32.393  28.462  1.00  0.00     0.010 A 
ATOM     77  C   UNL A   1      47.179  31.465  27.411  1.00  0.00     0.010 A 
ATOM     78  C   UNL A   1      45.381  33.556  27.700  1.00  0.00     0.020 A 
ATOM     79  C   UNL A   1      47.378  32.637  26.689  1.00  0.00     0.020 A 
ATOM     80  C   UNL A   1      46.453  33.663  26.810  1.00  0.00     0.054 A 
BRANCH  80  81
ATOM     81  S   UNL A   1      46.587  35.118  25.745  1.00  0.00     0.124 S 
ATOM     82  O   UNL A   1      46.196  34.572  24.449  1.00  0.00    -0.237 OA
ATOM     83  O   UNL A   1      45.639  36.043  26.359  1.00  0.00    -0.237 OA
ATOM     84  O   UNL A   1      47.992  35.501  25.868  1.00  0.00    -0.744 OA
ENDBRANCH  80  81
ENDBRANCH  61  75
BRANCH  62  85
ATOM     85  C   UNL A   1      38.009  30.913  31.392  1.00  0.00    -0.014 A 
ATOM     86  C   UNL A   1      36.960  30.613  32.276  1.00  0.00     0.010 A 
ATOM     87  C   UNL A   1      37.867  32.055  30.575  1.00  0.00     0.010 A 
ATOM     88  C   UNL A   1      35.835  31.450  32.372  1.00  0.00     0.020 A 
ATOM     89  C   UNL A   1      36.743  32.882  30.649  1.00  0.00     0.020 A 
ATOM     90  C   UNL A   1      35.742  32.589  31.568  1.00  0.00     0.054 A 
BRANCH  90  91
ATOM     91  S   UNL A   1      34.374  33.756  31.815  1.00  0.00     0.124 S 
ATOM     92  O   UNL A   1      35.057  34.931  32.344  1.00  0.00    -0.237 OA
ATOM     93  O   UNL A   1      33.829  33.893  30.466  1.00  0.00    -0.237 OA
ATOM     94  O   UNL A   1      33.498  33.066  32.762  1.00  0.00    -0.744 OA
ENDBRANCH  90  91
ENDBRANCH  62  85
BRANCH  74  95
ATOM     95  C   UNL A   1      43.315  28.768  34.033  1.00  0.00    -0.014 A 
ATOM     96  C   UNL A   1      42.550  27.602  33.823  1.00  0.00     0.010 A 
ATOM     97  C   UNL A   1      43.948  28.933  35.278  1.00  0.00     0.010 A 
ATOM     98  C   UNL A   1      42.391  26.651  34.840  1.00  0.00     0.020 A 
ATOM     99  C   UNL A   1      43.813  27.976  36.290  1.00  0.00     0.020 A 
ATOM    100  C   UNL A   1      43.025  26.845  36.069  1.00  0.00     0.054 A 
BRANCH 100 101
ATOM    101  S   UNL A   1      42.863  25.578  37.358  1.00  0.00     0.124 S 
ATOM    102  O   UNL A   1      43.272  26.298  38.561  1.00  0.00    -0.237 OA
ATOM    103  O   UNL A   1      41.449  25.219  37.287  1.00  0.00    -0.237 OA
ATOM    104  O   UNL A   1      43.781  24.524  36.925  1.00  0.00    -0.744 OA
ENDBRANCH 100 101
ENDBRANCH  74  95
ENDBRANCH  48  49
ENDBRANCH  41  43
ENDBRANCH  40  41
ENDBRANCH  39  40
ENDBRANCH  38  39
ENDBRANCH  37  38
ENDBRANCH  36  37
ENDBRANCH   1  36
TORSDOF 26
ENDMDL
MODEL 2
REMARK VINA RESULT:     -10.2      2.467      7.077
REMARK SMILES NS(=O)(=O)c1ccc(-n2nc(C(F)(F)F)cc2-c2ccc(CC(=O)OCCOCCOCCOC(=O)c3ccc(-c4c5nc(c(-c6ccc(S(=O)(=O)[O-])cc6)c6ccc([nH]6)c(-c6ccc(S(=O)(=O)[O-])cc6)c6nc(c(-c7ccc(S(=O)(=O)[O-])cc7)c7ccc4[nH]7)C=C6)C=C5)cc3)cc2)cc1
REMARK SMILES IDX 29 1 28 2 27 3 26 4 25 5 23 6 24 7 22 8 21 9 18 10 19 11
REMARK SMILES IDX 98 12 20 13 97 14 17 15 9 16 10 17 11 18 16 19 8 20 5 21
REMARK SMILES IDX 6 22 100 23 7 24 99 25 2 26 3 27 4 28 1 29 12 32 13 33 14 34
REMARK SMILES IDX 15 35 30 36 31 37 32 38 33 39 34 40 35 41 36 42 37 43 38 44
REMARK SMILES IDX 96 45 39 46 95 47 40 48 41 49 42 50 89 51 43 52 94 53 88 54
REMARK SMILES IDX 90 55 44 56 93 57 87 58 86 59 45 61 75 62 56 63 74 64 57 65
REMARK SMILES IDX 60 66 73 67 91 68 58 69 59 70 72 72 92 73 61 74 46 75 47 76
REMARK SMILES IDX 55 77 48 78 54 79 49 80 50 81 51 82 52 83 53 84 76 85 77 86
REMARK SMILES IDX 85 87 78 88 84 89 79 90 80 91 81 92 82 93 83 94 62 95 63 96
REMARK SMILES IDX 71 97 64 98 70 99 65 100 66 101 67 102 68 103 69 104
REMARK H PARENT 1 30 1 31 90 60 60 71
REMARK Flexibility Score: inf
ROOT
ATOM      1  C   UNL A   1      37.998  20.973  25.108  1.00  0.00     0.188 C 
ENDROOT
BRANCH   1   2
ATOM      2  O   UNL A   1      37.154  22.116  25.232  1.00  0.00    -0.376 OA
BRANCH   2   3
ATOM      3  C   UNL A   1      35.990  22.163  24.429  1.00  0.00     0.202 C 
BRANCH   3   4
ATOM      4  C   UNL A   1      34.827  21.366  25.033  1.00  0.00     0.261 C 
BRANCH   4   5
ATOM      5  O   UNL A   1      33.741  21.090  24.116  1.00  0.00    -0.463 OA
BRANCH   5   6
ATOM      6  C   UNL A   1      32.499  21.465  24.516  1.00  0.00     0.310 C 
ATOM      7  O   UNL A   1      31.759  20.750  25.190  1.00  0.00    -0.252 OA
BRANCH   6   8
ATOM      8  C   UNL A   1      32.006  22.812  24.007  1.00  0.00     0.158 C 
BRANCH   8   9
ATOM      9  C   UNL A   1      32.424  24.130  24.640  1.00  0.00    -0.037 A 
ATOM     10  C   UNL A   1      33.096  26.668  25.750  1.00  0.00     0.000 A 
ATOM     11  C   UNL A   1      32.073  25.893  26.306  1.00  0.00     0.010 A 
ATOM     12  C   UNL A   1      33.769  26.170  24.629  1.00  0.00     0.010 A 
ATOM     13  C   UNL A   1      31.726  24.652  25.746  1.00  0.00     0.005 A 
ATOM     14  C   UNL A   1      33.454  24.907  24.094  1.00  0.00     0.005 A 
BRANCH  10  15
ATOM     15  C   UNL A   1      33.354  28.021  26.255  1.00  0.00     0.075 A 
ATOM     16  N   UNL A   1      32.793  29.211  25.793  1.00  0.00    -0.233 N 
ATOM     17  N   UNL A   1      33.468  30.296  26.268  1.00  0.00    -0.163 NA
ATOM     18  C   UNL A   1      34.322  29.820  27.187  1.00  0.00     0.167 A 
ATOM     19  C   UNL A   1      34.312  28.404  27.180  1.00  0.00     0.064 A 
BRANCH  16  20
ATOM     20  C   UNL A   1      31.586  29.454  25.084  1.00  0.00     0.065 A 
ATOM     21  C   UNL A   1      29.379  30.004  23.459  1.00  0.00     0.082 A 
ATOM     22  C   UNL A   1      29.784  30.932  24.426  1.00  0.00     0.024 A 
ATOM     23  C   UNL A   1      30.056  28.790  23.316  1.00  0.00     0.024 A 
ATOM     24  C   UNL A   1      30.873  30.646  25.259  1.00  0.00     0.030 A 
ATOM     25  C   UNL A   1      31.179  28.533  24.105  1.00  0.00     0.030 A 
BRANCH  21  26
ATOM     26  S   UNL A   1      27.942  30.272  22.464  1.00  0.00     0.238 S 
ATOM     27  O   UNL A   1      28.273  30.016  21.084  1.00  0.00    -0.207 OA
ATOM     28  O   UNL A   1      27.278  31.473  22.915  1.00  0.00    -0.207 OA
BRANCH  26  29
ATOM     29  N   UNL A   1      26.890  29.012  22.864  1.00  0.00    -0.225 NA
ATOM     30  H   UNL A   1      26.679  29.050  23.861  1.00  0.00     0.137 HD
ATOM     31  H   UNL A   1      27.330  28.119  22.644  1.00  0.00     0.137 HD
ENDBRANCH  26  29
ENDBRANCH  21  26
ENDBRANCH  16  20
BRANCH  18  32
ATOM     32  C   UNL A   1      35.140  30.720  28.074  1.00  0.00     0.435 C 
ATOM     33  F   UNL A   1      35.825  30.058  29.040  1.00  0.00    -0.164 F 
ATOM     34  F   UNL A   1      36.051  31.438  27.360  1.00  0.00    -0.164 F 
ATOM     35  F   UNL A   1      34.361  31.639  28.712  1.00  0.00    -0.164 F 
ENDBRANCH  18  32
ENDBRANCH  10  15
ENDBRANCH   8   9
ENDBRANCH   6   8
ENDBRANCH   5   6
ENDBRANCH   4   5
ENDBRANCH   3   4
ENDBRANCH   2   3
ENDBRANCH   1   2
BRANCH   1  36
ATOM     36  C   UNL A   1      39.324  20.910  25.883  1.00  0.00     0.188 C 
BRANCH  36  37
ATOM     37  O   UNL A   1      40.190  19.789  25.799  1.00  0.00    -0.376 OA
BRANCH  37  38
ATOM     38  C   UNL A   1      41.407  19.770  26.526  1.00  0.00     0.202 C 
BRANCH  38  39
ATOM     39  C   UNL A   1      42.644  20.299  25.838  1.00  0.00     0.261 C 
BRANCH  39  40
ATOM     40  O   UNL A   1      42.950  21.594  26.304  1.00  0.00    -0.460 OA
BRANCH  40  41
ATOM     41  C   UNL A   1      42.776  22.585  25.405  1.00  0.00     0.338 C 
ATOM     42  O   UNL A   1      43.099  22.606  24.231  1.00  0.00    -0.246 OA
BRANCH  41  43
ATOM     43  C   UNL A   1      42.218  23.723  26.125  1.00  0.00     0.060 A 
ATOM     44  C   UNL A   1      42.763  24.968  25.807  1.00  0.00     0.016 A 
ATOM     45  C   UNL A   1      41.516  23.473  27.314  1.00  0.00     0.016 A 
ATOM     46  C   UNL A   1      42.847  25.897  26.813  1.00  0.00     0.010 A 
ATOM     47  C   UNL A   1      41.650  24.375  28.327  1.00  0.00     0.010 A 
ATOM     48  C   UNL A   1      42.388  25.529  28.079  1.00  0.00    -0.014 A 
BRANCH  48  49
ATOM     49  C   UNL A   1      42.738  26.361  29.198  1.00  0.00     0.031 A 
ATOM     50  C   UNL A   1      41.773  27.434  29.475  1.00  0.00     0.074 A 
ATOM     51  C   UNL A   1      43.769  26.042  29.996  1.00  0.00     0.049 A 
ATOM     52  N   UNL A   1      41.973  28.704  29.394  1.00  0.00    -0.248 NA
ATOM     53  C   UNL A   1      40.377  27.045  29.726  1.00  0.00     0.031 C 
ATOM     54  C   UNL A   1      44.568  24.812  29.981  1.00  0.00     0.029 A 
ATOM     55  N   UNL A   1      44.213  26.696  31.098  1.00  0.00    -0.354 N 
ATOM     56  C   UNL A   1      40.773  29.283  29.774  1.00  0.00     0.074 A 
ATOM     57  C   UNL A   1      39.784  28.235  29.767  1.00  0.00     0.031 C 
ATOM     58  C   UNL A   1      45.222  24.707  31.158  1.00  0.00     0.029 A 
ATOM     59  C   UNL A   1      44.963  25.900  31.950  1.00  0.00     0.049 A 
ATOM     60  H   UNL A   1      44.023  27.645  31.276  1.00  0.00     0.167 HD
ATOM     61  C   UNL A   1      40.714  30.525  30.319  1.00  0.00     0.031 A 
ATOM     62  C   UNL A   1      45.240  26.166  33.250  1.00  0.00     0.031 A 
ATOM     63  C   UNL A   1      41.945  31.250  30.161  1.00  0.00     0.049 A 
ATOM     64  C   UNL A   1      45.008  27.619  33.470  1.00  0.00     0.074 A 
ATOM     65  C   UNL A   1      42.686  31.666  29.073  1.00  0.00     0.029 A 
ATOM     66  N   UNL A   1      42.788  31.302  31.248  1.00  0.00    -0.354 N 
ATOM     67  N   UNL A   1      45.748  28.554  32.943  1.00  0.00    -0.248 NA
ATOM     68  C   UNL A   1      43.699  28.064  33.930  1.00  0.00     0.031 C 
ATOM     69  C   UNL A   1      44.046  31.541  29.476  1.00  0.00     0.029 A 
ATOM     70  C   UNL A   1      44.068  31.088  30.797  1.00  0.00     0.049 A 
ATOM     71  H   UNL A   1      42.522  31.464  32.182  1.00  0.00     0.167 HD
ATOM     72  C   UNL A   1      44.864  29.575  32.612  1.00  0.00     0.074 A 
ATOM     73  C   UNL A   1      43.649  29.273  33.362  1.00  0.00     0.031 C 
ATOM     74  C   UNL A   1      45.100  30.396  31.546  1.00  0.00     0.031 A 
BRANCH  61  75
ATOM     75  C   UNL A   1      39.661  30.914  31.312  1.00  0.00    -0.014 A 
ATOM     76  C   UNL A   1      38.453  31.464  30.852  1.00  0.00     0.010 A 
ATOM     77  C   UNL A   1      39.923  30.983  32.699  1.00  0.00     0.010 A 
ATOM     78  C   UNL A   1      37.568  32.088  31.739  1.00  0.00     0.020 A 
ATOM     79  C   UNL A   1      39.026  31.554  33.596  1.00  0.00     0.020 A 
ATOM     80  C   UNL A   1      37.869  32.139  33.102  1.00  0.00     0.054 A 
BRANCH  80  81
ATOM     81  S   UNL A   1      36.780  33.048  34.224  1.00  0.00     0.124 S 
ATOM     82  O   UNL A   1      37.139  32.471  35.516  1.00  0.00    -0.237 OA
ATOM     83  O   UNL A   1      37.194  34.432  34.007  1.00  0.00    -0.237 OA
ATOM     84  O   UNL A   1      35.442  32.720  33.739  1.00  0.00    -0.744 OA
ENDBRANCH  80  81
ENDBRANCH  61  75
BRANCH  62  85
ATOM     85  C   UNL A   1      45.416  25.184  34.348  1.00  0.00    -0.014 A 
ATOM     86  C   UNL A   1      44.366  24.333  34.732  1.00  0.00     0.010 A 
ATOM     87  C   UNL A   1      46.698  24.917  34.876  1.00  0.00     0.010 A 
ATOM     88  C   UNL A   1      44.601  23.230  35.570  1.00  0.00     0.020 A 
ATOM     89  C   UNL A   1      46.937  23.836  35.728  1.00  0.00     0.020 A 
ATOM     90  C   UNL A   1      45.890  22.980  36.051  1.00  0.00     0.054 A 
BRANCH  90  91
ATOM     91  S   UNL A   1      46.221  21.464  36.992  1.00  0.00     0.124 S 
ATOM     92  O   UNL A   1      47.662  21.303  36.828  1.00  0.00    -0.237 OA
ATOM     93  O   UNL A   1      45.771  21.822  38.336  1.00  0.00    -0.237 OA
ATOM     94  O   UNL A   1      45.403  20.455  36.321  1.00  0.00    -0.744 OA
ENDBRANCH  90  91
ENDBRANCH  62  85
BRANCH  74  95
ATOM     95  C   UNL A   1      46.478  30.364  30.917  1.00  0.00    -0.014 A 
ATOM     96  C   UNL A   1      47.470  31.326  31.192  1.00  0.00     0.010 A 
ATOM     97  C   UNL A   1      46.832  29.245  30.142  1.00  0.00     0.010 A 
ATOM     98  C   UNL A   1      48.766  31.194  30.676  1.00  0.00     0.020 A 
ATOM     99  C   UNL A   1      48.130  29.095  29.642  1.00  0.00     0.020 A 
ATOM    100  C   UNL A   1      49.088  30.077  29.902  1.00  0.00     0.054 A 
BRANCH 100 101
ATOM    101  S   UNL A   1      50.785  29.884  29.289  1.00  0.00     0.124 S 
ATOM    102  O   UNL A   1      51.119  31.238  28.854  1.00  0.00    -0.237 OA
ATOM    103  O   UNL A   1      51.504  29.404  30.465  1.00  0.00    -0.237 OA
ATOM    104  O   UNL A   1      50.655  28.903  28.212  1.00  0.00    -0.744 OA
ENDBRANCH 100 101
ENDBRANCH  74  95
ENDBRANCH  48  49
ENDBRANCH  41  43
ENDBRANCH  40  41
ENDBRANCH  39  40
ENDBRANCH  38  39
ENDBRANCH  37  38
ENDBRANCH  36  37
ENDBRANCH   1  36
TORSDOF 26
ENDMDL
MODEL 3
REMARK VINA RESULT:      -9.4      3.492      8.926
REMARK SMILES NS(=O)(=O)c1ccc(-n2nc(C(F)(F)F)cc2-c2ccc(CC(=O)OCCOCCOCCOC(=O)c3ccc(-c4c5nc(c(-c6ccc(S(=O)(=O)[O-])cc6)c6ccc([nH]6)c(-c6ccc(S(=O)(=O)[O-])cc6)c6nc(c(-c7ccc(S(=O)(=O)[O-])cc7)c7ccc4[nH]7)C=C6)C=C5)cc3)cc2)cc1
REMARK SMILES IDX 29 1 28 2 27 3 26 4 25 5 23 6 24 7 22 8 21 9 18 10 19 11
REMARK SMILES IDX 98 12 20 13 97 14 17 15 9 16 10 17 11 18 16 19 8 20 5 21
REMARK SMILES IDX 6 22 100 23 7 24 99 25 2 26 3 27 4 28 1 29 12 32 13 33 14 34
REMARK SMILES IDX 15 35 30 36 31 37 32 38 33 39 34 40 35 41 36 42 37 43 38 44
REMARK SMILES IDX 96 45 39 46 95 47 40 48 41 49 42 50 89 51 43 52 94 53 88 54
REMARK SMILES IDX 90 55 44 56 93 57 87 58 86 59 45 61 75 62 56 63 74 64 57 65
REMARK SMILES IDX 60 66 73 67 91 68 58 69 59 70 72 72 92 73 61 74 46 75 47 76
REMARK SMILES IDX 55 77 48 78 54 79 49 80 50 81 51 82 52 83 53 84 76 85 77 86
REMARK SMILES IDX 85 87 78 88 84 89 79 90 80 91 81 92 82 93 83 94 62 95 63 96
REMARK SMILES IDX 71 97 64 98 70 99 65 100 66 101 67 102 68 103 69 104
REMARK H PARENT 1 30 1 31 90 60 60 71
REMARK Flexibility Score: inf
ROOT
ATOM      1  C   UNL A   1      37.748  21.348  25.343  1.00  0.00     0.188 C 
ENDROOT
BRANCH   1   2
ATOM      2  O   UNL A   1      36.663  22.193  25.720  1.00  0.00    -0.376 OA
BRANCH   2   3
ATOM      3  C   UNL A   1      35.551  22.262  24.848  1.00  0.00     0.202 C 
BRANCH   3   4
ATOM      4  C   UNL A   1      34.457  21.249  25.210  1.00  0.00     0.261 C 
BRANCH   4   5
ATOM      5  O   UNL A   1      33.325  21.233  24.309  1.00  0.00    -0.463 OA
BRANCH   5   6
ATOM      6  C   UNL A   1      32.242  21.962  24.681  1.00  0.00     0.310 C 
ATOM      7  O   UNL A   1      31.387  21.553  25.467  1.00  0.00    -0.252 OA
BRANCH   6   8
ATOM      8  C   UNL A   1      32.073  23.313  24.002  1.00  0.00     0.158 C 
BRANCH   8   9
ATOM      9  C   UNL A   1      32.515  24.617  24.649  1.00  0.00    -0.037 A 
ATOM     10  C   UNL A   1      33.223  27.127  25.798  1.00  0.00     0.000 A 
ATOM     11  C   UNL A   1      32.275  26.302  26.413  1.00  0.00     0.010 A 
ATOM     12  C   UNL A   1      33.802  26.693  24.600  1.00  0.00     0.010 A 
ATOM     13  C   UNL A   1      31.910  25.074  25.835  1.00  0.00     0.005 A 
ATOM     14  C   UNL A   1      33.470  25.444  24.044  1.00  0.00     0.005 A 
BRANCH  10  15
ATOM     15  C   UNL A   1      33.492  28.466  26.334  1.00  0.00     0.075 A 
ATOM     16  N   UNL A   1      32.921  29.668  25.918  1.00  0.00    -0.233 N 
ATOM     17  N   UNL A   1      33.606  30.740  26.406  1.00  0.00    -0.163 NA
ATOM     18  C   UNL A   1      34.482  30.239  27.291  1.00  0.00     0.167 A 
ATOM     19  C   UNL A   1      34.472  28.825  27.245  1.00  0.00     0.064 A 
BRANCH  16  20
ATOM     20  C   UNL A   1      31.697  29.929  25.245  1.00  0.00     0.065 A 
ATOM     21  C   UNL A   1      29.452  30.536  23.694  1.00  0.00     0.082 A 
ATOM     22  C   UNL A   1      29.846  31.401  24.723  1.00  0.00     0.024 A 
ATOM     23  C   UNL A   1      30.159  29.356  23.452  1.00  0.00     0.024 A 
ATOM     24  C   UNL A   1      30.955  31.084  25.518  1.00  0.00     0.030 A 
ATOM     25  C   UNL A   1      31.300  29.072  24.205  1.00  0.00     0.030 A 
BRANCH  21  26
ATOM     26  S   UNL A   1      27.993  30.838  22.741  1.00  0.00     0.238 S 
ATOM     27  O   UNL A   1      28.012  32.202  22.274  1.00  0.00    -0.207 OA
ATOM     28  O   UNL A   1      26.862  30.241  23.413  1.00  0.00    -0.207 OA
BRANCH  26  29
ATOM     29  N   UNL A   1      28.195  29.930  21.331  1.00  0.00    -0.225 NA
ATOM     30  H   UNL A   1      28.199  30.554  20.523  1.00  0.00     0.137 HD
ATOM     31  H   UNL A   1      27.428  29.265  21.242  1.00  0.00     0.137 HD
ENDBRANCH  26  29
ENDBRANCH  21  26
ENDBRANCH  16  20
BRANCH  18  32
ATOM     32  C   UNL A   1      35.320  31.115  28.183  1.00  0.00     0.435 C 
ATOM     33  F   UNL A   1      36.464  30.524  28.611  1.00  0.00    -0.164 F 
ATOM     34  F   UNL A   1      35.680  32.272  27.559  1.00  0.00    -0.164 F 
ATOM     35  F   UNL A   1      34.638  31.494  29.301  1.00  0.00    -0.164 F 
ENDBRANCH  18  32
ENDBRANCH  10  15
ENDBRANCH   8   9
ENDBRANCH   6   8
ENDBRANCH   5   6
ENDBRANCH   4   5
ENDBRANCH   3   4
ENDBRANCH   2   3
ENDBRANCH   1   2
BRANCH   1  36
ATOM     36  C   UNL A   1      39.092  21.448  26.083  1.00  0.00     0.188 C 
BRANCH  36  37
ATOM     37  O   UNL A   1      40.086  20.440  25.975  1.00  0.00    -0.376 OA
BRANCH  37  38
ATOM     38  C   UNL A   1      41.242  20.488  26.793  1.00  0.00     0.202 C 
BRANCH  38  39
ATOM     39  C   UNL A   1      42.518  19.899  26.238  1.00  0.00     0.261 C 
BRANCH  39  40
ATOM     40  O   UNL A   1      43.538  20.873  26.207  1.00  0.00    -0.460 OA
BRANCH  40  41
ATOM     41  C   UNL A   1      44.096  21.082  24.995  1.00  0.00     0.338 C 
ATOM     42  O   UNL A   1      44.257  20.284  24.090  1.00  0.00    -0.246 OA
BRANCH  41  43
ATOM     43  C   UNL A   1      44.604  22.448  24.989  1.00  0.00     0.060 A 
ATOM     44  C   UNL A   1      45.984  22.582  25.147  1.00  0.00     0.016 A 
ATOM     45  C   UNL A   1      43.697  23.491  25.232  1.00  0.00     0.016 A 
ATOM     46  C   UNL A   1      46.438  23.686  25.823  1.00  0.00     0.010 A 
ATOM     47  C   UNL A   1      44.144  24.560  25.951  1.00  0.00     0.010 A 
ATOM     48  C   UNL A   1      45.490  24.590  26.306  1.00  0.00    -0.014 A 
BRANCH  48  49
ATOM     49  C   UNL A   1      45.915  25.577  27.261  1.00  0.00     0.031 A 
ATOM     50  C   UNL A   1      45.303  25.431  28.589  1.00  0.00     0.074 A 
ATOM     51  C   UNL A   1      46.914  26.426  26.975  1.00  0.00     0.049 A 
ATOM     52  N   UNL A   1      44.506  26.255  29.177  1.00  0.00    -0.248 NA
ATOM     53  C   UNL A   1      45.479  24.145  29.282  1.00  0.00     0.031 C 
ATOM     54  C   UNL A   1      47.794  26.414  25.802  1.00  0.00     0.029 A 
ATOM     55  N   UNL A   1      47.450  27.391  27.763  1.00  0.00    -0.354 N 
ATOM     56  C   UNL A   1      44.230  25.677  30.405  1.00  0.00     0.074 A 
ATOM     57  C   UNL A   1      44.681  24.310  30.333  1.00  0.00     0.031 C 
ATOM     58  C   UNL A   1      48.887  27.159  26.073  1.00  0.00     0.029 A 
ATOM     59  C   UNL A   1      48.729  27.769  27.385  1.00  0.00     0.049 A 
ATOM     60  H   UNL A   1      46.976  27.785  28.531  1.00  0.00     0.167 HD
ATOM     61  C   UNL A   1      43.887  26.419  31.488  1.00  0.00     0.031 A 
ATOM     62  C   UNL A   1      49.623  28.435  28.156  1.00  0.00     0.031 A 
ATOM     63  C   UNL A   1      43.548  27.772  31.139  1.00  0.00     0.049 A 
ATOM     64  C   UNL A   1      48.869  29.075  29.267  1.00  0.00     0.074 A 
ATOM     65  C   UNL A   1      42.589  28.347  30.330  1.00  0.00     0.029 A 
ATOM     66  N   UNL A   1      44.511  28.734  31.345  1.00  0.00    -0.354 N 
ATOM     67  N   UNL A   1      48.028  30.057  29.095  1.00  0.00    -0.248 NA
ATOM     68  C   UNL A   1      48.717  28.354  30.524  1.00  0.00     0.031 C 
ATOM     69  C   UNL A   1      43.224  29.478  29.742  1.00  0.00     0.029 A 
ATOM     70  C   UNL A   1      44.525  29.556  30.244  1.00  0.00     0.049 A 
ATOM     71  H   UNL A   1      45.087  28.819  32.139  1.00  0.00     0.167 HD
ATOM     72  C   UNL A   1      46.992  29.809  29.988  1.00  0.00     0.074 A 
ATOM     73  C   UNL A   1      47.534  28.831  30.927  1.00  0.00     0.031 C 
ATOM     74  C   UNL A   1      45.711  30.196  29.709  1.00  0.00     0.031 A 
BRANCH  61  75
ATOM     75  C   UNL A   1      44.227  25.999  32.886  1.00  0.00    -0.014 A 
ATOM     76  C   UNL A   1      43.265  26.141  33.899  1.00  0.00     0.010 A 
ATOM     77  C   UNL A   1      45.550  25.699  33.281  1.00  0.00     0.010 A 
ATOM     78  C   UNL A   1      43.624  26.025  35.248  1.00  0.00     0.020 A 
ATOM     79  C   UNL A   1      45.906  25.528  34.615  1.00  0.00     0.020 A 
ATOM     80  C   UNL A   1      44.945  25.732  35.594  1.00  0.00     0.054 A 
BRANCH  80  81
ATOM     81  S   UNL A   1      45.425  25.699  37.336  1.00  0.00     0.124 S 
ATOM     82  O   UNL A   1      44.643  26.806  37.879  1.00  0.00    -0.237 OA
ATOM     83  O   UNL A   1      45.008  24.362  37.750  1.00  0.00    -0.237 OA
ATOM     84  O   UNL A   1      46.870  25.910  37.296  1.00  0.00    -0.744 OA
ENDBRANCH  80  81
ENDBRANCH  61  75
BRANCH  62  85
ATOM     85  C   UNL A   1      51.101  28.304  28.130  1.00  0.00    -0.014 A 
ATOM     86  C   UNL A   1      51.762  27.410  28.990  1.00  0.00     0.010 A 
ATOM     87  C   UNL A   1      51.858  28.892  27.094  1.00  0.00     0.010 A 
ATOM     88  C   UNL A   1      53.114  27.083  28.790  1.00  0.00     0.020 A 
ATOM     89  C   UNL A   1      53.208  28.588  26.900  1.00  0.00     0.020 A 
ATOM     90  C   UNL A   1      53.824  27.663  27.735  1.00  0.00     0.054 A 
BRANCH  90  91
ATOM     91  S   UNL A   1      55.515  27.111  27.377  1.00  0.00     0.124 S 
ATOM     92  O   UNL A   1      55.467  25.700  27.743  1.00  0.00    -0.237 OA
ATOM     93  O   UNL A   1      55.643  27.391  25.948  1.00  0.00    -0.237 OA
ATOM     94  O   UNL A   1      56.343  27.950  28.242  1.00  0.00    -0.744 OA
ENDBRANCH  90  91
ENDBRANCH  62  85
BRANCH  74  95
ATOM     95  C   UNL A   1      45.496  31.154  28.556  1.00  0.00    -0.014 A 
ATOM     96  C   UNL A   1      45.828  30.839  27.224  1.00  0.00     0.010 A 
ATOM     97  C   UNL A   1      44.799  32.351  28.803  1.00  0.00     0.010 A 
ATOM     98  C   UNL A   1      45.508  31.711  26.174  1.00  0.00     0.020 A 
ATOM     99  C   UNL A   1      44.456  33.216  27.758  1.00  0.00     0.020 A 
ATOM    100  C   UNL A   1      44.823  32.896  26.450  1.00  0.00     0.054 A 
BRANCH 100 101
ATOM    101  S   UNL A   1      44.360  33.990  25.078  1.00  0.00     0.124 S 
ATOM    102  O   UNL A   1      45.575  34.772  24.873  1.00  0.00    -0.237 OA
ATOM    103  O   UNL A   1      44.026  33.051  24.010  1.00  0.00    -0.237 OA
ATOM    104  O   UNL A   1      43.221  34.742  25.604  1.00  0.00    -0.744 OA
ENDBRANCH 100 101
ENDBRANCH  74  95
ENDBRANCH  48  49
ENDBRANCH  41  43
ENDBRANCH  40  41
ENDBRANCH  39  40
ENDBRANCH  38  39
ENDBRANCH  37  38
ENDBRANCH  36  37
ENDBRANCH   1  36
TORSDOF 26
ENDMDL
