MODEL 1
REMARK VINA RESULT:     -10.4      0.000      0.000
REMARK SMILES O=C(/C=C/c1ccc(NC(=O)c2cc(C(F)(F)F)cc(C(F)(F)F)c2)cc1)OCCOCCOCCOC(=O)c1ccc(-c2c3nc(c(-c4ccc(S(=O)(=O)[O-])cc4)c4ccc([nH]4)c(-c4ccc(S(=O)(=O)[O-])cc4)c4nc(c(-c5ccc(S(=O)(=O)[O-])cc5)c5ccc2[nH]5)C=C4)C=C3)cc1
REMARK SMILES IDX 32 1 31 2 30 3 29 4 28 5 2 6 1 7 3 8 4 9 5 10 6 11 27 12
REMARK SMILES IDX 7 13 26 14 8 15 9 16 10 17 11 19 12 20 13 21 25 22 14 23
REMARK SMILES IDX 20 24 19 25 15 26 16 27 17 28 18 29 21 30 22 31 23 32 24 33
REMARK SMILES IDX 33 34 34 35 35 36 36 37 37 38 38 39 39 40 40 41 41 42 99 43
REMARK SMILES IDX 42 44 98 45 43 46 44 47 45 48 92 49 46 50 97 51 91 52 93 53
REMARK SMILES IDX 47 54 96 55 90 56 89 57 48 59 78 60 59 61 77 62 60 63 63 64
REMARK SMILES IDX 76 65 94 66 61 67 62 68 75 70 95 71 64 72 49 73 50 74 58 75
REMARK SMILES IDX 51 76 57 77 52 78 53 79 54 80 55 81 56 82 79 83 80 84 88 85
REMARK SMILES IDX 81 86 87 87 82 88 83 89 84 90 85 91 86 92 65 93 66 94 74 95
REMARK SMILES IDX 67 96 73 97 68 98 69 99 70 100 71 101 72 102
REMARK H PARENT 9 18 93 58 63 69
REMARK Flexibility Score: inf
ROOT
ATOM      1  C   UNL A   1      42.191  19.450  26.143  1.00  0.00     0.188 C 
ENDROOT
BRANCH   1   2
ATOM      2  O   UNL A   1      41.062  20.229  25.794  1.00  0.00    -0.376 OA
BRANCH   2   3
ATOM      3  C   UNL A   1      40.662  21.354  26.550  1.00  0.00     0.202 C 
BRANCH   3   4
ATOM      4  C   UNL A   1      39.262  21.960  26.414  1.00  0.00     0.261 C 
BRANCH   4   5
ATOM      5  O   UNL A   1      38.634  21.799  25.140  1.00  0.00    -0.460 OA
BRANCH   5   6
ATOM      6  C   UNL A   1      37.642  20.882  25.051  1.00  0.00     0.330 C 
ATOM      7  O   UNL A   1      37.822  19.712  24.759  1.00  0.00    -0.247 OA
BRANCH   6   8
ATOM      8  C   UNL A   1      36.323  21.532  25.017  1.00  0.00     0.094 C 
ATOM      9  C   UNL A   1      35.336  21.076  25.799  1.00  0.00     0.015 C 
BRANCH   9  10
ATOM     10  C   UNL A   1      34.046  21.754  25.941  1.00  0.00    -0.025 A 
ATOM     11  C   UNL A   1      32.940  21.223  25.272  1.00  0.00     0.010 A 
ATOM     12  C   UNL A   1      33.883  22.934  26.669  1.00  0.00     0.010 A 
ATOM     13  C   UNL A   1      31.694  21.856  25.328  1.00  0.00     0.027 A 
ATOM     14  C   UNL A   1      32.631  23.558  26.737  1.00  0.00     0.027 A 
ATOM     15  C   UNL A   1      31.518  23.015  26.082  1.00  0.00     0.041 A 
BRANCH  15  16
ATOM     16  N   UNL A   1      30.304  23.724  26.178  1.00  0.00    -0.322 N 
ATOM     17  C   UNL A   1      30.014  25.068  26.210  1.00  0.00     0.255 C 
ATOM     18  H   UNL A   1      29.510  23.145  26.234  1.00  0.00     0.170 HD
ATOM     19  O   UNL A   1      28.920  25.462  26.614  1.00  0.00    -0.269 OA
BRANCH  17  20
ATOM     20  C   UNL A   1      30.966  26.085  25.715  1.00  0.00     0.041 A 
ATOM     21  C   UNL A   1      31.372  26.024  24.376  1.00  0.00     0.027 A 
ATOM     22  C   UNL A   1      31.476  27.073  26.566  1.00  0.00     0.027 A 
ATOM     23  C   UNL A   1      32.246  26.990  23.856  1.00  0.00     0.057 A 
ATOM     24  C   UNL A   1      32.337  28.060  26.063  1.00  0.00     0.057 A 
ATOM     25  C   UNL A   1      32.713  28.007  24.706  1.00  0.00     0.026 A 
BRANCH  23  26
ATOM     26  C   UNL A   1      32.650  26.932  22.402  1.00  0.00     0.416 C 
ATOM     27  F   UNL A   1      31.663  26.453  21.598  1.00  0.00    -0.166 F 
ATOM     28  F   UNL A   1      32.980  28.157  21.906  1.00  0.00    -0.166 F 
ATOM     29  F   UNL A   1      33.735  26.139  22.174  1.00  0.00    -0.166 F 
ENDBRANCH  23  26
BRANCH  24  30
ATOM     30  C   UNL A   1      32.828  29.189  26.939  1.00  0.00     0.416 C 
ATOM     31  F   UNL A   1      33.512  28.740  28.027  1.00  0.00    -0.166 F 
ATOM     32  F   UNL A   1      33.688  30.010  26.274  1.00  0.00    -0.166 F 
ATOM     33  F   UNL A   1      31.838  29.988  27.419  1.00  0.00    -0.166 F 
ENDBRANCH  24  30
ENDBRANCH  17  20
ENDBRANCH  15  16
ENDBRANCH   9  10
ENDBRANCH   6   8
ENDBRANCH   5   6
ENDBRANCH   4   5
ENDBRANCH   3   4
ENDBRANCH   2   3
ENDBRANCH   1   2
BRANCH   1  34
ATOM     34  C   UNL A   1      43.499  19.574  25.352  1.00  0.00     0.188 C 
BRANCH  34  35
ATOM     35  O   UNL A   1      44.015  20.845  24.990  1.00  0.00    -0.376 OA
BRANCH  35  36
ATOM     36  C   UNL A   1      45.204  21.332  25.593  1.00  0.00     0.202 C 
BRANCH  36  37
ATOM     37  C   UNL A   1      45.126  22.605  26.438  1.00  0.00     0.261 C 
BRANCH  37  38
ATOM     38  O   UNL A   1      43.783  23.066  26.652  1.00  0.00    -0.460 OA
BRANCH  38  39
ATOM     39  C   UNL A   1      43.447  24.185  25.968  1.00  0.00     0.338 C 
ATOM     40  O   UNL A   1      43.557  24.370  24.768  1.00  0.00    -0.246 OA
BRANCH  39  41
ATOM     41  C   UNL A   1      42.788  25.164  26.855  1.00  0.00     0.060 A 
ATOM     42  C   UNL A   1      43.365  26.436  26.946  1.00  0.00     0.016 A 
ATOM     43  C   UNL A   1      41.703  24.820  27.669  1.00  0.00     0.016 A 
ATOM     44  C   UNL A   1      42.903  27.345  27.894  1.00  0.00     0.010 A 
ATOM     45  C   UNL A   1      41.247  25.735  28.629  1.00  0.00     0.010 A 
ATOM     46  C   UNL A   1      41.873  26.985  28.775  1.00  0.00    -0.014 A 
BRANCH  46  47
ATOM     47  C   UNL A   1      41.573  27.875  29.925  1.00  0.00     0.031 A 
ATOM     48  C   UNL A   1      42.439  27.806  31.156  1.00  0.00     0.074 A 
ATOM     49  C   UNL A   1      40.591  28.791  29.848  1.00  0.00     0.049 A 
ATOM     50  N   UNL A   1      42.400  28.544  32.237  1.00  0.00    -0.248 NA
ATOM     51  C   UNL A   1      43.491  26.776  31.168  1.00  0.00     0.031 C 
ATOM     52  C   UNL A   1      39.698  28.983  28.705  1.00  0.00     0.029 A 
ATOM     53  N   UNL A   1      40.191  29.743  30.752  1.00  0.00    -0.354 N 
ATOM     54  C   UNL A   1      43.429  28.081  33.050  1.00  0.00     0.074 A 
ATOM     55  C   UNL A   1      44.049  26.973  32.354  1.00  0.00     0.031 C 
ATOM     56  C   UNL A   1      38.852  29.992  28.979  1.00  0.00     0.029 A 
ATOM     57  C   UNL A   1      39.134  30.507  30.318  1.00  0.00     0.049 A 
ATOM     58  H   UNL A   1      40.621  29.868  31.629  1.00  0.00     0.167 HD
ATOM     59  C   UNL A   1      43.833  28.541  34.258  1.00  0.00     0.031 A 
ATOM     60  C   UNL A   1      38.465  31.503  30.931  1.00  0.00     0.031 A 
ATOM     61  C   UNL A   1      43.208  29.626  34.968  1.00  0.00     0.049 A 
ATOM     62  C   UNL A   1      38.896  31.961  32.300  1.00  0.00     0.074 A 
ATOM     63  C   UNL A   1      43.546  30.156  36.202  1.00  0.00     0.029 A 
ATOM     64  N   UNL A   1      42.117  30.347  34.510  1.00  0.00    -0.354 N 
ATOM     65  N   UNL A   1      39.884  31.522  33.043  1.00  0.00    -0.248 NA
ATOM     66  C   UNL A   1      38.127  33.058  32.905  1.00  0.00     0.031 C 
ATOM     67  C   UNL A   1      42.631  31.170  36.509  1.00  0.00     0.029 A 
ATOM     68  C   UNL A   1      41.756  31.304  35.444  1.00  0.00     0.049 A 
ATOM     69  H   UNL A   1      41.665  30.200  33.648  1.00  0.00     0.167 HD
ATOM     70  C   UNL A   1      39.865  32.301  34.196  1.00  0.00     0.074 A 
ATOM     71  C   UNL A   1      38.784  33.252  34.041  1.00  0.00     0.031 C 
ATOM     72  C   UNL A   1      40.669  32.235  35.286  1.00  0.00     0.031 A 
BRANCH  59  73
ATOM     73  C   UNL A   1      45.009  27.857  34.901  1.00  0.00    -0.014 A 
ATOM     74  C   UNL A   1      46.320  28.310  34.668  1.00  0.00     0.010 A 
ATOM     75  C   UNL A   1      44.800  26.785  35.786  1.00  0.00     0.010 A 
ATOM     76  C   UNL A   1      47.404  27.684  35.289  1.00  0.00     0.020 A 
ATOM     77  C   UNL A   1      45.880  26.170  36.426  1.00  0.00     0.020 A 
ATOM     78  C   UNL A   1      47.177  26.615  36.162  1.00  0.00     0.054 A 
BRANCH  78  79
ATOM     79  S   UNL A   1      48.599  25.842  36.981  1.00  0.00     0.124 S 
ATOM     80  O   UNL A   1      49.710  26.647  36.479  1.00  0.00    -0.237 OA
ATOM     81  O   UNL A   1      48.289  26.016  38.399  1.00  0.00    -0.237 OA
ATOM     82  O   UNL A   1      48.565  24.462  36.505  1.00  0.00    -0.744 OA
ENDBRANCH  78  79
ENDBRANCH  59  73
BRANCH  60  83
ATOM     83  C   UNL A   1      37.291  32.127  30.266  1.00  0.00    -0.014 A 
ATOM     84  C   UNL A   1      37.448  33.212  29.385  1.00  0.00     0.010 A 
ATOM     85  C   UNL A   1      35.999  31.642  30.533  1.00  0.00     0.010 A 
ATOM     86  C   UNL A   1      36.330  33.815  28.802  1.00  0.00     0.020 A 
ATOM     87  C   UNL A   1      34.881  32.225  29.932  1.00  0.00     0.020 A 
ATOM     88  C   UNL A   1      35.053  33.319  29.081  1.00  0.00     0.054 A 
BRANCH  88  89
ATOM     89  S   UNL A   1      33.613  34.079  28.281  1.00  0.00     0.124 S 
ATOM     90  O   UNL A   1      33.025  32.944  27.578  1.00  0.00    -0.237 OA
ATOM     91  O   UNL A   1      32.850  34.588  29.417  1.00  0.00    -0.237 OA
ATOM     92  O   UNL A   1      34.206  35.109  27.430  1.00  0.00    -0.744 OA
ENDBRANCH  88  89
ENDBRANCH  60  83
BRANCH  72  93
ATOM     93  C   UNL A   1      40.416  33.229  36.389  1.00  0.00    -0.014 A 
ATOM     94  C   UNL A   1      39.509  32.946  37.426  1.00  0.00     0.010 A 
ATOM     95  C   UNL A   1      41.106  34.453  36.397  1.00  0.00     0.010 A 
ATOM     96  C   UNL A   1      39.262  33.891  38.425  1.00  0.00     0.020 A 
ATOM     97  C   UNL A   1      40.881  35.390  37.408  1.00  0.00     0.020 A 
ATOM     98  C   UNL A   1      39.943  35.112  38.405  1.00  0.00     0.054 A 
BRANCH  98  99
ATOM     99  S   UNL A   1      39.614  36.322  39.716  1.00  0.00     0.124 S 
ATOM    100  O   UNL A   1      38.608  35.633  40.519  1.00  0.00    -0.237 OA
ATOM    101  O   UNL A   1      40.922  36.479  40.349  1.00  0.00    -0.237 OA
ATOM    102  O   UNL A   1      39.137  37.496  38.990  1.00  0.00    -0.744 OA
ENDBRANCH  98  99
ENDBRANCH  72  93
ENDBRANCH  46  47
ENDBRANCH  39  41
ENDBRANCH  38  39
ENDBRANCH  37  38
ENDBRANCH  36  37
ENDBRANCH  35  36
ENDBRANCH  34  35
ENDBRANCH   1  34
TORSDOF 25
ENDMDL
MODEL 2
REMARK VINA RESULT:     -10.3      1.719      3.012
REMARK SMILES O=C(/C=C/c1ccc(NC(=O)c2cc(C(F)(F)F)cc(C(F)(F)F)c2)cc1)OCCOCCOCCOC(=O)c1ccc(-c2c3nc(c(-c4ccc(S(=O)(=O)[O-])cc4)c4ccc([nH]4)c(-c4ccc(S(=O)(=O)[O-])cc4)c4nc(c(-c5ccc(S(=O)(=O)[O-])cc5)c5ccc2[nH]5)C=C4)C=C3)cc1
REMARK SMILES IDX 32 1 31 2 30 3 29 4 28 5 2 6 1 7 3 8 4 9 5 10 6 11 27 12
REMARK SMILES IDX 7 13 26 14 8 15 9 16 10 17 11 19 12 20 13 21 25 22 14 23
REMARK SMILES IDX 20 24 19 25 15 26 16 27 17 28 18 29 21 30 22 31 23 32 24 33
REMARK SMILES IDX 33 34 34 35 35 36 36 37 37 38 38 39 39 40 40 41 41 42 99 43
REMARK SMILES IDX 42 44 98 45 43 46 44 47 45 48 92 49 46 50 97 51 91 52 93 53
REMARK SMILES IDX 47 54 96 55 90 56 89 57 48 59 78 60 59 61 77 62 60 63 63 64
REMARK SMILES IDX 76 65 94 66 61 67 62 68 75 70 95 71 64 72 49 73 50 74 58 75
REMARK SMILES IDX 51 76 57 77 52 78 53 79 54 80 55 81 56 82 79 83 80 84 88 85
REMARK SMILES IDX 81 86 87 87 82 88 83 89 84 90 85 91 86 92 65 93 66 94 74 95
REMARK SMILES IDX 67 96 73 97 68 98 69 99 70 100 71 101 72 102
REMARK H PARENT 9 18 93 58 63 69
REMARK Flexibility Score: inf
ROOT
ATOM      1  C   UNL A   1      42.162  19.277  27.062  1.00  0.00     0.188 C 
ENDROOT
BRANCH   1   2
ATOM      2  O   UNL A   1      40.847  19.703  26.761  1.00  0.00    -0.376 OA
BRANCH   2   3
ATOM      3  C   UNL A   1      40.588  20.884  26.029  1.00  0.00     0.202 C 
BRANCH   3   4
ATOM      4  C   UNL A   1      39.272  21.653  26.178  1.00  0.00     0.261 C 
BRANCH   4   5
ATOM      5  O   UNL A   1      38.408  21.637  25.040  1.00  0.00    -0.460 OA
BRANCH   5   6
ATOM      6  C   UNL A   1      37.389  20.747  25.049  1.00  0.00     0.330 C 
ATOM      7  O   UNL A   1      37.521  19.559  24.805  1.00  0.00    -0.247 OA
BRANCH   6   8
ATOM      8  C   UNL A   1      36.087  21.433  25.053  1.00  0.00     0.094 C 
ATOM      9  C   UNL A   1      35.076  20.935  25.777  1.00  0.00     0.015 C 
BRANCH   9  10
ATOM     10  C   UNL A   1      33.801  21.633  25.961  1.00  0.00    -0.025 A 
ATOM     11  C   UNL A   1      33.611  22.371  27.132  1.00  0.00     0.010 A 
ATOM     12  C   UNL A   1      32.750  21.548  25.046  1.00  0.00     0.010 A 
ATOM     13  C   UNL A   1      32.396  23.014  27.387  1.00  0.00     0.027 A 
ATOM     14  C   UNL A   1      31.539  22.207  25.295  1.00  0.00     0.027 A 
ATOM     15  C   UNL A   1      31.356  22.963  26.460  1.00  0.00     0.041 A 
BRANCH  15  16
ATOM     16  N   UNL A   1      30.096  23.567  26.645  1.00  0.00    -0.322 N 
ATOM     17  C   UNL A   1      29.671  24.873  26.566  1.00  0.00     0.255 C 
ATOM     18  H   UNL A   1      29.381  22.930  26.874  1.00  0.00     0.170 HD
ATOM     19  O   UNL A   1      28.603  25.213  27.073  1.00  0.00    -0.269 OA
BRANCH  17  20
ATOM     20  C   UNL A   1      30.439  25.902  25.834  1.00  0.00     0.041 A 
ATOM     21  C   UNL A   1      31.040  26.933  26.567  1.00  0.00     0.027 A 
ATOM     22  C   UNL A   1      30.545  25.869  24.438  1.00  0.00     0.027 A 
ATOM     23  C   UNL A   1      31.808  27.910  25.916  1.00  0.00     0.057 A 
ATOM     24  C   UNL A   1      31.323  26.826  23.769  1.00  0.00     0.057 A 
ATOM     25  C   UNL A   1      31.949  27.840  24.520  1.00  0.00     0.026 A 
BRANCH  23  26
ATOM     26  C   UNL A   1      32.477  28.998  26.722  1.00  0.00     0.416 C 
ATOM     27  F   UNL A   1      31.607  29.681  27.513  1.00  0.00    -0.166 F 
ATOM     28  F   UNL A   1      33.441  28.510  27.553  1.00  0.00    -0.166 F 
ATOM     29  F   UNL A   1      33.097  29.937  25.952  1.00  0.00    -0.166 F 
ENDBRANCH  23  26
BRANCH  24  30
ATOM     30  C   UNL A   1      31.527  26.758  22.273  1.00  0.00     0.416 C 
ATOM     31  F   UNL A   1      30.641  27.536  21.594  1.00  0.00    -0.166 F 
ATOM     32  F   UNL A   1      32.763  27.201  21.909  1.00  0.00    -0.166 F 
ATOM     33  F   UNL A   1      31.407  25.507  21.754  1.00  0.00    -0.166 F 
ENDBRANCH  24  30
ENDBRANCH  17  20
ENDBRANCH  15  16
ENDBRANCH   9  10
ENDBRANCH   6   8
ENDBRANCH   5   6
ENDBRANCH   4   5
ENDBRANCH   3   4
ENDBRANCH   2   3
ENDBRANCH   1   2
BRANCH   1  34
ATOM     34  C   UNL A   1      42.793  18.100  26.308  1.00  0.00     0.188 C 
BRANCH  34  35
ATOM     35  O   UNL A   1      43.570  18.314  25.140  1.00  0.00    -0.376 OA
BRANCH  35  36
ATOM     36  C   UNL A   1      44.782  19.049  25.213  1.00  0.00     0.202 C 
BRANCH  36  37
ATOM     37  C   UNL A   1      44.825  20.452  24.603  1.00  0.00     0.261 C 
BRANCH  37  38
ATOM     38  O   UNL A   1      44.397  21.480  25.509  1.00  0.00    -0.460 OA
BRANCH  38  39
ATOM     39  C   UNL A   1      43.798  22.544  24.925  1.00  0.00     0.338 C 
ATOM     40  O   UNL A   1      43.572  22.695  23.736  1.00  0.00    -0.246 OA
BRANCH  39  41
ATOM     41  C   UNL A   1      43.313  23.498  25.943  1.00  0.00     0.060 A 
ATOM     42  C   UNL A   1      43.805  24.807  25.878  1.00  0.00     0.016 A 
ATOM     43  C   UNL A   1      42.492  23.103  27.003  1.00  0.00     0.016 A 
ATOM     44  C   UNL A   1      43.531  25.706  26.906  1.00  0.00     0.010 A 
ATOM     45  C   UNL A   1      42.227  24.008  28.041  1.00  0.00     0.010 A 
ATOM     46  C   UNL A   1      42.780  25.300  28.018  1.00  0.00    -0.014 A 
BRANCH  46  47
ATOM     47  C   UNL A   1      42.715  26.194  29.201  1.00  0.00     0.031 A 
ATOM     48  C   UNL A   1      43.770  26.080  30.271  1.00  0.00     0.074 A 
ATOM     49  C   UNL A   1      41.775  27.153  29.287  1.00  0.00     0.049 A 
ATOM     50  N   UNL A   1      43.943  26.813  31.342  1.00  0.00    -0.248 NA
ATOM     51  C   UNL A   1      44.763  25.006  30.110  1.00  0.00     0.031 C 
ATOM     52  C   UNL A   1      40.714  27.390  28.309  1.00  0.00     0.029 A 
ATOM     53  N   UNL A   1      41.572  28.116  30.245  1.00  0.00    -0.354 N 
ATOM     54  C   UNL A   1      45.071  26.301  31.973  1.00  0.00     0.074 A 
ATOM     55  C   UNL A   1      45.519  25.171  31.186  1.00  0.00     0.031 C 
ATOM     56  C   UNL A   1      39.970  28.433  28.718  1.00  0.00     0.029 A 
ATOM     57  C   UNL A   1      40.493  28.927  29.991  1.00  0.00     0.049 A 
ATOM     58  H   UNL A   1      42.147  28.216  31.038  1.00  0.00     0.167 HD
ATOM     59  C   UNL A   1      45.691  26.736  33.097  1.00  0.00     0.031 A 
ATOM     60  C   UNL A   1      39.979  29.947  30.706  1.00  0.00     0.031 A 
ATOM     61  C   UNL A   1      45.240  27.842  33.900  1.00  0.00     0.049 A 
ATOM     62  C   UNL A   1      40.651  30.377  31.984  1.00  0.00     0.074 A 
ATOM     63  C   UNL A   1      45.801  28.350  35.060  1.00  0.00     0.029 A 
ATOM     64  N   UNL A   1      44.121  28.612  33.629  1.00  0.00    -0.354 N 
ATOM     65  N   UNL A   1      41.729  29.892  32.552  1.00  0.00    -0.248 NA
ATOM     66  C   UNL A   1      40.042  31.503  32.707  1.00  0.00     0.031 C 
ATOM     67  C   UNL A   1      44.996  29.400  35.513  1.00  0.00     0.029 A 
ATOM     68  C   UNL A   1      43.962  29.579  34.608  1.00  0.00     0.049 A 
ATOM     69  H   UNL A   1      43.526  28.491  32.854  1.00  0.00     0.167 HD
ATOM     70  C   UNL A   1      41.935  30.664  33.691  1.00  0.00     0.074 A 
ATOM     71  C   UNL A   1      40.886  31.662  33.717  1.00  0.00     0.031 C 
ATOM     72  C   UNL A   1      42.906  30.556  34.632  1.00  0.00     0.031 A 
BRANCH  59  73
ATOM     73  C   UNL A   1      46.926  25.997  33.537  1.00  0.00    -0.014 A 
ATOM     74  C   UNL A   1      46.829  24.859  34.358  1.00  0.00     0.010 A 
ATOM     75  C   UNL A   1      48.190  26.412  33.085  1.00  0.00     0.010 A 
ATOM     76  C   UNL A   1      47.979  24.165  34.742  1.00  0.00     0.020 A 
ATOM     77  C   UNL A   1      49.342  25.707  33.449  1.00  0.00     0.020 A 
ATOM     78  C   UNL A   1      49.230  24.596  34.286  1.00  0.00     0.054 A 
BRANCH  78  79
ATOM     79  S   UNL A   1      50.704  23.657  34.771  1.00  0.00     0.124 S 
ATOM     80  O   UNL A   1      51.760  24.655  34.616  1.00  0.00    -0.237 OA
ATOM     81  O   UNL A   1      50.403  23.271  36.148  1.00  0.00    -0.237 OA
ATOM     82  O   UNL A   1      50.744  22.555  33.813  1.00  0.00    -0.744 OA
ENDBRANCH  78  79
ENDBRANCH  59  73
BRANCH  60  83
ATOM     83  C   UNL A   1      38.739  30.626  30.244  1.00  0.00    -0.014 A 
ATOM     84  C   UNL A   1      37.476  30.039  30.436  1.00  0.00     0.010 A 
ATOM     85  C   UNL A   1      38.827  31.866  29.585  1.00  0.00     0.010 A 
ATOM     86  C   UNL A   1      36.324  30.670  29.956  1.00  0.00     0.020 A 
ATOM     87  C   UNL A   1      37.676  32.511  29.127  1.00  0.00     0.020 A 
ATOM     88  C   UNL A   1      36.432  31.901  29.303  1.00  0.00     0.054 A 
BRANCH  88  89
ATOM     89  S   UNL A   1      34.927  32.733  28.727  1.00  0.00     0.124 S 
ATOM     90  O   UNL A   1      35.422  33.499  27.589  1.00  0.00    -0.237 OA
ATOM     91  O   UNL A   1      34.047  31.613  28.405  1.00  0.00    -0.237 OA
ATOM     92  O   UNL A   1      34.515  33.522  29.887  1.00  0.00    -0.744 OA
ENDBRANCH  88  89
ENDBRANCH  60  83
BRANCH  72  93
ATOM     93  C   UNL A   1      42.883  31.554  35.761  1.00  0.00    -0.014 A 
ATOM     94  C   UNL A   1      42.286  31.239  36.995  1.00  0.00     0.010 A 
ATOM     95  C   UNL A   1      43.481  32.814  35.590  1.00  0.00     0.010 A 
ATOM     96  C   UNL A   1      42.245  32.186  38.022  1.00  0.00     0.020 A 
ATOM     97  C   UNL A   1      43.465  33.755  36.624  1.00  0.00     0.020 A 
ATOM     98  C   UNL A   1      42.827  33.442  37.827  1.00  0.00     0.054 A 
BRANCH  98  99
ATOM     99  S   UNL A   1      42.772  34.654  39.175  1.00  0.00     0.124 S 
ATOM    100  O   UNL A   1      42.381  33.826  40.311  1.00  0.00    -0.237 OA
ATOM    101  O   UNL A   1      44.141  35.163  39.211  1.00  0.00    -0.237 OA
ATOM    102  O   UNL A   1      41.769  35.619  38.730  1.00  0.00    -0.744 OA
ENDBRANCH  98  99
ENDBRANCH  72  93
ENDBRANCH  46  47
ENDBRANCH  39  41
ENDBRANCH  38  39
ENDBRANCH  37  38
ENDBRANCH  36  37
ENDBRANCH  35  36
ENDBRANCH  34  35
ENDBRANCH   1  34
TORSDOF 25
ENDMDL
MODEL 3
REMARK VINA RESULT:     -10.1      0.747      2.032
REMARK SMILES O=C(/C=C/c1ccc(NC(=O)c2cc(C(F)(F)F)cc(C(F)(F)F)c2)cc1)OCCOCCOCCOC(=O)c1ccc(-c2c3nc(c(-c4ccc(S(=O)(=O)[O-])cc4)c4ccc([nH]4)c(-c4ccc(S(=O)(=O)[O-])cc4)c4nc(c(-c5ccc(S(=O)(=O)[O-])cc5)c5ccc2[nH]5)C=C4)C=C3)cc1
REMARK SMILES IDX 32 1 31 2 30 3 29 4 28 5 2 6 1 7 3 8 4 9 5 10 6 11 27 12
REMARK SMILES IDX 7 13 26 14 8 15 9 16 10 17 11 19 12 20 13 21 25 22 14 23
REMARK SMILES IDX 20 24 19 25 15 26 16 27 17 28 18 29 21 30 22 31 23 32 24 33
REMARK SMILES IDX 33 34 34 35 35 36 36 37 37 38 38 39 39 40 40 41 41 42 99 43
REMARK SMILES IDX 42 44 98 45 43 46 44 47 45 48 92 49 46 50 97 51 91 52 93 53
REMARK SMILES IDX 47 54 96 55 90 56 89 57 48 59 78 60 59 61 77 62 60 63 63 64
REMARK SMILES IDX 76 65 94 66 61 67 62 68 75 70 95 71 64 72 49 73 50 74 58 75
REMARK SMILES IDX 51 76 57 77 52 78 53 79 54 80 55 81 56 82 79 83 80 84 88 85
REMARK SMILES IDX 81 86 87 87 82 88 83 89 84 90 85 91 86 92 65 93 66 94 74 95
REMARK SMILES IDX 67 96 73 97 68 98 69 99 70 100 71 101 72 102
REMARK H PARENT 9 18 93 58 63 69
REMARK Flexibility Score: inf
ROOT
ATOM      1  C   UNL A   1      42.171  19.602  27.147  1.00  0.00     0.188 C 
ENDROOT
BRANCH   1   2
ATOM      2  O   UNL A   1      40.923  20.252  27.296  1.00  0.00    -0.376 OA
BRANCH   2   3
ATOM      3  C   UNL A   1      40.681  21.544  26.777  1.00  0.00     0.202 C 
BRANCH   3   4
ATOM      4  C   UNL A   1      39.295  22.193  26.842  1.00  0.00     0.261 C 
BRANCH   4   5
ATOM      5  O   UNL A   1      38.615  22.338  25.593  1.00  0.00    -0.460 OA
BRANCH   5   6
ATOM      6  C   UNL A   1      37.576  21.504  25.354  1.00  0.00     0.330 C 
ATOM      7  O   UNL A   1      37.677  20.447  24.754  1.00  0.00    -0.247 OA
BRANCH   6   8
ATOM      8  C   UNL A   1      36.291  22.177  25.600  1.00  0.00     0.094 C 
ATOM      9  C   UNL A   1      35.154  21.616  25.169  1.00  0.00     0.015 C 
BRANCH   9  10
ATOM     10  C   UNL A   1      33.825  22.135  25.503  1.00  0.00    -0.025 A 
ATOM     11  C   UNL A   1      32.777  21.897  24.611  1.00  0.00     0.010 A 
ATOM     12  C   UNL A   1      33.573  22.902  26.641  1.00  0.00     0.010 A 
ATOM     13  C   UNL A   1      31.499  22.413  24.850  1.00  0.00     0.027 A 
ATOM     14  C   UNL A   1      32.289  23.405  26.887  1.00  0.00     0.027 A 
ATOM     15  C   UNL A   1      31.233  23.149  26.003  1.00  0.00     0.041 A 
BRANCH  15  16
ATOM     16  N   UNL A   1      29.982  23.719  26.313  1.00  0.00    -0.322 N 
ATOM     17  C   UNL A   1      29.553  25.022  26.412  1.00  0.00     0.255 C 
ATOM     18  H   UNL A   1      29.278  23.055  26.493  1.00  0.00     0.170 HD
ATOM     19  O   UNL A   1      28.507  25.292  27.001  1.00  0.00    -0.269 OA
BRANCH  17  20
ATOM     20  C   UNL A   1      30.289  26.137  25.780  1.00  0.00     0.041 A 
ATOM     21  C   UNL A   1      31.319  26.752  26.502  1.00  0.00     0.027 A 
ATOM     22  C   UNL A   1      29.952  26.592  24.499  1.00  0.00     0.027 A 
ATOM     23  C   UNL A   1      32.067  27.790  25.926  1.00  0.00     0.057 A 
ATOM     24  C   UNL A   1      30.698  27.617  23.897  1.00  0.00     0.057 A 
ATOM     25  C   UNL A   1      31.753  28.206  24.621  1.00  0.00     0.026 A 
BRANCH  23  26
ATOM     26  C   UNL A   1      33.196  28.423  26.704  1.00  0.00     0.416 C 
ATOM     27  F   UNL A   1      33.453  29.701  26.317  1.00  0.00    -0.166 F 
ATOM     28  F   UNL A   1      32.938  28.477  28.041  1.00  0.00    -0.166 F 
ATOM     29  F   UNL A   1      34.377  27.752  26.585  1.00  0.00    -0.166 F 
ENDBRANCH  23  26
BRANCH  24  30
ATOM     30  C   UNL A   1      30.412  28.063  22.482  1.00  0.00     0.416 C 
ATOM     31  F   UNL A   1      31.121  29.171  22.135  1.00  0.00    -0.166 F 
ATOM     32  F   UNL A   1      30.748  27.107  21.571  1.00  0.00    -0.166 F 
ATOM     33  F   UNL A   1      29.105  28.363  22.249  1.00  0.00    -0.166 F 
ENDBRANCH  24  30
ENDBRANCH  17  20
ENDBRANCH  15  16
ENDBRANCH   9  10
ENDBRANCH   6   8
ENDBRANCH   5   6
ENDBRANCH   4   5
ENDBRANCH   3   4
ENDBRANCH   2   3
ENDBRANCH   1   2
BRANCH   1  34
ATOM     34  C   UNL A   1      42.870  19.559  25.783  1.00  0.00     0.188 C 
BRANCH  34  35
ATOM     35  O   UNL A   1      43.436  20.732  25.217  1.00  0.00    -0.376 OA
BRANCH  35  36
ATOM     36  C   UNL A   1      44.721  21.174  25.627  1.00  0.00     0.202 C 
BRANCH  36  37
ATOM     37  C   UNL A   1      44.843  22.544  26.297  1.00  0.00     0.261 C 
BRANCH  37  38
ATOM     38  O   UNL A   1      43.598  23.255  26.371  1.00  0.00    -0.460 OA
BRANCH  38  39
ATOM     39  C   UNL A   1      43.647  24.541  25.951  1.00  0.00     0.338 C 
ATOM     40  O   UNL A   1      44.109  24.949  24.898  1.00  0.00    -0.246 OA
BRANCH  39  41
ATOM     41  C   UNL A   1      42.939  25.429  26.894  1.00  0.00     0.060 A 
ATOM     42  C   UNL A   1      43.370  26.759  26.966  1.00  0.00     0.016 A 
ATOM     43  C   UNL A   1      41.959  24.955  27.771  1.00  0.00     0.016 A 
ATOM     44  C   UNL A   1      42.870  27.601  27.957  1.00  0.00     0.010 A 
ATOM     45  C   UNL A   1      41.465  25.802  28.773  1.00  0.00     0.010 A 
ATOM     46  C   UNL A   1      41.950  27.116  28.897  1.00  0.00    -0.014 A 
BRANCH  46  47
ATOM     47  C   UNL A   1      41.626  27.956  30.078  1.00  0.00     0.031 A 
ATOM     48  C   UNL A   1      42.472  27.839  31.320  1.00  0.00     0.074 A 
ATOM     49  C   UNL A   1      40.642  28.871  30.022  1.00  0.00     0.049 A 
ATOM     50  N   UNL A   1      42.411  28.531  32.429  1.00  0.00    -0.248 NA
ATOM     51  C   UNL A   1      43.528  26.814  31.307  1.00  0.00     0.031 C 
ATOM     52  C   UNL A   1      39.767  29.106  28.874  1.00  0.00     0.029 A 
ATOM     53  N   UNL A   1      40.221  29.782  30.959  1.00  0.00    -0.354 N 
ATOM     54  C   UNL A   1      43.429  28.039  33.240  1.00  0.00     0.074 A 
ATOM     55  C   UNL A   1      44.066  26.963  32.509  1.00  0.00     0.031 C 
ATOM     56  C   UNL A   1      38.912  30.099  29.174  1.00  0.00     0.029 A 
ATOM     57  C   UNL A   1      39.169  30.559  30.539  1.00  0.00     0.049 A 
ATOM     58  H   UNL A   1      40.636  29.872  31.847  1.00  0.00     0.167 HD
ATOM     59  C   UNL A   1      43.810  28.450  34.473  1.00  0.00     0.031 A 
ATOM     60  C   UNL A   1      38.485  31.526  31.182  1.00  0.00     0.031 A 
ATOM     61  C   UNL A   1      43.168  29.502  35.216  1.00  0.00     0.049 A 
ATOM     62  C   UNL A   1      38.890  31.928  32.575  1.00  0.00     0.074 A 
ATOM     63  C   UNL A   1      43.482  29.982  36.477  1.00  0.00     0.029 A 
ATOM     64  N   UNL A   1      42.081  30.237  34.771  1.00  0.00    -0.354 N 
ATOM     65  N   UNL A   1      39.868  31.463  33.316  1.00  0.00    -0.248 NA
ATOM     66  C   UNL A   1      38.106  32.996  33.212  1.00  0.00     0.031 C 
ATOM     67  C   UNL A   1      42.558  30.978  36.810  1.00  0.00     0.029 A 
ATOM     68  C   UNL A   1      41.700  31.153  35.737  1.00  0.00     0.049 A 
ATOM     69  H   UNL A   1      41.645  30.124  33.896  1.00  0.00     0.167 HD
ATOM     70  C   UNL A   1      39.825  32.193  34.500  1.00  0.00     0.074 A 
ATOM     71  C   UNL A   1      38.742  33.145  34.366  1.00  0.00     0.031 C 
ATOM     72  C   UNL A   1      40.612  32.085  35.599  1.00  0.00     0.031 A 
BRANCH  59  73
ATOM     73  C   UNL A   1      44.978  27.745  35.107  1.00  0.00    -0.014 A 
ATOM     74  C   UNL A   1      44.782  26.596  35.896  1.00  0.00     0.010 A 
ATOM     75  C   UNL A   1      46.287  28.201  34.872  1.00  0.00     0.010 A 
ATOM     76  C   UNL A   1      45.875  25.933  36.461  1.00  0.00     0.020 A 
ATOM     77  C   UNL A   1      47.384  27.528  35.418  1.00  0.00     0.020 A 
ATOM     78  C   UNL A   1      47.169  26.405  36.220  1.00  0.00     0.054 A 
BRANCH  78  79
ATOM     79  S   UNL A   1      48.572  25.506  36.937  1.00  0.00     0.124 S 
ATOM     80  O   UNL A   1      48.232  25.502  38.358  1.00  0.00    -0.237 OA
ATOM     81  O   UNL A   1      48.497  24.208  36.271  1.00  0.00    -0.237 OA
ATOM     82  O   UNL A   1      49.727  26.322  36.576  1.00  0.00    -0.744 OA
ENDBRANCH  78  79
ENDBRANCH  59  73
BRANCH  60  83
ATOM     83  C   UNL A   1      37.319  32.173  30.522  1.00  0.00    -0.014 A 
ATOM     84  C   UNL A   1      36.032  31.615  30.615  1.00  0.00     0.010 A 
ATOM     85  C   UNL A   1      37.505  33.351  29.777  1.00  0.00     0.010 A 
ATOM     86  C   UNL A   1      34.955  32.212  29.952  1.00  0.00     0.020 A 
ATOM     87  C   UNL A   1      36.427  33.964  29.135  1.00  0.00     0.020 A 
ATOM     88  C   UNL A   1      35.159  33.381  29.215  1.00  0.00     0.054 A 
BRANCH  88  89
ATOM     89  S   UNL A   1      33.746  34.173  28.399  1.00  0.00     0.124 S 
ATOM     90  O   UNL A   1      33.178  33.066  27.638  1.00  0.00    -0.237 OA
ATOM     91  O   UNL A   1      32.949  34.644  29.528  1.00  0.00    -0.237 OA
ATOM     92  O   UNL A   1      34.367  35.231  27.604  1.00  0.00    -0.744 OA
ENDBRANCH  88  89
ENDBRANCH  60  83
BRANCH  72  93
ATOM     93  C   UNL A   1      40.335  33.031  36.738  1.00  0.00    -0.014 A 
ATOM     94  C   UNL A   1      40.977  34.280  36.815  1.00  0.00     0.010 A 
ATOM     95  C   UNL A   1      39.410  32.672  37.735  1.00  0.00     0.010 A 
ATOM     96  C   UNL A   1      40.733  35.134  37.895  1.00  0.00     0.020 A 
ATOM     97  C   UNL A   1      39.145  33.534  38.802  1.00  0.00     0.020 A 
ATOM     98  C   UNL A   1      39.825  34.752  38.887  1.00  0.00     0.054 A 
BRANCH  98  99
ATOM     99  S   UNL A   1      39.516  35.877  40.275  1.00  0.00     0.124 S 
ATOM    100  O   UNL A   1      40.586  35.516  41.201  1.00  0.00    -0.237 OA
ATOM    101  O   UNL A   1      39.638  37.196  39.659  1.00  0.00    -0.237 OA
ATOM    102  O   UNL A   1      38.167  35.524  40.712  1.00  0.00    -0.744 OA
ENDBRANCH  98  99
ENDBRANCH  72  93
ENDBRANCH  46  47
ENDBRANCH  39  41
ENDBRANCH  38  39
ENDBRANCH  37  38
ENDBRANCH  36  37
ENDBRANCH  35  36
ENDBRANCH  34  35
ENDBRANCH   1  34
TORSDOF 25
ENDMDL
