MODEL 1
REMARK VINA RESULT:      -7.7      0.000      0.000
REMARK SMILES CCC(CC)(Nc1ccc(Br)cc1[N+](=O)[O-])C(=O)OCCOCCOCCOC(=O)c1ccc(-c2c3nc(c(-c4ccc(S(=O)(=O)[O-])cc4)c4ccc([nH]4)c(-c4ccc(S(=O)(=O)[O-])cc4)c4nc(c(-c5ccc(S(=O)(=O)[O-])cc5)c5ccc2[nH]5)C=C4)C=C3)cc1
REMARK SMILES IDX 23 1 22 2 21 3 20 4 19 5 17 6 18 7 3 8 2 9 1 10 4 11 5 12
REMARK SMILES IDX 6 13 7 15 8 16 13 17 9 18 12 19 10 20 11 21 14 22 15 23
REMARK SMILES IDX 16 24 24 25 25 26 26 27 27 28 28 29 29 30 30 31 31 32 32 33
REMARK SMILES IDX 90 34 33 35 89 36 34 37 35 38 36 39 83 40 37 41 88 42 82 43
REMARK SMILES IDX 84 44 38 45 87 46 81 47 80 48 39 50 69 51 50 52 68 53 51 54
REMARK SMILES IDX 54 55 67 56 85 57 52 58 53 59 66 61 86 62 55 63 40 64 41 65
REMARK SMILES IDX 49 66 42 67 48 68 43 69 44 70 45 71 46 72 47 73 70 74 71 75
REMARK SMILES IDX 79 76 72 77 78 78 73 79 74 80 75 81 76 82 77 83 56 84 57 85
REMARK SMILES IDX 65 86 58 87 64 88 59 89 60 90 61 91 62 92 63 93
REMARK H PARENT 6 14 84 49 54 60
REMARK Flexibility Score: inf
ROOT
ATOM      1  C   UNL A   1      35.075  32.687  27.892  1.00  0.00     0.188 C 
ENDROOT
BRANCH   1   2
ATOM      2  O   UNL A   1      35.248  31.288  27.700  1.00  0.00    -0.376 OA
BRANCH   2   3
ATOM      3  C   UNL A   1      34.049  30.511  27.608  1.00  0.00     0.202 C 
BRANCH   3   4
ATOM      4  C   UNL A   1      34.144  29.268  26.726  1.00  0.00     0.261 C 
BRANCH   4   5
ATOM      5  O   UNL A   1      33.540  29.523  25.438  1.00  0.00    -0.461 OA
BRANCH   5   6
ATOM      6  C   UNL A   1      32.348  28.917  25.236  1.00  0.00     0.331 C 
ATOM      7  O   UNL A   1      31.428  29.004  26.052  1.00  0.00    -0.249 OA
BRANCH   6   8
ATOM      8  C   UNL A   1      32.185  28.148  23.896  1.00  0.00     0.135 C 
BRANCH   8   9
ATOM      9  C   UNL A   1      33.611  27.754  23.380  1.00  0.00     0.037 C 
ATOM     10  C   UNL A   1      34.084  28.352  22.066  1.00  0.00     0.007 C 
ENDBRANCH   8   9
BRANCH   8  11
ATOM     11  C   UNL A   1      31.450  29.152  22.958  1.00  0.00     0.037 C 
ATOM     12  C   UNL A   1      30.130  28.689  22.362  1.00  0.00     0.007 C 
ENDBRANCH   8  11
BRANCH   8  13
ATOM     13  N   UNL A   1      31.416  26.867  23.831  1.00  0.00    -0.364 N 
ATOM     14  H   UNL A   1      30.445  27.027  23.790  1.00  0.00     0.161 HD
BRANCH  13  15
ATOM     15  C   UNL A   1      31.710  25.522  23.814  1.00  0.00     0.114 A 
ATOM     16  C   UNL A   1      31.723  24.784  22.627  1.00  0.00     0.034 A 
ATOM     17  C   UNL A   1      32.038  24.799  24.999  1.00  0.00     0.293 A 
ATOM     18  C   UNL A   1      31.963  23.401  22.611  1.00  0.00     0.018 A 
ATOM     19  C   UNL A   1      32.280  23.413  24.993  1.00  0.00     0.103 A 
ATOM     20  C   UNL A   1      32.220  22.721  23.794  1.00  0.00     0.024 A 
ATOM     21  Br  UNL A   1      32.506  20.854  23.771  1.00  0.00    -0.051 Br
BRANCH  17  22
ATOM     22  N   UNL A   1      32.196  25.481  26.296  1.00  0.00     0.065 N 
ATOM     23  O   UNL A   1      33.348  25.736  26.680  1.00  0.00    -0.258 OA
ATOM     24  O   UNL A   1      31.172  25.830  26.908  1.00  0.00    -0.258 OA
ENDBRANCH  17  22
ENDBRANCH  13  15
ENDBRANCH   8  13
ENDBRANCH   6   8
ENDBRANCH   5   6
ENDBRANCH   4   5
ENDBRANCH   3   4
ENDBRANCH   2   3
ENDBRANCH   1   2
BRANCH   1  25
ATOM     25  C   UNL A   1      34.220  33.108  29.089  1.00  0.00     0.188 C 
BRANCH  25  26
ATOM     26  O   UNL A   1      34.666  34.237  29.838  1.00  0.00    -0.376 OA
BRANCH  26  27
ATOM     27  C   UNL A   1      33.622  34.869  30.589  1.00  0.00     0.202 C 
BRANCH  27  28
ATOM     28  C   UNL A   1      33.831  34.749  32.104  1.00  0.00     0.261 C 
BRANCH  28  29
ATOM     29  O   UNL A   1      34.240  33.417  32.450  1.00  0.00    -0.460 OA
BRANCH  29  30
ATOM     30  C   UNL A   1      35.140  33.324  33.463  1.00  0.00     0.338 C 
ATOM     31  O   UNL A   1      34.895  33.301  34.657  1.00  0.00    -0.246 OA
BRANCH  30  32
ATOM     32  C   UNL A   1      36.470  33.008  32.888  1.00  0.00     0.060 A 
ATOM     33  C   UNL A   1      37.610  33.404  33.604  1.00  0.00     0.016 A 
ATOM     34  C   UNL A   1      36.603  32.257  31.717  1.00  0.00     0.016 A 
ATOM     35  C   UNL A   1      38.885  33.076  33.142  1.00  0.00     0.010 A 
ATOM     36  C   UNL A   1      37.876  31.934  31.252  1.00  0.00     0.010 A 
ATOM     37  C   UNL A   1      39.020  32.367  31.945  1.00  0.00    -0.014 A 
BRANCH  37  38
ATOM     38  C   UNL A   1      40.328  32.249  31.268  1.00  0.00     0.031 A 
ATOM     39  C   UNL A   1      41.162  31.041  31.584  1.00  0.00     0.074 A 
ATOM     40  C   UNL A   1      40.804  33.226  30.480  1.00  0.00     0.049 A 
ATOM     41  N   UNL A   1      42.419  30.809  31.324  1.00  0.00    -0.248 NA
ATOM     42  C   UNL A   1      40.483  29.962  32.322  1.00  0.00     0.031 C 
ATOM     43  C   UNL A   1      40.070  34.423  30.075  1.00  0.00     0.029 A 
ATOM     44  N   UNL A   1      42.045  33.381  29.915  1.00  0.00    -0.354 N 
ATOM     45  C   UNL A   1      42.696  29.577  31.904  1.00  0.00     0.074 A 
ATOM     46  C   UNL A   1      41.478  29.119  32.537  1.00  0.00     0.031 C 
ATOM     47  C   UNL A   1      40.890  35.213  29.361  1.00  0.00     0.029 A 
ATOM     48  C   UNL A   1      42.216  34.598  29.301  1.00  0.00     0.049 A 
ATOM     49  H   UNL A   1      42.744  32.690  29.948  1.00  0.00     0.167 HD
ATOM     50  C   UNL A   1      43.865  28.896  31.921  1.00  0.00     0.031 A 
ATOM     51  C   UNL A   1      43.328  35.169  28.795  1.00  0.00     0.031 A 
ATOM     52  C   UNL A   1      45.072  29.375  31.306  1.00  0.00     0.049 A 
ATOM     53  C   UNL A   1      44.632  34.418  28.853  1.00  0.00     0.074 A 
ATOM     54  C   UNL A   1      46.307  28.759  31.238  1.00  0.00     0.029 A 
ATOM     55  N   UNL A   1      45.194  30.598  30.661  1.00  0.00    -0.354 N 
ATOM     56  N   UNL A   1      44.883  33.243  29.383  1.00  0.00    -0.248 NA
ATOM     57  C   UNL A   1      45.803  35.066  28.245  1.00  0.00     0.031 C 
ATOM     58  C   UNL A   1      47.192  29.634  30.599  1.00  0.00     0.029 A 
ATOM     59  C   UNL A   1      46.491  30.767  30.212  1.00  0.00     0.049 A 
ATOM     60  H   UNL A   1      44.465  31.249  30.542  1.00  0.00     0.167 HD
ATOM     61  C   UNL A   1      46.232  32.998  29.147  1.00  0.00     0.074 A 
ATOM     62  C   UNL A   1      46.744  34.147  28.427  1.00  0.00     0.031 C 
ATOM     63  C   UNL A   1      46.977  31.918  29.491  1.00  0.00     0.031 A 
BRANCH  50  64
ATOM     64  C   UNL A   1      43.892  27.603  32.690  1.00  0.00    -0.014 A 
ATOM     65  C   UNL A   1      43.922  26.358  32.036  1.00  0.00     0.010 A 
ATOM     66  C   UNL A   1      43.853  27.636  34.096  1.00  0.00     0.010 A 
ATOM     67  C   UNL A   1      43.840  25.171  32.770  1.00  0.00     0.020 A 
ATOM     68  C   UNL A   1      43.804  26.452  34.835  1.00  0.00     0.020 A 
ATOM     69  C   UNL A   1      43.771  25.228  34.166  1.00  0.00     0.054 A 
BRANCH  69  70
ATOM     70  S   UNL A   1      43.637  23.677  35.096  1.00  0.00     0.124 S 
ATOM     71  O   UNL A   1      42.285  23.767  35.638  1.00  0.00    -0.237 OA
ATOM     72  O   UNL A   1      43.833  22.663  34.062  1.00  0.00    -0.237 OA
ATOM     73  O   UNL A   1      44.711  23.771  36.082  1.00  0.00    -0.744 OA
ENDBRANCH  69  70
ENDBRANCH  50  64
BRANCH  51  74
ATOM     74  C   UNL A   1      43.246  36.539  28.221  1.00  0.00    -0.014 A 
ATOM     75  C   UNL A   1      42.685  36.753  26.951  1.00  0.00     0.010 A 
ATOM     76  C   UNL A   1      43.673  37.649  28.975  1.00  0.00     0.010 A 
ATOM     77  C   UNL A   1      42.540  38.050  26.450  1.00  0.00     0.020 A 
ATOM     78  C   UNL A   1      43.508  38.950  28.487  1.00  0.00     0.020 A 
ATOM     79  C   UNL A   1      42.942  39.142  27.226  1.00  0.00     0.054 A 
BRANCH  79  80
ATOM     80  S   UNL A   1      42.646  40.819  26.599  1.00  0.00     0.124 S 
ATOM     81  O   UNL A   1      43.498  41.624  27.468  1.00  0.00    -0.237 OA
ATOM     82  O   UNL A   1      43.078  40.715  25.208  1.00  0.00    -0.237 OA
ATOM     83  O   UNL A   1      41.209  41.004  26.784  1.00  0.00    -0.744 OA
ENDBRANCH  79  80
ENDBRANCH  51  74
BRANCH  63  84
ATOM     84  C   UNL A   1      48.418  31.890  29.056  1.00  0.00    -0.014 A 
ATOM     85  C   UNL A   1      48.791  31.430  27.783  1.00  0.00     0.010 A 
ATOM     86  C   UNL A   1      49.400  32.439  29.904  1.00  0.00     0.010 A 
ATOM     87  C   UNL A   1      50.124  31.511  27.367  1.00  0.00     0.020 A 
ATOM     88  C   UNL A   1      50.727  32.545  29.483  1.00  0.00     0.020 A 
ATOM     89  C   UNL A   1      51.082  32.073  28.218  1.00  0.00     0.054 A 
BRANCH  89  90
ATOM     90  S   UNL A   1      52.789  32.243  27.625  1.00  0.00     0.124 S 
ATOM     91  O   UNL A   1      52.823  33.636  27.191  1.00  0.00    -0.237 OA
ATOM     92  O   UNL A   1      53.575  31.936  28.818  1.00  0.00    -0.237 OA
ATOM     93  O   UNL A   1      52.883  31.254  26.554  1.00  0.00    -0.744 OA
ENDBRANCH  89  90
ENDBRANCH  63  84
ENDBRANCH  37  38
ENDBRANCH  30  32
ENDBRANCH  29  30
ENDBRANCH  28  29
ENDBRANCH  27  28
ENDBRANCH  26  27
ENDBRANCH  25  26
ENDBRANCH   1  25
TORSDOF 25
ENDMDL
MODEL 2
REMARK VINA RESULT:      -7.3      7.298      9.526
REMARK SMILES CCC(CC)(Nc1ccc(Br)cc1[N+](=O)[O-])C(=O)OCCOCCOCCOC(=O)c1ccc(-c2c3nc(c(-c4ccc(S(=O)(=O)[O-])cc4)c4ccc([nH]4)c(-c4ccc(S(=O)(=O)[O-])cc4)c4nc(c(-c5ccc(S(=O)(=O)[O-])cc5)c5ccc2[nH]5)C=C4)C=C3)cc1
REMARK SMILES IDX 23 1 22 2 21 3 20 4 19 5 17 6 18 7 3 8 2 9 1 10 4 11 5 12
REMARK SMILES IDX 6 13 7 15 8 16 13 17 9 18 12 19 10 20 11 21 14 22 15 23
REMARK SMILES IDX 16 24 24 25 25 26 26 27 27 28 28 29 29 30 30 31 31 32 32 33
REMARK SMILES IDX 90 34 33 35 89 36 34 37 35 38 36 39 83 40 37 41 88 42 82 43
REMARK SMILES IDX 84 44 38 45 87 46 81 47 80 48 39 50 69 51 50 52 68 53 51 54
REMARK SMILES IDX 54 55 67 56 85 57 52 58 53 59 66 61 86 62 55 63 40 64 41 65
REMARK SMILES IDX 49 66 42 67 48 68 43 69 44 70 45 71 46 72 47 73 70 74 71 75
REMARK SMILES IDX 79 76 72 77 78 78 73 79 74 80 75 81 76 82 77 83 56 84 57 85
REMARK SMILES IDX 65 86 58 87 64 88 59 89 60 90 61 91 62 92 63 93
REMARK H PARENT 6 14 84 49 54 60
REMARK Flexibility Score: inf
ROOT
ATOM      1  C   UNL A   1      32.885  31.569  27.133  1.00  0.00     0.188 C 
ENDROOT
BRANCH   1   2
ATOM      2  O   UNL A   1      33.378  30.417  26.462  1.00  0.00    -0.376 OA
BRANCH   2   3
ATOM      3  C   UNL A   1      33.847  29.352  27.296  1.00  0.00     0.202 C 
BRANCH   3   4
ATOM      4  C   UNL A   1      33.342  27.960  26.922  1.00  0.00     0.261 C 
BRANCH   4   5
ATOM      5  O   UNL A   1      32.104  28.061  26.184  1.00  0.00    -0.461 OA
BRANCH   5   6
ATOM      6  C   UNL A   1      31.527  26.878  25.870  1.00  0.00     0.331 C 
ATOM      7  O   UNL A   1      31.095  26.115  26.737  1.00  0.00    -0.249 OA
BRANCH   6   8
ATOM      8  C   UNL A   1      31.395  26.556  24.356  1.00  0.00     0.135 C 
BRANCH   8   9
ATOM      9  C   UNL A   1      31.746  27.851  23.547  1.00  0.00     0.037 C 
ATOM     10  C   UNL A   1      33.078  27.896  22.817  1.00  0.00     0.007 C 
ENDBRANCH   8   9
BRANCH   8  11
ATOM     11  C   UNL A   1      29.913  26.107  24.182  1.00  0.00     0.037 C 
ATOM     12  C   UNL A   1      28.980  27.085  23.486  1.00  0.00     0.007 C 
ENDBRANCH   8  11
BRANCH   8  13
ATOM     13  N   UNL A   1      32.237  25.497  23.716  1.00  0.00    -0.364 N 
ATOM     14  H   UNL A   1      32.052  25.419  22.752  1.00  0.00     0.161 HD
BRANCH  13  15
ATOM     15  C   UNL A   1      33.201  24.604  24.123  1.00  0.00     0.114 A 
ATOM     16  C   UNL A   1      34.307  25.005  24.878  1.00  0.00     0.034 A 
ATOM     17  C   UNL A   1      33.128  23.212  23.819  1.00  0.00     0.293 A 
ATOM     18  C   UNL A   1      35.325  24.110  25.245  1.00  0.00     0.018 A 
ATOM     19  C   UNL A   1      34.143  22.308  24.182  1.00  0.00     0.103 A 
ATOM     20  C   UNL A   1      35.247  22.772  24.878  1.00  0.00     0.024 A 
ATOM     21  Br  UNL A   1      36.636  21.580  25.343  1.00  0.00    -0.051 Br
BRANCH  17  22
ATOM     22  N   UNL A   1      31.949  22.633  23.150  1.00  0.00     0.065 N 
ATOM     23  O   UNL A   1      32.137  21.718  22.334  1.00  0.00    -0.258 OA
ATOM     24  O   UNL A   1      30.823  23.039  23.485  1.00  0.00    -0.258 OA
ENDBRANCH  17  22
ENDBRANCH  13  15
ENDBRANCH   8  13
ENDBRANCH   6   8
ENDBRANCH   5   6
ENDBRANCH   4   5
ENDBRANCH   3   4
ENDBRANCH   2   3
ENDBRANCH   1   2
BRANCH   1  25
ATOM     25  C   UNL A   1      33.898  32.353  27.970  1.00  0.00     0.188 C 
BRANCH  25  26
ATOM     26  O   UNL A   1      33.390  33.076  29.090  1.00  0.00    -0.376 OA
BRANCH  26  27
ATOM     27  C   UNL A   1      34.132  34.268  29.381  1.00  0.00     0.202 C 
BRANCH  27  28
ATOM     28  C   UNL A   1      34.839  34.203  30.741  1.00  0.00     0.261 C 
BRANCH  28  29
ATOM     29  O   UNL A   1      34.396  33.056  31.482  1.00  0.00    -0.460 OA
BRANCH  29  30
ATOM     30  C   UNL A   1      35.315  32.068  31.636  1.00  0.00     0.338 C 
ATOM     31  O   UNL A   1      35.501  31.120  30.892  1.00  0.00    -0.246 OA
BRANCH  30  32
ATOM     32  C   UNL A   1      36.238  32.446  32.734  1.00  0.00     0.060 A 
ATOM     33  C   UNL A   1      35.955  33.612  33.464  1.00  0.00     0.016 A 
ATOM     34  C   UNL A   1      37.309  31.629  33.106  1.00  0.00     0.016 A 
ATOM     35  C   UNL A   1      36.753  33.979  34.547  1.00  0.00     0.010 A 
ATOM     36  C   UNL A   1      38.110  31.998  34.184  1.00  0.00     0.010 A 
ATOM     37  C   UNL A   1      37.854  33.188  34.889  1.00  0.00    -0.014 A 
BRANCH  37  38
ATOM     38  C   UNL A   1      38.887  33.676  35.825  1.00  0.00     0.031 A 
ATOM     39  C   UNL A   1      38.637  33.480  37.293  1.00  0.00     0.074 A 
ATOM     40  C   UNL A   1      39.961  34.359  35.396  1.00  0.00     0.049 A 
ATOM     41  N   UNL A   1      39.246  34.011  38.317  1.00  0.00    -0.248 NA
ATOM     42  C   UNL A   1      37.523  32.582  37.643  1.00  0.00     0.031 C 
ATOM     43  C   UNL A   1      40.324  34.578  33.997  1.00  0.00     0.029 A 
ATOM     44  N   UNL A   1      40.921  35.035  36.107  1.00  0.00    -0.354 N 
ATOM     45  C   UNL A   1      38.563  33.546  39.435  1.00  0.00     0.074 A 
ATOM     46  C   UNL A   1      37.490  32.701  38.960  1.00  0.00     0.031 C 
ATOM     47  C   UNL A   1      41.407  35.374  33.951  1.00  0.00     0.029 A 
ATOM     48  C   UNL A   1      41.779  35.757  35.313  1.00  0.00     0.049 A 
ATOM     49  H   UNL A   1      40.987  35.007  37.088  1.00  0.00     0.167 HD
ATOM     50  C   UNL A   1      38.801  33.814  40.740  1.00  0.00     0.031 A 
ATOM     51  C   UNL A   1      42.723  36.659  35.647  1.00  0.00     0.031 A 
ATOM     52  C   UNL A   1      39.859  34.673  41.195  1.00  0.00     0.049 A 
ATOM     53  C   UNL A   1      42.953  36.978  37.101  1.00  0.00     0.074 A 
ATOM     54  C   UNL A   1      40.209  34.995  42.491  1.00  0.00     0.029 A 
ATOM     55  N   UNL A   1      40.731  35.357  40.359  1.00  0.00    -0.354 N 
ATOM     56  N   UNL A   1      42.320  36.519  38.155  1.00  0.00    -0.248 NA
ATOM     57  C   UNL A   1      44.025  37.934  37.413  1.00  0.00     0.031 C 
ATOM     58  C   UNL A   1      41.260  35.917  42.439  1.00  0.00     0.029 A 
ATOM     59  C   UNL A   1      41.605  36.120  41.111  1.00  0.00     0.049 A 
ATOM     60  H   UNL A   1      40.727  35.307  39.375  1.00  0.00     0.167 HD
ATOM     61  C   UNL A   1      42.934  37.107  39.257  1.00  0.00     0.074 A 
ATOM     62  C   UNL A   1      43.989  37.955  38.740  1.00  0.00     0.031 C 
ATOM     63  C   UNL A   1      42.653  36.953  40.575  1.00  0.00     0.031 A 
BRANCH  50  64
ATOM     64  C   UNL A   1      37.850  33.220  41.743  1.00  0.00    -0.014 A 
ATOM     65  C   UNL A   1      38.030  31.920  42.249  1.00  0.00     0.010 A 
ATOM     66  C   UNL A   1      36.735  33.969  42.162  1.00  0.00     0.010 A 
ATOM     67  C   UNL A   1      37.076  31.353  43.099  1.00  0.00     0.020 A 
ATOM     68  C   UNL A   1      35.796  33.418  43.038  1.00  0.00     0.020 A 
ATOM     69  C   UNL A   1      35.959  32.103  43.478  1.00  0.00     0.054 A 
BRANCH  69  70
ATOM     70  S   UNL A   1      34.720  31.338  44.560  1.00  0.00     0.124 S 
ATOM     71  O   UNL A   1      33.757  30.819  43.592  1.00  0.00    -0.237 OA
ATOM     72  O   UNL A   1      35.497  30.329  45.275  1.00  0.00    -0.237 OA
ATOM     73  O   UNL A   1      34.242  32.449  45.379  1.00  0.00    -0.744 OA
ENDBRANCH  69  70
ENDBRANCH  50  64
BRANCH  51  74
ATOM     74  C   UNL A   1      43.490  37.344  34.571  1.00  0.00    -0.014 A 
ATOM     75  C   UNL A   1      43.029  38.551  34.019  1.00  0.00     0.010 A 
ATOM     76  C   UNL A   1      44.722  36.820  34.137  1.00  0.00     0.010 A 
ATOM     77  C   UNL A   1      43.792  39.229  33.064  1.00  0.00     0.020 A 
ATOM     78  C   UNL A   1      45.499  37.507  33.199  1.00  0.00     0.020 A 
ATOM     79  C   UNL A   1      45.028  38.709  32.668  1.00  0.00     0.054 A 
BRANCH  79  80
ATOM     80  S   UNL A   1      46.048  39.661  31.507  1.00  0.00     0.124 S 
ATOM     81  O   UNL A   1      45.166  40.773  31.168  1.00  0.00    -0.237 OA
ATOM     82  O   UNL A   1      47.213  40.002  32.320  1.00  0.00    -0.237 OA
ATOM     83  O   UNL A   1      46.309  38.714  30.425  1.00  0.00    -0.744 OA
ENDBRANCH  79  80
ENDBRANCH  51  74
BRANCH  63  84
ATOM     84  C   UNL A   1      43.524  37.676  41.568  1.00  0.00    -0.014 A 
ATOM     85  C   UNL A   1      43.177  38.945  42.060  1.00  0.00     0.010 A 
ATOM     86  C   UNL A   1      44.652  37.019  42.096  1.00  0.00     0.010 A 
ATOM     87  C   UNL A   1      43.949  39.549  43.058  1.00  0.00     0.020 A 
ATOM     88  C   UNL A   1      45.411  37.608  43.109  1.00  0.00     0.020 A 
ATOM     89  C   UNL A   1      45.058  38.874  43.580  1.00  0.00     0.054 A 
BRANCH  89  90
ATOM     90  S   UNL A   1      45.995  39.642  44.930  1.00  0.00     0.124 S 
ATOM     91  O   UNL A   1      46.815  38.530  45.402  1.00  0.00    -0.237 OA
ATOM     92  O   UNL A   1      46.719  40.713  44.248  1.00  0.00    -0.237 OA
ATOM     93  O   UNL A   1      44.960  40.091  45.858  1.00  0.00    -0.744 OA
ENDBRANCH  89  90
ENDBRANCH  63  84
ENDBRANCH  37  38
ENDBRANCH  30  32
ENDBRANCH  29  30
ENDBRANCH  28  29
ENDBRANCH  27  28
ENDBRANCH  26  27
ENDBRANCH  25  26
ENDBRANCH   1  25
TORSDOF 25
ENDMDL
MODEL 3
REMARK VINA RESULT:      -6.9      6.402     11.153
REMARK SMILES CCC(CC)(Nc1ccc(Br)cc1[N+](=O)[O-])C(=O)OCCOCCOCCOC(=O)c1ccc(-c2c3nc(c(-c4ccc(S(=O)(=O)[O-])cc4)c4ccc([nH]4)c(-c4ccc(S(=O)(=O)[O-])cc4)c4nc(c(-c5ccc(S(=O)(=O)[O-])cc5)c5ccc2[nH]5)C=C4)C=C3)cc1
REMARK SMILES IDX 23 1 22 2 21 3 20 4 19 5 17 6 18 7 3 8 2 9 1 10 4 11 5 12
REMARK SMILES IDX 6 13 7 15 8 16 13 17 9 18 12 19 10 20 11 21 14 22 15 23
REMARK SMILES IDX 16 24 24 25 25 26 26 27 27 28 28 29 29 30 30 31 31 32 32 33
REMARK SMILES IDX 90 34 33 35 89 36 34 37 35 38 36 39 83 40 37 41 88 42 82 43
REMARK SMILES IDX 84 44 38 45 87 46 81 47 80 48 39 50 69 51 50 52 68 53 51 54
REMARK SMILES IDX 54 55 67 56 85 57 52 58 53 59 66 61 86 62 55 63 40 64 41 65
REMARK SMILES IDX 49 66 42 67 48 68 43 69 44 70 45 71 46 72 47 73 70 74 71 75
REMARK SMILES IDX 79 76 72 77 78 78 73 79 74 80 75 81 76 82 77 83 56 84 57 85
REMARK SMILES IDX 65 86 58 87 64 88 59 89 60 90 61 91 62 92 63 93
REMARK H PARENT 6 14 84 49 54 60
REMARK Flexibility Score: inf
ROOT
ATOM      1  C   UNL A   1      39.283  30.076  30.133  1.00  0.00     0.188 C 
ENDROOT
BRANCH   1   2
ATOM      2  O   UNL A   1      40.132  28.960  29.896  1.00  0.00    -0.376 OA
BRANCH   2   3
ATOM      3  C   UNL A   1      40.958  29.031  28.729  1.00  0.00     0.202 C 
BRANCH   3   4
ATOM      4  C   UNL A   1      40.667  27.982  27.658  1.00  0.00     0.261 C 
BRANCH   4   5
ATOM      5  O   UNL A   1      41.881  27.638  26.954  1.00  0.00    -0.461 OA
BRANCH   5   6
ATOM      6  C   UNL A   1      41.826  26.485  26.249  1.00  0.00     0.331 C 
ATOM      7  O   UNL A   1      40.970  26.293  25.383  1.00  0.00    -0.249 OA
BRANCH   6   8
ATOM      8  C   UNL A   1      42.930  25.436  26.555  1.00  0.00     0.135 C 
BRANCH   8   9
ATOM      9  C   UNL A   1      43.000  24.433  25.355  1.00  0.00     0.037 C 
ATOM     10  C   UNL A   1      42.911  22.947  25.662  1.00  0.00     0.007 C 
ENDBRANCH   8   9
BRANCH   8  11
ATOM     11  C   UNL A   1      42.472  24.768  27.887  1.00  0.00     0.037 C 
ATOM     12  C   UNL A   1      43.528  24.609  28.970  1.00  0.00     0.007 C 
ENDBRANCH   8  11
BRANCH   8  13
ATOM     13  N   UNL A   1      44.353  25.851  26.757  1.00  0.00    -0.364 N 
ATOM     14  H   UNL A   1      44.588  25.891  27.712  1.00  0.00     0.161 HD
BRANCH  13  15
ATOM     15  C   UNL A   1      45.419  26.192  25.956  1.00  0.00     0.114 A 
ATOM     16  C   UNL A   1      45.463  27.406  25.263  1.00  0.00     0.034 A 
ATOM     17  C   UNL A   1      46.554  25.342  25.795  1.00  0.00     0.293 A 
ATOM     18  C   UNL A   1      46.520  27.732  24.398  1.00  0.00     0.018 A 
ATOM     19  C   UNL A   1      47.616  25.661  24.930  1.00  0.00     0.103 A 
ATOM     20  C   UNL A   1      47.579  26.851  24.222  1.00  0.00     0.024 A 
ATOM     21  Br  UNL A   1      48.980  27.280  23.028  1.00  0.00    -0.051 Br
BRANCH  17  22
ATOM     22  N   UNL A   1      46.699  24.099  26.574  1.00  0.00     0.065 N 
ATOM     23  O   UNL A   1      46.887  24.202  27.796  1.00  0.00    -0.258 OA
ATOM     24  O   UNL A   1      46.557  23.014  25.986  1.00  0.00    -0.258 OA
ENDBRANCH  17  22
ENDBRANCH  13  15
ENDBRANCH   8  13
ENDBRANCH   6   8
ENDBRANCH   5   6
ENDBRANCH   4   5
ENDBRANCH   3   4
ENDBRANCH   2   3
ENDBRANCH   1   2
BRANCH   1  25
ATOM     25  C   UNL A   1      38.391  30.510  28.967  1.00  0.00     0.188 C 
BRANCH  25  26
ATOM     26  O   UNL A   1      37.286  29.665  28.649  1.00  0.00    -0.376 OA
BRANCH  26  27
ATOM     27  C   UNL A   1      36.380  30.246  27.704  1.00  0.00     0.202 C 
BRANCH  27  28
ATOM     28  C   UNL A   1      35.890  31.634  28.135  1.00  0.00     0.261 C 
BRANCH  28  29
ATOM     29  O   UNL A   1      35.042  31.531  29.290  1.00  0.00    -0.460 OA
BRANCH  29  30
ATOM     30  C   UNL A   1      34.822  32.691  29.960  1.00  0.00     0.338 C 
ATOM     31  O   UNL A   1      33.883  33.454  29.812  1.00  0.00    -0.246 OA
BRANCH  30  32
ATOM     32  C   UNL A   1      35.781  32.775  31.089  1.00  0.00     0.060 A 
ATOM     33  C   UNL A   1      36.220  34.046  31.490  1.00  0.00     0.016 A 
ATOM     34  C   UNL A   1      36.174  31.640  31.803  1.00  0.00     0.016 A 
ATOM     35  C   UNL A   1      37.071  34.188  32.586  1.00  0.00     0.010 A 
ATOM     36  C   UNL A   1      37.029  31.779  32.894  1.00  0.00     0.010 A 
ATOM     37  C   UNL A   1      37.504  33.049  33.271  1.00  0.00    -0.014 A 
BRANCH  37  38
ATOM     38  C   UNL A   1      38.619  33.114  34.239  1.00  0.00     0.031 A 
ATOM     39  C   UNL A   1      40.005  32.885  33.710  1.00  0.00     0.074 A 
ATOM     40  C   UNL A   1      38.400  33.270  35.554  1.00  0.00     0.049 A 
ATOM     41  N   UNL A   1      41.113  32.654  34.360  1.00  0.00    -0.248 NA
ATOM     42  C   UNL A   1      40.147  32.889  32.245  1.00  0.00     0.031 C 
ATOM     43  C   UNL A   1      37.104  33.537  36.174  1.00  0.00     0.029 A 
ATOM     44  N   UNL A   1      39.271  33.180  36.612  1.00  0.00    -0.354 N 
ATOM     45  C   UNL A   1      42.078  32.441  33.382  1.00  0.00     0.074 A 
ATOM     46  C   UNL A   1      41.420  32.560  32.099  1.00  0.00     0.031 C 
ATOM     47  C   UNL A   1      37.257  33.547  37.510  1.00  0.00     0.029 A 
ATOM     48  C   UNL A   1      38.650  33.240  37.836  1.00  0.00     0.049 A 
ATOM     49  H   UNL A   1      40.244  33.082  36.504  1.00  0.00     0.167 HD
ATOM     50  C   UNL A   1      43.391  32.156  33.540  1.00  0.00     0.031 A 
ATOM     51  C   UNL A   1      39.141  33.021  39.072  1.00  0.00     0.031 A 
ATOM     52  C   UNL A   1      44.025  32.019  34.822  1.00  0.00     0.049 A 
ATOM     53  C   UNL A   1      40.595  32.667  39.234  1.00  0.00     0.074 A 
ATOM     54  C   UNL A   1      45.352  31.758  35.103  1.00  0.00     0.029 A 
ATOM     55  N   UNL A   1      43.367  32.122  36.040  1.00  0.00    -0.354 N 
ATOM     56  N   UNL A   1      41.508  32.489  38.307  1.00  0.00    -0.248 NA
ATOM     57  C   UNL A   1      41.089  32.485  40.607  1.00  0.00     0.031 C 
ATOM     58  C   UNL A   1      45.487  31.649  36.491  1.00  0.00     0.029 A 
ATOM     59  C   UNL A   1      44.256  31.907  37.076  1.00  0.00     0.049 A 
ATOM     60  H   UNL A   1      42.408  32.320  36.149  1.00  0.00     0.167 HD
ATOM     61  C   UNL A   1      42.690  32.203  38.984  1.00  0.00     0.074 A 
ATOM     62  C   UNL A   1      42.376  32.232  40.398  1.00  0.00     0.031 C 
ATOM     63  C   UNL A   1      43.923  31.947  38.479  1.00  0.00     0.031 A 
BRANCH  50  64
ATOM     64  C   UNL A   1      44.191  31.907  32.291  1.00  0.00    -0.014 A 
ATOM     65  C   UNL A   1      44.320  30.617  31.744  1.00  0.00     0.010 A 
ATOM     66  C   UNL A   1      44.855  32.982  31.672  1.00  0.00     0.010 A 
ATOM     67  C   UNL A   1      45.154  30.396  30.644  1.00  0.00     0.020 A 
ATOM     68  C   UNL A   1      45.664  32.770  30.553  1.00  0.00     0.020 A 
ATOM     69  C   UNL A   1      45.830  31.473  30.063  1.00  0.00     0.054 A 
BRANCH  69  70
ATOM     70  S   UNL A   1      46.928  31.158  28.655  1.00  0.00     0.124 S 
ATOM     71  O   UNL A   1      46.116  30.262  27.836  1.00  0.00    -0.237 OA
ATOM     72  O   UNL A   1      47.138  32.495  28.105  1.00  0.00    -0.237 OA
ATOM     73  O   UNL A   1      48.106  30.547  29.266  1.00  0.00    -0.744 OA
ENDBRANCH  69  70
ENDBRANCH  50  64
BRANCH  51  74
ATOM     74  C   UNL A   1      38.226  33.102  40.243  1.00  0.00    -0.014 A 
ATOM     75  C   UNL A   1      37.531  31.966  40.689  1.00  0.00     0.010 A 
ATOM     76  C   UNL A   1      38.094  34.308  40.958  1.00  0.00     0.010 A 
ATOM     77  C   UNL A   1      36.733  32.028  41.836  1.00  0.00     0.020 A 
ATOM     78  C   UNL A   1      37.316  34.369  42.118  1.00  0.00     0.020 A 
ATOM     79  C   UNL A   1      36.640  33.227  42.550  1.00  0.00     0.054 A 
BRANCH  79  80
ATOM     80  S   UNL A   1      35.685  33.256  44.093  1.00  0.00     0.124 S 
ATOM     81  O   UNL A   1      35.070  34.579  44.047  1.00  0.00    -0.237 OA
ATOM     82  O   UNL A   1      34.772  32.128  43.918  1.00  0.00    -0.237 OA
ATOM     83  O   UNL A   1      36.699  33.070  45.127  1.00  0.00    -0.744 OA
ENDBRANCH  79  80
ENDBRANCH  51  74
BRANCH  63  84
ATOM     84  C   UNL A   1      45.048  31.721  39.454  1.00  0.00    -0.014 A 
ATOM     85  C   UNL A   1      45.782  32.793  39.987  1.00  0.00     0.010 A 
ATOM     86  C   UNL A   1      45.297  30.417  39.922  1.00  0.00     0.010 A 
ATOM     87  C   UNL A   1      46.753  32.564  40.967  1.00  0.00     0.020 A 
ATOM     88  C   UNL A   1      46.248  30.186  40.919  1.00  0.00     0.020 A 
ATOM     89  C   UNL A   1      46.976  31.262  41.430  1.00  0.00     0.054 A 
BRANCH  89  90
ATOM     90  S   UNL A   1      48.182  31.001  42.760  1.00  0.00     0.124 S 
ATOM     91  O   UNL A   1      49.133  30.087  42.132  1.00  0.00    -0.237 OA
ATOM     92  O   UNL A   1      48.680  32.351  43.011  1.00  0.00    -0.237 OA
ATOM     93  O   UNL A   1      47.387  30.426  43.841  1.00  0.00    -0.744 OA
ENDBRANCH  89  90
ENDBRANCH  63  84
ENDBRANCH  37  38
ENDBRANCH  30  32
ENDBRANCH  29  30
ENDBRANCH  28  29
ENDBRANCH  27  28
ENDBRANCH  26  27
ENDBRANCH  25  26
ENDBRANCH   1  25
TORSDOF 25
ENDMDL
