MODEL 1
REMARK VINA RESULT:      -9.6      0.000      0.000
REMARK SMILES Cc1cc(C)n(C)c(=O)c1C(=O)[NH+]1CCC2(CC1)C[NH2+][C@@H](C(=O)OCCOCCOCCOC(=O)c1ccc(-c3c4nc(c(-c5ccc(S(=O)(=O)[O-])cc5)c5ccc([nH]5)c(-c5ccc(S(=O)(=O)[O-])cc5)c5nc(c(-c6ccc(S(=O)(=O)[O-])cc6)c6ccc3[nH]6)C=C5)C=C4)cc1)C2
REMARK SMILES IDX 29 1 28 2 27 3 26 4 25 5 24 6 22 7 23 8 21 9 13 10 14 11
REMARK SMILES IDX 18 12 15 14 17 15 16 16 19 17 96 18 20 19 11 22 12 23 10 24
REMARK SMILES IDX 1 25 2 26 3 27 4 28 8 29 5 30 6 31 9 32 7 33 30 34 31 35
REMARK SMILES IDX 32 36 33 37 34 38 35 39 36 40 37 41 95 42 38 43 94 44 39 45
REMARK SMILES IDX 40 46 41 47 88 48 42 49 93 50 87 51 89 52 43 53 92 54 86 55
REMARK SMILES IDX 85 56 44 58 74 59 55 60 73 61 56 62 59 63 72 64 90 65 57 66
REMARK SMILES IDX 58 67 71 69 91 70 60 71 45 72 46 73 54 74 47 75 53 76 48 77
REMARK SMILES IDX 49 78 50 79 51 80 52 81 75 82 76 83 84 84 77 85 83 86 78 87
REMARK SMILES IDX 79 88 80 89 81 90 82 91 61 92 62 93 70 94 63 95 69 96 64 97
REMARK SMILES IDX 65 98 66 99 67 100 68 101
REMARK H PARENT 13 13 20 20 20 21 89 57 59 68
REMARK Flexibility Score: inf
ROOT
ATOM      1  C   UNL A   1      41.387  21.516  26.065  1.00  0.00     0.188 C 
ENDROOT
BRANCH   1   2
ATOM      2  C   UNL A   1      40.429  20.471  26.658  1.00  0.00     0.188 C 
BRANCH   2   3
ATOM      3  O   UNL A   1      40.976  19.319  27.291  1.00  0.00    -0.376 OA
BRANCH   3   4
ATOM      4  C   UNL A   1      42.392  19.178  27.354  1.00  0.00     0.202 C 
BRANCH   4   5
ATOM      5  C   UNL A   1      43.041  18.033  26.565  1.00  0.00     0.261 C 
BRANCH   5   6
ATOM      6  O   UNL A   1      43.438  18.380  25.224  1.00  0.00    -0.459 OA
BRANCH   6   7
ATOM      7  C   UNL A   1      44.733  18.769  25.068  1.00  0.00     0.364 C 
ATOM      8  O   UNL A   1      45.704  18.046  25.272  1.00  0.00    -0.245 OA
BRANCH   7   9
ATOM      9  C   UNL A   1      44.898  20.228  24.609  1.00  0.00     0.294 C 
ATOM     10  N   UNL A   1      45.071  25.285  26.191  1.00  0.00    -0.267 N 
ATOM     11  C   UNL A   1      43.994  24.778  25.361  1.00  0.00     0.271 C 
ATOM     12  C   UNL A   1      45.507  24.328  27.191  1.00  0.00     0.271 C 
ATOM     13  H   UNL A   1      46.004  25.120  26.459  1.00  0.00     0.357 HD
ATOM     14  C   UNL A   1      44.576  23.705  24.460  1.00  0.00     0.075 C 
ATOM     15  C   UNL A   1      46.017  23.024  26.555  1.00  0.00     0.075 C 
ATOM     16  C   UNL A   1      45.336  22.578  25.212  1.00  0.00     0.036 C 
ATOM     17  C   UNL A   1      46.370  21.972  24.227  1.00  0.00     0.268 C 
ATOM     18  C   UNL A   1      44.421  21.366  25.502  1.00  0.00     0.090 C 
ATOM     19  N   UNL A   1      46.334  20.537  24.465  1.00  0.00    -0.334 N 
ATOM     20  H   UNL A   1      46.843  20.298  25.317  1.00  0.00     0.347 HD
ATOM     21  H   UNL A   1      46.775  20.005  23.714  1.00  0.00     0.347 HD
BRANCH  10  22
ATOM     22  C   UNL A   1      45.154  26.659  26.373  1.00  0.00     0.350 C 
ATOM     23  O   UNL A   1      44.111  27.313  26.394  1.00  0.00    -0.225 OA
BRANCH  22  24
ATOM     24  C   UNL A   1      46.523  27.340  26.339  1.00  0.00     0.147 A 
ATOM     25  C   UNL A   1      46.583  28.315  28.714  1.00  0.00     0.045 C 
ATOM     26  C   UNL A   1      47.112  28.029  27.347  1.00  0.00    -0.027 A 
ATOM     27  C   UNL A   1      48.448  28.570  27.217  1.00  0.00     0.026 A 
ATOM     28  C   UNL A   1      49.229  28.313  26.164  1.00  0.00     0.018 A 
ATOM     29  C   UNL A   1      47.372  27.139  25.081  1.00  0.00     0.267 A 
ATOM     30  C   UNL A   1      50.633  28.851  26.173  1.00  0.00     0.064 C 
ATOM     31  N   UNL A   1      48.713  27.579  25.110  1.00  0.00    -0.315 N 
ATOM     32  O   UNL A   1      46.909  26.614  24.069  1.00  0.00    -0.268 OA
ATOM     33  C   UNL A   1      49.551  27.268  23.959  1.00  0.00     0.153 C 
ENDBRANCH  22  24
ENDBRANCH  10  22
ENDBRANCH   7   9
ENDBRANCH   6   7
ENDBRANCH   5   6
ENDBRANCH   4   5
ENDBRANCH   3   4
ENDBRANCH   2   3
ENDBRANCH   1   2
BRANCH   1  34
ATOM     34  O   UNL A   1      41.337  22.777  26.690  1.00  0.00    -0.376 OA
BRANCH  34  35
ATOM     35  C   UNL A   1      40.142  23.099  27.369  1.00  0.00     0.202 C 
BRANCH  35  36
ATOM     36  C   UNL A   1      39.094  23.856  26.536  1.00  0.00     0.261 C 
BRANCH  36  37
ATOM     37  O   UNL A   1      38.937  25.262  26.814  1.00  0.00    -0.460 OA
BRANCH  37  38
ATOM     38  C   UNL A   1      40.054  26.031  26.809  1.00  0.00     0.338 C 
ATOM     39  O   UNL A   1      40.827  26.173  25.873  1.00  0.00    -0.246 OA
BRANCH  38  40
ATOM     40  C   UNL A   1      40.033  26.880  28.029  1.00  0.00     0.060 A 
ATOM     41  C   UNL A   1      40.784  28.067  28.053  1.00  0.00     0.016 A 
ATOM     42  C   UNL A   1      39.254  26.528  29.132  1.00  0.00     0.016 A 
ATOM     43  C   UNL A   1      40.765  28.895  29.181  1.00  0.00     0.010 A 
ATOM     44  C   UNL A   1      39.259  27.342  30.271  1.00  0.00     0.010 A 
ATOM     45  C   UNL A   1      40.030  28.518  30.314  1.00  0.00    -0.014 A 
BRANCH  45  46
ATOM     46  C   UNL A   1      40.214  29.233  31.605  1.00  0.00     0.031 A 
ATOM     47  C   UNL A   1      39.245  30.330  31.957  1.00  0.00     0.074 A 
ATOM     48  C   UNL A   1      41.205  28.924  32.461  1.00  0.00     0.049 A 
ATOM     49  N   UNL A   1      39.228  31.125  32.997  1.00  0.00    -0.248 NA
ATOM     50  C   UNL A   1      38.146  30.557  31.005  1.00  0.00     0.031 C 
ATOM     51  C   UNL A   1      42.173  27.845  32.285  1.00  0.00     0.029 A 
ATOM     52  N   UNL A   1      41.556  29.499  33.661  1.00  0.00    -0.354 N 
ATOM     53  C   UNL A   1      38.114  31.940  32.827  1.00  0.00     0.074 A 
ATOM     54  C   UNL A   1      37.512  31.576  31.563  1.00  0.00     0.031 C 
ATOM     55  C   UNL A   1      43.003  27.828  33.344  1.00  0.00     0.029 A 
ATOM     56  C   UNL A   1      42.652  28.920  34.254  1.00  0.00     0.049 A 
ATOM     57  H   UNL A   1      41.067  30.256  34.057  1.00  0.00     0.167 HD
ATOM     58  C   UNL A   1      37.624  32.897  33.652  1.00  0.00     0.031 A 
ATOM     59  C   UNL A   1      43.304  29.236  35.393  1.00  0.00     0.031 A 
ATOM     60  C   UNL A   1      38.242  33.294  34.889  1.00  0.00     0.049 A 
ATOM     61  C   UNL A   1      42.826  30.395  36.231  1.00  0.00     0.074 A 
ATOM     62  C   UNL A   1      37.838  34.274  35.778  1.00  0.00     0.029 A 
ATOM     63  N   UNL A   1      39.403  32.738  35.408  1.00  0.00    -0.354 N 
ATOM     64  N   UNL A   1      41.779  31.166  36.054  1.00  0.00    -0.248 NA
ATOM     65  C   UNL A   1      43.620  30.727  37.425  1.00  0.00     0.031 C 
ATOM     66  C   UNL A   1      38.785  34.352  36.803  1.00  0.00     0.029 A 
ATOM     67  C   UNL A   1      39.743  33.373  36.591  1.00  0.00     0.049 A 
ATOM     68  H   UNL A   1      39.910  32.003  34.995  1.00  0.00     0.167 HD
ATOM     69  C   UNL A   1      41.770  32.052  37.128  1.00  0.00     0.074 A 
ATOM     70  C   UNL A   1      42.914  31.720  37.953  1.00  0.00     0.031 C 
ATOM     71  C   UNL A   1      40.888  33.044  37.406  1.00  0.00     0.031 A 
BRANCH  58  72
ATOM     72  C   UNL A   1      36.365  33.599  33.213  1.00  0.00    -0.014 A 
ATOM     73  C   UNL A   1      36.281  34.210  31.947  1.00  0.00     0.010 A 
ATOM     74  C   UNL A   1      35.254  33.656  34.073  1.00  0.00     0.010 A 
ATOM     75  C   UNL A   1      35.134  34.914  31.575  1.00  0.00     0.020 A 
ATOM     76  C   UNL A   1      34.091  34.331  33.691  1.00  0.00     0.020 A 
ATOM     77  C   UNL A   1      34.049  34.977  32.453  1.00  0.00     0.054 A 
BRANCH  77  78
ATOM     78  S   UNL A   1      32.581  35.916  31.951  1.00  0.00     0.124 S 
ATOM     79  O   UNL A   1      32.817  37.208  32.592  1.00  0.00    -0.237 OA
ATOM     80  O   UNL A   1      32.682  35.909  30.494  1.00  0.00    -0.237 OA
ATOM     81  O   UNL A   1      31.469  35.145  32.500  1.00  0.00    -0.744 OA
ENDBRANCH  77  78
ENDBRANCH  58  72
BRANCH  59  82
ATOM     82  C   UNL A   1      44.469  28.415  35.826  1.00  0.00    -0.014 A 
ATOM     83  C   UNL A   1      45.771  28.779  35.437  1.00  0.00     0.010 A 
ATOM     84  C   UNL A   1      44.294  27.296  36.661  1.00  0.00     0.010 A 
ATOM     85  C   UNL A   1      46.876  28.053  35.891  1.00  0.00     0.020 A 
ATOM     86  C   UNL A   1      45.399  26.581  37.136  1.00  0.00     0.020 A 
ATOM     87  C   UNL A   1      46.684  26.968  36.751  1.00  0.00     0.054 A 
BRANCH  87  88
ATOM     88  S   UNL A   1      48.144  26.112  37.406  1.00  0.00     0.124 S 
ATOM     89  O   UNL A   1      48.290  24.996  36.475  1.00  0.00    -0.237 OA
ATOM     90  O   UNL A   1      49.174  27.145  37.320  1.00  0.00    -0.237 OA
ATOM     91  O   UNL A   1      47.749  25.746  38.764  1.00  0.00    -0.744 OA
ENDBRANCH  87  88
ENDBRANCH  59  82
BRANCH  71  92
ATOM     92  C   UNL A   1      41.092  33.845  38.669  1.00  0.00    -0.014 A 
ATOM     93  C   UNL A   1      41.846  35.031  38.667  1.00  0.00     0.010 A 
ATOM     94  C   UNL A   1      40.436  33.456  39.853  1.00  0.00     0.010 A 
ATOM     95  C   UNL A   1      41.949  35.807  39.827  1.00  0.00     0.020 A 
ATOM     96  C   UNL A   1      40.514  34.241  41.006  1.00  0.00     0.020 A 
ATOM     97  C   UNL A   1      41.277  35.410  40.987  1.00  0.00     0.054 A 
BRANCH  97  98
ATOM     98  S   UNL A   1      41.372  36.473  42.456  1.00  0.00     0.124 S 
ATOM     99  O   UNL A   1      40.190  37.315  42.300  1.00  0.00    -0.237 OA
ATOM    100  O   UNL A   1      41.316  35.508  43.551  1.00  0.00    -0.237 OA
ATOM    101  O   UNL A   1      42.652  37.163  42.305  1.00  0.00    -0.744 OA
ENDBRANCH  97  98
ENDBRANCH  71  92
ENDBRANCH  45  46
ENDBRANCH  38  40
ENDBRANCH  37  38
ENDBRANCH  36  37
ENDBRANCH  35  36
ENDBRANCH  34  35
ENDBRANCH   1  34
TORSDOF 22
ENDMDL
MODEL 2
REMARK VINA RESULT:      -9.3      5.048      6.628
REMARK SMILES Cc1cc(C)n(C)c(=O)c1C(=O)[NH+]1CCC2(CC1)C[NH2+][C@@H](C(=O)OCCOCCOCCOC(=O)c1ccc(-c3c4nc(c(-c5ccc(S(=O)(=O)[O-])cc5)c5ccc([nH]5)c(-c5ccc(S(=O)(=O)[O-])cc5)c5nc(c(-c6ccc(S(=O)(=O)[O-])cc6)c6ccc3[nH]6)C=C5)C=C4)cc1)C2
REMARK SMILES IDX 29 1 28 2 27 3 26 4 25 5 24 6 22 7 23 8 21 9 13 10 14 11
REMARK SMILES IDX 18 12 15 14 17 15 16 16 19 17 96 18 20 19 11 22 12 23 10 24
REMARK SMILES IDX 1 25 2 26 3 27 4 28 8 29 5 30 6 31 9 32 7 33 30 34 31 35
REMARK SMILES IDX 32 36 33 37 34 38 35 39 36 40 37 41 95 42 38 43 94 44 39 45
REMARK SMILES IDX 40 46 41 47 88 48 42 49 93 50 87 51 89 52 43 53 92 54 86 55
REMARK SMILES IDX 85 56 44 58 74 59 55 60 73 61 56 62 59 63 72 64 90 65 57 66
REMARK SMILES IDX 58 67 71 69 91 70 60 71 45 72 46 73 54 74 47 75 53 76 48 77
REMARK SMILES IDX 49 78 50 79 51 80 52 81 75 82 76 83 84 84 77 85 83 86 78 87
REMARK SMILES IDX 79 88 80 89 81 90 82 91 61 92 62 93 70 94 63 95 69 96 64 97
REMARK SMILES IDX 65 98 66 99 67 100 68 101
REMARK H PARENT 13 13 20 20 20 21 89 57 59 68
REMARK Flexibility Score: inf
ROOT
ATOM      1  C   UNL A   1      41.315  22.132  26.120  1.00  0.00     0.188 C 
ENDROOT
BRANCH   1   2
ATOM      2  C   UNL A   1      40.206  21.151  26.532  1.00  0.00     0.188 C 
BRANCH   2   3
ATOM      3  O   UNL A   1      40.566  19.830  26.920  1.00  0.00    -0.376 OA
BRANCH   3   4
ATOM      4  C   UNL A   1      41.898  19.584  27.360  1.00  0.00     0.202 C 
BRANCH   4   5
ATOM      5  C   UNL A   1      42.651  18.389  26.758  1.00  0.00     0.261 C 
BRANCH   5   6
ATOM      6  O   UNL A   1      43.086  18.581  25.398  1.00  0.00    -0.459 OA
BRANCH   6   7
ATOM      7  C   UNL A   1      44.417  18.805  25.224  1.00  0.00     0.364 C 
ATOM      8  O   UNL A   1      45.294  17.972  25.435  1.00  0.00    -0.245 OA
BRANCH   7   9
ATOM      9  C   UNL A   1      44.756  20.224  24.737  1.00  0.00     0.294 C 
ATOM     10  N   UNL A   1      44.824  25.362  26.038  1.00  0.00    -0.267 N 
ATOM     11  C   UNL A   1      43.938  24.843  25.012  1.00  0.00     0.271 C 
ATOM     12  C   UNL A   1      44.972  24.457  27.162  1.00  0.00     0.271 C 
ATOM     13  H   UNL A   1      45.662  25.181  26.520  1.00  0.00     0.357 HD
ATOM     14  C   UNL A   1      44.654  23.694  24.328  1.00  0.00     0.075 C 
ATOM     15  C   UNL A   1      45.546  23.097  26.731  1.00  0.00     0.075 C 
ATOM     16  C   UNL A   1      45.166  22.590  25.294  1.00  0.00     0.036 C 
ATOM     17  C   UNL A   1      46.363  21.884  24.607  1.00  0.00     0.268 C 
ATOM     18  C   UNL A   1      44.148  21.435  25.433  1.00  0.00     0.090 C 
ATOM     19  N   UNL A   1      46.202  20.469  24.909  1.00  0.00    -0.334 N 
ATOM     20  H   UNL A   1      46.492  20.268  25.866  1.00  0.00     0.347 HD
ATOM     21  H   UNL A   1      46.774  19.874  24.309  1.00  0.00     0.347 HD
BRANCH  10  22
ATOM     22  C   UNL A   1      44.933  26.742  26.158  1.00  0.00     0.350 C 
ATOM     23  O   UNL A   1      43.922  27.427  26.006  1.00  0.00    -0.225 OA
BRANCH  22  24
ATOM     24  C   UNL A   1      46.319  27.378  26.273  1.00  0.00     0.147 A 
ATOM     25  C   UNL A   1      46.046  28.616  28.507  1.00  0.00     0.045 C 
ATOM     26  C   UNL A   1      46.772  28.162  27.282  1.00  0.00    -0.027 A 
ATOM     27  C   UNL A   1      48.134  28.649  27.312  1.00  0.00     0.026 A 
ATOM     28  C   UNL A   1      49.058  28.254  26.434  1.00  0.00     0.018 A 
ATOM     29  C   UNL A   1      47.347  27.013  25.198  1.00  0.00     0.267 A 
ATOM     30  C   UNL A   1      50.466  28.752  26.612  1.00  0.00     0.064 C 
ATOM     31  N   UNL A   1      48.684  27.417  25.397  1.00  0.00    -0.315 N 
ATOM     32  O   UNL A   1      47.026  26.388  24.188  1.00  0.00    -0.268 OA
ATOM     33  C   UNL A   1      49.679  26.955  24.437  1.00  0.00     0.153 C 
ENDBRANCH  22  24
ENDBRANCH  10  22
ENDBRANCH   7   9
ENDBRANCH   6   7
ENDBRANCH   5   6
ENDBRANCH   4   5
ENDBRANCH   3   4
ENDBRANCH   2   3
ENDBRANCH   1   2
BRANCH   1  34
ATOM     34  O   UNL A   1      41.400  23.289  26.918  1.00  0.00    -0.376 OA
BRANCH  34  35
ATOM     35  C   UNL A   1      40.384  23.466  27.882  1.00  0.00     0.202 C 
BRANCH  35  36
ATOM     36  C   UNL A   1      39.353  24.562  27.559  1.00  0.00     0.261 C 
BRANCH  36  37
ATOM     37  O   UNL A   1      39.655  25.894  28.022  1.00  0.00    -0.460 OA
BRANCH  37  38
ATOM     38  C   UNL A   1      40.580  26.603  27.330  1.00  0.00     0.338 C 
ATOM     39  O   UNL A   1      40.893  26.432  26.161  1.00  0.00    -0.246 OA
BRANCH  38  40
ATOM     40  C   UNL A   1      40.951  27.792  28.141  1.00  0.00     0.060 A 
ATOM     41  C   UNL A   1      40.144  28.941  28.086  1.00  0.00     0.016 A 
ATOM     42  C   UNL A   1      42.068  27.766  28.977  1.00  0.00     0.016 A 
ATOM     43  C   UNL A   1      40.460  30.065  28.856  1.00  0.00     0.010 A 
ATOM     44  C   UNL A   1      42.399  28.903  29.725  1.00  0.00     0.010 A 
ATOM     45  C   UNL A   1      41.613  30.067  29.653  1.00  0.00    -0.014 A 
BRANCH  45  46
ATOM     46  C   UNL A   1      42.111  31.332  30.258  1.00  0.00     0.031 A 
ATOM     47  C   UNL A   1      41.474  31.812  31.535  1.00  0.00     0.074 A 
ATOM     48  C   UNL A   1      43.110  32.045  29.706  1.00  0.00     0.049 A 
ATOM     49  N   UNL A   1      41.701  32.903  32.220  1.00  0.00    -0.248 NA
ATOM     50  C   UNL A   1      40.440  30.938  32.114  1.00  0.00     0.031 C 
ATOM     51  C   UNL A   1      43.863  31.669  28.513  1.00  0.00     0.029 A 
ATOM     52  N   UNL A   1      43.662  33.245  30.089  1.00  0.00    -0.354 N 
ATOM     53  C   UNL A   1      40.846  32.843  33.316  1.00  0.00     0.074 A 
ATOM     54  C   UNL A   1      40.063  31.635  33.175  1.00  0.00     0.031 C 
ATOM     55  C   UNL A   1      44.788  32.615  28.267  1.00  0.00     0.029 A 
ATOM     56  C   UNL A   1      44.667  33.683  29.260  1.00  0.00     0.049 A 
ATOM     57  H   UNL A   1      43.366  33.744  30.884  1.00  0.00     0.167 HD
ATOM     58  C   UNL A   1      40.729  33.705  34.354  1.00  0.00     0.031 A 
ATOM     59  C   UNL A   1      45.399  34.817  29.290  1.00  0.00     0.031 A 
ATOM     60  C   UNL A   1      41.473  34.930  34.478  1.00  0.00     0.049 A 
ATOM     61  C   UNL A   1      45.159  35.834  30.378  1.00  0.00     0.074 A 
ATOM     62  C   UNL A   1      41.401  35.883  35.477  1.00  0.00     0.029 A 
ATOM     63  N   UNL A   1      42.418  35.377  33.566  1.00  0.00    -0.354 N 
ATOM     64  N   UNL A   1      44.339  35.771  31.400  1.00  0.00    -0.248 NA
ATOM     65  C   UNL A   1      45.945  37.076  30.315  1.00  0.00     0.031 C 
ATOM     66  C   UNL A   1      42.259  36.935  35.142  1.00  0.00     0.029 A 
ATOM     67  C   UNL A   1      42.918  36.605  33.967  1.00  0.00     0.049 A 
ATOM     68  H   UNL A   1      42.692  34.894  32.754  1.00  0.00     0.167 HD
ATOM     69  C   UNL A   1      44.533  36.948  32.119  1.00  0.00     0.074 A 
ATOM     70  C   UNL A   1      45.550  37.704  31.416  1.00  0.00     0.031 C 
ATOM     71  C   UNL A   1      43.926  37.358  33.261  1.00  0.00     0.031 A 
BRANCH  58  72
ATOM     72  C   UNL A   1      39.727  33.354  35.424  1.00  0.00    -0.014 A 
ATOM     73  C   UNL A   1      38.392  33.790  35.336  1.00  0.00     0.010 A 
ATOM     74  C   UNL A   1      40.122  32.584  36.533  1.00  0.00     0.010 A 
ATOM     75  C   UNL A   1      37.488  33.516  36.364  1.00  0.00     0.020 A 
ATOM     76  C   UNL A   1      39.211  32.278  37.548  1.00  0.00     0.020 A 
ATOM     77  C   UNL A   1      37.906  32.767  37.468  1.00  0.00     0.054 A 
BRANCH  77  78
ATOM     78  S   UNL A   1      36.715  32.445  38.798  1.00  0.00     0.124 S 
ATOM     79  O   UNL A   1      36.664  30.985  38.809  1.00  0.00    -0.237 OA
ATOM     80  O   UNL A   1      37.358  33.060  39.956  1.00  0.00    -0.237 OA
ATOM     81  O   UNL A   1      35.496  33.106  38.341  1.00  0.00    -0.744 OA
ENDBRANCH  77  78
ENDBRANCH  58  72
BRANCH  59  82
ATOM     82  C   UNL A   1      46.459  35.036  28.266  1.00  0.00    -0.014 A 
ATOM     83  C   UNL A   1      46.151  35.700  27.065  1.00  0.00     0.010 A 
ATOM     84  C   UNL A   1      47.784  34.625  28.499  1.00  0.00     0.010 A 
ATOM     85  C   UNL A   1      47.152  35.967  26.126  1.00  0.00     0.020 A 
ATOM     86  C   UNL A   1      48.793  34.912  27.572  1.00  0.00     0.020 A 
ATOM     87  C   UNL A   1      48.470  35.585  26.393  1.00  0.00     0.054 A 
BRANCH  87  88
ATOM     88  S   UNL A   1      49.763  36.040  25.203  1.00  0.00     0.124 S 
ATOM     89  O   UNL A   1      50.002  34.777  24.512  1.00  0.00    -0.237 OA
ATOM     90  O   UNL A   1      49.105  37.078  24.412  1.00  0.00    -0.237 OA
ATOM     91  O   UNL A   1      50.858  36.509  26.047  1.00  0.00    -0.744 OA
ENDBRANCH  87  88
ENDBRANCH  59  82
BRANCH  71  92
ATOM     92  C   UNL A   1      44.350  38.678  33.857  1.00  0.00    -0.014 A 
ATOM     93  C   UNL A   1      45.566  38.808  34.550  1.00  0.00     0.010 A 
ATOM     94  C   UNL A   1      43.567  39.827  33.633  1.00  0.00     0.010 A 
ATOM     95  C   UNL A   1      45.984  40.059  35.018  1.00  0.00     0.020 A 
ATOM     96  C   UNL A   1      43.994  41.082  34.074  1.00  0.00     0.020 A 
ATOM     97  C   UNL A   1      45.199  41.189  34.771  1.00  0.00     0.054 A 
BRANCH  97  98
ATOM     98  S   UNL A   1      45.801  42.808  35.328  1.00  0.00     0.124 S 
ATOM     99  O   UNL A   1      46.482  43.306  34.136  1.00  0.00    -0.237 OA
ATOM    100  O   UNL A   1      44.566  43.502  35.683  1.00  0.00    -0.237 OA
ATOM    101  O   UNL A   1      46.676  42.486  36.454  1.00  0.00    -0.744 OA
ENDBRANCH  97  98
ENDBRANCH  71  92
ENDBRANCH  45  46
ENDBRANCH  38  40
ENDBRANCH  37  38
ENDBRANCH  36  37
ENDBRANCH  35  36
ENDBRANCH  34  35
ENDBRANCH   1  34
TORSDOF 22
ENDMDL
MODEL 3
REMARK VINA RESULT:      -9.0      5.422      7.326
REMARK SMILES Cc1cc(C)n(C)c(=O)c1C(=O)[NH+]1CCC2(CC1)C[NH2+][C@@H](C(=O)OCCOCCOCCOC(=O)c1ccc(-c3c4nc(c(-c5ccc(S(=O)(=O)[O-])cc5)c5ccc([nH]5)c(-c5ccc(S(=O)(=O)[O-])cc5)c5nc(c(-c6ccc(S(=O)(=O)[O-])cc6)c6ccc3[nH]6)C=C5)C=C4)cc1)C2
REMARK SMILES IDX 29 1 28 2 27 3 26 4 25 5 24 6 22 7 23 8 21 9 13 10 14 11
REMARK SMILES IDX 18 12 15 14 17 15 16 16 19 17 96 18 20 19 11 22 12 23 10 24
REMARK SMILES IDX 1 25 2 26 3 27 4 28 8 29 5 30 6 31 9 32 7 33 30 34 31 35
REMARK SMILES IDX 32 36 33 37 34 38 35 39 36 40 37 41 95 42 38 43 94 44 39 45
REMARK SMILES IDX 40 46 41 47 88 48 42 49 93 50 87 51 89 52 43 53 92 54 86 55
REMARK SMILES IDX 85 56 44 58 74 59 55 60 73 61 56 62 59 63 72 64 90 65 57 66
REMARK SMILES IDX 58 67 71 69 91 70 60 71 45 72 46 73 54 74 47 75 53 76 48 77
REMARK SMILES IDX 49 78 50 79 51 80 52 81 75 82 76 83 84 84 77 85 83 86 78 87
REMARK SMILES IDX 79 88 80 89 81 90 82 91 61 92 62 93 70 94 63 95 69 96 64 97
REMARK SMILES IDX 65 98 66 99 67 100 68 101
REMARK H PARENT 13 13 20 20 20 21 89 57 59 68
REMARK Flexibility Score: inf
ROOT
ATOM      1  C   UNL A   1      41.445  21.918  26.129  1.00  0.00     0.188 C 
ENDROOT
BRANCH   1   2
ATOM      2  C   UNL A   1      40.285  20.984  26.508  1.00  0.00     0.188 C 
BRANCH   2   3
ATOM      3  O   UNL A   1      40.582  19.672  26.973  1.00  0.00    -0.376 OA
BRANCH   3   4
ATOM      4  C   UNL A   1      41.902  19.388  27.424  1.00  0.00     0.202 C 
BRANCH   4   5
ATOM      5  C   UNL A   1      42.619  18.163  26.840  1.00  0.00     0.261 C 
BRANCH   5   6
ATOM      6  O   UNL A   1      43.115  18.343  25.500  1.00  0.00    -0.459 OA
BRANCH   6   7
ATOM      7  C   UNL A   1      44.454  18.556  25.383  1.00  0.00     0.364 C 
ATOM      8  O   UNL A   1      45.317  17.759  25.740  1.00  0.00    -0.245 OA
BRANCH   7   9
ATOM      9  C   UNL A   1      44.821  19.914  24.760  1.00  0.00     0.294 C 
ATOM     10  N   UNL A   1      45.198  25.130  25.625  1.00  0.00    -0.267 N 
ATOM     11  C   UNL A   1      44.224  24.574  24.703  1.00  0.00     0.271 C 
ATOM     12  C   UNL A   1      45.381  24.311  26.808  1.00  0.00     0.271 C 
ATOM     13  H   UNL A   1      46.058  24.948  26.067  1.00  0.00     0.357 HD
ATOM     14  C   UNL A   1      44.842  23.341  24.073  1.00  0.00     0.075 C 
ATOM     15  C   UNL A   1      45.866  22.895  26.457  1.00  0.00     0.075 C 
ATOM     16  C   UNL A   1      45.369  22.294  25.093  1.00  0.00     0.036 C 
ATOM     17  C   UNL A   1      46.486  21.478  24.393  1.00  0.00     0.268 C 
ATOM     18  C   UNL A   1      44.314  21.204  25.390  1.00  0.00     0.090 C 
ATOM     19  N   UNL A   1      46.284  20.101  24.820  1.00  0.00    -0.334 N 
ATOM     20  H   UNL A   1      46.628  19.963  25.770  1.00  0.00     0.347 HD
ATOM     21  H   UNL A   1      46.788  19.433  24.236  1.00  0.00     0.347 HD
BRANCH  10  22
ATOM     22  C   UNL A   1      45.374  26.508  25.624  1.00  0.00     0.350 C 
ATOM     23  O   UNL A   1      44.441  27.219  25.252  1.00  0.00    -0.225 OA
BRANCH  22  24
ATOM     24  C   UNL A   1      46.765  27.087  25.887  1.00  0.00     0.147 A 
ATOM     25  C   UNL A   1      46.619  27.435  28.427  1.00  0.00     0.045 C 
ATOM     26  C   UNL A   1      47.275  27.465  27.085  1.00  0.00    -0.027 A 
ATOM     27  C   UNL A   1      48.637  27.934  27.216  1.00  0.00     0.026 A 
ATOM     28  C   UNL A   1      49.511  27.898  26.207  1.00  0.00     0.018 A 
ATOM     29  C   UNL A   1      47.731  27.151  24.700  1.00  0.00     0.267 A 
ATOM     30  C   UNL A   1      50.927  28.326  26.477  1.00  0.00     0.064 C 
ATOM     31  N   UNL A   1      49.077  27.483  24.959  1.00  0.00    -0.315 N 
ATOM     32  O   UNL A   1      47.353  26.925  23.551  1.00  0.00    -0.268 OA
ATOM     33  C   UNL A   1      50.016  27.415  23.847  1.00  0.00     0.153 C 
ENDBRANCH  22  24
ENDBRANCH  10  22
ENDBRANCH   7   9
ENDBRANCH   6   7
ENDBRANCH   5   6
ENDBRANCH   4   5
ENDBRANCH   3   4
ENDBRANCH   2   3
ENDBRANCH   1   2
BRANCH   1  34
ATOM     34  O   UNL A   1      41.315  23.237  26.606  1.00  0.00    -0.376 OA
BRANCH  34  35
ATOM     35  C   UNL A   1      40.324  23.459  27.586  1.00  0.00     0.202 C 
BRANCH  35  36
ATOM     36  C   UNL A   1      39.502  24.747  27.412  1.00  0.00     0.261 C 
BRANCH  36  37
ATOM     37  O   UNL A   1      40.210  25.994  27.567  1.00  0.00    -0.460 OA
BRANCH  37  38
ATOM     38  C   UNL A   1      40.997  26.399  26.541  1.00  0.00     0.338 C 
ATOM     39  O   UNL A   1      40.935  26.005  25.385  1.00  0.00    -0.246 OA
BRANCH  38  40
ATOM     40  C   UNL A   1      41.760  27.593  26.989  1.00  0.00     0.060 A 
ATOM     41  C   UNL A   1      42.633  27.481  28.084  1.00  0.00     0.016 A 
ATOM     42  C   UNL A   1      41.641  28.811  26.317  1.00  0.00     0.016 A 
ATOM     43  C   UNL A   1      43.377  28.586  28.512  1.00  0.00     0.010 A 
ATOM     44  C   UNL A   1      42.364  29.922  26.765  1.00  0.00     0.010 A 
ATOM     45  C   UNL A   1      43.220  29.825  27.878  1.00  0.00    -0.014 A 
BRANCH  45  46
ATOM     46  C   UNL A   1      43.786  31.061  28.483  1.00  0.00     0.031 A 
ATOM     47  C   UNL A   1      43.053  31.691  29.638  1.00  0.00     0.074 A 
ATOM     48  C   UNL A   1      44.927  31.619  28.038  1.00  0.00     0.049 A 
ATOM     49  N   UNL A   1      43.321  32.790  30.295  1.00  0.00    -0.248 NA
ATOM     50  C   UNL A   1      41.855  30.979  30.113  1.00  0.00     0.031 C 
ATOM     51  C   UNL A   1      45.776  31.084  26.978  1.00  0.00     0.029 A 
ATOM     52  N   UNL A   1      45.567  32.769  28.435  1.00  0.00    -0.354 N 
ATOM     53  C   UNL A   1      42.331  32.898  31.265  1.00  0.00     0.074 A 
ATOM     54  C   UNL A   1      41.432  31.781  31.078  1.00  0.00     0.031 C 
ATOM     55  C   UNL A   1      46.833  31.900  26.814  1.00  0.00     0.029 A 
ATOM     56  C   UNL A   1      46.716  33.036  27.729  1.00  0.00     0.049 A 
ATOM     57  H   UNL A   1      45.234  33.349  29.157  1.00  0.00     0.167 HD
ATOM     58  C   UNL A   1      42.187  33.832  32.236  1.00  0.00     0.031 A 
ATOM     59  C   UNL A   1      47.571  34.078  27.803  1.00  0.00     0.031 A 
ATOM     60  C   UNL A   1      43.052  34.969  32.400  1.00  0.00     0.049 A 
ATOM     61  C   UNL A   1      47.319  35.183  28.799  1.00  0.00     0.074 A 
ATOM     62  C   UNL A   1      42.969  35.987  33.334  1.00  0.00     0.029 A 
ATOM     63  N   UNL A   1      44.155  35.247  31.604  1.00  0.00    -0.354 N 
ATOM     64  N   UNL A   1      46.372  35.279  29.703  1.00  0.00    -0.248 NA
ATOM     65  C   UNL A   1      48.251  36.320  28.783  1.00  0.00     0.031 C 
ATOM     66  C   UNL A   1      43.985  36.909  33.068  1.00  0.00     0.029 A 
ATOM     67  C   UNL A   1      44.745  36.433  32.010  1.00  0.00     0.049 A 
ATOM     68  H   UNL A   1      44.470  34.684  30.861  1.00  0.00     0.167 HD
ATOM     69  C   UNL A   1      46.613  36.470  30.384  1.00  0.00     0.074 A 
ATOM     70  C   UNL A   1      47.797  37.059  29.790  1.00  0.00     0.031 C 
ATOM     71  C   UNL A   1      45.919  37.019  31.412  1.00  0.00     0.031 A 
BRANCH  58  72
ATOM     72  C   UNL A   1      41.020  33.667  33.176  1.00  0.00    -0.014 A 
ATOM     73  C   UNL A   1      41.171  32.999  34.406  1.00  0.00     0.010 A 
ATOM     74  C   UNL A   1      39.758  34.178  32.827  1.00  0.00     0.010 A 
ATOM     75  C   UNL A   1      40.070  32.793  35.239  1.00  0.00     0.020 A 
ATOM     76  C   UNL A   1      38.660  34.004  33.675  1.00  0.00     0.020 A 
ATOM     77  C   UNL A   1      38.819  33.291  34.865  1.00  0.00     0.054 A 
BRANCH  77  78
ATOM     78  S   UNL A   1      37.404  32.990  35.958  1.00  0.00     0.124 S 
ATOM     79  O   UNL A   1      37.712  33.852  37.096  1.00  0.00    -0.237 OA
ATOM     80  O   UNL A   1      36.272  33.412  35.137  1.00  0.00    -0.237 OA
ATOM     81  O   UNL A   1      37.472  31.556  36.229  1.00  0.00    -0.744 OA
ENDBRANCH  77  78
ENDBRANCH  58  72
BRANCH  59  82
ATOM     82  C   UNL A   1      48.772  34.109  26.923  1.00  0.00    -0.014 A 
ATOM     83  C   UNL A   1      49.898  33.329  27.241  1.00  0.00     0.010 A 
ATOM     84  C   UNL A   1      48.785  34.877  25.744  1.00  0.00     0.010 A 
ATOM     85  C   UNL A   1      51.006  33.302  26.388  1.00  0.00     0.020 A 
ATOM     86  C   UNL A   1      49.882  34.833  24.877  1.00  0.00     0.020 A 
ATOM     87  C   UNL A   1      50.984  34.042  25.203  1.00  0.00     0.054 A 
BRANCH  87  88
ATOM     88  S   UNL A   1      52.392  33.902  24.066  1.00  0.00     0.124 S 
ATOM     89  O   UNL A   1      51.994  32.780  23.221  1.00  0.00    -0.237 OA
ATOM     90  O   UNL A   1      52.399  35.211  23.419  1.00  0.00    -0.237 OA
ATOM     91  O   UNL A   1      53.525  33.646  24.952  1.00  0.00    -0.744 OA
ENDBRANCH  87  88
ENDBRANCH  59  82
BRANCH  71  92
ATOM     92  C   UNL A   1      46.420  38.317  31.996  1.00  0.00    -0.014 A 
ATOM     93  C   UNL A   1      45.940  39.556  31.540  1.00  0.00     0.010 A 
ATOM     94  C   UNL A   1      47.311  38.290  33.087  1.00  0.00     0.010 A 
ATOM     95  C   UNL A   1      46.350  40.744  32.156  1.00  0.00     0.020 A 
ATOM     96  C   UNL A   1      47.702  39.472  33.722  1.00  0.00     0.020 A 
ATOM     97  C   UNL A   1      47.223  40.694  33.247  1.00  0.00     0.054 A 
BRANCH  97  98
ATOM     98  S   UNL A   1      47.681  42.246  34.068  1.00  0.00     0.124 S 
ATOM     99  O   UNL A   1      49.067  42.419  33.642  1.00  0.00    -0.237 OA
ATOM    100  O   UNL A   1      46.727  43.198  33.505  1.00  0.00    -0.237 OA
ATOM    101  O   UNL A   1      47.499  41.957  35.489  1.00  0.00    -0.744 OA
ENDBRANCH  97  98
ENDBRANCH  71  92
ENDBRANCH  45  46
ENDBRANCH  38  40
ENDBRANCH  37  38
ENDBRANCH  36  37
ENDBRANCH  35  36
ENDBRANCH  34  35
ENDBRANCH   1  34
TORSDOF 22
ENDMDL
