MODEL 1
REMARK VINA RESULT:     -10.3      0.000      0.000
REMARK SMILES CCCc1cc(OC(F)(F)F)cc2c1O[C@H](C(F)(F)F)C(C(=O)OCCOCCOCCOC(=O)c1ccc(-c3c4nc(c(-c5ccc(S(=O)(=O)[O-])cc5)c5ccc([nH]5)c(-c5ccc(S(=O)(=O)[O-])cc5)c5nc(c(-c6ccc(S(=O)(=O)[O-])cc6)c6ccc3[nH]6)C=C5)C=C4)cc1)=C2
REMARK SMILES IDX 29 1 28 2 27 3 26 4 25 5 24 6 22 7 23 8 21 9 4 10 5 11 14 12
REMARK SMILES IDX 6 13 13 14 15 15 12 16 96 17 16 18 3 19 2 20 1 21 7 22 8 23
REMARK SMILES IDX 9 24 10 25 11 26 17 27 18 28 19 29 20 30 30 31 31 32 32 33
REMARK SMILES IDX 33 34 34 35 35 36 36 37 37 38 95 39 38 40 94 41 39 42 40 43
REMARK SMILES IDX 41 44 88 45 42 46 93 47 87 48 89 49 43 50 92 51 86 52 85 53
REMARK SMILES IDX 44 55 74 56 55 57 73 58 56 59 59 60 72 61 90 62 57 63 58 64
REMARK SMILES IDX 71 66 91 67 60 68 45 69 46 70 54 71 47 72 53 73 48 74 49 75
REMARK SMILES IDX 50 76 51 77 52 78 75 79 76 80 84 81 77 82 83 83 78 84 79 85
REMARK SMILES IDX 80 86 81 87 82 88 61 89 62 90 70 91 63 92 69 93 64 94 65 95
REMARK SMILES IDX 66 96 67 97 68 98
REMARK H PARENT 89 54 59 65
REMARK Flexibility Score: inf
ROOT
ATOM      1  C   UNL A   1      36.744  21.553  24.402  1.00  0.00     0.188 C 
ENDROOT
BRANCH   1   2
ATOM      2  C   UNL A   1      35.295  21.776  24.888  1.00  0.00     0.188 C 
BRANCH   2   3
ATOM      3  O   UNL A   1      34.459  20.659  25.157  1.00  0.00    -0.376 OA
BRANCH   3   4
ATOM      4  C   UNL A   1      33.259  20.838  25.892  1.00  0.00     0.202 C 
BRANCH   4   5
ATOM      5  C   UNL A   1      31.978  21.332  25.199  1.00  0.00     0.261 C 
BRANCH   5   6
ATOM      6  O   UNL A   1      31.988  22.702  24.757  1.00  0.00    -0.460 OA
BRANCH   6   7
ATOM      7  C   UNL A   1      31.317  23.572  25.552  1.00  0.00     0.338 C 
ATOM      8  O   UNL A   1      30.827  23.317  26.640  1.00  0.00    -0.246 OA
BRANCH   7   9
ATOM      9  C   UNL A   1      31.326  24.947  25.011  1.00  0.00     0.087 C 
ATOM     10  C   UNL A   1      31.240  29.101  24.633  1.00  0.00    -0.002 A 
ATOM     11  C   UNL A   1      30.247  29.682  23.834  1.00  0.00     0.054 A 
ATOM     12  C   UNL A   1      31.237  27.705  24.755  1.00  0.00     0.131 A 
ATOM     13  C   UNL A   1      29.347  28.903  23.100  1.00  0.00     0.130 A 
ATOM     14  C   UNL A   1      30.330  26.899  24.045  1.00  0.00     0.021 A 
ATOM     15  O   UNL A   1      32.094  27.162  25.677  1.00  0.00    -0.475 OA
ATOM     16  C   UNL A   1      29.405  27.508  23.195  1.00  0.00     0.058 A 
ATOM     17  C   UNL A   1      30.298  25.456  24.312  1.00  0.00     0.027 C 
ATOM     18  C   UNL A   1      32.509  25.808  25.398  1.00  0.00     0.316 C 
BRANCH  10  19
ATOM     19  C   UNL A   1      32.229  29.953  25.406  1.00  0.00     0.039 C 
BRANCH  19  20
ATOM     20  C   UNL A   1      31.710  30.628  26.685  1.00  0.00     0.001 C 
ATOM     21  C   UNL A   1      31.342  32.098  26.533  1.00  0.00     0.004 C 
ENDBRANCH  19  20
ENDBRANCH  10  19
BRANCH  13  22
ATOM     22  O   UNL A   1      28.358  29.386  22.286  1.00  0.00    -0.406 OA
BRANCH  22  23
ATOM     23  C   UNL A   1      28.166  30.793  22.253  1.00  0.00     0.573 C 
ATOM     24  F   UNL A   1      27.327  31.195  23.234  1.00  0.00    -0.132 F 
ATOM     25  F   UNL A   1      29.339  31.453  22.362  1.00  0.00    -0.132 F 
ATOM     26  F   UNL A   1      27.607  31.128  21.069  1.00  0.00    -0.132 F 
ENDBRANCH  22  23
ENDBRANCH  13  22
BRANCH  18  27
ATOM     27  C   UNL A   1      33.648  25.808  24.358  1.00  0.00     0.430 C 
ATOM     28  F   UNL A   1      33.472  24.876  23.388  1.00  0.00    -0.167 F 
ATOM     29  F   UNL A   1      33.770  27.003  23.736  1.00  0.00    -0.167 F 
ATOM     30  F   UNL A   1      34.846  25.545  24.929  1.00  0.00    -0.167 F 
ENDBRANCH  18  27
ENDBRANCH   7   9
ENDBRANCH   6   7
ENDBRANCH   5   6
ENDBRANCH   4   5
ENDBRANCH   3   4
ENDBRANCH   2   3
ENDBRANCH   1   2
BRANCH   1  31
ATOM     31  O   UNL A   1      37.678  22.444  24.962  1.00  0.00    -0.376 OA
BRANCH  31  32
ATOM     32  C   UNL A   1      38.727  21.933  25.762  1.00  0.00     0.202 C 
BRANCH  32  33
ATOM     33  C   UNL A   1      39.326  20.516  25.630  1.00  0.00     0.261 C 
BRANCH  33  34
ATOM     34  O   UNL A   1      40.211  20.045  26.651  1.00  0.00    -0.460 OA
BRANCH  34  35
ATOM     35  C   UNL A   1      41.490  19.801  26.294  1.00  0.00     0.338 C 
ATOM     36  O   UNL A   1      41.916  18.800  25.731  1.00  0.00    -0.246 OA
BRANCH  35  37
ATOM     37  C   UNL A   1      42.287  21.018  26.542  1.00  0.00     0.060 A 
ATOM     38  C   UNL A   1      42.545  21.407  27.862  1.00  0.00     0.016 A 
ATOM     39  C   UNL A   1      42.770  21.781  25.475  1.00  0.00     0.016 A 
ATOM     40  C   UNL A   1      43.277  22.569  28.122  1.00  0.00     0.010 A 
ATOM     41  C   UNL A   1      43.481  22.958  25.738  1.00  0.00     0.010 A 
ATOM     42  C   UNL A   1      43.721  23.370  27.062  1.00  0.00    -0.014 A 
BRANCH  42  43
ATOM     43  C   UNL A   1      44.280  24.721  27.325  1.00  0.00     0.031 A 
ATOM     44  C   UNL A   1      43.335  25.820  27.732  1.00  0.00     0.074 A 
ATOM     45  C   UNL A   1      45.596  24.977  27.212  1.00  0.00     0.049 A 
ATOM     46  N   UNL A   1      43.572  27.093  27.917  1.00  0.00    -0.248 NA
ATOM     47  C   UNL A   1      41.936  25.427  27.961  1.00  0.00     0.031 C 
ATOM     48  C   UNL A   1      46.629  23.990  26.898  1.00  0.00     0.029 A 
ATOM     49  N   UNL A   1      46.288  26.158  27.340  1.00  0.00    -0.354 N 
ATOM     50  C   UNL A   1      42.351  27.655  28.272  1.00  0.00     0.074 A 
ATOM     51  C   UNL A   1      41.372  26.589  28.255  1.00  0.00     0.031 C 
ATOM     52  C   UNL A   1      47.821  24.611  26.843  1.00  0.00     0.029 A 
ATOM     53  C   UNL A   1      47.632  26.043  27.073  1.00  0.00     0.049 A 
ATOM     54  H   UNL A   1      45.861  27.006  27.599  1.00  0.00     0.167 HD
ATOM     55  C   UNL A   1      42.068  28.943  28.581  1.00  0.00     0.031 A 
ATOM     56  C   UNL A   1      48.592  26.988  26.992  1.00  0.00     0.031 A 
ATOM     57  C   UNL A   1      43.036  30.007  28.575  1.00  0.00     0.049 A 
ATOM     58  C   UNL A   1      48.233  28.434  27.235  1.00  0.00     0.074 A 
ATOM     59  C   UNL A   1      42.843  31.346  28.866  1.00  0.00     0.029 A 
ATOM     60  N   UNL A   1      44.377  29.856  28.254  1.00  0.00    -0.354 N 
ATOM     61  N   UNL A   1      47.074  28.954  27.568  1.00  0.00    -0.248 NA
ATOM     62  C   UNL A   1      49.313  29.422  27.095  1.00  0.00     0.031 C 
ATOM     63  C   UNL A   1      44.053  32.016  28.661  1.00  0.00     0.029 A 
ATOM     64  C   UNL A   1      45.017  31.083  28.314  1.00  0.00     0.049 A 
ATOM     65  H   UNL A   1      44.810  29.004  28.018  1.00  0.00     0.167 HD
ATOM     66  C   UNL A   1      47.297  30.321  27.714  1.00  0.00     0.074 A 
ATOM     67  C   UNL A   1      48.700  30.547  27.439  1.00  0.00     0.031 C 
ATOM     68  C   UNL A   1      46.418  31.298  28.052  1.00  0.00     0.031 A 
BRANCH  55  69
ATOM     69  C   UNL A   1      40.637  29.280  28.905  1.00  0.00    -0.014 A 
ATOM     70  C   UNL A   1      40.200  29.424  30.235  1.00  0.00     0.010 A 
ATOM     71  C   UNL A   1      39.720  29.489  27.858  1.00  0.00     0.010 A 
ATOM     72  C   UNL A   1      38.864  29.731  30.511  1.00  0.00     0.020 A 
ATOM     73  C   UNL A   1      38.392  29.826  28.130  1.00  0.00     0.020 A 
ATOM     74  C   UNL A   1      37.968  29.928  29.456  1.00  0.00     0.054 A 
BRANCH  74  75
ATOM     75  S   UNL A   1      36.246  30.344  29.843  1.00  0.00     0.124 S 
ATOM     76  O   UNL A   1      36.276  31.804  29.814  1.00  0.00    -0.237 OA
ATOM     77  O   UNL A   1      35.511  29.709  28.753  1.00  0.00    -0.237 OA
ATOM     78  O   UNL A   1      36.034  29.753  31.162  1.00  0.00    -0.744 OA
ENDBRANCH  74  75
ENDBRANCH  55  69
BRANCH  56  79
ATOM     79  C   UNL A   1      49.988  26.610  26.628  1.00  0.00    -0.014 A 
ATOM     80  C   UNL A   1      50.412  26.623  25.287  1.00  0.00     0.010 A 
ATOM     81  C   UNL A   1      50.898  26.212  27.626  1.00  0.00     0.010 A 
ATOM     82  C   UNL A   1      51.711  26.227  24.950  1.00  0.00     0.020 A 
ATOM     83  C   UNL A   1      52.206  25.845  27.296  1.00  0.00     0.020 A 
ATOM     84  C   UNL A   1      52.600  25.842  25.958  1.00  0.00     0.054 A 
BRANCH  84  85
ATOM     85  S   UNL A   1      54.292  25.373  25.499  1.00  0.00     0.124 S 
ATOM     86  O   UNL A   1      54.929  25.216  26.802  1.00  0.00    -0.237 OA
ATOM     87  O   UNL A   1      54.083  24.140  24.743  1.00  0.00    -0.237 OA
ATOM     88  O   UNL A   1      54.760  26.509  24.707  1.00  0.00    -0.744 OA
ENDBRANCH  84  85
ENDBRANCH  56  79
BRANCH  68  89
ATOM     89  C   UNL A   1      46.947  32.701  28.208  1.00  0.00    -0.014 A 
ATOM     90  C   UNL A   1      46.569  33.735  27.334  1.00  0.00     0.010 A 
ATOM     91  C   UNL A   1      47.777  33.004  29.305  1.00  0.00     0.010 A 
ATOM     92  C   UNL A   1      47.029  35.040  27.541  1.00  0.00     0.020 A 
ATOM     93  C   UNL A   1      48.214  34.312  29.533  1.00  0.00     0.020 A 
ATOM     94  C   UNL A   1      47.845  35.320  28.642  1.00  0.00     0.054 A 
BRANCH  94  95
ATOM     95  S   UNL A   1      48.379  37.032  28.922  1.00  0.00     0.124 S 
ATOM     96  O   UNL A   1      48.205  37.174  30.364  1.00  0.00    -0.237 OA
ATOM     97  O   UNL A   1      49.763  37.016  28.454  1.00  0.00    -0.237 OA
ATOM     98  O   UNL A   1      47.461  37.821  28.104  1.00  0.00    -0.744 OA
ENDBRANCH  94  95
ENDBRANCH  68  89
ENDBRANCH  42  43
ENDBRANCH  35  37
ENDBRANCH  34  35
ENDBRANCH  33  34
ENDBRANCH  32  33
ENDBRANCH  31  32
ENDBRANCH   1  31
TORSDOF 25
ENDMDL
MODEL 2
REMARK VINA RESULT:      -9.2      2.125      3.096
REMARK SMILES CCCc1cc(OC(F)(F)F)cc2c1O[C@H](C(F)(F)F)C(C(=O)OCCOCCOCCOC(=O)c1ccc(-c3c4nc(c(-c5ccc(S(=O)(=O)[O-])cc5)c5ccc([nH]5)c(-c5ccc(S(=O)(=O)[O-])cc5)c5nc(c(-c6ccc(S(=O)(=O)[O-])cc6)c6ccc3[nH]6)C=C5)C=C4)cc1)=C2
REMARK SMILES IDX 29 1 28 2 27 3 26 4 25 5 24 6 22 7 23 8 21 9 4 10 5 11 14 12
REMARK SMILES IDX 6 13 13 14 15 15 12 16 96 17 16 18 3 19 2 20 1 21 7 22 8 23
REMARK SMILES IDX 9 24 10 25 11 26 17 27 18 28 19 29 20 30 30 31 31 32 32 33
REMARK SMILES IDX 33 34 34 35 35 36 36 37 37 38 95 39 38 40 94 41 39 42 40 43
REMARK SMILES IDX 41 44 88 45 42 46 93 47 87 48 89 49 43 50 92 51 86 52 85 53
REMARK SMILES IDX 44 55 74 56 55 57 73 58 56 59 59 60 72 61 90 62 57 63 58 64
REMARK SMILES IDX 71 66 91 67 60 68 45 69 46 70 54 71 47 72 53 73 48 74 49 75
REMARK SMILES IDX 50 76 51 77 52 78 75 79 76 80 84 81 77 82 83 83 78 84 79 85
REMARK SMILES IDX 80 86 81 87 82 88 61 89 62 90 70 91 63 92 69 93 64 94 65 95
REMARK SMILES IDX 66 96 67 97 68 98
REMARK H PARENT 89 54 59 65
REMARK Flexibility Score: inf
ROOT
ATOM      1  C   UNL A   1      37.192  19.697  24.727  1.00  0.00     0.188 C 
ENDROOT
BRANCH   1   2
ATOM      2  C   UNL A   1      35.781  19.114  24.492  1.00  0.00     0.188 C 
BRANCH   2   3
ATOM      3  O   UNL A   1      35.487  17.785  24.901  1.00  0.00    -0.376 OA
BRANCH   3   4
ATOM      4  C   UNL A   1      34.267  17.181  24.505  1.00  0.00     0.202 C 
BRANCH   4   5
ATOM      5  C   UNL A   1      33.581  17.582  23.188  1.00  0.00     0.261 C 
BRANCH   5   6
ATOM      6  O   UNL A   1      32.457  18.473  23.309  1.00  0.00    -0.460 OA
BRANCH   6   7
ATOM      7  C   UNL A   1      32.337  19.095  24.509  1.00  0.00     0.338 C 
ATOM      8  O   UNL A   1      32.243  18.545  25.595  1.00  0.00    -0.246 OA
BRANCH   7   9
ATOM      9  C   UNL A   1      32.444  20.563  24.393  1.00  0.00     0.087 C 
ATOM     10  C   UNL A   1      31.566  24.630  24.094  1.00  0.00    -0.002 A 
ATOM     11  C   UNL A   1      32.041  25.341  22.984  1.00  0.00     0.054 A 
ATOM     12  C   UNL A   1      31.862  23.263  24.163  1.00  0.00     0.131 A 
ATOM     13  C   UNL A   1      32.867  24.741  22.029  1.00  0.00     0.130 A 
ATOM     14  C   UNL A   1      32.673  22.629  23.204  1.00  0.00     0.021 A 
ATOM     15  O   UNL A   1      31.243  22.544  25.152  1.00  0.00    -0.475 OA
ATOM     16  C   UNL A   1      33.196  23.386  22.154  1.00  0.00     0.058 A 
ATOM     17  C   UNL A   1      32.843  21.173  23.265  1.00  0.00     0.027 C 
ATOM     18  C   UNL A   1      31.954  21.363  25.581  1.00  0.00     0.316 C 
BRANCH  10  19
ATOM     19  C   UNL A   1      30.690  25.296  25.139  1.00  0.00     0.039 C 
BRANCH  19  20
ATOM     20  C   UNL A   1      30.054  26.641  24.756  1.00  0.00     0.001 C 
ATOM     21  C   UNL A   1      28.771  26.538  23.943  1.00  0.00     0.004 C 
ENDBRANCH  19  20
ENDBRANCH  10  19
BRANCH  13  22
ATOM     22  O   UNL A   1      33.387  25.361  20.925  1.00  0.00    -0.406 OA
BRANCH  22  23
ATOM     23  C   UNL A   1      32.639  25.289  19.720  1.00  0.00     0.573 C 
ATOM     24  F   UNL A   1      31.393  25.786  19.888  1.00  0.00    -0.132 F 
ATOM     25  F   UNL A   1      33.257  25.949  18.717  1.00  0.00    -0.132 F 
ATOM     26  F   UNL A   1      32.523  23.993  19.357  1.00  0.00    -0.132 F 
ENDBRANCH  22  23
ENDBRANCH  13  22
BRANCH  18  27
ATOM     27  C   UNL A   1      33.068  21.750  26.576  1.00  0.00     0.430 C 
ATOM     28  F   UNL A   1      32.589  22.038  27.812  1.00  0.00    -0.167 F 
ATOM     29  F   UNL A   1      33.979  20.761  26.729  1.00  0.00    -0.167 F 
ATOM     30  F   UNL A   1      33.749  22.843  26.164  1.00  0.00    -0.167 F 
ENDBRANCH  18  27
ENDBRANCH   7   9
ENDBRANCH   6   7
ENDBRANCH   5   6
ENDBRANCH   4   5
ENDBRANCH   3   4
ENDBRANCH   2   3
ENDBRANCH   1   2
BRANCH   1  31
ATOM     31  O   UNL A   1      37.237  20.709  25.704  1.00  0.00    -0.376 OA
BRANCH  31  32
ATOM     32  C   UNL A   1      38.274  21.670  25.656  1.00  0.00     0.202 C 
BRANCH  32  33
ATOM     33  C   UNL A   1      39.682  21.477  26.261  1.00  0.00     0.261 C 
BRANCH  33  34
ATOM     34  O   UNL A   1      40.495  20.401  25.782  1.00  0.00    -0.460 OA
BRANCH  34  35
ATOM     35  C   UNL A   1      41.573  20.066  26.523  1.00  0.00     0.338 C 
ATOM     36  O   UNL A   1      41.925  18.936  26.838  1.00  0.00    -0.246 OA
BRANCH  35  37
ATOM     37  C   UNL A   1      42.372  21.284  26.765  1.00  0.00     0.060 A 
ATOM     38  C   UNL A   1      42.618  21.687  28.084  1.00  0.00     0.016 A 
ATOM     39  C   UNL A   1      42.867  22.033  25.695  1.00  0.00     0.016 A 
ATOM     40  C   UNL A   1      43.351  22.849  28.337  1.00  0.00     0.010 A 
ATOM     41  C   UNL A   1      43.579  23.210  25.951  1.00  0.00     0.010 A 
ATOM     42  C   UNL A   1      43.808  23.636  27.272  1.00  0.00    -0.014 A 
BRANCH  42  43
ATOM     43  C   UNL A   1      44.369  24.989  27.526  1.00  0.00     0.031 A 
ATOM     44  C   UNL A   1      43.427  26.090  27.933  1.00  0.00     0.074 A 
ATOM     45  C   UNL A   1      45.685  25.244  27.403  1.00  0.00     0.049 A 
ATOM     46  N   UNL A   1      43.665  27.364  28.110  1.00  0.00    -0.248 NA
ATOM     47  C   UNL A   1      42.029  25.699  28.172  1.00  0.00     0.031 C 
ATOM     48  C   UNL A   1      46.715  24.255  27.088  1.00  0.00     0.029 A 
ATOM     49  N   UNL A   1      46.377  26.425  27.521  1.00  0.00    -0.354 N 
ATOM     50  C   UNL A   1      42.447  27.928  28.470  1.00  0.00     0.074 A 
ATOM     51  C   UNL A   1      41.468  26.862  28.464  1.00  0.00     0.031 C 
ATOM     52  C   UNL A   1      47.907  24.875  27.023  1.00  0.00     0.029 A 
ATOM     53  C   UNL A   1      47.719  26.309  27.246  1.00  0.00     0.049 A 
ATOM     54  H   UNL A   1      45.952  27.275  27.779  1.00  0.00     0.167 HD
ATOM     55  C   UNL A   1      42.165  29.217  28.774  1.00  0.00     0.031 A 
ATOM     56  C   UNL A   1      48.679  27.253  27.155  1.00  0.00     0.031 A 
ATOM     57  C   UNL A   1      43.134  30.281  28.757  1.00  0.00     0.049 A 
ATOM     58  C   UNL A   1      48.322  28.700  27.393  1.00  0.00     0.074 A 
ATOM     59  C   UNL A   1      42.944  31.621  29.043  1.00  0.00     0.029 A 
ATOM     60  N   UNL A   1      44.473  30.128  28.429  1.00  0.00    -0.354 N 
ATOM     61  N   UNL A   1      47.166  29.222  27.731  1.00  0.00    -0.248 NA
ATOM     62  C   UNL A   1      49.402  29.687  27.242  1.00  0.00     0.031 C 
ATOM     63  C   UNL A   1      44.152  32.290  28.827  1.00  0.00     0.029 A 
ATOM     64  C   UNL A   1      45.113  31.355  28.479  1.00  0.00     0.049 A 
ATOM     65  H   UNL A   1      44.904  29.275  28.194  1.00  0.00     0.167 HD
ATOM     66  C   UNL A   1      47.390  30.590  27.868  1.00  0.00     0.074 A 
ATOM     67  C   UNL A   1      48.791  30.814  27.584  1.00  0.00     0.031 C 
ATOM     68  C   UNL A   1      46.513  31.568  28.207  1.00  0.00     0.031 A 
BRANCH  55  69
ATOM     69  C   UNL A   1      40.736  29.557  29.105  1.00  0.00    -0.014 A 
ATOM     70  C   UNL A   1      40.335  29.831  30.426  1.00  0.00     0.010 A 
ATOM     71  C   UNL A   1      39.785  29.634  28.071  1.00  0.00     0.010 A 
ATOM     72  C   UNL A   1      39.001  30.137  30.709  1.00  0.00     0.020 A 
ATOM     73  C   UNL A   1      38.458  29.970  28.347  1.00  0.00     0.020 A 
ATOM     74  C   UNL A   1      38.070  30.203  29.668  1.00  0.00     0.054 A 
BRANCH  74  75
ATOM     75  S   UNL A   1      36.350  30.621  30.062  1.00  0.00     0.124 S 
ATOM     76  O   UNL A   1      36.091  29.768  31.219  1.00  0.00    -0.237 OA
ATOM     77  O   UNL A   1      36.427  32.053  30.342  1.00  0.00    -0.237 OA
ATOM     78  O   UNL A   1      35.618  30.264  28.849  1.00  0.00    -0.744 OA
ENDBRANCH  74  75
ENDBRANCH  55  69
BRANCH  56  79
ATOM     79  C   UNL A   1      50.073  26.872  26.785  1.00  0.00    -0.014 A 
ATOM     80  C   UNL A   1      50.473  26.823  25.437  1.00  0.00     0.010 A 
ATOM     81  C   UNL A   1      51.006  26.535  27.784  1.00  0.00     0.010 A 
ATOM     82  C   UNL A   1      51.770  26.425  25.096  1.00  0.00     0.020 A 
ATOM     83  C   UNL A   1      52.312  26.166  27.448  1.00  0.00     0.020 A 
ATOM     84  C   UNL A   1      52.682  26.101  26.105  1.00  0.00     0.054 A 
BRANCH  84  85
ATOM     85  S   UNL A   1      54.371  25.629  25.638  1.00  0.00     0.124 S 
ATOM     86  O   UNL A   1      54.663  24.562  26.590  1.00  0.00    -0.237 OA
ATOM     87  O   UNL A   1      54.208  25.210  24.249  1.00  0.00    -0.237 OA
ATOM     88  O   UNL A   1      55.136  26.860  25.825  1.00  0.00    -0.744 OA
ENDBRANCH  84  85
ENDBRANCH  56  79
BRANCH  68  89
ATOM     89  C   UNL A   1      47.044  32.972  28.353  1.00  0.00    -0.014 A 
ATOM     90  C   UNL A   1      47.023  33.885  27.284  1.00  0.00     0.010 A 
ATOM     91  C   UNL A   1      47.496  33.408  29.613  1.00  0.00     0.010 A 
ATOM     92  C   UNL A   1      47.467  35.200  27.468  1.00  0.00     0.020 A 
ATOM     93  C   UNL A   1      47.911  34.728  29.809  1.00  0.00     0.020 A 
ATOM     94  C   UNL A   1      47.903  35.613  28.730  1.00  0.00     0.054 A 
BRANCH  94  95
ATOM     95  S   UNL A   1      48.416  37.339  28.956  1.00  0.00     0.124 S 
ATOM     96  O   UNL A   1      47.958  37.959  27.716  1.00  0.00    -0.237 OA
ATOM     97  O   UNL A   1      47.690  37.734  30.161  1.00  0.00    -0.237 OA
ATOM     98  O   UNL A   1      49.867  37.254  29.110  1.00  0.00    -0.744 OA
ENDBRANCH  94  95
ENDBRANCH  68  89
ENDBRANCH  42  43
ENDBRANCH  35  37
ENDBRANCH  34  35
ENDBRANCH  33  34
ENDBRANCH  32  33
ENDBRANCH  31  32
ENDBRANCH   1  31
TORSDOF 25
ENDMDL
MODEL 3
REMARK VINA RESULT:      -8.9      4.044      8.532
REMARK SMILES CCCc1cc(OC(F)(F)F)cc2c1O[C@H](C(F)(F)F)C(C(=O)OCCOCCOCCOC(=O)c1ccc(-c3c4nc(c(-c5ccc(S(=O)(=O)[O-])cc5)c5ccc([nH]5)c(-c5ccc(S(=O)(=O)[O-])cc5)c5nc(c(-c6ccc(S(=O)(=O)[O-])cc6)c6ccc3[nH]6)C=C5)C=C4)cc1)=C2
REMARK SMILES IDX 29 1 28 2 27 3 26 4 25 5 24 6 22 7 23 8 21 9 4 10 5 11 14 12
REMARK SMILES IDX 6 13 13 14 15 15 12 16 96 17 16 18 3 19 2 20 1 21 7 22 8 23
REMARK SMILES IDX 9 24 10 25 11 26 17 27 18 28 19 29 20 30 30 31 31 32 32 33
REMARK SMILES IDX 33 34 34 35 35 36 36 37 37 38 95 39 38 40 94 41 39 42 40 43
REMARK SMILES IDX 41 44 88 45 42 46 93 47 87 48 89 49 43 50 92 51 86 52 85 53
REMARK SMILES IDX 44 55 74 56 55 57 73 58 56 59 59 60 72 61 90 62 57 63 58 64
REMARK SMILES IDX 71 66 91 67 60 68 45 69 46 70 54 71 47 72 53 73 48 74 49 75
REMARK SMILES IDX 50 76 51 77 52 78 75 79 76 80 84 81 77 82 83 83 78 84 79 85
REMARK SMILES IDX 80 86 81 87 82 88 61 89 62 90 70 91 63 92 69 93 64 94 65 95
REMARK SMILES IDX 66 96 67 97 68 98
REMARK H PARENT 89 54 59 65
REMARK Flexibility Score: inf
ROOT
ATOM      1  C   UNL A   1      34.553  31.580  27.671  1.00  0.00     0.188 C 
ENDROOT
BRANCH   1   2
ATOM      2  C   UNL A   1      33.353  30.650  27.389  1.00  0.00     0.188 C 
BRANCH   2   3
ATOM      3  O   UNL A   1      33.019  30.312  26.050  1.00  0.00    -0.376 OA
BRANCH   3   4
ATOM      4  C   UNL A   1      33.416  29.058  25.520  1.00  0.00     0.202 C 
BRANCH   4   5
ATOM      5  C   UNL A   1      33.362  28.790  24.006  1.00  0.00     0.261 C 
BRANCH   5   6
ATOM      6  O   UNL A   1      34.132  27.668  23.537  1.00  0.00    -0.460 OA
BRANCH   6   7
ATOM      7  C   UNL A   1      33.547  26.934  22.558  1.00  0.00     0.338 C 
ATOM      8  O   UNL A   1      33.611  27.157  21.359  1.00  0.00    -0.246 OA
BRANCH   7   9
ATOM      9  C   UNL A   1      32.887  25.721  23.083  1.00  0.00     0.087 C 
ATOM     10  C   UNL A   1      31.662  22.571  25.528  1.00  0.00    -0.002 A 
ATOM     11  C   UNL A   1      31.869  21.258  25.086  1.00  0.00     0.054 A 
ATOM     12  C   UNL A   1      32.096  23.610  24.695  1.00  0.00     0.131 A 
ATOM     13  C   UNL A   1      32.394  20.985  23.819  1.00  0.00     0.130 A 
ATOM     14  C   UNL A   1      32.647  23.363  23.424  1.00  0.00     0.021 A 
ATOM     15  O   UNL A   1      32.054  24.878  25.214  1.00  0.00    -0.475 OA
ATOM     16  C   UNL A   1      32.765  22.044  22.983  1.00  0.00     0.058 A 
ATOM     17  C   UNL A   1      33.194  24.486  22.655  1.00  0.00     0.027 C 
ATOM     18  C   UNL A   1      31.926  25.931  24.234  1.00  0.00     0.316 C 
BRANCH  10  19
ATOM     19  C   UNL A   1      31.069  22.858  26.894  1.00  0.00     0.039 C 
BRANCH  19  20
ATOM     20  C   UNL A   1      29.582  23.244  26.937  1.00  0.00     0.001 C 
ATOM     21  C   UNL A   1      28.677  22.244  27.643  1.00  0.00     0.004 C 
ENDBRANCH  19  20
ENDBRANCH  10  19
BRANCH  13  22
ATOM     22  O   UNL A   1      32.615  19.736  23.302  1.00  0.00    -0.406 OA
BRANCH  22  23
ATOM     23  C   UNL A   1      33.176  18.759  24.167  1.00  0.00     0.573 C 
ATOM     24  F   UNL A   1      34.249  19.249  24.827  1.00  0.00    -0.132 F 
ATOM     25  F   UNL A   1      32.265  18.309  25.057  1.00  0.00    -0.132 F 
ATOM     26  F   UNL A   1      33.590  17.709  23.425  1.00  0.00    -0.132 F 
ENDBRANCH  22  23
ENDBRANCH  13  22
BRANCH  18  27
ATOM     27  C   UNL A   1      30.453  26.074  23.801  1.00  0.00     0.430 C 
ATOM     28  F   UNL A   1      30.177  27.293  23.275  1.00  0.00    -0.167 F 
ATOM     29  F   UNL A   1      30.106  25.157  22.868  1.00  0.00    -0.167 F 
ATOM     30  F   UNL A   1      29.607  25.904  24.843  1.00  0.00    -0.167 F 
ENDBRANCH  18  27
ENDBRANCH   7   9
ENDBRANCH   6   7
ENDBRANCH   5   6
ENDBRANCH   4   5
ENDBRANCH   3   4
ENDBRANCH   2   3
ENDBRANCH   1   2
BRANCH   1  31
ATOM     31  O   UNL A   1      35.722  30.902  28.061  1.00  0.00    -0.376 OA
BRANCH  31  32
ATOM     32  C   UNL A   1      35.611  29.714  28.822  1.00  0.00     0.202 C 
BRANCH  32  33
ATOM     33  C   UNL A   1      36.590  29.288  29.938  1.00  0.00     0.261 C 
BRANCH  33  34
ATOM     34  O   UNL A   1      36.272  29.618  31.294  1.00  0.00    -0.460 OA
BRANCH  34  35
ATOM     35  C   UNL A   1      36.437  30.906  31.669  1.00  0.00     0.338 C 
ATOM     36  O   UNL A   1      35.635  31.599  32.282  1.00  0.00    -0.246 OA
BRANCH  35  37
ATOM     37  C   UNL A   1      37.824  31.309  31.366  1.00  0.00     0.060 A 
ATOM     38  C   UNL A   1      38.069  32.124  30.254  1.00  0.00     0.016 A 
ATOM     39  C   UNL A   1      38.881  30.875  32.169  1.00  0.00     0.016 A 
ATOM     40  C   UNL A   1      39.377  32.499  29.933  1.00  0.00     0.010 A 
ATOM     41  C   UNL A   1      40.193  31.230  31.831  1.00  0.00     0.010 A 
ATOM     42  C   UNL A   1      40.450  32.027  30.700  1.00  0.00    -0.014 A 
BRANCH  42  43
ATOM     43  C   UNL A   1      41.847  32.213  30.230  1.00  0.00     0.031 A 
ATOM     44  C   UNL A   1      42.479  33.571  30.383  1.00  0.00     0.074 A 
ATOM     45  C   UNL A   1      42.550  31.205  29.681  1.00  0.00     0.049 A 
ATOM     46  N   UNL A   1      43.641  33.998  29.961  1.00  0.00    -0.248 NA
ATOM     47  C   UNL A   1      41.692  34.579  31.111  1.00  0.00     0.031 C 
ATOM     48  C   UNL A   1      42.086  29.826  29.540  1.00  0.00     0.029 A 
ATOM     49  N   UNL A   1      43.807  31.195  29.127  1.00  0.00    -0.354 N 
ATOM     50  C   UNL A   1      43.720  35.328  30.361  1.00  0.00     0.074 A 
ATOM     51  C   UNL A   1      42.481  35.641  31.040  1.00  0.00     0.031 C 
ATOM     52  C   UNL A   1      43.041  29.106  28.925  1.00  0.00     0.029 A 
ATOM     53  C   UNL A   1      44.165  29.982  28.588  1.00  0.00     0.049 A 
ATOM     54  H   UNL A   1      44.398  31.983  29.118  1.00  0.00     0.167 HD
ATOM     55  C   UNL A   1      44.731  36.210  30.178  1.00  0.00     0.031 A 
ATOM     56  C   UNL A   1      45.256  29.626  27.879  1.00  0.00     0.031 A 
ATOM     57  C   UNL A   1      45.954  35.905  29.483  1.00  0.00     0.049 A 
ATOM     58  C   UNL A   1      46.323  30.655  27.593  1.00  0.00     0.074 A 
ATOM     59  C   UNL A   1      47.033  36.735  29.239  1.00  0.00     0.029 A 
ATOM     60  N   UNL A   1      46.255  34.678  28.913  1.00  0.00    -0.354 N 
ATOM     61  N   UNL A   1      46.386  31.909  27.975  1.00  0.00    -0.248 NA
ATOM     62  C   UNL A   1      47.471  30.218  26.783  1.00  0.00     0.031 C 
ATOM     63  C   UNL A   1      47.961  36.029  28.468  1.00  0.00     0.029 A 
ATOM     64  C   UNL A   1      47.493  34.737  28.294  1.00  0.00     0.049 A 
ATOM     65  H   UNL A   1      45.676  33.882  28.942  1.00  0.00     0.167 HD
ATOM     66  C   UNL A   1      47.595  32.397  27.484  1.00  0.00     0.074 A 
ATOM     67  C   UNL A   1      48.234  31.303  26.784  1.00  0.00     0.031 C 
ATOM     68  C   UNL A   1      48.128  33.638  27.610  1.00  0.00     0.031 A 
BRANCH  55  69
ATOM     69  C   UNL A   1      44.534  37.609  30.698  1.00  0.00    -0.014 A 
ATOM     70  C   UNL A   1      44.925  37.969  32.001  1.00  0.00     0.010 A 
ATOM     71  C   UNL A   1      43.978  38.590  29.856  1.00  0.00     0.010 A 
ATOM     72  C   UNL A   1      44.725  39.273  32.464  1.00  0.00     0.020 A 
ATOM     73  C   UNL A   1      43.806  39.901  30.305  1.00  0.00     0.020 A 
ATOM     74  C   UNL A   1      44.165  40.230  31.613  1.00  0.00     0.054 A 
BRANCH  74  75
ATOM     75  S   UNL A   1      43.936  41.918  32.234  1.00  0.00     0.124 S 
ATOM     76  O   UNL A   1      44.690  41.884  33.485  1.00  0.00    -0.237 OA
ATOM     77  O   UNL A   1      44.521  42.731  31.171  1.00  0.00    -0.237 OA
ATOM     78  O   UNL A   1      42.488  42.041  32.383  1.00  0.00    -0.744 OA
ENDBRANCH  74  75
ENDBRANCH  55  69
BRANCH  56  79
ATOM     79  C   UNL A   1      45.388  28.238  27.350  1.00  0.00    -0.014 A 
ATOM     80  C   UNL A   1      44.804  27.876  26.123  1.00  0.00     0.010 A 
ATOM     81  C   UNL A   1      46.084  27.261  28.087  1.00  0.00     0.010 A 
ATOM     82  C   UNL A   1      44.895  26.561  25.654  1.00  0.00     0.020 A 
ATOM     83  C   UNL A   1      46.204  25.953  27.606  1.00  0.00     0.020 A 
ATOM     84  C   UNL A   1      45.598  25.608  26.398  1.00  0.00     0.054 A 
BRANCH  84  85
ATOM     85  S   UNL A   1      45.739  23.920  25.747  1.00  0.00     0.124 S 
ATOM     86  O   UNL A   1      44.476  23.324  26.169  1.00  0.00    -0.237 OA
ATOM     87  O   UNL A   1      45.884  24.147  24.312  1.00  0.00    -0.237 OA
ATOM     88  O   UNL A   1      46.931  23.395  26.411  1.00  0.00    -0.744 OA
ENDBRANCH  84  85
ENDBRANCH  56  79
BRANCH  68  89
ATOM     89  C   UNL A   1      49.500  33.879  27.033  1.00  0.00    -0.014 A 
ATOM     90  C   UNL A   1      50.670  33.577  27.753  1.00  0.00     0.010 A 
ATOM     91  C   UNL A   1      49.616  34.342  25.708  1.00  0.00     0.010 A 
ATOM     92  C   UNL A   1      51.928  33.754  27.167  1.00  0.00     0.020 A 
ATOM     93  C   UNL A   1      50.870  34.491  25.108  1.00  0.00     0.020 A 
ATOM     94  C   UNL A   1      52.018  34.206  25.846  1.00  0.00     0.054 A 
BRANCH  94  95
ATOM     95  S   UNL A   1      53.660  34.371  25.089  1.00  0.00     0.124 S 
ATOM     96  O   UNL A   1      53.695  33.226  24.184  1.00  0.00    -0.237 OA
ATOM     97  O   UNL A   1      53.585  35.680  24.445  1.00  0.00    -0.237 OA
ATOM     98  O   UNL A   1      54.576  34.294  26.225  1.00  0.00    -0.744 OA
ENDBRANCH  94  95
ENDBRANCH  68  89
ENDBRANCH  42  43
ENDBRANCH  35  37
ENDBRANCH  34  35
ENDBRANCH  33  34
ENDBRANCH  32  33
ENDBRANCH  31  32
ENDBRANCH   1  31
TORSDOF 25
ENDMDL
