MODEL 1
REMARK VINA RESULT:     -11.2      0.000      0.000
REMARK SMILES CCn1nc(-c2cccnc2)c2cc(C(=O)OCCOCCOCCOC(=O)c3ccc(-c4c5nc(c(-c6ccc(S(=O)(=O)[O-])cc6)c6ccc([nH]6)c(-c6ccc(S(=O)(=O)[O-])cc6)c6nc(c(-c7ccc(S(=O)(=O)[O-])cc7)c7ccc4[nH]7)C=C6)C=C5)cc3)sc21
REMARK SMILES IDX 22 1 21 2 20 3 19 4 18 5 17 6 15 7 16 8 14 9 3 10 4 11 90 12
REMARK SMILES IDX 5 13 12 14 89 15 13 16 2 17 1 18 6 19 7 20 11 21 8 22 10 23
REMARK SMILES IDX 9 24 23 25 24 26 25 27 26 28 27 29 28 30 29 31 30 32 88 33
REMARK SMILES IDX 31 34 87 35 32 36 33 37 34 38 81 39 35 40 86 41 80 42 82 43
REMARK SMILES IDX 36 44 85 45 79 46 78 47 37 49 67 50 48 51 66 52 49 53 52 54
REMARK SMILES IDX 65 55 83 56 50 57 51 58 64 60 84 61 53 62 38 63 39 64 47 65
REMARK SMILES IDX 40 66 46 67 41 68 42 69 43 70 44 71 45 72 68 73 69 74 77 75
REMARK SMILES IDX 70 76 76 77 71 78 72 79 73 80 74 81 75 82 54 83 55 84 63 85
REMARK SMILES IDX 56 86 62 87 57 88 58 89 59 90 60 91 61 92
REMARK H PARENT 82 48 52 59
REMARK Flexibility Score: inf
ROOT
ATOM      1  C   UNL A   1      44.634  18.976  24.675  1.00  0.00     0.188 C 
ENDROOT
BRANCH   1   2
ATOM      2  C   UNL A   1      43.362  18.754  25.531  1.00  0.00     0.188 C 
BRANCH   2   3
ATOM      3  O   UNL A   1      42.219  19.595  25.413  1.00  0.00    -0.376 OA
BRANCH   3   4
ATOM      4  C   UNL A   1      41.860  20.475  26.466  1.00  0.00     0.202 C 
BRANCH   4   5
ATOM      5  C   UNL A   1      40.385  20.575  26.888  1.00  0.00     0.261 C 
BRANCH   5   6
ATOM      6  O   UNL A   1      39.468  20.978  25.861  1.00  0.00    -0.459 OA
BRANCH   6   7
ATOM      7  C   UNL A   1      38.799  22.152  26.044  1.00  0.00     0.348 C 
ATOM      8  O   UNL A   1      39.307  23.189  26.457  1.00  0.00    -0.245 OA
BRANCH   7   9
ATOM      9  C   UNL A   1      37.435  22.041  25.551  1.00  0.00     0.115 A 
ATOM     10  N   UNL A   1      33.921  22.699  24.366  1.00  0.00    -0.254 N 
ATOM     11  N   UNL A   1      33.277  21.495  24.294  1.00  0.00    -0.171 NA
ATOM     12  C   UNL A   1      35.202  22.541  24.770  1.00  0.00     0.122 A 
ATOM     13  C   UNL A   1      34.179  20.582  24.727  1.00  0.00     0.103 A 
ATOM     14  C   UNL A   1      35.374  21.238  25.018  1.00  0.00     0.040 A 
ATOM     15  S   UNL A   1      36.566  23.458  25.009  1.00  0.00    -0.109 S 
ATOM     16  C   UNL A   1      36.651  20.884  25.452  1.00  0.00     0.040 A 
BRANCH  10  17
ATOM     17  C   UNL A   1      33.192  23.878  23.950  1.00  0.00     0.142 C 
ATOM     18  C   UNL A   1      32.222  23.717  22.792  1.00  0.00     0.029 C 
ENDBRANCH  10  17
BRANCH  13  19
ATOM     19  C   UNL A   1      33.834  19.176  24.759  1.00  0.00     0.021 A 
ATOM     20  C   UNL A   1      34.719  18.222  24.251  1.00  0.00     0.013 A 
ATOM     21  C   UNL A   1      32.603  18.731  25.222  1.00  0.00     0.121 A 
ATOM     22  C   UNL A   1      34.351  16.879  24.231  1.00  0.00     0.021 A 
ATOM     23  N   UNL A   1      32.221  17.428  25.221  1.00  0.00    -0.264 NA
ATOM     24  C   UNL A   1      33.102  16.535  24.720  1.00  0.00     0.111 A 
ENDBRANCH  13  19
ENDBRANCH   7   9
ENDBRANCH   6   7
ENDBRANCH   5   6
ENDBRANCH   4   5
ENDBRANCH   3   4
ENDBRANCH   2   3
ENDBRANCH   1   2
BRANCH   1  25
ATOM     25  O   UNL A   1      44.766  20.275  24.123  1.00  0.00    -0.376 OA
BRANCH  25  26
ATOM     26  C   UNL A   1      45.671  21.167  24.758  1.00  0.00     0.202 C 
BRANCH  26  27
ATOM     27  C   UNL A   1      45.158  21.977  25.947  1.00  0.00     0.261 C 
BRANCH  27  28
ATOM     28  O   UNL A   1      44.775  23.307  25.643  1.00  0.00    -0.460 OA
BRANCH  28  29
ATOM     29  C   UNL A   1      43.568  23.437  25.059  1.00  0.00     0.338 C 
ATOM     30  O   UNL A   1      43.256  23.073  23.938  1.00  0.00    -0.246 OA
BRANCH  29  31
ATOM     31  C   UNL A   1      42.698  24.189  25.970  1.00  0.00     0.060 A 
ATOM     32  C   UNL A   1      41.937  25.216  25.413  1.00  0.00     0.016 A 
ATOM     33  C   UNL A   1      42.902  24.071  27.355  1.00  0.00     0.016 A 
ATOM     34  C   UNL A   1      41.597  26.273  26.222  1.00  0.00     0.010 A 
ATOM     35  C   UNL A   1      42.581  25.137  28.156  1.00  0.00     0.010 A 
ATOM     36  C   UNL A   1      42.030  26.262  27.551  1.00  0.00    -0.014 A 
BRANCH  36  37
ATOM     37  C   UNL A   1      41.931  27.497  28.289  1.00  0.00     0.031 A 
ATOM     38  C   UNL A   1      43.075  28.403  28.108  1.00  0.00     0.074 A 
ATOM     39  C   UNL A   1      40.845  27.802  29.020  1.00  0.00     0.049 A 
ATOM     40  N   UNL A   1      43.962  28.737  28.982  1.00  0.00    -0.248 NA
ATOM     41  C   UNL A   1      43.346  28.877  26.743  1.00  0.00     0.031 C 
ATOM     42  C   UNL A   1      39.542  27.130  29.036  1.00  0.00     0.029 A 
ATOM     43  N   UNL A   1      40.647  28.881  29.818  1.00  0.00    -0.354 N 
ATOM     44  C   UNL A   1      44.805  29.624  28.329  1.00  0.00     0.074 A 
ATOM     45  C   UNL A   1      44.493  29.530  26.924  1.00  0.00     0.031 C 
ATOM     46  C   UNL A   1      38.632  27.958  29.598  1.00  0.00     0.029 A 
ATOM     47  C   UNL A   1      39.313  29.149  30.084  1.00  0.00     0.049 A 
ATOM     48  H   UNL A   1      41.385  29.426  30.176  1.00  0.00     0.167 HD
ATOM     49  C   UNL A   1      45.531  30.554  29.001  1.00  0.00     0.031 A 
ATOM     50  C   UNL A   1      38.817  30.320  30.553  1.00  0.00     0.031 A 
ATOM     51  C   UNL A   1      45.623  30.270  30.408  1.00  0.00     0.049 A 
ATOM     52  C   UNL A   1      39.945  31.055  31.189  1.00  0.00     0.074 A 
ATOM     53  C   UNL A   1      46.098  29.198  31.141  1.00  0.00     0.029 A 
ATOM     54  N   UNL A   1      44.807  30.979  31.261  1.00  0.00    -0.354 N 
ATOM     55  N   UNL A   1      40.551  30.649  32.271  1.00  0.00    -0.248 NA
ATOM     56  C   UNL A   1      40.706  31.992  30.372  1.00  0.00     0.031 C 
ATOM     57  C   UNL A   1      45.177  29.050  32.217  1.00  0.00     0.029 A 
ATOM     58  C   UNL A   1      44.229  30.070  32.116  1.00  0.00     0.049 A 
ATOM     59  H   UNL A   1      44.665  31.953  31.259  1.00  0.00     0.167 HD
ATOM     60  C   UNL A   1      41.895  30.929  32.061  1.00  0.00     0.074 A 
ATOM     61  C   UNL A   1      41.916  31.842  30.920  1.00  0.00     0.031 C 
ATOM     62  C   UNL A   1      42.883  30.182  32.642  1.00  0.00     0.031 A 
BRANCH  49  63
ATOM     63  C   UNL A   1      45.833  31.902  28.414  1.00  0.00    -0.014 A 
ATOM     64  C   UNL A   1      46.879  32.677  28.944  1.00  0.00     0.010 A 
ATOM     65  C   UNL A   1      44.955  32.533  27.506  1.00  0.00     0.010 A 
ATOM     66  C   UNL A   1      47.019  34.028  28.595  1.00  0.00     0.020 A 
ATOM     67  C   UNL A   1      45.116  33.859  27.113  1.00  0.00     0.020 A 
ATOM     68  C   UNL A   1      46.131  34.608  27.686  1.00  0.00     0.054 A 
BRANCH  68  69
ATOM     69  S   UNL A   1      46.268  36.370  27.304  1.00  0.00     0.124 S 
ATOM     70  O   UNL A   1      46.637  36.342  25.892  1.00  0.00    -0.237 OA
ATOM     71  O   UNL A   1      44.924  36.859  27.601  1.00  0.00    -0.237 OA
ATOM     72  O   UNL A   1      47.311  36.838  28.216  1.00  0.00    -0.744 OA
ENDBRANCH  68  69
ENDBRANCH  49  63
BRANCH  50  73
ATOM     73  C   UNL A   1      37.546  30.968  30.135  1.00  0.00    -0.014 A 
ATOM     74  C   UNL A   1      36.565  31.326  31.079  1.00  0.00     0.010 A 
ATOM     75  C   UNL A   1      37.399  31.470  28.824  1.00  0.00     0.010 A 
ATOM     76  C   UNL A   1      35.515  32.196  30.735  1.00  0.00     0.020 A 
ATOM     77  C   UNL A   1      36.351  32.323  28.470  1.00  0.00     0.020 A 
ATOM     78  C   UNL A   1      35.425  32.703  29.435  1.00  0.00     0.054 A 
BRANCH  78  79
ATOM     79  S   UNL A   1      34.172  33.958  29.041  1.00  0.00     0.124 S 
ATOM     80  O   UNL A   1      34.986  35.067  28.555  1.00  0.00    -0.237 OA
ATOM     81  O   UNL A   1      33.354  33.284  28.036  1.00  0.00    -0.237 OA
ATOM     82  O   UNL A   1      33.506  34.193  30.321  1.00  0.00    -0.744 OA
ENDBRANCH  78  79
ENDBRANCH  50  73
BRANCH  62  83
ATOM     83  C   UNL A   1      42.508  29.199  33.734  1.00  0.00    -0.014 A 
ATOM     84  C   UNL A   1      41.840  27.983  33.491  1.00  0.00     0.010 A 
ATOM     85  C   UNL A   1      43.000  29.441  35.030  1.00  0.00     0.010 A 
ATOM     86  C   UNL A   1      41.645  27.049  34.521  1.00  0.00     0.020 A 
ATOM     87  C   UNL A   1      42.828  28.507  36.055  1.00  0.00     0.020 A 
ATOM     88  C   UNL A   1      42.143  27.319  35.799  1.00  0.00     0.054 A 
BRANCH  88  89
ATOM     89  S   UNL A   1      41.935  26.085  37.115  1.00  0.00     0.124 S 
ATOM     90  O   UNL A   1      40.521  26.218  37.454  1.00  0.00    -0.237 OA
ATOM     91  O   UNL A   1      42.308  24.837  36.454  1.00  0.00    -0.237 OA
ATOM     92  O   UNL A   1      42.864  26.525  38.156  1.00  0.00    -0.744 OA
ENDBRANCH  88  89
ENDBRANCH  62  83
ENDBRANCH  36  37
ENDBRANCH  29  31
ENDBRANCH  28  29
ENDBRANCH  27  28
ENDBRANCH  26  27
ENDBRANCH  25  26
ENDBRANCH   1  25
TORSDOF 22
ENDMDL
MODEL 2
REMARK VINA RESULT:     -10.9      3.998      9.247
REMARK SMILES CCn1nc(-c2cccnc2)c2cc(C(=O)OCCOCCOCCOC(=O)c3ccc(-c4c5nc(c(-c6ccc(S(=O)(=O)[O-])cc6)c6ccc([nH]6)c(-c6ccc(S(=O)(=O)[O-])cc6)c6nc(c(-c7ccc(S(=O)(=O)[O-])cc7)c7ccc4[nH]7)C=C6)C=C5)cc3)sc21
REMARK SMILES IDX 22 1 21 2 20 3 19 4 18 5 17 6 15 7 16 8 14 9 3 10 4 11 90 12
REMARK SMILES IDX 5 13 12 14 89 15 13 16 2 17 1 18 6 19 7 20 11 21 8 22 10 23
REMARK SMILES IDX 9 24 23 25 24 26 25 27 26 28 27 29 28 30 29 31 30 32 88 33
REMARK SMILES IDX 31 34 87 35 32 36 33 37 34 38 81 39 35 40 86 41 80 42 82 43
REMARK SMILES IDX 36 44 85 45 79 46 78 47 37 49 67 50 48 51 66 52 49 53 52 54
REMARK SMILES IDX 65 55 83 56 50 57 51 58 64 60 84 61 53 62 38 63 39 64 47 65
REMARK SMILES IDX 40 66 46 67 41 68 42 69 43 70 44 71 45 72 68 73 69 74 77 75
REMARK SMILES IDX 70 76 76 77 71 78 72 79 73 80 74 81 75 82 54 83 55 84 63 85
REMARK SMILES IDX 56 86 62 87 57 88 58 89 59 90 60 91 61 92
REMARK H PARENT 82 48 52 59
REMARK Flexibility Score: inf
ROOT
ATOM      1  C   UNL A   1      35.152  23.417  25.920  1.00  0.00     0.188 C 
ENDROOT
BRANCH   1   2
ATOM      2  C   UNL A   1      33.629  23.142  25.973  1.00  0.00     0.188 C 
BRANCH   2   3
ATOM      3  O   UNL A   1      33.050  21.991  25.367  1.00  0.00    -0.376 OA
BRANCH   3   4
ATOM      4  C   UNL A   1      32.234  22.117  24.213  1.00  0.00     0.202 C 
BRANCH   4   5
ATOM      5  C   UNL A   1      31.460  23.425  23.982  1.00  0.00     0.261 C 
BRANCH   5   6
ATOM      6  O   UNL A   1      31.802  24.150  22.793  1.00  0.00    -0.459 OA
BRANCH   6   7
ATOM      7  C   UNL A   1      32.900  24.957  22.845  1.00  0.00     0.348 C 
ATOM      8  O   UNL A   1      33.985  24.695  22.335  1.00  0.00    -0.245 OA
BRANCH   7   9
ATOM      9  C   UNL A   1      32.567  26.229  23.467  1.00  0.00     0.115 A 
ATOM     10  N   UNL A   1      32.218  29.168  25.796  1.00  0.00    -0.254 N 
ATOM     11  N   UNL A   1      31.266  29.999  25.274  1.00  0.00    -0.171 NA
ATOM     12  C   UNL A   1      32.413  28.092  25.001  1.00  0.00     0.122 A 
ATOM     13  C   UNL A   1      30.825  29.376  24.155  1.00  0.00     0.103 A 
ATOM     14  C   UNL A   1      31.545  28.193  23.989  1.00  0.00     0.040 A 
ATOM     15  S   UNL A   1      33.397  26.757  24.913  1.00  0.00    -0.109 S 
ATOM     16  C   UNL A   1      31.601  27.157  23.057  1.00  0.00     0.040 A 
BRANCH  10  17
ATOM     17  C   UNL A   1      32.882  29.587  27.013  1.00  0.00     0.142 C 
ATOM     18  C   UNL A   1      34.253  28.993  27.289  1.00  0.00     0.029 C 
ENDBRANCH  10  17
BRANCH  13  19
ATOM     19  C   UNL A   1      29.814  29.998  23.325  1.00  0.00     0.021 A 
ATOM     20  C   UNL A   1      29.093  31.097  23.799  1.00  0.00     0.013 A 
ATOM     21  C   UNL A   1      29.476  29.495  22.076  1.00  0.00     0.121 A 
ATOM     22  C   UNL A   1      28.081  31.649  23.018  1.00  0.00     0.021 A 
ATOM     23  N   UNL A   1      28.499  30.017  21.291  1.00  0.00    -0.264 NA
ATOM     24  C   UNL A   1      27.822  31.077  21.783  1.00  0.00     0.111 A 
ENDBRANCH  13  19
ENDBRANCH   7   9
ENDBRANCH   6   7
ENDBRANCH   5   6
ENDBRANCH   4   5
ENDBRANCH   3   4
ENDBRANCH   2   3
ENDBRANCH   1   2
BRANCH   1  25
ATOM     25  O   UNL A   1      35.973  22.271  26.065  1.00  0.00    -0.376 OA
BRANCH  25  26
ATOM     26  C   UNL A   1      36.318  21.560  24.885  1.00  0.00     0.202 C 
BRANCH  26  27
ATOM     27  C   UNL A   1      37.542  20.646  24.937  1.00  0.00     0.261 C 
BRANCH  27  28
ATOM     28  O   UNL A   1      38.633  21.150  25.686  1.00  0.00    -0.460 OA
BRANCH  28  29
ATOM     29  C   UNL A   1      39.701  20.333  25.766  1.00  0.00     0.338 C 
ATOM     30  O   UNL A   1      39.749  19.159  25.441  1.00  0.00    -0.246 OA
BRANCH  29  31
ATOM     31  C   UNL A   1      40.794  21.071  26.409  1.00  0.00     0.060 A 
ATOM     32  C   UNL A   1      40.879  20.991  27.799  1.00  0.00     0.016 A 
ATOM     33  C   UNL A   1      41.480  22.049  25.670  1.00  0.00     0.016 A 
ATOM     34  C   UNL A   1      41.441  22.050  28.469  1.00  0.00     0.010 A 
ATOM     35  C   UNL A   1      42.022  23.115  26.341  1.00  0.00     0.010 A 
ATOM     36  C   UNL A   1      41.896  23.144  27.726  1.00  0.00    -0.014 A 
BRANCH  36  37
ATOM     37  C   UNL A   1      42.197  24.355  28.449  1.00  0.00     0.031 A 
ATOM     38  C   UNL A   1      41.258  25.459  28.196  1.00  0.00     0.074 A 
ATOM     39  C   UNL A   1      43.214  24.424  29.326  1.00  0.00     0.049 A 
ATOM     40  N   UNL A   1      41.494  26.567  27.582  1.00  0.00    -0.248 NA
ATOM     41  C   UNL A   1      39.848  25.232  28.541  1.00  0.00     0.031 C 
ATOM     42  C   UNL A   1      44.015  23.328  29.876  1.00  0.00     0.029 A 
ATOM     43  N   UNL A   1      43.655  25.507  30.013  1.00  0.00    -0.354 N 
ATOM     44  C   UNL A   1      40.300  27.273  27.630  1.00  0.00     0.074 A 
ATOM     45  C   UNL A   1      39.287  26.341  28.061  1.00  0.00     0.031 C 
ATOM     46  C   UNL A   1      44.656  23.769  30.982  1.00  0.00     0.029 A 
ATOM     47  C   UNL A   1      44.404  25.194  31.136  1.00  0.00     0.049 A 
ATOM     48  H   UNL A   1      43.461  26.433  29.738  1.00  0.00     0.167 HD
ATOM     49  C   UNL A   1      40.262  28.629  27.551  1.00  0.00     0.031 A 
ATOM     50  C   UNL A   1      44.678  26.033  32.167  1.00  0.00     0.031 A 
ATOM     51  C   UNL A   1      41.487  29.186  27.045  1.00  0.00     0.049 A 
ATOM     52  C   UNL A   1      44.484  27.422  31.669  1.00  0.00     0.074 A 
ATOM     53  C   UNL A   1      42.205  29.020  25.875  1.00  0.00     0.029 A 
ATOM     54  N   UNL A   1      42.365  29.736  27.953  1.00  0.00    -0.354 N 
ATOM     55  N   UNL A   1      45.240  27.974  30.759  1.00  0.00    -0.248 NA
ATOM     56  C   UNL A   1      43.176  28.041  31.840  1.00  0.00     0.031 C 
ATOM     57  C   UNL A   1      43.571  29.021  26.278  1.00  0.00     0.029 A 
ATOM     58  C   UNL A   1      43.614  29.245  27.655  1.00  0.00     0.049 A 
ATOM     59  H   UNL A   1      42.140  30.362  28.677  1.00  0.00     0.167 HD
ATOM     60  C   UNL A   1      44.371  28.711  29.964  1.00  0.00     0.074 A 
ATOM     61  C   UNL A   1      43.132  28.793  30.735  1.00  0.00     0.031 C 
ATOM     62  C   UNL A   1      44.634  28.947  28.642  1.00  0.00     0.031 A 
BRANCH  49  63
ATOM     63  C   UNL A   1      39.233  29.438  28.285  1.00  0.00    -0.014 A 
ATOM     64  C   UNL A   1      38.010  29.744  27.664  1.00  0.00     0.010 A 
ATOM     65  C   UNL A   1      39.535  30.114  29.488  1.00  0.00     0.010 A 
ATOM     66  C   UNL A   1      37.145  30.700  28.214  1.00  0.00     0.020 A 
ATOM     67  C   UNL A   1      38.660  31.027  30.070  1.00  0.00     0.020 A 
ATOM     68  C   UNL A   1      37.482  31.338  29.410  1.00  0.00     0.054 A 
BRANCH  68  69
ATOM     69  S   UNL A   1      36.401  32.630  30.069  1.00  0.00     0.124 S 
ATOM     70  O   UNL A   1      35.156  32.371  29.354  1.00  0.00    -0.237 OA
ATOM     71  O   UNL A   1      36.389  32.326  31.498  1.00  0.00    -0.237 OA
ATOM     72  O   UNL A   1      37.088  33.868  29.708  1.00  0.00    -0.744 OA
ENDBRANCH  68  69
ENDBRANCH  49  63
BRANCH  50  73
ATOM     73  C   UNL A   1      44.711  25.674  33.609  1.00  0.00    -0.014 A 
ATOM     74  C   UNL A   1      45.924  25.618  34.319  1.00  0.00     0.010 A 
ATOM     75  C   UNL A   1      43.517  25.631  34.360  1.00  0.00     0.010 A 
ATOM     76  C   UNL A   1      45.938  25.578  35.725  1.00  0.00     0.020 A 
ATOM     77  C   UNL A   1      43.521  25.578  35.756  1.00  0.00     0.020 A 
ATOM     78  C   UNL A   1      44.734  25.575  36.436  1.00  0.00     0.054 A 
BRANCH  78  79
ATOM     79  S   UNL A   1      44.756  25.698  38.248  1.00  0.00     0.124 S 
ATOM     80  O   UNL A   1      46.000  26.419  38.495  1.00  0.00    -0.237 OA
ATOM     81  O   UNL A   1      43.528  26.437  38.529  1.00  0.00    -0.237 OA
ATOM     82  O   UNL A   1      44.750  24.303  38.687  1.00  0.00    -0.744 OA
ENDBRANCH  78  79
ENDBRANCH  50  73
BRANCH  62  83
ATOM     83  C   UNL A   1      46.012  28.621  28.102  1.00  0.00    -0.014 A 
ATOM     84  C   UNL A   1      46.383  27.345  27.633  1.00  0.00     0.010 A 
ATOM     85  C   UNL A   1      46.909  29.688  27.909  1.00  0.00     0.010 A 
ATOM     86  C   UNL A   1      47.626  27.138  27.014  1.00  0.00     0.020 A 
ATOM     87  C   UNL A   1      48.140  29.493  27.275  1.00  0.00     0.020 A 
ATOM     88  C   UNL A   1      48.498  28.217  26.839  1.00  0.00     0.054 A 
BRANCH  88  89
ATOM     89  S   UNL A   1      50.081  27.954  25.991  1.00  0.00     0.124 S 
ATOM     90  O   UNL A   1      50.396  26.569  26.328  1.00  0.00    -0.237 OA
ATOM     91  O   UNL A   1      49.746  28.200  24.590  1.00  0.00    -0.237 OA
ATOM     92  O   UNL A   1      50.967  28.953  26.589  1.00  0.00    -0.744 OA
ENDBRANCH  88  89
ENDBRANCH  62  83
ENDBRANCH  36  37
ENDBRANCH  29  31
ENDBRANCH  28  29
ENDBRANCH  27  28
ENDBRANCH  26  27
ENDBRANCH  25  26
ENDBRANCH   1  25
TORSDOF 22
ENDMDL
MODEL 3
REMARK VINA RESULT:     -10.2      2.867      5.234
REMARK SMILES CCn1nc(-c2cccnc2)c2cc(C(=O)OCCOCCOCCOC(=O)c3ccc(-c4c5nc(c(-c6ccc(S(=O)(=O)[O-])cc6)c6ccc([nH]6)c(-c6ccc(S(=O)(=O)[O-])cc6)c6nc(c(-c7ccc(S(=O)(=O)[O-])cc7)c7ccc4[nH]7)C=C6)C=C5)cc3)sc21
REMARK SMILES IDX 22 1 21 2 20 3 19 4 18 5 17 6 15 7 16 8 14 9 3 10 4 11 90 12
REMARK SMILES IDX 5 13 12 14 89 15 13 16 2 17 1 18 6 19 7 20 11 21 8 22 10 23
REMARK SMILES IDX 9 24 23 25 24 26 25 27 26 28 27 29 28 30 29 31 30 32 88 33
REMARK SMILES IDX 31 34 87 35 32 36 33 37 34 38 81 39 35 40 86 41 80 42 82 43
REMARK SMILES IDX 36 44 85 45 79 46 78 47 37 49 67 50 48 51 66 52 49 53 52 54
REMARK SMILES IDX 65 55 83 56 50 57 51 58 64 60 84 61 53 62 38 63 39 64 47 65
REMARK SMILES IDX 40 66 46 67 41 68 42 69 43 70 44 71 45 72 68 73 69 74 77 75
REMARK SMILES IDX 70 76 76 77 71 78 72 79 73 80 74 81 75 82 54 83 55 84 63 85
REMARK SMILES IDX 56 86 62 87 57 88 58 89 59 90 60 91 61 92
REMARK H PARENT 82 48 52 59
REMARK Flexibility Score: inf
ROOT
ATOM      1  C   UNL A   1      35.959  21.335  24.697  1.00  0.00     0.188 C 
ENDROOT
BRANCH   1   2
ATOM      2  C   UNL A   1      34.810  20.358  25.045  1.00  0.00     0.188 C 
BRANCH   2   3
ATOM      3  O   UNL A   1      33.461  20.796  25.173  1.00  0.00    -0.376 OA
BRANCH   3   4
ATOM      4  C   UNL A   1      33.010  21.404  26.373  1.00  0.00     0.202 C 
BRANCH   4   5
ATOM      5  C   UNL A   1      33.196  22.919  26.559  1.00  0.00     0.261 C 
BRANCH   5   6
ATOM      6  O   UNL A   1      32.180  23.582  27.324  1.00  0.00    -0.459 OA
BRANCH   6   7
ATOM      7  C   UNL A   1      31.016  23.893  26.684  1.00  0.00     0.348 C 
ATOM      8  O   UNL A   1      30.017  23.182  26.666  1.00  0.00    -0.245 OA
BRANCH   7   9
ATOM      9  C   UNL A   1      31.078  25.242  26.143  1.00  0.00     0.115 A 
ATOM     10  N   UNL A   1      30.732  28.347  24.041  1.00  0.00    -0.254 N 
ATOM     11  N   UNL A   1      31.575  29.292  24.556  1.00  0.00    -0.171 NA
ATOM     12  C   UNL A   1      30.787  27.202  24.759  1.00  0.00     0.122 A 
ATOM     13  C   UNL A   1      32.208  28.680  25.585  1.00  0.00     0.103 A 
ATOM     14  C   UNL A   1      31.712  27.383  25.707  1.00  0.00     0.040 A 
ATOM     15  S   UNL A   1      30.050  25.715  24.811  1.00  0.00    -0.109 S 
ATOM     16  C   UNL A   1      31.910  26.292  26.554  1.00  0.00     0.040 A 
BRANCH  10  17
ATOM     17  C   UNL A   1      29.904  28.726  22.915  1.00  0.00     0.142 C 
ATOM     18  C   UNL A   1      28.399  28.604  23.093  1.00  0.00     0.029 C 
ENDBRANCH  10  17
BRANCH  13  19
ATOM     19  C   UNL A   1      33.172  29.409  26.384  1.00  0.00     0.021 A 
ATOM     20  C   UNL A   1      34.377  28.808  26.755  1.00  0.00     0.013 A 
ATOM     21  C   UNL A   1      32.912  30.686  26.864  1.00  0.00     0.121 A 
ATOM     22  C   UNL A   1      35.269  29.496  27.574  1.00  0.00     0.021 A 
ATOM     23  N   UNL A   1      33.766  31.382  27.657  1.00  0.00    -0.264 NA
ATOM     24  C   UNL A   1      34.920  30.768  27.998  1.00  0.00     0.111 A 
ENDBRANCH  13  19
ENDBRANCH   7   9
ENDBRANCH   6   7
ENDBRANCH   5   6
ENDBRANCH   4   5
ENDBRANCH   3   4
ENDBRANCH   2   3
ENDBRANCH   1   2
BRANCH   1  25
ATOM     25  O   UNL A   1      36.500  22.041  25.800  1.00  0.00    -0.376 OA
BRANCH  25  26
ATOM     26  C   UNL A   1      37.734  22.717  25.603  1.00  0.00     0.202 C 
BRANCH  26  27
ATOM     27  C   UNL A   1      39.002  22.059  26.143  1.00  0.00     0.261 C 
BRANCH  27  28
ATOM     28  O   UNL A   1      39.795  22.884  26.978  1.00  0.00    -0.460 OA
BRANCH  28  29
ATOM     29  C   UNL A   1      41.052  23.101  26.544  1.00  0.00     0.338 C 
ATOM     30  O   UNL A   1      41.871  22.256  26.228  1.00  0.00    -0.246 OA
BRANCH  29  31
ATOM     31  C   UNL A   1      41.314  24.543  26.605  1.00  0.00     0.060 A 
ATOM     32  C   UNL A   1      42.569  24.938  27.065  1.00  0.00     0.016 A 
ATOM     33  C   UNL A   1      40.232  25.434  26.517  1.00  0.00     0.016 A 
ATOM     34  C   UNL A   1      42.670  26.162  27.683  1.00  0.00     0.010 A 
ATOM     35  C   UNL A   1      40.327  26.646  27.153  1.00  0.00     0.010 A 
ATOM     36  C   UNL A   1      41.515  26.939  27.816  1.00  0.00    -0.014 A 
BRANCH  36  37
ATOM     37  C   UNL A   1      41.573  28.059  28.721  1.00  0.00     0.031 A 
ATOM     38  C   UNL A   1      42.688  28.984  28.468  1.00  0.00     0.074 A 
ATOM     39  C   UNL A   1      40.637  28.258  29.666  1.00  0.00     0.049 A 
ATOM     40  N   UNL A   1      43.720  29.196  29.211  1.00  0.00    -0.248 NA
ATOM     41  C   UNL A   1      42.728  29.643  27.155  1.00  0.00     0.031 C 
ATOM     42  C   UNL A   1      39.343  27.588  29.818  1.00  0.00     0.029 A 
ATOM     43  N   UNL A   1      40.605  29.216  30.626  1.00  0.00    -0.354 N 
ATOM     44  C   UNL A   1      44.456  30.167  28.548  1.00  0.00     0.074 A 
ATOM     45  C   UNL A   1      43.903  30.268  27.219  1.00  0.00     0.031 C 
ATOM     46  C   UNL A   1      38.563  28.328  30.638  1.00  0.00     0.029 A 
ATOM     47  C   UNL A   1      39.344  29.441  31.155  1.00  0.00     0.049 A 
ATOM     48  H   UNL A   1      41.406  29.708  30.920  1.00  0.00     0.167 HD
ATOM     49  C   UNL A   1      45.309  30.996  29.203  1.00  0.00     0.031 A 
ATOM     50  C   UNL A   1      38.963  30.536  31.860  1.00  0.00     0.031 A 
ATOM     51  C   UNL A   1      45.638  30.520  30.520  1.00  0.00     0.049 A 
ATOM     52  C   UNL A   1      40.200  31.178  32.382  1.00  0.00     0.074 A 
ATOM     53  C   UNL A   1      46.209  29.359  31.004  1.00  0.00     0.029 A 
ATOM     54  N   UNL A   1      44.998  31.103  31.591  1.00  0.00    -0.354 N 
ATOM     55  N   UNL A   1      40.976  30.627  33.276  1.00  0.00    -0.248 NA
ATOM     56  C   UNL A   1      40.828  32.220  31.581  1.00  0.00     0.031 C 
ATOM     57  C   UNL A   1      45.485  29.061  32.195  1.00  0.00     0.029 A 
ATOM     58  C   UNL A   1      44.558  30.083  32.402  1.00  0.00     0.049 A 
ATOM     59  H   UNL A   1      44.879  32.067  31.747  1.00  0.00     0.167 HD
ATOM     60  C   UNL A   1      42.269  30.936  32.874  1.00  0.00     0.074 A 
ATOM     61  C   UNL A   1      42.112  31.999  31.882  1.00  0.00     0.031 C 
ATOM     62  C   UNL A   1      43.326  30.118  33.166  1.00  0.00     0.031 A 
BRANCH  49  63
ATOM     63  C   UNL A   1      45.534  32.413  28.762  1.00  0.00    -0.014 A 
ATOM     64  C   UNL A   1      44.915  33.468  29.454  1.00  0.00     0.010 A 
ATOM     65  C   UNL A   1      46.151  32.722  27.529  1.00  0.00     0.010 A 
ATOM     66  C   UNL A   1      44.895  34.764  28.920  1.00  0.00     0.020 A 
ATOM     67  C   UNL A   1      46.182  34.015  27.015  1.00  0.00     0.020 A 
ATOM     68  C   UNL A   1      45.525  35.024  27.700  1.00  0.00     0.054 A 
BRANCH  68  69
ATOM     69  S   UNL A   1      45.425  36.679  26.978  1.00  0.00     0.124 S 
ATOM     70  O   UNL A   1      45.765  37.524  28.119  1.00  0.00    -0.237 OA
ATOM     71  O   UNL A   1      46.424  36.615  25.915  1.00  0.00    -0.237 OA
ATOM     72  O   UNL A   1      44.040  36.769  26.521  1.00  0.00    -0.744 OA
ENDBRANCH  68  69
ENDBRANCH  49  63
BRANCH  50  73
ATOM     73  C   UNL A   1      37.653  31.232  31.764  1.00  0.00    -0.014 A 
ATOM     74  C   UNL A   1      36.785  31.308  32.868  1.00  0.00     0.010 A 
ATOM     75  C   UNL A   1      37.361  32.049  30.650  1.00  0.00     0.010 A 
ATOM     76  C   UNL A   1      35.702  32.207  32.876  1.00  0.00     0.020 A 
ATOM     77  C   UNL A   1      36.280  32.935  30.644  1.00  0.00     0.020 A 
ATOM     78  C   UNL A   1      35.467  33.028  31.769  1.00  0.00     0.054 A 
BRANCH  78  79
ATOM     79  S   UNL A   1      34.179  34.305  31.850  1.00  0.00     0.124 S 
ATOM     80  O   UNL A   1      33.272  33.768  32.859  1.00  0.00    -0.237 OA
ATOM     81  O   UNL A   1      34.934  35.492  32.242  1.00  0.00    -0.237 OA
ATOM     82  O   UNL A   1      33.642  34.339  30.489  1.00  0.00    -0.744 OA
ENDBRANCH  78  79
ENDBRANCH  50  73
BRANCH  62  83
ATOM     83  C   UNL A   1      43.125  28.993  34.162  1.00  0.00    -0.014 A 
ATOM     84  C   UNL A   1      42.581  27.739  33.821  1.00  0.00     0.010 A 
ATOM     85  C   UNL A   1      43.661  29.157  35.452  1.00  0.00     0.010 A 
ATOM     86  C   UNL A   1      42.550  26.689  34.752  1.00  0.00     0.020 A 
ATOM     87  C   UNL A   1      43.652  28.110  36.378  1.00  0.00     0.020 A 
ATOM     88  C   UNL A   1      43.088  26.883  36.028  1.00  0.00     0.054 A 
BRANCH  88  89
ATOM     89  S   UNL A   1      43.093  25.507  37.211  1.00  0.00     0.124 S 
ATOM     90  O   UNL A   1      44.247  24.722  36.781  1.00  0.00    -0.237 OA
ATOM     91  O   UNL A   1      43.236  26.183  38.498  1.00  0.00    -0.237 OA
ATOM     92  O   UNL A   1      41.796  24.862  37.003  1.00  0.00    -0.744 OA
ENDBRANCH  88  89
ENDBRANCH  62  83
ENDBRANCH  36  37
ENDBRANCH  29  31
ENDBRANCH  28  29
ENDBRANCH  27  28
ENDBRANCH  26  27
ENDBRANCH  25  26
ENDBRANCH   1  25
TORSDOF 22
ENDMDL
