MODEL 1
REMARK VINA RESULT:      -9.7      0.000      0.000
REMARK SMILES O=C(Cn1cc(NC(=O)N2CC[N@@H+]3CCC[C@@H]3C2)cn1)OCCOCCOCCOC(=O)c1ccc(-c2c3nc(c(-c4ccc(S(=O)(=O)[O-])cc4)c4ccc([nH]4)c(-c4ccc(S(=O)(=O)[O-])cc4)c4nc(c(-c5ccc(S(=O)(=O)[O-])cc5)c5ccc2[nH]5)C=C4)C=C3)cc1
REMARK SMILES IDX 25 1 24 2 23 3 22 4 21 5 2 6 1 7 3 8 4 9 5 10 20 11 6 12
REMARK SMILES IDX 19 13 7 14 8 15 9 17 10 18 11 19 18 20 12 21 17 22 13 23
REMARK SMILES IDX 16 24 14 25 15 27 26 28 27 29 28 30 29 31 30 32 31 33 32 34
REMARK SMILES IDX 33 35 34 36 92 37 35 38 91 39 36 40 37 41 38 42 85 43 39 44
REMARK SMILES IDX 90 45 84 46 86 47 40 48 89 49 83 50 82 51 41 53 71 54 52 55
REMARK SMILES IDX 70 56 53 57 56 58 69 59 87 60 54 61 55 62 68 64 88 65 57 66
REMARK SMILES IDX 42 67 43 68 51 69 44 70 50 71 45 72 46 73 47 74 48 75 49 76
REMARK SMILES IDX 72 77 73 78 81 79 74 80 80 81 75 82 76 83 77 84 78 85 79 86
REMARK SMILES IDX 58 87 59 88 67 89 60 90 66 91 61 92 62 93 63 94 64 95 65 96
REMARK H PARENT 7 16 13 26 86 52 56 63
REMARK Flexibility Score: inf
ROOT
ATOM      1  C   UNL A   1      39.319  23.430  27.015  1.00  0.00     0.188 C 
ENDROOT
BRANCH   1   2
ATOM      2  O   UNL A   1      38.168  24.012  26.443  1.00  0.00    -0.376 OA
BRANCH   2   3
ATOM      3  C   UNL A   1      37.136  23.241  25.867  1.00  0.00     0.202 C 
BRANCH   3   4
ATOM      4  C   UNL A   1      36.730  23.381  24.398  1.00  0.00     0.261 C 
BRANCH   4   5
ATOM      5  O   UNL A   1      35.859  22.432  23.740  1.00  0.00    -0.462 OA
BRANCH   5   6
ATOM      6  C   UNL A   1      34.533  22.207  23.698  1.00  0.00     0.327 C 
ATOM      7  O   UNL A   1      33.852  22.903  22.942  1.00  0.00    -0.250 OA
BRANCH   6   8
ATOM      8  C   UNL A   1      33.883  21.196  24.595  1.00  0.00     0.266 C 
BRANCH   8   9
ATOM      9  N   UNL A   1      33.074  21.808  25.612  1.00  0.00    -0.259 N 
ATOM     10  C   UNL A   1      31.726  22.001  25.591  1.00  0.00     0.135 A 
ATOM     11  N   UNL A   1      33.660  22.296  26.720  1.00  0.00    -0.179 NA
ATOM     12  C   UNL A   1      31.482  22.936  26.550  1.00  0.00     0.081 A 
ATOM     13  C   UNL A   1      32.680  22.993  27.294  1.00  0.00     0.161 A 
BRANCH  12  14
ATOM     14  N   UNL A   1      30.303  23.637  26.626  1.00  0.00    -0.305 N 
ATOM     15  C   UNL A   1      30.111  24.887  26.115  1.00  0.00     0.322 C 
ATOM     16  H   UNL A   1      29.543  23.207  27.080  1.00  0.00     0.171 HD
ATOM     17  O   UNL A   1      29.234  25.619  26.566  1.00  0.00    -0.248 OA
BRANCH  15  18
ATOM     18  N   UNL A   1      30.949  25.263  25.095  1.00  0.00    -0.313 N 
ATOM     19  C   UNL A   1      30.664  24.974  23.678  1.00  0.00     0.183 C 
ATOM     20  C   UNL A   1      32.077  26.109  25.403  1.00  0.00     0.186 C 
ATOM     21  C   UNL A   1      31.708  25.549  22.703  1.00  0.00     0.284 C 
ATOM     22  C   UNL A   1      32.241  27.262  24.418  1.00  0.00     0.204 C 
ATOM     23  N   UNL A   1      32.099  26.939  22.979  1.00  0.00    -0.330 N 
ATOM     24  C   UNL A   1      33.621  27.895  24.573  1.00  0.00     0.073 C 
ATOM     25  C   UNL A   1      33.345  27.310  22.302  1.00  0.00     0.262 C 
ATOM     26  H   UNL A   1      31.320  27.484  22.611  1.00  0.00     0.348 HD
ATOM     27  C   UNL A   1      33.936  28.397  23.182  1.00  0.00     0.068 C 
ENDBRANCH  15  18
ENDBRANCH  12  14
ENDBRANCH   8   9
ENDBRANCH   6   8
ENDBRANCH   5   6
ENDBRANCH   4   5
ENDBRANCH   3   4
ENDBRANCH   2   3
ENDBRANCH   1   2
BRANCH   1  28
ATOM     28  C   UNL A   1      39.922  22.152  26.439  1.00  0.00     0.188 C 
BRANCH  28  29
ATOM     29  O   UNL A   1      40.412  21.174  27.329  1.00  0.00    -0.376 OA
BRANCH  29  30
ATOM     30  C   UNL A   1      41.071  19.995  26.885  1.00  0.00     0.202 C 
BRANCH  30  31
ATOM     31  C   UNL A   1      42.437  19.935  26.195  1.00  0.00     0.261 C 
BRANCH  31  32
ATOM     32  O   UNL A   1      42.759  21.088  25.440  1.00  0.00    -0.460 OA
BRANCH  32  33
ATOM     33  C   UNL A   1      43.982  21.027  24.869  1.00  0.00     0.338 C 
ATOM     34  O   UNL A   1      44.713  20.053  24.824  1.00  0.00    -0.246 OA
BRANCH  33  35
ATOM     35  C   UNL A   1      44.365  22.343  24.326  1.00  0.00     0.060 A 
ATOM     36  C   UNL A   1      45.750  22.491  24.209  1.00  0.00     0.016 A 
ATOM     37  C   UNL A   1      43.519  23.406  24.655  1.00  0.00     0.016 A 
ATOM     38  C   UNL A   1      46.315  23.530  24.899  1.00  0.00     0.010 A 
ATOM     39  C   UNL A   1      44.084  24.444  25.347  1.00  0.00     0.010 A 
ATOM     40  C   UNL A   1      45.458  24.397  25.578  1.00  0.00    -0.014 A 
BRANCH  40  41
ATOM     41  C   UNL A   1      46.039  25.263  26.574  1.00  0.00     0.031 A 
ATOM     42  C   UNL A   1      45.474  25.028  27.911  1.00  0.00     0.074 A 
ATOM     43  C   UNL A   1      47.054  26.098  26.280  1.00  0.00     0.049 A 
ATOM     44  N   UNL A   1      44.688  25.796  28.587  1.00  0.00    -0.248 NA
ATOM     45  C   UNL A   1      45.630  23.671  28.462  1.00  0.00     0.031 C 
ATOM     46  C   UNL A   1      47.843  26.179  25.045  1.00  0.00     0.029 A 
ATOM     47  N   UNL A   1      47.692  26.971  27.100  1.00  0.00    -0.354 N 
ATOM     48  C   UNL A   1      44.438  25.099  29.760  1.00  0.00     0.074 A 
ATOM     49  C   UNL A   1      44.818  23.731  29.514  1.00  0.00     0.031 C 
ATOM     50  C   UNL A   1      48.996  26.840  25.302  1.00  0.00     0.029 A 
ATOM     51  C   UNL A   1      48.963  27.329  26.672  1.00  0.00     0.049 A 
ATOM     52  H   UNL A   1      47.287  27.321  27.926  1.00  0.00     0.167 HD
ATOM     53  C   UNL A   1      44.254  25.739  30.945  1.00  0.00     0.031 A 
ATOM     54  C   UNL A   1      49.940  27.875  27.443  1.00  0.00     0.031 A 
ATOM     55  C   UNL A   1      43.964  27.137  30.767  1.00  0.00     0.049 A 
ATOM     56  C   UNL A   1      49.278  28.432  28.654  1.00  0.00     0.074 A 
ATOM     57  C   UNL A   1      42.969  27.844  30.123  1.00  0.00     0.029 A 
ATOM     58  N   UNL A   1      45.001  28.022  30.953  1.00  0.00    -0.354 N 
ATOM     59  N   UNL A   1      48.439  29.430  28.616  1.00  0.00    -0.248 NA
ATOM     60  C   UNL A   1      49.162  27.573  29.826  1.00  0.00     0.031 C 
ATOM     61  C   UNL A   1      43.627  28.967  29.544  1.00  0.00     0.029 A 
ATOM     62  C   UNL A   1      44.974  28.920  29.915  1.00  0.00     0.049 A 
ATOM     63  H   UNL A   1      45.647  28.013  31.696  1.00  0.00     0.167 HD
ATOM     64  C   UNL A   1      47.430  29.090  29.508  1.00  0.00     0.074 A 
ATOM     65  C   UNL A   1      47.975  27.979  30.288  1.00  0.00     0.031 C 
ATOM     66  C   UNL A   1      46.150  29.540  29.340  1.00  0.00     0.031 A 
BRANCH  53  67
ATOM     67  C   UNL A   1      44.777  25.173  32.238  1.00  0.00    -0.014 A 
ATOM     68  C   UNL A   1      46.104  25.435  32.614  1.00  0.00     0.010 A 
ATOM     69  C   UNL A   1      44.086  24.178  32.964  1.00  0.00     0.010 A 
ATOM     70  C   UNL A   1      46.719  24.702  33.638  1.00  0.00     0.020 A 
ATOM     71  C   UNL A   1      44.669  23.479  34.017  1.00  0.00     0.020 A 
ATOM     72  C   UNL A   1      45.997  23.723  34.324  1.00  0.00     0.054 A 
BRANCH  72  73
ATOM     73  S   UNL A   1      46.826  22.711  35.570  1.00  0.00     0.124 S 
ATOM     74  O   UNL A   1      47.752  21.932  34.753  1.00  0.00    -0.237 OA
ATOM     75  O   UNL A   1      47.431  23.719  36.434  1.00  0.00    -0.237 OA
ATOM     76  O   UNL A   1      45.734  21.951  36.176  1.00  0.00    -0.744 OA
ENDBRANCH  72  73
ENDBRANCH  53  67
BRANCH  54  77
ATOM     77  C   UNL A   1      51.395  27.564  27.389  1.00  0.00    -0.014 A 
ATOM     78  C   UNL A   1      51.884  26.272  27.661  1.00  0.00     0.010 A 
ATOM     79  C   UNL A   1      52.290  28.485  26.800  1.00  0.00     0.010 A 
ATOM     80  C   UNL A   1      53.198  25.904  27.312  1.00  0.00     0.020 A 
ATOM     81  C   UNL A   1      53.599  28.129  26.457  1.00  0.00     0.020 A 
ATOM     82  C   UNL A   1      54.042  26.832  26.695  1.00  0.00     0.054 A 
BRANCH  82  83
ATOM     83  S   UNL A   1      55.678  26.309  26.095  1.00  0.00     0.124 S 
ATOM     84  O   UNL A   1      55.346  25.599  24.864  1.00  0.00    -0.237 OA
ATOM     85  O   UNL A   1      56.376  27.581  25.925  1.00  0.00    -0.237 OA
ATOM     86  O   UNL A   1      56.188  25.467  27.177  1.00  0.00    -0.744 OA
ENDBRANCH  82  83
ENDBRANCH  54  77
BRANCH  66  87
ATOM     87  C   UNL A   1      45.902  30.611  28.298  1.00  0.00    -0.014 A 
ATOM     88  C   UNL A   1      45.839  30.354  26.912  1.00  0.00     0.010 A 
ATOM     89  C   UNL A   1      45.562  31.896  28.753  1.00  0.00     0.010 A 
ATOM     90  C   UNL A   1      45.472  31.364  26.009  1.00  0.00     0.020 A 
ATOM     91  C   UNL A   1      45.180  32.901  27.861  1.00  0.00     0.020 A 
ATOM     92  C   UNL A   1      45.145  32.635  26.491  1.00  0.00     0.054 A 
BRANCH  92  93
ATOM     93  S   UNL A   1      44.631  33.929  25.327  1.00  0.00     0.124 S 
ATOM     94  O   UNL A   1      44.082  33.158  24.216  1.00  0.00    -0.237 OA
ATOM     95  O   UNL A   1      43.658  34.697  26.101  1.00  0.00    -0.237 OA
ATOM     96  O   UNL A   1      45.872  34.644  25.030  1.00  0.00    -0.744 OA
ENDBRANCH  92  93
ENDBRANCH  66  87
ENDBRANCH  40  41
ENDBRANCH  33  35
ENDBRANCH  32  33
ENDBRANCH  31  32
ENDBRANCH  30  31
ENDBRANCH  29  30
ENDBRANCH  28  29
ENDBRANCH   1  28
TORSDOF 23
ENDMDL
MODEL 2
REMARK VINA RESULT:      -9.6      3.821      7.185
REMARK SMILES O=C(Cn1cc(NC(=O)N2CC[N@@H+]3CCC[C@@H]3C2)cn1)OCCOCCOCCOC(=O)c1ccc(-c2c3nc(c(-c4ccc(S(=O)(=O)[O-])cc4)c4ccc([nH]4)c(-c4ccc(S(=O)(=O)[O-])cc4)c4nc(c(-c5ccc(S(=O)(=O)[O-])cc5)c5ccc2[nH]5)C=C4)C=C3)cc1
REMARK SMILES IDX 25 1 24 2 23 3 22 4 21 5 2 6 1 7 3 8 4 9 5 10 20 11 6 12
REMARK SMILES IDX 19 13 7 14 8 15 9 17 10 18 11 19 18 20 12 21 17 22 13 23
REMARK SMILES IDX 16 24 14 25 15 27 26 28 27 29 28 30 29 31 30 32 31 33 32 34
REMARK SMILES IDX 33 35 34 36 92 37 35 38 91 39 36 40 37 41 38 42 85 43 39 44
REMARK SMILES IDX 90 45 84 46 86 47 40 48 89 49 83 50 82 51 41 53 71 54 52 55
REMARK SMILES IDX 70 56 53 57 56 58 69 59 87 60 54 61 55 62 68 64 88 65 57 66
REMARK SMILES IDX 42 67 43 68 51 69 44 70 50 71 45 72 46 73 47 74 48 75 49 76
REMARK SMILES IDX 72 77 73 78 81 79 74 80 80 81 75 82 76 83 77 84 78 85 79 86
REMARK SMILES IDX 58 87 59 88 67 89 60 90 66 91 61 92 62 93 63 94 64 95 65 96
REMARK H PARENT 7 16 13 26 86 52 56 63
REMARK Flexibility Score: inf
ROOT
ATOM      1  C   UNL A   1      34.250  29.618  26.959  1.00  0.00     0.188 C 
ENDROOT
BRANCH   1   2
ATOM      2  O   UNL A   1      33.112  28.828  27.224  1.00  0.00    -0.376 OA
BRANCH   2   3
ATOM      3  C   UNL A   1      31.867  29.058  26.600  1.00  0.00     0.202 C 
BRANCH   3   4
ATOM      4  C   UNL A   1      31.725  29.936  25.355  1.00  0.00     0.261 C 
BRANCH   4   5
ATOM      5  O   UNL A   1      31.715  29.389  24.016  1.00  0.00    -0.462 OA
BRANCH   5   6
ATOM      6  C   UNL A   1      32.595  28.740  23.231  1.00  0.00     0.327 C 
ATOM      7  O   UNL A   1      33.516  29.392  22.734  1.00  0.00    -0.250 OA
BRANCH   6   8
ATOM      8  C   UNL A   1      32.426  27.287  22.903  1.00  0.00     0.266 C 
BRANCH   8   9
ATOM      9  N   UNL A   1      32.661  26.439  24.039  1.00  0.00    -0.259 N 
ATOM     10  C   UNL A   1      31.787  25.568  24.613  1.00  0.00     0.135 A 
ATOM     11  N   UNL A   1      33.847  26.491  24.670  1.00  0.00    -0.179 NA
ATOM     12  C   UNL A   1      32.302  25.303  25.846  1.00  0.00     0.081 A 
ATOM     13  C   UNL A   1      33.624  25.794  25.784  1.00  0.00     0.161 A 
BRANCH  12  14
ATOM     14  N   UNL A   1      31.567  24.728  26.854  1.00  0.00    -0.305 N 
ATOM     15  C   UNL A   1      31.398  23.386  27.021  1.00  0.00     0.322 C 
ATOM     16  H   UNL A   1      31.131  25.328  27.503  1.00  0.00     0.171 HD
ATOM     17  O   UNL A   1      30.426  22.948  27.632  1.00  0.00    -0.248 OA
BRANCH  15  18
ATOM     18  N   UNL A   1      32.360  22.577  26.467  1.00  0.00    -0.313 N 
ATOM     19  C   UNL A   1      33.662  22.328  27.110  1.00  0.00     0.183 C 
ATOM     20  C   UNL A   1      32.028  21.819  25.285  1.00  0.00     0.186 C 
ATOM     21  C   UNL A   1      34.555  21.336  26.341  1.00  0.00     0.284 C 
ATOM     22  C   UNL A   1      32.492  20.369  25.361  1.00  0.00     0.204 C 
ATOM     23  N   UNL A   1      33.862  20.129  25.871  1.00  0.00    -0.330 N 
ATOM     24  C   UNL A   1      32.439  19.725  23.978  1.00  0.00     0.073 C 
ATOM     25  C   UNL A   1      34.619  19.421  24.835  1.00  0.00     0.262 C 
ATOM     26  H   UNL A   1      33.788  19.555  26.711  1.00  0.00     0.348 HD
ATOM     27  C   UNL A   1      33.555  18.706  24.022  1.00  0.00     0.068 C 
ENDBRANCH  15  18
ENDBRANCH  12  14
ENDBRANCH   8   9
ENDBRANCH   6   8
ENDBRANCH   5   6
ENDBRANCH   4   5
ENDBRANCH   3   4
ENDBRANCH   2   3
ENDBRANCH   1   2
BRANCH   1  28
ATOM     28  C   UNL A   1      34.890  30.467  28.054  1.00  0.00     0.188 C 
BRANCH  28  29
ATOM     29  O   UNL A   1      35.627  31.610  27.681  1.00  0.00    -0.376 OA
BRANCH  29  30
ATOM     30  C   UNL A   1      36.800  32.023  28.369  1.00  0.00     0.202 C 
BRANCH  30  31
ATOM     31  C   UNL A   1      37.731  31.118  29.183  1.00  0.00     0.261 C 
BRANCH  31  32
ATOM     32  O   UNL A   1      37.483  31.130  30.576  1.00  0.00    -0.460 OA
BRANCH  32  33
ATOM     33  C   UNL A   1      37.118  29.925  31.063  1.00  0.00     0.338 C 
ATOM     34  O   UNL A   1      36.131  29.285  30.748  1.00  0.00    -0.246 OA
BRANCH  33  35
ATOM     35  C   UNL A   1      38.067  29.476  32.098  1.00  0.00     0.060 A 
ATOM     36  C   UNL A   1      39.018  30.451  32.413  1.00  0.00     0.016 A 
ATOM     37  C   UNL A   1      38.361  28.109  32.101  1.00  0.00     0.016 A 
ATOM     38  C   UNL A   1      40.331  30.108  32.229  1.00  0.00     0.010 A 
ATOM     39  C   UNL A   1      39.674  27.767  31.914  1.00  0.00     0.010 A 
ATOM     40  C   UNL A   1      40.608  28.798  31.835  1.00  0.00    -0.014 A 
BRANCH  40  41
ATOM     41  C   UNL A   1      41.922  28.526  31.306  1.00  0.00     0.031 A 
ATOM     42  C   UNL A   1      42.940  28.447  32.364  1.00  0.00     0.074 A 
ATOM     43  C   UNL A   1      42.120  28.277  29.998  1.00  0.00     0.049 A 
ATOM     44  N   UNL A   1      43.887  29.286  32.619  1.00  0.00    -0.248 NA
ATOM     45  C   UNL A   1      42.736  27.419  33.399  1.00  0.00     0.031 C 
ATOM     46  C   UNL A   1      41.118  28.066  28.946  1.00  0.00     0.029 A 
ATOM     47  N   UNL A   1      43.286  28.016  29.356  1.00  0.00    -0.354 N 
ATOM     48  C   UNL A   1      44.540  28.755  33.721  1.00  0.00     0.074 A 
ATOM     49  C   UNL A   1      43.650  27.779  34.296  1.00  0.00     0.031 C 
ATOM     50  C   UNL A   1      41.708  27.451  27.894  1.00  0.00     0.029 A 
ATOM     51  C   UNL A   1      43.136  27.343  28.152  1.00  0.00     0.049 A 
ATOM     52  H   UNL A   1      44.164  28.282  29.714  1.00  0.00     0.167 HD
ATOM     53  C   UNL A   1      45.880  28.902  33.896  1.00  0.00     0.031 A 
ATOM     54  C   UNL A   1      44.106  26.652  27.497  1.00  0.00     0.031 A 
ATOM     55  C   UNL A   1      46.423  29.949  33.071  1.00  0.00     0.049 A 
ATOM     56  C   UNL A   1      45.412  27.121  28.036  1.00  0.00     0.074 A 
ATOM     57  C   UNL A   1      46.193  31.306  32.954  1.00  0.00     0.029 A 
ATOM     58  N   UNL A   1      47.061  29.569  31.913  1.00  0.00    -0.354 N 
ATOM     59  N   UNL A   1      45.857  28.337  27.876  1.00  0.00    -0.248 NA
ATOM     60  C   UNL A   1      45.987  26.397  29.161  1.00  0.00     0.031 C 
ATOM     61  C   UNL A   1      46.280  31.576  31.558  1.00  0.00     0.029 A 
ATOM     62  C   UNL A   1      46.617  30.388  30.904  1.00  0.00     0.049 A 
ATOM     63  H   UNL A   1      47.717  28.840  31.823  1.00  0.00     0.167 HD
ATOM     64  C   UNL A   1      46.425  28.678  29.097  1.00  0.00     0.074 A 
ATOM     65  C   UNL A   1      46.555  27.413  29.819  1.00  0.00     0.031 C 
ATOM     66  C   UNL A   1      46.468  29.976  29.523  1.00  0.00     0.031 A 
BRANCH  53  67
ATOM     67  C   UNL A   1      46.727  27.803  34.479  1.00  0.00    -0.014 A 
ATOM     68  C   UNL A   1      46.824  26.578  33.800  1.00  0.00     0.010 A 
ATOM     69  C   UNL A   1      47.218  27.847  35.804  1.00  0.00     0.010 A 
ATOM     70  C   UNL A   1      47.347  25.444  34.435  1.00  0.00     0.020 A 
ATOM     71  C   UNL A   1      47.787  26.740  36.427  1.00  0.00     0.020 A 
ATOM     72  C   UNL A   1      47.815  25.534  35.748  1.00  0.00     0.054 A 
BRANCH  72  73
ATOM     73  S   UNL A   1      48.389  24.045  36.596  1.00  0.00     0.124 S 
ATOM     74  O   UNL A   1      47.950  24.294  37.965  1.00  0.00    -0.237 OA
ATOM     75  O   UNL A   1      47.680  22.990  35.880  1.00  0.00    -0.237 OA
ATOM     76  O   UNL A   1      49.836  24.070  36.388  1.00  0.00    -0.744 OA
ENDBRANCH  72  73
ENDBRANCH  53  67
BRANCH  54  77
ATOM     77  C   UNL A   1      43.946  25.359  26.778  1.00  0.00    -0.014 A 
ATOM     78  C   UNL A   1      44.351  25.204  25.438  1.00  0.00     0.010 A 
ATOM     79  C   UNL A   1      43.639  24.185  27.501  1.00  0.00     0.010 A 
ATOM     80  C   UNL A   1      44.488  23.925  24.863  1.00  0.00     0.020 A 
ATOM     81  C   UNL A   1      43.766  22.912  26.935  1.00  0.00     0.020 A 
ATOM     82  C   UNL A   1      44.211  22.785  25.623  1.00  0.00     0.054 A 
BRANCH  82  83
ATOM     83  S   UNL A   1      44.548  21.135  24.937  1.00  0.00     0.124 S 
ATOM     84  O   UNL A   1      45.859  20.825  25.499  1.00  0.00    -0.237 OA
ATOM     85  O   UNL A   1      43.434  20.343  25.452  1.00  0.00    -0.237 OA
ATOM     86  O   UNL A   1      44.531  21.354  23.491  1.00  0.00    -0.744 OA
ENDBRANCH  82  83
ENDBRANCH  54  77
BRANCH  66  87
ATOM     87  C   UNL A   1      46.102  31.064  28.535  1.00  0.00    -0.014 A 
ATOM     88  C   UNL A   1      47.010  31.614  27.606  1.00  0.00     0.010 A 
ATOM     89  C   UNL A   1      44.747  31.426  28.438  1.00  0.00     0.010 A 
ATOM     90  C   UNL A   1      46.576  32.521  26.626  1.00  0.00     0.020 A 
ATOM     91  C   UNL A   1      44.306  32.316  27.455  1.00  0.00     0.020 A 
ATOM     92  C   UNL A   1      45.223  32.868  26.559  1.00  0.00     0.054 A 
BRANCH  92  93
ATOM     93  S   UNL A   1      44.655  34.010  25.266  1.00  0.00     0.124 S 
ATOM     94  O   UNL A   1      45.845  34.818  25.011  1.00  0.00    -0.237 OA
ATOM     95  O   UNL A   1      44.262  33.109  24.185  1.00  0.00    -0.237 OA
ATOM     96  O   UNL A   1      43.546  34.725  25.897  1.00  0.00    -0.744 OA
ENDBRANCH  92  93
ENDBRANCH  66  87
ENDBRANCH  40  41
ENDBRANCH  33  35
ENDBRANCH  32  33
ENDBRANCH  31  32
ENDBRANCH  30  31
ENDBRANCH  29  30
ENDBRANCH  28  29
ENDBRANCH   1  28
TORSDOF 23
ENDMDL
MODEL 3
REMARK VINA RESULT:      -9.5      7.112     12.661
REMARK SMILES O=C(Cn1cc(NC(=O)N2CC[N@@H+]3CCC[C@@H]3C2)cn1)OCCOCCOCCOC(=O)c1ccc(-c2c3nc(c(-c4ccc(S(=O)(=O)[O-])cc4)c4ccc([nH]4)c(-c4ccc(S(=O)(=O)[O-])cc4)c4nc(c(-c5ccc(S(=O)(=O)[O-])cc5)c5ccc2[nH]5)C=C4)C=C3)cc1
REMARK SMILES IDX 25 1 24 2 23 3 22 4 21 5 2 6 1 7 3 8 4 9 5 10 20 11 6 12
REMARK SMILES IDX 19 13 7 14 8 15 9 17 10 18 11 19 18 20 12 21 17 22 13 23
REMARK SMILES IDX 16 24 14 25 15 27 26 28 27 29 28 30 29 31 30 32 31 33 32 34
REMARK SMILES IDX 33 35 34 36 92 37 35 38 91 39 36 40 37 41 38 42 85 43 39 44
REMARK SMILES IDX 90 45 84 46 86 47 40 48 89 49 83 50 82 51 41 53 71 54 52 55
REMARK SMILES IDX 70 56 53 57 56 58 69 59 87 60 54 61 55 62 68 64 88 65 57 66
REMARK SMILES IDX 42 67 43 68 51 69 44 70 50 71 45 72 46 73 47 74 48 75 49 76
REMARK SMILES IDX 72 77 73 78 81 79 74 80 80 81 75 82 76 83 77 84 78 85 79 86
REMARK SMILES IDX 58 87 59 88 67 89 60 90 66 91 61 92 62 93 63 94 64 95 65 96
REMARK H PARENT 7 16 13 26 86 52 56 63
REMARK Flexibility Score: inf
ROOT
ATOM      1  C   UNL A   1      32.837  29.717  24.963  1.00  0.00     0.188 C 
ENDROOT
BRANCH   1   2
ATOM      2  O   UNL A   1      32.555  28.568  24.193  1.00  0.00    -0.376 OA
BRANCH   2   3
ATOM      3  C   UNL A   1      31.362  28.425  23.453  1.00  0.00     0.202 C 
BRANCH   3   4
ATOM      4  C   UNL A   1      31.165  27.312  22.422  1.00  0.00     0.261 C 
BRANCH   4   5
ATOM      5  O   UNL A   1      31.754  25.999  22.576  1.00  0.00    -0.462 OA
BRANCH   5   6
ATOM      6  C   UNL A   1      32.805  25.344  22.051  1.00  0.00     0.327 C 
ATOM      7  O   UNL A   1      33.802  26.003  21.746  1.00  0.00    -0.250 OA
BRANCH   6   8
ATOM      8  C   UNL A   1      32.750  23.872  21.771  1.00  0.00     0.266 C 
BRANCH   8   9
ATOM      9  N   UNL A   1      33.661  23.124  22.592  1.00  0.00    -0.259 N 
ATOM     10  C   UNL A   1      33.353  22.141  23.482  1.00  0.00     0.135 A 
ATOM     11  N   UNL A   1      34.975  23.403  22.545  1.00  0.00    -0.179 NA
ATOM     12  C   UNL A   1      34.454  22.019  24.275  1.00  0.00     0.081 A 
ATOM     13  C   UNL A   1      35.462  22.724  23.585  1.00  0.00     0.161 A 
BRANCH  12  14
ATOM     14  N   UNL A   1      34.433  21.370  25.486  1.00  0.00    -0.305 N 
ATOM     15  C   UNL A   1      34.192  21.975  26.684  1.00  0.00     0.322 C 
ATOM     16  H   UNL A   1      34.603  20.400  25.490  1.00  0.00     0.171 HD
ATOM     17  O   UNL A   1      34.599  21.475  27.730  1.00  0.00    -0.248 OA
BRANCH  15  18
ATOM     18  N   UNL A   1      33.489  23.153  26.641  1.00  0.00    -0.313 N 
ATOM     19  C   UNL A   1      34.079  24.420  26.176  1.00  0.00     0.183 C 
ATOM     20  C   UNL A   1      32.073  23.122  26.916  1.00  0.00     0.186 C 
ATOM     21  C   UNL A   1      33.086  25.597  26.151  1.00  0.00     0.284 C 
ATOM     22  C   UNL A   1      31.257  23.937  25.917  1.00  0.00     0.204 C 
ATOM     23  N   UNL A   1      31.777  25.277  25.563  1.00  0.00    -0.330 N 
ATOM     24  C   UNL A   1      29.844  24.162  26.450  1.00  0.00     0.073 C 
ATOM     25  C   UNL A   1      30.756  26.271  25.906  1.00  0.00     0.262 C 
ATOM     26  H   UNL A   1      31.959  25.288  24.559  1.00  0.00     0.348 HD
ATOM     27  C   UNL A   1      29.452  25.495  25.855  1.00  0.00     0.068 C 
ENDBRANCH  15  18
ENDBRANCH  12  14
ENDBRANCH   8   9
ENDBRANCH   6   8
ENDBRANCH   5   6
ENDBRANCH   4   5
ENDBRANCH   3   4
ENDBRANCH   2   3
ENDBRANCH   1   2
BRANCH   1  28
ATOM     28  C   UNL A   1      33.137  29.608  26.455  1.00  0.00     0.188 C 
BRANCH  28  29
ATOM     29  O   UNL A   1      34.228  30.329  26.980  1.00  0.00    -0.376 OA
BRANCH  29  30
ATOM     30  C   UNL A   1      34.079  31.315  27.993  1.00  0.00     0.202 C 
BRANCH  30  31
ATOM     31  C   UNL A   1      34.619  32.748  27.939  1.00  0.00     0.261 C 
BRANCH  31  32
ATOM     32  O   UNL A   1      35.203  33.196  29.148  1.00  0.00    -0.460 OA
BRANCH  32  33
ATOM     33  C   UNL A   1      34.299  33.669  30.033  1.00  0.00     0.338 C 
ATOM     34  O   UNL A   1      33.382  34.435  29.793  1.00  0.00    -0.246 OA
BRANCH  33  35
ATOM     35  C   UNL A   1      34.592  33.170  31.389  1.00  0.00     0.060 A 
ATOM     36  C   UNL A   1      34.769  34.202  32.314  1.00  0.00     0.016 A 
ATOM     37  C   UNL A   1      35.306  31.970  31.453  1.00  0.00     0.016 A 
ATOM     38  C   UNL A   1      35.975  34.243  32.962  1.00  0.00     0.010 A 
ATOM     39  C   UNL A   1      36.513  32.012  32.098  1.00  0.00     0.010 A 
ATOM     40  C   UNL A   1      36.878  33.208  32.713  1.00  0.00    -0.014 A 
BRANCH  40  41
ATOM     41  C   UNL A   1      38.252  33.417  33.099  1.00  0.00     0.031 A 
ATOM     42  C   UNL A   1      39.121  33.677  31.941  1.00  0.00     0.074 A 
ATOM     43  C   UNL A   1      38.624  33.464  34.393  1.00  0.00     0.049 A 
ATOM     44  N   UNL A   1      40.021  32.904  31.435  1.00  0.00    -0.248 NA
ATOM     45  C   UNL A   1      38.785  34.850  31.116  1.00  0.00     0.031 C 
ATOM     46  C   UNL A   1      37.772  33.492  35.587  1.00  0.00     0.029 A 
ATOM     47  N   UNL A   1      39.867  33.640  34.906  1.00  0.00    -0.354 N 
ATOM     48  C   UNL A   1      40.525  33.610  30.353  1.00  0.00     0.074 A 
ATOM     49  C   UNL A   1      39.569  34.649  30.061  1.00  0.00     0.031 C 
ATOM     50  C   UNL A   1      38.500  33.945  36.635  1.00  0.00     0.029 A 
ATOM     51  C   UNL A   1      39.881  34.116  36.211  1.00  0.00     0.049 A 
ATOM     52  H   UNL A   1      40.687  33.448  34.398  1.00  0.00     0.167 HD
ATOM     53  C   UNL A   1      41.828  33.514  29.982  1.00  0.00     0.031 A 
ATOM     54  C   UNL A   1      40.933  34.713  36.832  1.00  0.00     0.031 A 
ATOM     55  C   UNL A   1      42.472  32.362  30.553  1.00  0.00     0.049 A 
ATOM     56  C   UNL A   1      42.153  34.355  36.058  1.00  0.00     0.074 A 
ATOM     57  C   UNL A   1      42.254  31.000  30.487  1.00  0.00     0.029 A 
ATOM     58  N   UNL A   1      43.260  32.568  31.662  1.00  0.00    -0.354 N 
ATOM     59  N   UNL A   1      42.611  33.137  35.965  1.00  0.00    -0.248 NA
ATOM     60  C   UNL A   1      42.576  35.256  34.993  1.00  0.00     0.031 C 
ATOM     61  C   UNL A   1      42.525  30.517  31.799  1.00  0.00     0.029 A 
ATOM     62  C   UNL A   1      42.951  31.595  32.580  1.00  0.00     0.049 A 
ATOM     63  H   UNL A   1      43.925  33.285  31.777  1.00  0.00     0.167 HD
ATOM     64  C   UNL A   1      43.009  32.999  34.642  1.00  0.00     0.074 A 
ATOM     65  C   UNL A   1      43.047  34.364  34.115  1.00  0.00     0.031 C 
ATOM     66  C   UNL A   1      42.990  31.784  34.016  1.00  0.00     0.031 A 
BRANCH  53  67
ATOM     67  C   UNL A   1      42.594  34.705  29.470  1.00  0.00    -0.014 A 
ATOM     68  C   UNL A   1      42.997  34.735  28.125  1.00  0.00     0.010 A 
ATOM     69  C   UNL A   1      43.155  35.673  30.333  1.00  0.00     0.010 A 
ATOM     70  C   UNL A   1      43.950  35.662  27.681  1.00  0.00     0.020 A 
ATOM     71  C   UNL A   1      44.063  36.632  29.893  1.00  0.00     0.020 A 
ATOM     72  C   UNL A   1      44.481  36.597  28.574  1.00  0.00     0.054 A 
BRANCH  72  73
ATOM     73  S   UNL A   1      45.785  37.719  28.020  1.00  0.00     0.124 S 
ATOM     74  O   UNL A   1      46.048  37.225  26.671  1.00  0.00    -0.237 OA
ATOM     75  O   UNL A   1      45.129  39.020  28.107  1.00  0.00    -0.237 OA
ATOM     76  O   UNL A   1      46.858  37.501  28.988  1.00  0.00    -0.744 OA
ENDBRANCH  72  73
ENDBRANCH  53  67
BRANCH  54  77
ATOM     77  C   UNL A   1      40.875  35.876  37.759  1.00  0.00    -0.014 A 
ATOM     78  C   UNL A   1      39.652  36.474  38.117  1.00  0.00     0.010 A 
ATOM     79  C   UNL A   1      42.017  36.233  38.510  1.00  0.00     0.010 A 
ATOM     80  C   UNL A   1      39.568  37.355  39.214  1.00  0.00     0.020 A 
ATOM     81  C   UNL A   1      41.942  37.112  39.596  1.00  0.00     0.020 A 
ATOM     82  C   UNL A   1      40.713  37.654  39.958  1.00  0.00     0.054 A 
BRANCH  82  83
ATOM     83  S   UNL A   1      40.574  38.655  41.470  1.00  0.00     0.124 S 
ATOM     84  O   UNL A   1      39.667  37.857  42.290  1.00  0.00    -0.237 OA
ATOM     85  O   UNL A   1      41.956  38.722  41.936  1.00  0.00    -0.237 OA
ATOM     86  O   UNL A   1      40.023  39.923  40.993  1.00  0.00    -0.744 OA
ENDBRANCH  82  83
ENDBRANCH  54  77
BRANCH  66  87
ATOM     87  C   UNL A   1      42.754  30.550  34.862  1.00  0.00    -0.014 A 
ATOM     88  C   UNL A   1      41.473  30.032  35.147  1.00  0.00     0.010 A 
ATOM     89  C   UNL A   1      43.878  29.800  35.247  1.00  0.00     0.010 A 
ATOM     90  C   UNL A   1      41.326  28.809  35.822  1.00  0.00     0.020 A 
ATOM     91  C   UNL A   1      43.738  28.575  35.905  1.00  0.00     0.020 A 
ATOM     92  C   UNL A   1      42.463  28.088  36.199  1.00  0.00     0.054 A 
BRANCH  92  93
ATOM     93  S   UNL A   1      42.272  26.489  37.035  1.00  0.00     0.124 S 
ATOM     94  O   UNL A   1      42.560  25.535  35.968  1.00  0.00    -0.237 OA
ATOM     95  O   UNL A   1      43.268  26.558  38.102  1.00  0.00    -0.237 OA
ATOM     96  O   UNL A   1      40.884  26.500  37.497  1.00  0.00    -0.744 OA
ENDBRANCH  92  93
ENDBRANCH  66  87
ENDBRANCH  40  41
ENDBRANCH  33  35
ENDBRANCH  32  33
ENDBRANCH  31  32
ENDBRANCH  30  31
ENDBRANCH  29  30
ENDBRANCH  28  29
ENDBRANCH   1  28
TORSDOF 23
ENDMDL
