MODEL 1
REMARK VINA RESULT:      -9.4      0.000      0.000
REMARK SMILES O=C(OCCOCCOCCOC(=O)c1ccc(-c2c3nc(c(-c4ccc(S(=O)(=O)[O-])cc4)c4ccc([nH]4)c(-c4ccc(S(=O)(=O)[O-])cc4)c4nc(c(-c5ccc(S(=O)(=O)[O-])cc5)c5ccc2[nH]5)C=C4)C=C3)cc1)c1ccc(N/C=C\C(=O)c2ccco2)cc1
REMARK SMILES IDX 7 1 6 2 5 3 4 4 3 5 2 6 1 7 75 8 76 9 90 10 77 11 89 12
REMARK SMILES IDX 78 13 79 14 80 16 81 17 82 18 83 19 84 20 85 21 88 22 86 23
REMARK SMILES IDX 87 24 8 25 9 26 10 27 11 28 12 29 13 30 14 31 15 32 16 33
REMARK SMILES IDX 74 34 17 35 73 36 18 37 19 38 20 39 67 40 21 41 72 42 66 43
REMARK SMILES IDX 68 44 22 45 71 46 65 47 64 48 23 50 53 51 34 52 52 53 35 54
REMARK SMILES IDX 38 55 51 56 69 57 36 58 37 59 50 61 70 62 39 63 24 64 25 65
REMARK SMILES IDX 33 66 26 67 32 68 27 69 28 70 29 71 30 72 31 73 54 74 55 75
REMARK SMILES IDX 63 76 56 77 62 78 57 79 58 80 59 81 60 82 61 83 40 84 41 85
REMARK SMILES IDX 49 86 42 87 48 88 43 89 44 90 45 91 46 92 47 93
REMARK H PARENT 79 15 68 49 38 60
REMARK Flexibility Score: inf
ROOT
ATOM      1  C   UNL A   1      34.256  30.154  27.646  1.00  0.00     0.188 C 
ENDROOT
BRANCH   1   2
ATOM      2  O   UNL A   1      33.639  29.965  26.366  1.00  0.00    -0.376 OA
BRANCH   2   3
ATOM      3  C   UNL A   1      32.310  30.478  26.279  1.00  0.00     0.202 C 
BRANCH   3   4
ATOM      4  C   UNL A   1      31.476  29.822  25.176  1.00  0.00     0.261 C 
BRANCH   4   5
ATOM      5  O   UNL A   1      31.865  28.455  24.987  1.00  0.00    -0.460 OA
BRANCH   5   6
ATOM      6  C   UNL A   1      32.619  27.934  23.987  1.00  0.00     0.338 C 
ATOM      7  O   UNL A   1      32.863  28.649  23.016  1.00  0.00    -0.246 OA
BRANCH   6   8
ATOM      8  C   UNL A   1      33.217  26.561  24.014  1.00  0.00     0.060 A 
ATOM      9  C   UNL A   1      33.668  25.881  25.148  1.00  0.00     0.018 A 
ATOM     10  C   UNL A   1      33.246  25.872  22.794  1.00  0.00     0.018 A 
ATOM     11  C   UNL A   1      34.208  24.590  25.060  1.00  0.00     0.027 A 
ATOM     12  C   UNL A   1      33.751  24.570  22.714  1.00  0.00     0.027 A 
ATOM     13  C   UNL A   1      34.263  23.917  23.842  1.00  0.00     0.038 A 
BRANCH  13  14
ATOM     14  N   UNL A   1      34.854  22.657  23.675  1.00  0.00    -0.362 N 
ATOM     15  H   UNL A   1      34.913  22.338  22.746  1.00  0.00     0.166 HD
BRANCH  14  16
ATOM     16  C   UNL A   1      35.361  21.809  24.621  1.00  0.00     0.087 C 
ATOM     17  C   UNL A   1      34.775  20.759  25.214  1.00  0.00     0.074 C 
BRANCH  17  18
ATOM     18  C   UNL A   1      33.448  20.150  24.886  1.00  0.00     0.222 C 
ATOM     19  O   UNL A   1      32.488  20.913  24.775  1.00  0.00    -0.286 OA
BRANCH  18  20
ATOM     20  C   UNL A   1      33.338  18.712  24.834  1.00  0.00     0.173 A 
ATOM     21  C   UNL A   1      33.850  17.787  23.944  1.00  0.00     0.054 A 
ATOM     22  O   UNL A   1      32.515  18.082  25.728  1.00  0.00    -0.461 OA
ATOM     23  C   UNL A   1      33.340  16.526  24.333  1.00  0.00     0.043 A 
ATOM     24  C   UNL A   1      32.553  16.755  25.435  1.00  0.00     0.196 A 
ENDBRANCH  18  20
ENDBRANCH  17  18
ENDBRANCH  14  16
ENDBRANCH  13  14
ENDBRANCH   6   8
ENDBRANCH   5   6
ENDBRANCH   4   5
ENDBRANCH   3   4
ENDBRANCH   2   3
ENDBRANCH   1   2
BRANCH   1  25
ATOM     25  C   UNL A   1      35.022  31.482  27.668  1.00  0.00     0.188 C 
BRANCH  25  26
ATOM     26  O   UNL A   1      34.235  32.602  28.086  1.00  0.00    -0.376 OA
BRANCH  26  27
ATOM     27  C   UNL A   1      34.405  33.030  29.435  1.00  0.00     0.202 C 
BRANCH  27  28
ATOM     28  C   UNL A   1      35.834  32.969  29.985  1.00  0.00     0.261 C 
BRANCH  28  29
ATOM     29  O   UNL A   1      36.161  31.739  30.655  1.00  0.00    -0.460 OA
BRANCH  29  30
ATOM     30  C   UNL A   1      37.295  31.791  31.396  1.00  0.00     0.338 C 
ATOM     31  O   UNL A   1      37.487  32.455  32.405  1.00  0.00    -0.246 OA
BRANCH  30  32
ATOM     32  C   UNL A   1      38.341  30.916  30.846  1.00  0.00     0.060 A 
ATOM     33  C   UNL A   1      39.356  30.461  31.695  1.00  0.00     0.016 A 
ATOM     34  C   UNL A   1      38.452  30.761  29.462  1.00  0.00     0.016 A 
ATOM     35  C   UNL A   1      40.518  29.906  31.152  1.00  0.00     0.010 A 
ATOM     36  C   UNL A   1      39.617  30.201  28.922  1.00  0.00     0.010 A 
ATOM     37  C   UNL A   1      40.677  29.817  29.761  1.00  0.00    -0.014 A 
BRANCH  37  38
ATOM     38  C   UNL A   1      42.002  29.470  29.181  1.00  0.00     0.031 A 
ATOM     39  C   UNL A   1      42.252  28.069  28.679  1.00  0.00     0.074 A 
ATOM     40  C   UNL A   1      42.980  30.390  29.086  1.00  0.00     0.049 A 
ATOM     41  N   UNL A   1      43.344  27.552  28.170  1.00  0.00    -0.248 NA
ATOM     42  C   UNL A   1      41.125  27.125  28.762  1.00  0.00     0.031 C 
ATOM     43  C   UNL A   1      42.879  31.784  29.515  1.00  0.00     0.029 A 
ATOM     44  N   UNL A   1      44.258  30.277  28.599  1.00  0.00    -0.354 N 
ATOM     45  C   UNL A   1      43.039  26.227  27.878  1.00  0.00     0.074 A 
ATOM     46  C   UNL A   1      41.668  26.011  28.291  1.00  0.00     0.031 C 
ATOM     47  C   UNL A   1      44.053  32.397  29.278  1.00  0.00     0.029 A 
ATOM     48  C   UNL A   1      44.989  31.436  28.698  1.00  0.00     0.049 A 
ATOM     49  H   UNL A   1      44.617  29.445  28.214  1.00  0.00     0.167 HD
ATOM     50  C   UNL A   1      43.820  25.274  27.313  1.00  0.00     0.031 A 
ATOM     51  C   UNL A   1      46.270  31.691  28.369  1.00  0.00     0.031 A 
ATOM     52  C   UNL A   1      45.187  25.470  26.906  1.00  0.00     0.049 A 
ATOM     53  C   UNL A   1      47.129  30.611  27.773  1.00  0.00     0.074 A 
ATOM     54  C   UNL A   1      46.051  24.558  26.320  1.00  0.00     0.029 A 
ATOM     55  N   UNL A   1      45.890  26.655  27.037  1.00  0.00    -0.354 N 
ATOM     56  N   UNL A   1      46.823  29.364  27.511  1.00  0.00    -0.248 NA
ATOM     57  C   UNL A   1      48.507  30.984  27.423  1.00  0.00     0.031 C 
ATOM     58  C   UNL A   1      47.288  25.185  26.129  1.00  0.00     0.029 A 
ATOM     59  C   UNL A   1      47.180  26.498  26.556  1.00  0.00     0.049 A 
ATOM     60  H   UNL A   1      45.527  27.488  27.418  1.00  0.00     0.167 HD
ATOM     61  C   UNL A   1      47.970  28.806  26.957  1.00  0.00     0.074 A 
ATOM     62  C   UNL A   1      48.969  29.852  26.906  1.00  0.00     0.031 C 
ATOM     63  C   UNL A   1      48.174  27.536  26.526  1.00  0.00     0.031 A 
BRANCH  50  64
ATOM     64  C   UNL A   1      43.212  23.913  27.110  1.00  0.00    -0.014 A 
ATOM     65  C   UNL A   1      42.661  23.546  25.869  1.00  0.00     0.010 A 
ATOM     66  C   UNL A   1      43.234  22.973  28.157  1.00  0.00     0.010 A 
ATOM     67  C   UNL A   1      42.111  22.275  25.689  1.00  0.00     0.020 A 
ATOM     68  C   UNL A   1      42.702  21.694  27.974  1.00  0.00     0.020 A 
ATOM     69  C   UNL A   1      42.129  21.358  26.745  1.00  0.00     0.054 A 
BRANCH  69  70
ATOM     70  S   UNL A   1      41.429  19.706  26.481  1.00  0.00     0.124 S 
ATOM     71  O   UNL A   1      42.233  19.213  25.366  1.00  0.00    -0.237 OA
ATOM     72  O   UNL A   1      41.664  19.046  27.763  1.00  0.00    -0.237 OA
ATOM     73  O   UNL A   1      40.027  19.970  26.170  1.00  0.00    -0.744 OA
ENDBRANCH  69  70
ENDBRANCH  50  64
BRANCH  51  74
ATOM     74  C   UNL A   1      46.841  33.039  28.607  1.00  0.00    -0.014 A 
ATOM     75  C   UNL A   1      47.474  33.338  29.825  1.00  0.00     0.010 A 
ATOM     76  C   UNL A   1      46.734  34.031  27.619  1.00  0.00     0.010 A 
ATOM     77  C   UNL A   1      47.999  34.612  30.051  1.00  0.00     0.020 A 
ATOM     78  C   UNL A   1      47.260  35.305  27.842  1.00  0.00     0.020 A 
ATOM     79  C   UNL A   1      47.893  35.586  29.056  1.00  0.00     0.054 A 
BRANCH  79  80
ATOM     80  S   UNL A   1      48.687  37.200  29.294  1.00  0.00     0.124 S 
ATOM     81  O   UNL A   1      48.060  37.671  30.525  1.00  0.00    -0.237 OA
ATOM     82  O   UNL A   1      50.103  36.858  29.394  1.00  0.00    -0.237 OA
ATOM     83  O   UNL A   1      48.323  37.924  28.077  1.00  0.00    -0.744 OA
ENDBRANCH  79  80
ENDBRANCH  51  74
BRANCH  63  84
ATOM     84  C   UNL A   1      49.527  27.215  25.951  1.00  0.00    -0.014 A 
ATOM     85  C   UNL A   1      50.647  27.044  26.785  1.00  0.00     0.010 A 
ATOM     86  C   UNL A   1      49.675  27.063  24.561  1.00  0.00     0.010 A 
ATOM     87  C   UNL A   1      51.900  26.760  26.234  1.00  0.00     0.020 A 
ATOM     88  C   UNL A   1      50.923  26.761  24.009  1.00  0.00     0.020 A 
ATOM     89  C   UNL A   1      52.032  26.628  24.848  1.00  0.00     0.054 A 
BRANCH  89  90
ATOM     90  S   UNL A   1      53.661  26.238  24.153  1.00  0.00     0.124 S 
ATOM     91  O   UNL A   1      54.505  27.263  24.762  1.00  0.00    -0.237 OA
ATOM     92  O   UNL A   1      53.896  24.873  24.619  1.00  0.00    -0.237 OA
ATOM     93  O   UNL A   1      53.461  26.371  22.712  1.00  0.00    -0.744 OA
ENDBRANCH  89  90
ENDBRANCH  63  84
ENDBRANCH  37  38
ENDBRANCH  30  32
ENDBRANCH  29  30
ENDBRANCH  28  29
ENDBRANCH  27  28
ENDBRANCH  26  27
ENDBRANCH  25  26
ENDBRANCH   1  25
TORSDOF 24
ENDMDL
MODEL 2
REMARK VINA RESULT:      -9.0      1.660      8.172
REMARK SMILES O=C(OCCOCCOCCOC(=O)c1ccc(-c2c3nc(c(-c4ccc(S(=O)(=O)[O-])cc4)c4ccc([nH]4)c(-c4ccc(S(=O)(=O)[O-])cc4)c4nc(c(-c5ccc(S(=O)(=O)[O-])cc5)c5ccc2[nH]5)C=C4)C=C3)cc1)c1ccc(N/C=C\C(=O)c2ccco2)cc1
REMARK SMILES IDX 7 1 6 2 5 3 4 4 3 5 2 6 1 7 75 8 76 9 90 10 77 11 89 12
REMARK SMILES IDX 78 13 79 14 80 16 81 17 82 18 83 19 84 20 85 21 88 22 86 23
REMARK SMILES IDX 87 24 8 25 9 26 10 27 11 28 12 29 13 30 14 31 15 32 16 33
REMARK SMILES IDX 74 34 17 35 73 36 18 37 19 38 20 39 67 40 21 41 72 42 66 43
REMARK SMILES IDX 68 44 22 45 71 46 65 47 64 48 23 50 53 51 34 52 52 53 35 54
REMARK SMILES IDX 38 55 51 56 69 57 36 58 37 59 50 61 70 62 39 63 24 64 25 65
REMARK SMILES IDX 33 66 26 67 32 68 27 69 28 70 29 71 30 72 31 73 54 74 55 75
REMARK SMILES IDX 63 76 56 77 62 78 57 79 58 80 59 81 60 82 61 83 40 84 41 85
REMARK SMILES IDX 49 86 42 87 48 88 43 89 44 90 45 91 46 92 47 93
REMARK H PARENT 79 15 68 49 38 60
REMARK Flexibility Score: inf
ROOT
ATOM      1  C   UNL A   1      34.139  30.045  27.565  1.00  0.00     0.188 C 
ENDROOT
BRANCH   1   2
ATOM      2  O   UNL A   1      33.605  30.057  26.235  1.00  0.00    -0.376 OA
BRANCH   2   3
ATOM      3  C   UNL A   1      32.184  30.181  26.178  1.00  0.00     0.202 C 
BRANCH   3   4
ATOM      4  C   UNL A   1      31.510  29.078  25.360  1.00  0.00     0.261 C 
BRANCH   4   5
ATOM      5  O   UNL A   1      32.330  27.902  25.315  1.00  0.00    -0.460 OA
BRANCH   5   6
ATOM      6  C   UNL A   1      32.933  27.349  24.233  1.00  0.00     0.338 C 
ATOM      7  O   UNL A   1      32.831  27.932  23.154  1.00  0.00    -0.246 OA
BRANCH   6   8
ATOM      8  C   UNL A   1      33.762  26.103  24.281  1.00  0.00     0.060 A 
ATOM      9  C   UNL A   1      34.526  25.662  25.363  1.00  0.00     0.018 A 
ATOM     10  C   UNL A   1      33.692  25.267  23.158  1.00  0.00     0.018 A 
ATOM     11  C   UNL A   1      35.263  24.470  25.302  1.00  0.00     0.027 A 
ATOM     12  C   UNL A   1      34.398  24.061  23.112  1.00  0.00     0.027 A 
ATOM     13  C   UNL A   1      35.215  23.654  24.175  1.00  0.00     0.038 A 
BRANCH  13  14
ATOM     14  N   UNL A   1      35.981  22.491  24.022  1.00  0.00    -0.362 N 
ATOM     15  H   UNL A   1      36.396  22.370  23.138  1.00  0.00     0.166 HD
BRANCH  14  16
ATOM     16  C   UNL A   1      36.234  21.499  24.930  1.00  0.00     0.087 C 
ATOM     17  C   UNL A   1      35.436  20.499  25.330  1.00  0.00     0.074 C 
BRANCH  17  18
ATOM     18  C   UNL A   1      34.098  20.121  24.777  1.00  0.00     0.222 C 
ATOM     19  O   UNL A   1      33.194  20.952  24.868  1.00  0.00    -0.286 OA
BRANCH  18  20
ATOM     20  C   UNL A   1      33.906  18.781  24.278  1.00  0.00     0.173 A 
ATOM     21  C   UNL A   1      34.726  17.669  24.304  1.00  0.00     0.054 A 
ATOM     22  O   UNL A   1      32.782  18.506  23.546  1.00  0.00    -0.461 OA
ATOM     23  C   UNL A   1      34.057  16.655  23.580  1.00  0.00     0.043 A 
ATOM     24  C   UNL A   1      32.870  17.206  23.159  1.00  0.00     0.196 A 
ENDBRANCH  18  20
ENDBRANCH  17  18
ENDBRANCH  14  16
ENDBRANCH  13  14
ENDBRANCH   6   8
ENDBRANCH   5   6
ENDBRANCH   4   5
ENDBRANCH   3   4
ENDBRANCH   2   3
ENDBRANCH   1   2
BRANCH   1  25
ATOM     25  C   UNL A   1      34.847  31.372  27.859  1.00  0.00     0.188 C 
BRANCH  25  26
ATOM     26  O   UNL A   1      34.590  31.892  29.168  1.00  0.00    -0.376 OA
BRANCH  26  27
ATOM     27  C   UNL A   1      35.672  31.845  30.095  1.00  0.00     0.202 C 
BRANCH  27  28
ATOM     28  C   UNL A   1      37.024  31.399  29.527  1.00  0.00     0.261 C 
BRANCH  28  29
ATOM     29  O   UNL A   1      37.418  30.068  29.905  1.00  0.00    -0.460 OA
BRANCH  29  30
ATOM     30  C   UNL A   1      37.797  29.282  28.868  1.00  0.00     0.338 C 
ATOM     31  O   UNL A   1      37.119  28.445  28.289  1.00  0.00    -0.246 OA
BRANCH  30  32
ATOM     32  C   UNL A   1      39.188  29.546  28.470  1.00  0.00     0.060 A 
ATOM     33  C   UNL A   1      39.575  29.287  27.151  1.00  0.00     0.016 A 
ATOM     34  C   UNL A   1      40.149  29.804  29.452  1.00  0.00     0.016 A 
ATOM     35  C   UNL A   1      40.932  29.221  26.825  1.00  0.00     0.010 A 
ATOM     36  C   UNL A   1      41.508  29.740  29.121  1.00  0.00     0.010 A 
ATOM     37  C   UNL A   1      41.908  29.398  27.818  1.00  0.00    -0.014 A 
BRANCH  37  38
ATOM     38  C   UNL A   1      43.332  29.076  27.532  1.00  0.00     0.031 A 
ATOM     39  C   UNL A   1      44.389  30.136  27.726  1.00  0.00     0.074 A 
ATOM     40  C   UNL A   1      43.695  27.849  27.116  1.00  0.00     0.049 A 
ATOM     41  N   UNL A   1      45.678  30.073  27.502  1.00  0.00    -0.248 NA
ATOM     42  C   UNL A   1      43.933  31.441  28.235  1.00  0.00     0.031 C 
ATOM     43  C   UNL A   1      42.789  26.723  26.899  1.00  0.00     0.029 A 
ATOM     44  N   UNL A   1      44.934  27.354  26.794  1.00  0.00    -0.354 N 
ATOM     45  C   UNL A   1      46.187  31.323  27.838  1.00  0.00     0.074 A 
ATOM     46  C   UNL A   1      45.062  32.135  28.254  1.00  0.00     0.031 C 
ATOM     47  C   UNL A   1      43.504  25.667  26.471  1.00  0.00     0.029 A 
ATOM     48  C   UNL A   1      44.912  26.049  26.368  1.00  0.00     0.049 A 
ATOM     49  H   UNL A   1      45.761  27.884  26.861  1.00  0.00     0.167 HD
ATOM     50  C   UNL A   1      47.469  31.761  27.811  1.00  0.00     0.031 A 
ATOM     51  C   UNL A   1      45.909  25.254  25.936  1.00  0.00     0.031 A 
ATOM     52  C   UNL A   1      48.596  30.970  27.391  1.00  0.00     0.049 A 
ATOM     53  C   UNL A   1      47.320  25.769  25.883  1.00  0.00     0.074 A 
ATOM     54  C   UNL A   1      49.932  31.334  27.336  1.00  0.00     0.029 A 
ATOM     55  N   UNL A   1      48.525  29.657  26.956  1.00  0.00    -0.354 N 
ATOM     56  N   UNL A   1      47.777  26.955  26.199  1.00  0.00    -0.248 NA
ATOM     57  C   UNL A   1      48.349  24.826  25.419  1.00  0.00     0.031 C 
ATOM     58  C   UNL A   1      50.664  30.250  26.836  1.00  0.00     0.029 A 
ATOM     59  C   UNL A   1      49.788  29.199  26.620  1.00  0.00     0.049 A 
ATOM     60  H   UNL A   1      47.697  29.128  26.894  1.00  0.00     0.167 HD
ATOM     61  C   UNL A   1      49.150  26.898  25.979  1.00  0.00     0.074 A 
ATOM     62  C   UNL A   1      49.450  25.558  25.522  1.00  0.00     0.031 C 
ATOM     63  C   UNL A   1      50.078  27.872  26.146  1.00  0.00     0.031 A 
BRANCH  50  64
ATOM     64  C   UNL A   1      47.724  33.180  28.240  1.00  0.00    -0.014 A 
ATOM     65  C   UNL A   1      47.668  34.235  27.313  1.00  0.00     0.010 A 
ATOM     66  C   UNL A   1      47.976  33.467  29.594  1.00  0.00     0.010 A 
ATOM     67  C   UNL A   1      47.894  35.551  27.725  1.00  0.00     0.020 A 
ATOM     68  C   UNL A   1      48.183  34.785  30.013  1.00  0.00     0.020 A 
ATOM     69  C   UNL A   1      48.156  35.817  29.073  1.00  0.00     0.054 A 
BRANCH  69  70
ATOM     70  S   UNL A   1      48.424  37.535  29.589  1.00  0.00     0.124 S 
ATOM     71  O   UNL A   1      47.263  38.207  29.013  1.00  0.00    -0.237 OA
ATOM     72  O   UNL A   1      48.432  37.437  31.048  1.00  0.00    -0.237 OA
ATOM     73  O   UNL A   1      49.708  37.881  28.986  1.00  0.00    -0.744 OA
ENDBRANCH  69  70
ENDBRANCH  50  64
BRANCH  51  74
ATOM     74  C   UNL A   1      45.614  23.868  25.496  1.00  0.00    -0.014 A 
ATOM     75  C   UNL A   1      45.234  23.609  24.169  1.00  0.00     0.010 A 
ATOM     76  C   UNL A   1      45.694  22.809  26.415  1.00  0.00     0.010 A 
ATOM     77  C   UNL A   1      44.945  22.304  23.762  1.00  0.00     0.020 A 
ATOM     78  C   UNL A   1      45.407  21.503  26.009  1.00  0.00     0.020 A 
ATOM     79  C   UNL A   1      45.038  21.259  24.684  1.00  0.00     0.054 A 
BRANCH  79  80
ATOM     80  S   UNL A   1      44.788  19.550  24.129  1.00  0.00     0.124 S 
ATOM     81  O   UNL A   1      44.631  19.716  22.689  1.00  0.00    -0.237 OA
ATOM     82  O   UNL A   1      46.014  18.883  24.561  1.00  0.00    -0.237 OA
ATOM     83  O   UNL A   1      43.588  19.144  24.859  1.00  0.00    -0.744 OA
ENDBRANCH  79  80
ENDBRANCH  51  74
BRANCH  63  84
ATOM     84  C   UNL A   1      51.508  27.518  25.843  1.00  0.00    -0.014 A 
ATOM     85  C   UNL A   1      52.327  26.914  26.814  1.00  0.00     0.010 A 
ATOM     86  C   UNL A   1      52.034  27.774  24.564  1.00  0.00     0.010 A 
ATOM     87  C   UNL A   1      53.658  26.604  26.521  1.00  0.00     0.020 A 
ATOM     88  C   UNL A   1      53.358  27.448  24.262  1.00  0.00     0.020 A 
ATOM     89  C   UNL A   1      54.168  26.880  25.249  1.00  0.00     0.054 A 
BRANCH  89  90
ATOM     90  S   UNL A   1      55.891  26.451  24.881  1.00  0.00     0.124 S 
ATOM     91  O   UNL A   1      56.030  25.155  25.540  1.00  0.00    -0.237 OA
ATOM     92  O   UNL A   1      55.914  26.418  23.420  1.00  0.00    -0.237 OA
ATOM     93  O   UNL A   1      56.654  27.542  25.484  1.00  0.00    -0.744 OA
ENDBRANCH  89  90
ENDBRANCH  63  84
ENDBRANCH  37  38
ENDBRANCH  30  32
ENDBRANCH  29  30
ENDBRANCH  28  29
ENDBRANCH  27  28
ENDBRANCH  26  27
ENDBRANCH  25  26
ENDBRANCH   1  25
TORSDOF 24
ENDMDL
MODEL 3
REMARK VINA RESULT:      -8.6      9.541     15.425
REMARK SMILES O=C(OCCOCCOCCOC(=O)c1ccc(-c2c3nc(c(-c4ccc(S(=O)(=O)[O-])cc4)c4ccc([nH]4)c(-c4ccc(S(=O)(=O)[O-])cc4)c4nc(c(-c5ccc(S(=O)(=O)[O-])cc5)c5ccc2[nH]5)C=C4)C=C3)cc1)c1ccc(N/C=C\C(=O)c2ccco2)cc1
REMARK SMILES IDX 7 1 6 2 5 3 4 4 3 5 2 6 1 7 75 8 76 9 90 10 77 11 89 12
REMARK SMILES IDX 78 13 79 14 80 16 81 17 82 18 83 19 84 20 85 21 88 22 86 23
REMARK SMILES IDX 87 24 8 25 9 26 10 27 11 28 12 29 13 30 14 31 15 32 16 33
REMARK SMILES IDX 74 34 17 35 73 36 18 37 19 38 20 39 67 40 21 41 72 42 66 43
REMARK SMILES IDX 68 44 22 45 71 46 65 47 64 48 23 50 53 51 34 52 52 53 35 54
REMARK SMILES IDX 38 55 51 56 69 57 36 58 37 59 50 61 70 62 39 63 24 64 25 65
REMARK SMILES IDX 33 66 26 67 32 68 27 69 28 70 29 71 30 72 31 73 54 74 55 75
REMARK SMILES IDX 63 76 56 77 62 78 57 79 58 80 59 81 60 82 61 83 40 84 41 85
REMARK SMILES IDX 49 86 42 87 48 88 43 89 44 90 45 91 46 92 47 93
REMARK H PARENT 79 15 68 49 38 60
REMARK Flexibility Score: inf
ROOT
ATOM      1  C   UNL A   1      50.185  21.715  36.501  1.00  0.00     0.188 C 
ENDROOT
BRANCH   1   2
ATOM      2  O   UNL A   1      49.421  20.573  36.093  1.00  0.00    -0.376 OA
BRANCH   2   3
ATOM      3  C   UNL A   1      48.013  20.798  36.050  1.00  0.00     0.202 C 
BRANCH   3   4
ATOM      4  C   UNL A   1      47.361  20.838  37.434  1.00  0.00     0.261 C 
BRANCH   4   5
ATOM      5  O   UNL A   1      47.048  19.514  37.888  1.00  0.00    -0.460 OA
BRANCH   5   6
ATOM      6  C   UNL A   1      47.582  18.847  38.941  1.00  0.00     0.338 C 
ATOM      7  O   UNL A   1      48.788  18.973  39.153  1.00  0.00    -0.246 OA
BRANCH   6   8
ATOM      8  C   UNL A   1      46.787  18.011  39.896  1.00  0.00     0.060 A 
ATOM      9  C   UNL A   1      45.543  17.430  39.643  1.00  0.00     0.018 A 
ATOM     10  C   UNL A   1      47.396  17.723  41.124  1.00  0.00     0.018 A 
ATOM     11  C   UNL A   1      44.886  16.655  40.611  1.00  0.00     0.027 A 
ATOM     12  C   UNL A   1      46.756  16.920  42.075  1.00  0.00     0.027 A 
ATOM     13  C   UNL A   1      45.479  16.393  41.843  1.00  0.00     0.038 A 
BRANCH  13  14
ATOM     14  N   UNL A   1      44.848  15.690  42.877  1.00  0.00    -0.362 N 
ATOM     15  H   UNL A   1      45.370  14.953  43.268  1.00  0.00     0.166 HD
BRANCH  14  16
ATOM     16  C   UNL A   1      43.608  15.884  43.421  1.00  0.00     0.087 C 
ATOM     17  C   UNL A   1      42.476  15.197  43.207  1.00  0.00     0.074 C 
BRANCH  17  18
ATOM     18  C   UNL A   1      42.308  13.938  42.416  1.00  0.00     0.222 C 
ATOM     19  O   UNL A   1      41.914  14.049  41.255  1.00  0.00    -0.286 OA
BRANCH  18  20
ATOM     20  C   UNL A   1      42.502  12.672  43.078  1.00  0.00     0.173 A 
ATOM     21  C   UNL A   1      42.022  11.407  42.793  1.00  0.00     0.054 A 
ATOM     22  O   UNL A   1      43.185  12.647  44.265  1.00  0.00    -0.461 OA
ATOM     23  C   UNL A   1      42.460  10.563  43.841  1.00  0.00     0.043 A 
ATOM     24  C   UNL A   1      43.182  11.358  44.697  1.00  0.00     0.196 A 
ENDBRANCH  18  20
ENDBRANCH  17  18
ENDBRANCH  14  16
ENDBRANCH  13  14
ENDBRANCH   6   8
ENDBRANCH   5   6
ENDBRANCH   4   5
ENDBRANCH   3   4
ENDBRANCH   2   3
ENDBRANCH   1   2
BRANCH   1  25
ATOM     25  C   UNL A   1      49.884  22.903  35.580  1.00  0.00     0.188 C 
BRANCH  25  26
ATOM     26  O   UNL A   1      49.126  23.946  36.202  1.00  0.00    -0.376 OA
BRANCH  26  27
ATOM     27  C   UNL A   1      49.639  24.461  37.429  1.00  0.00     0.202 C 
BRANCH  27  28
ATOM     28  C   UNL A   1      49.322  25.931  37.724  1.00  0.00     0.261 C 
BRANCH  28  29
ATOM     29  O   UNL A   1      48.035  26.152  38.328  1.00  0.00    -0.460 OA
BRANCH  29  30
ATOM     30  C   UNL A   1      47.619  27.441  38.300  1.00  0.00     0.338 C 
ATOM     31  O   UNL A   1      47.996  28.355  39.021  1.00  0.00    -0.246 OA
BRANCH  30  32
ATOM     32  C   UNL A   1      46.609  27.660  37.253  1.00  0.00     0.060 A 
ATOM     33  C   UNL A   1      46.845  28.638  36.281  1.00  0.00     0.016 A 
ATOM     34  C   UNL A   1      45.342  27.084  37.385  1.00  0.00     0.016 A 
ATOM     35  C   UNL A   1      45.793  29.088  35.479  1.00  0.00     0.010 A 
ATOM     36  C   UNL A   1      44.292  27.535  36.578  1.00  0.00     0.010 A 
ATOM     37  C   UNL A   1      44.498  28.576  35.655  1.00  0.00    -0.014 A 
BRANCH  37  38
ATOM     38  C   UNL A   1      43.339  29.229  34.991  1.00  0.00     0.031 A 
ATOM     39  C   UNL A   1      42.934  28.795  33.603  1.00  0.00     0.074 A 
ATOM     40  C   UNL A   1      42.636  30.193  35.613  1.00  0.00     0.049 A 
ATOM     41  N   UNL A   1      41.978  29.257  32.836  1.00  0.00    -0.248 NA
ATOM     42  C   UNL A   1      43.710  27.699  32.999  1.00  0.00     0.031 C 
ATOM     43  C   UNL A   1      42.901  30.704  36.957  1.00  0.00     0.029 A 
ATOM     44  N   UNL A   1      41.555  30.919  35.182  1.00  0.00    -0.354 N 
ATOM     45  C   UNL A   1      42.038  28.515  31.661  1.00  0.00     0.074 A 
ATOM     46  C   UNL A   1      43.143  27.590  31.806  1.00  0.00     0.031 C 
ATOM     47  C   UNL A   1      42.007  31.669  37.238  1.00  0.00     0.029 A 
ATOM     48  C   UNL A   1      41.121  31.854  36.090  1.00  0.00     0.049 A 
ATOM     49  H   UNL A   1      41.129  30.783  34.305  1.00  0.00     0.167 HD
ATOM     50  C   UNL A   1      41.248  28.586  30.562  1.00  0.00     0.031 A 
ATOM     51  C   UNL A   1      40.131  32.763  36.002  1.00  0.00     0.031 A 
ATOM     52  C   UNL A   1      40.153  29.506  30.399  1.00  0.00     0.049 A 
ATOM     53  C   UNL A   1      39.287  32.847  34.762  1.00  0.00     0.074 A 
ATOM     54  C   UNL A   1      39.297  29.643  29.317  1.00  0.00     0.029 A 
ATOM     55  N   UNL A   1      39.759  30.443  31.339  1.00  0.00    -0.354 N 
ATOM     56  N   UNL A   1      39.365  32.141  33.661  1.00  0.00    -0.248 NA
ATOM     57  C   UNL A   1      38.214  33.853  34.763  1.00  0.00     0.031 C 
ATOM     58  C   UNL A   1      38.406  30.687  29.592  1.00  0.00     0.029 A 
ATOM     59  C   UNL A   1      38.680  31.170  30.860  1.00  0.00     0.049 A 
ATOM     60  H   UNL A   1      40.183  30.574  32.217  1.00  0.00     0.167 HD
ATOM     61  C   UNL A   1      38.345  32.611  32.841  1.00  0.00     0.074 A 
ATOM     62  C   UNL A   1      37.654  33.649  33.577  1.00  0.00     0.031 C 
ATOM     63  C   UNL A   1      38.011  32.214  31.588  1.00  0.00     0.031 A 
BRANCH  50  64
ATOM     64  C   UNL A   1      41.551  27.642  29.431  1.00  0.00    -0.014 A 
ATOM     65  C   UNL A   1      42.669  27.843  28.603  1.00  0.00     0.010 A 
ATOM     66  C   UNL A   1      40.736  26.514  29.223  1.00  0.00     0.010 A 
ATOM     67  C   UNL A   1      42.948  26.952  27.563  1.00  0.00     0.020 A 
ATOM     68  C   UNL A   1      41.023  25.610  28.196  1.00  0.00     0.020 A 
ATOM     69  C   UNL A   1      42.119  25.844  27.362  1.00  0.00     0.054 A 
BRANCH  69  70
ATOM     70  S   UNL A   1      42.513  24.688  26.021  1.00  0.00     0.124 S 
ATOM     71  O   UNL A   1      42.320  25.522  24.838  1.00  0.00    -0.237 OA
ATOM     72  O   UNL A   1      43.897  24.318  26.308  1.00  0.00    -0.237 OA
ATOM     73  O   UNL A   1      41.538  23.614  26.193  1.00  0.00    -0.744 OA
ENDBRANCH  69  70
ENDBRANCH  50  64
BRANCH  51  74
ATOM     74  C   UNL A   1      39.880  33.694  37.129  1.00  0.00    -0.014 A 
ATOM     75  C   UNL A   1      40.530  34.938  37.182  1.00  0.00     0.010 A 
ATOM     76  C   UNL A   1      39.002  33.326  38.162  1.00  0.00     0.010 A 
ATOM     77  C   UNL A   1      40.301  35.808  38.251  1.00  0.00     0.020 A 
ATOM     78  C   UNL A   1      38.770  34.195  39.231  1.00  0.00     0.020 A 
ATOM     79  C   UNL A   1      39.419  35.432  39.266  1.00  0.00     0.054 A 
BRANCH  79  80
ATOM     80  S   UNL A   1      39.020  36.610  40.587  1.00  0.00     0.124 S 
ATOM     81  O   UNL A   1      38.033  35.872  41.367  1.00  0.00    -0.237 OA
ATOM     82  O   UNL A   1      40.311  36.823  41.236  1.00  0.00    -0.237 OA
ATOM     83  O   UNL A   1      38.515  37.766  39.850  1.00  0.00    -0.744 OA
ENDBRANCH  79  80
ENDBRANCH  51  74
BRANCH  63  84
ATOM     84  C   UNL A   1      36.838  32.899  30.941  1.00  0.00    -0.014 A 
ATOM     85  C   UNL A   1      35.523  32.641  31.367  1.00  0.00     0.010 A 
ATOM     86  C   UNL A   1      37.056  33.826  29.906  1.00  0.00     0.010 A 
ATOM     87  C   UNL A   1      34.443  33.274  30.745  1.00  0.00     0.020 A 
ATOM     88  C   UNL A   1      35.980  34.474  29.296  1.00  0.00     0.020 A 
ATOM     89  C   UNL A   1      34.677  34.181  29.708  1.00  0.00     0.054 A 
BRANCH  89  90
ATOM     90  S   UNL A   1      33.265  35.009  28.927  1.00  0.00     0.124 S 
ATOM     91  O   UNL A   1      32.387  35.254  30.069  1.00  0.00    -0.237 OA
ATOM     92  O   UNL A   1      33.871  36.199  28.336  1.00  0.00    -0.237 OA
ATOM     93  O   UNL A   1      32.776  34.023  27.965  1.00  0.00    -0.744 OA
ENDBRANCH  89  90
ENDBRANCH  63  84
ENDBRANCH  37  38
ENDBRANCH  30  32
ENDBRANCH  29  30
ENDBRANCH  28  29
ENDBRANCH  27  28
ENDBRANCH  26  27
ENDBRANCH  25  26
ENDBRANCH   1  25
TORSDOF 24
ENDMDL
