MODEL 1
REMARK VINA RESULT:      -9.9      0.000      0.000
REMARK SMILES O=C(OCCOCCOCCOC(=O)[C@@H]1[C@H](C(=O)NCc2ccccc2Cl)[C@@H]2C=C[C@H]1C2)c1ccc(-c2c3nc(c(-c4ccc(S(=O)(=O)[O-])cc4)c4ccc([nH]4)c(-c4ccc(S(=O)(=O)[O-])cc4)c4nc(c(-c5ccc(S(=O)(=O)[O-])cc5)c5ccc2[nH]5)C=C4)C=C3)cc1
REMARK SMILES IDX 7 1 6 2 5 3 4 4 3 5 2 6 1 7 33 8 34 9 92 10 35 11 91 12
REMARK SMILES IDX 36 13 37 14 38 15 85 16 39 17 90 18 84 19 86 20 40 21 89 22
REMARK SMILES IDX 83 23 82 24 41 26 71 27 52 28 70 29 53 30 56 31 69 32 87 33
REMARK SMILES IDX 54 34 55 35 68 37 88 38 57 39 42 40 43 41 51 42 44 43 50 44
REMARK SMILES IDX 45 45 46 46 47 47 48 48 49 49 72 50 73 51 81 52 74 53 80 54
REMARK SMILES IDX 75 55 76 56 77 57 78 58 79 59 58 60 59 61 67 62 60 63 66 64
REMARK SMILES IDX 61 65 62 66 63 67 64 68 65 69 8 70 9 71 10 72 11 73 12 74
REMARK SMILES IDX 13 75 14 76 15 77 16 78 31 79 28 80 30 81 32 82 29 83 17 84
REMARK SMILES IDX 18 85 19 86 20 88 21 89 22 90 26 91 23 92 25 93 27 94 24 95
REMARK H PARENT 86 25 56 36 19 87
REMARK Flexibility Score: inf
ROOT
ATOM      1  C   UNL A   1      40.709  20.469  26.800  1.00  0.00     0.188 C 
ENDROOT
BRANCH   1   2
ATOM      2  O   UNL A   1      41.725  20.336  25.828  1.00  0.00    -0.376 OA
BRANCH   2   3
ATOM      3  C   UNL A   1      43.049  20.682  26.207  1.00  0.00     0.202 C 
BRANCH   3   4
ATOM      4  C   UNL A   1      43.603  22.085  25.890  1.00  0.00     0.261 C 
BRANCH   4   5
ATOM      5  O   UNL A   1      42.765  23.261  25.671  1.00  0.00    -0.460 OA
BRANCH   5   6
ATOM      6  C   UNL A   1      42.792  24.605  25.584  1.00  0.00     0.338 C 
ATOM      7  O   UNL A   1      43.371  25.114  24.625  1.00  0.00    -0.246 OA
BRANCH   6   8
ATOM      8  C   UNL A   1      42.195  25.524  26.587  1.00  0.00     0.060 A 
ATOM      9  C   UNL A   1      42.659  26.808  26.788  1.00  0.00     0.016 A 
ATOM     10  C   UNL A   1      41.107  25.091  27.369  1.00  0.00     0.016 A 
ATOM     11  C   UNL A   1      42.091  27.668  27.698  1.00  0.00     0.010 A 
ATOM     12  C   UNL A   1      40.556  25.926  28.353  1.00  0.00     0.010 A 
ATOM     13  C   UNL A   1      41.080  27.210  28.530  1.00  0.00    -0.014 A 
BRANCH  13  14
ATOM     14  C   UNL A   1      40.887  28.025  29.737  1.00  0.00     0.031 A 
ATOM     15  C   UNL A   1      41.949  27.924  30.796  1.00  0.00     0.074 A 
ATOM     16  C   UNL A   1      39.996  29.033  29.713  1.00  0.00     0.049 A 
ATOM     17  N   UNL A   1      42.073  28.590  31.910  1.00  0.00    -0.248 NA
ATOM     18  C   UNL A   1      43.052  26.976  30.538  1.00  0.00     0.031 C 
ATOM     19  C   UNL A   1      39.099  29.338  28.592  1.00  0.00     0.029 A 
ATOM     20  N   UNL A   1      39.747  30.024  30.619  1.00  0.00    -0.354 N 
ATOM     21  C   UNL A   1      43.252  28.132  32.488  1.00  0.00     0.074 A 
ATOM     22  C   UNL A   1      43.811  27.133  31.610  1.00  0.00     0.031 C 
ATOM     23  C   UNL A   1      38.400  30.448  28.881  1.00  0.00     0.029 A 
ATOM     24  C   UNL A   1      38.749  30.884  30.228  1.00  0.00     0.049 A 
ATOM     25  H   UNL A   1      40.233  30.113  31.470  1.00  0.00     0.167 HD
ATOM     26  C   UNL A   1      43.808  28.512  33.659  1.00  0.00     0.031 A 
ATOM     27  C   UNL A   1      38.159  31.878  30.918  1.00  0.00     0.031 A 
ATOM     28  C   UNL A   1      43.196  29.485  34.519  1.00  0.00     0.049 A 
ATOM     29  C   UNL A   1      38.673  32.148  32.308  1.00  0.00     0.074 A 
ATOM     30  C   UNL A   1      43.554  29.862  35.797  1.00  0.00     0.029 A 
ATOM     31  N   UNL A   1      42.081  30.236  34.167  1.00  0.00    -0.354 N 
ATOM     32  N   UNL A   1      39.709  31.615  32.919  1.00  0.00    -0.248 NA
ATOM     33  C   UNL A   1      37.942  33.135  33.108  1.00  0.00     0.031 C 
ATOM     34  C   UNL A   1      42.618  30.804  36.240  1.00  0.00     0.029 A 
ATOM     35  C   UNL A   1      41.723  31.065  35.211  1.00  0.00     0.049 A 
ATOM     36  H   UNL A   1      41.617  30.185  33.301  1.00  0.00     0.167 HD
ATOM     37  C   UNL A   1      39.765  32.216  34.169  1.00  0.00     0.074 A 
ATOM     38  C   UNL A   1      38.673  33.173  34.213  1.00  0.00     0.031 C 
ATOM     39  C   UNL A   1      40.628  32.002  35.194  1.00  0.00     0.031 A 
BRANCH  26  40
ATOM     40  C   UNL A   1      45.054  27.792  34.094  1.00  0.00    -0.014 A 
ATOM     41  C   UNL A   1      44.997  26.584  34.812  1.00  0.00     0.010 A 
ATOM     42  C   UNL A   1      46.309  28.364  33.816  1.00  0.00     0.010 A 
ATOM     43  C   UNL A   1      46.172  25.980  35.272  1.00  0.00     0.020 A 
ATOM     44  C   UNL A   1      47.486  27.750  34.253  1.00  0.00     0.020 A 
ATOM     45  C   UNL A   1      47.410  26.568  34.992  1.00  0.00     0.054 A 
BRANCH  45  46
ATOM     46  S   UNL A   1      48.918  25.758  35.590  1.00  0.00     0.124 S 
ATOM     47  O   UNL A   1      48.678  24.364  35.226  1.00  0.00    -0.237 OA
ATOM     48  O   UNL A   1      49.966  26.433  34.828  1.00  0.00    -0.237 OA
ATOM     49  O   UNL A   1      48.918  26.037  37.024  1.00  0.00    -0.744 OA
ENDBRANCH  45  46
ENDBRANCH  26  40
BRANCH  27  50
ATOM     50  C   UNL A   1      36.968  32.587  30.366  1.00  0.00    -0.014 A 
ATOM     51  C   UNL A   1      37.095  33.678  29.489  1.00  0.00     0.010 A 
ATOM     52  C   UNL A   1      35.676  32.192  30.767  1.00  0.00     0.010 A 
ATOM     53  C   UNL A   1      35.962  34.378  29.056  1.00  0.00     0.020 A 
ATOM     54  C   UNL A   1      34.539  32.864  30.311  1.00  0.00     0.020 A 
ATOM     55  C   UNL A   1      34.691  33.969  29.476  1.00  0.00     0.054 A 
BRANCH  55  56
ATOM     56  S   UNL A   1      33.237  34.897  28.915  1.00  0.00     0.124 S 
ATOM     57  O   UNL A   1      32.518  35.119  30.165  1.00  0.00    -0.237 OA
ATOM     58  O   UNL A   1      33.836  36.083  28.308  1.00  0.00    -0.237 OA
ATOM     59  O   UNL A   1      32.590  33.984  27.975  1.00  0.00    -0.744 OA
ENDBRANCH  55  56
ENDBRANCH  27  50
BRANCH  39  60
ATOM     60  C   UNL A   1      40.445  32.851  36.419  1.00  0.00    -0.014 A 
ATOM     61  C   UNL A   1      39.521  32.500  37.417  1.00  0.00     0.010 A 
ATOM     62  C   UNL A   1      41.261  33.982  36.594  1.00  0.00     0.010 A 
ATOM     63  C   UNL A   1      39.391  33.292  38.558  1.00  0.00     0.020 A 
ATOM     64  C   UNL A   1      41.159  34.756  37.749  1.00  0.00     0.020 A 
ATOM     65  C   UNL A   1      40.212  34.413  38.717  1.00  0.00     0.054 A 
BRANCH  65  66
ATOM     66  S   UNL A   1      40.056  35.399  40.228  1.00  0.00     0.124 S 
ATOM     67  O   UNL A   1      39.309  36.561  39.756  1.00  0.00    -0.237 OA
ATOM     68  O   UNL A   1      39.326  34.501  41.120  1.00  0.00    -0.237 OA
ATOM     69  O   UNL A   1      41.441  35.662  40.615  1.00  0.00    -0.744 OA
ENDBRANCH  65  66
ENDBRANCH  39  60
ENDBRANCH  13  14
ENDBRANCH   6   8
ENDBRANCH   5   6
ENDBRANCH   4   5
ENDBRANCH   3   4
ENDBRANCH   2   3
ENDBRANCH   1   2
BRANCH   1  70
ATOM     70  C   UNL A   1      39.901  21.751  26.740  1.00  0.00     0.188 C 
BRANCH  70  71
ATOM     71  O   UNL A   1      38.945  21.891  25.705  1.00  0.00    -0.376 OA
BRANCH  71  72
ATOM     72  C   UNL A   1      37.701  22.493  26.065  1.00  0.00     0.202 C 
BRANCH  72  73
ATOM     73  C   UNL A   1      37.200  23.754  25.328  1.00  0.00     0.261 C 
BRANCH  73  74
ATOM     74  O   UNL A   1      35.887  24.218  25.700  1.00  0.00    -0.463 OA
BRANCH  74  75
ATOM     75  C   UNL A   1      34.966  23.227  25.931  1.00  0.00     0.310 C 
ATOM     76  O   UNL A   1      35.022  22.440  26.854  1.00  0.00    -0.252 OA
BRANCH  75  77
ATOM     77  C   UNL A   1      33.933  23.182  24.825  1.00  0.00     0.119 C 
ATOM     78  C   UNL A   1      32.426  23.424  25.116  1.00  0.00     0.100 C 
ATOM     79  C   UNL A   1      33.900  21.833  24.043  1.00  0.00     0.027 C 
ATOM     80  C   UNL A   1      31.723  22.216  24.431  1.00  0.00     0.025 C 
ATOM     81  C   UNL A   1      33.378  20.708  24.907  1.00  0.00    -0.027 C 
ATOM     82  C   UNL A   1      32.630  22.031  23.199  1.00  0.00     0.017 C 
ATOM     83  C   UNL A   1      32.071  20.927  25.120  1.00  0.00    -0.027 C 
BRANCH  78  84
ATOM     84  C   UNL A   1      31.870  23.879  26.464  1.00  0.00     0.224 C 
ATOM     85  O   UNL A   1      31.969  23.097  27.423  1.00  0.00    -0.275 OA
ATOM     86  N   UNL A   1      31.268  25.049  26.771  1.00  0.00    -0.352 N 
ATOM     87  H   UNL A   1      30.921  25.071  27.693  1.00  0.00     0.163 HD
BRANCH  86  88
ATOM     88  C   UNL A   1      31.022  26.277  26.043  1.00  0.00     0.153 C 
BRANCH  88  89
ATOM     89  C   UNL A   1      31.717  26.420  24.708  1.00  0.00    -0.010 A 
ATOM     90  C   UNL A   1      31.114  26.078  23.492  1.00  0.00     0.007 A 
ATOM     91  C   UNL A   1      33.051  26.865  24.667  1.00  0.00     0.046 A 
ATOM     92  C   UNL A   1      31.858  26.017  22.307  1.00  0.00     0.000 A 
ATOM     93  C   UNL A   1      33.793  26.815  23.482  1.00  0.00     0.021 A 
ATOM     94  Cl  UNL A   1      33.837  27.511  26.068  1.00  0.00    -0.084 Cl
ATOM     95  C   UNL A   1      33.206  26.354  22.308  1.00  0.00     0.002 A 
ENDBRANCH  88  89
ENDBRANCH  86  88
ENDBRANCH  78  84
ENDBRANCH  75  77
ENDBRANCH  74  75
ENDBRANCH  73  74
ENDBRANCH  72  73
ENDBRANCH  71  72
ENDBRANCH  70  71
ENDBRANCH   1  70
TORSDOF 23
ENDMDL
MODEL 2
REMARK VINA RESULT:      -9.4      1.895      8.509
REMARK SMILES O=C(OCCOCCOCCOC(=O)[C@@H]1[C@H](C(=O)NCc2ccccc2Cl)[C@@H]2C=C[C@H]1C2)c1ccc(-c2c3nc(c(-c4ccc(S(=O)(=O)[O-])cc4)c4ccc([nH]4)c(-c4ccc(S(=O)(=O)[O-])cc4)c4nc(c(-c5ccc(S(=O)(=O)[O-])cc5)c5ccc2[nH]5)C=C4)C=C3)cc1
REMARK SMILES IDX 7 1 6 2 5 3 4 4 3 5 2 6 1 7 33 8 34 9 92 10 35 11 91 12
REMARK SMILES IDX 36 13 37 14 38 15 85 16 39 17 90 18 84 19 86 20 40 21 89 22
REMARK SMILES IDX 83 23 82 24 41 26 71 27 52 28 70 29 53 30 56 31 69 32 87 33
REMARK SMILES IDX 54 34 55 35 68 37 88 38 57 39 42 40 43 41 51 42 44 43 50 44
REMARK SMILES IDX 45 45 46 46 47 47 48 48 49 49 72 50 73 51 81 52 74 53 80 54
REMARK SMILES IDX 75 55 76 56 77 57 78 58 79 59 58 60 59 61 67 62 60 63 66 64
REMARK SMILES IDX 61 65 62 66 63 67 64 68 65 69 8 70 9 71 10 72 11 73 12 74
REMARK SMILES IDX 13 75 14 76 15 77 16 78 31 79 28 80 30 81 32 82 29 83 17 84
REMARK SMILES IDX 18 85 19 86 20 88 21 89 22 90 26 91 23 92 25 93 27 94 24 95
REMARK H PARENT 86 25 56 36 19 87
REMARK Flexibility Score: inf
ROOT
ATOM      1  C   UNL A   1      39.162  22.258  26.143  1.00  0.00     0.188 C 
ENDROOT
BRANCH   1   2
ATOM      2  O   UNL A   1      39.587  23.131  27.169  1.00  0.00    -0.376 OA
BRANCH   2   3
ATOM      3  C   UNL A   1      39.965  24.449  26.798  1.00  0.00     0.202 C 
BRANCH   3   4
ATOM      4  C   UNL A   1      41.297  24.694  26.062  1.00  0.00     0.261 C 
BRANCH   4   5
ATOM      5  O   UNL A   1      41.655  25.960  25.427  1.00  0.00    -0.460 OA
BRANCH   5   6
ATOM      6  C   UNL A   1      42.227  27.158  25.655  1.00  0.00     0.338 C 
ATOM      7  O   UNL A   1      42.710  27.763  24.697  1.00  0.00    -0.246 OA
BRANCH   6   8
ATOM      8  C   UNL A   1      42.343  27.793  26.992  1.00  0.00     0.060 A 
ATOM      9  C   UNL A   1      41.729  27.278  28.115  1.00  0.00     0.016 A 
ATOM     10  C   UNL A   1      43.112  28.963  27.144  1.00  0.00     0.016 A 
ATOM     11  C   UNL A   1      41.857  27.851  29.360  1.00  0.00     0.010 A 
ATOM     12  C   UNL A   1      43.199  29.606  28.389  1.00  0.00     0.010 A 
ATOM     13  C   UNL A   1      42.538  29.052  29.489  1.00  0.00    -0.014 A 
BRANCH  13  14
ATOM     14  C   UNL A   1      42.214  29.790  30.719  1.00  0.00     0.031 A 
ATOM     15  C   UNL A   1      40.904  30.526  30.739  1.00  0.00     0.074 A 
ATOM     16  C   UNL A   1      42.901  29.522  31.844  1.00  0.00     0.049 A 
ATOM     17  N   UNL A   1      40.336  31.177  31.714  1.00  0.00    -0.248 NA
ATOM     18  C   UNL A   1      40.098  30.474  29.502  1.00  0.00     0.031 C 
ATOM     19  C   UNL A   1      44.045  28.608  31.937  1.00  0.00     0.029 A 
ATOM     20  N   UNL A   1      42.697  29.932  33.131  1.00  0.00    -0.354 N 
ATOM     21  C   UNL A   1      39.121  31.623  31.205  1.00  0.00     0.074 A 
ATOM     22  C   UNL A   1      39.027  31.174  29.838  1.00  0.00     0.031 C 
ATOM     23  C   UNL A   1      44.437  28.526  33.218  1.00  0.00     0.029 A 
ATOM     24  C   UNL A   1      43.622  29.433  34.017  1.00  0.00     0.049 A 
ATOM     25  H   UNL A   1      41.961  30.529  33.398  1.00  0.00     0.167 HD
ATOM     26  C   UNL A   1      38.175  32.357  31.832  1.00  0.00     0.031 A 
ATOM     27  C   UNL A   1      43.804  29.728  35.318  1.00  0.00     0.031 A 
ATOM     28  C   UNL A   1      38.328  32.814  33.183  1.00  0.00     0.049 A 
ATOM     29  C   UNL A   1      42.846  30.709  35.941  1.00  0.00     0.074 A 
ATOM     30  C   UNL A   1      37.534  33.685  33.901  1.00  0.00     0.029 A 
ATOM     31  N   UNL A   1      39.366  32.422  34.020  1.00  0.00    -0.354 N 
ATOM     32  N   UNL A   1      41.766  31.248  35.417  1.00  0.00    -0.248 NA
ATOM     33  C   UNL A   1      43.127  31.134  37.315  1.00  0.00     0.031 C 
ATOM     34  C   UNL A   1      38.126  33.863  35.157  1.00  0.00     0.029 A 
ATOM     35  C   UNL A   1      39.247  33.047  35.244  1.00  0.00     0.049 A 
ATOM     36  H   UNL A   1      40.080  31.791  33.775  1.00  0.00     0.167 HD
ATOM     37  C   UNL A   1      41.229  32.063  36.405  1.00  0.00     0.074 A 
ATOM     38  C   UNL A   1      42.090  31.921  37.565  1.00  0.00     0.031 C 
ATOM     39  C   UNL A   1      40.133  32.862  36.366  1.00  0.00     0.031 A 
BRANCH  26  40
ATOM     40  C   UNL A   1      36.982  32.779  31.019  1.00  0.00    -0.014 A 
ATOM     41  C   UNL A   1      35.890  31.917  30.807  1.00  0.00     0.010 A 
ATOM     42  C   UNL A   1      36.976  34.050  30.417  1.00  0.00     0.010 A 
ATOM     43  C   UNL A   1      34.832  32.308  29.980  1.00  0.00     0.020 A 
ATOM     44  C   UNL A   1      35.909  34.454  29.611  1.00  0.00     0.020 A 
ATOM     45  C   UNL A   1      34.849  33.574  29.385  1.00  0.00     0.054 A 
BRANCH  45  46
ATOM     46  S   UNL A   1      33.459  34.060  28.326  1.00  0.00     0.124 S 
ATOM     47  O   UNL A   1      32.934  32.765  27.902  1.00  0.00    -0.237 OA
ATOM     48  O   UNL A   1      32.607  34.810  29.245  1.00  0.00    -0.237 OA
ATOM     49  O   UNL A   1      34.085  34.855  27.273  1.00  0.00    -0.744 OA
ENDBRANCH  45  46
ENDBRANCH  26  40
BRANCH  27  50
ATOM     50  C   UNL A   1      44.983  29.197  36.062  1.00  0.00    -0.014 A 
ATOM     51  C   UNL A   1      46.188  29.914  36.152  1.00  0.00     0.010 A 
ATOM     52  C   UNL A   1      44.912  27.920  36.656  1.00  0.00     0.010 A 
ATOM     53  C   UNL A   1      47.304  29.352  36.784  1.00  0.00     0.020 A 
ATOM     54  C   UNL A   1      46.012  27.369  37.318  1.00  0.00     0.020 A 
ATOM     55  C   UNL A   1      47.210  28.080  37.358  1.00  0.00     0.054 A 
BRANCH  55  56
ATOM     56  S   UNL A   1      48.671  27.363  38.160  1.00  0.00     0.124 S 
ATOM     57  O   UNL A   1      48.730  28.113  39.409  1.00  0.00    -0.237 OA
ATOM     58  O   UNL A   1      48.303  25.954  38.281  1.00  0.00    -0.237 OA
ATOM     59  O   UNL A   1      49.750  27.638  37.212  1.00  0.00    -0.744 OA
ENDBRANCH  55  56
ENDBRANCH  27  50
BRANCH  39  60
ATOM     60  C   UNL A   1      39.789  33.598  37.629  1.00  0.00    -0.014 A 
ATOM     61  C   UNL A   1      38.667  33.244  38.396  1.00  0.00     0.010 A 
ATOM     62  C   UNL A   1      40.645  34.619  38.078  1.00  0.00     0.010 A 
ATOM     63  C   UNL A   1      38.386  33.928  39.579  1.00  0.00     0.020 A 
ATOM     64  C   UNL A   1      40.387  35.281  39.277  1.00  0.00     0.020 A 
ATOM     65  C   UNL A   1      39.250  34.940  40.013  1.00  0.00     0.054 A 
BRANCH  65  66
ATOM     66  S   UNL A   1      38.889  35.781  41.575  1.00  0.00     0.124 S 
ATOM     67  O   UNL A   1      40.023  35.380  42.403  1.00  0.00    -0.237 OA
ATOM     68  O   UNL A   1      38.862  37.188  41.182  1.00  0.00    -0.237 OA
ATOM     69  O   UNL A   1      37.597  35.228  41.976  1.00  0.00    -0.744 OA
ENDBRANCH  65  66
ENDBRANCH  39  60
ENDBRANCH  13  14
ENDBRANCH   6   8
ENDBRANCH   5   6
ENDBRANCH   4   5
ENDBRANCH   3   4
ENDBRANCH   2   3
ENDBRANCH   1   2
BRANCH   1  70
ATOM     70  C   UNL A   1      37.738  22.450  25.660  1.00  0.00     0.188 C 
BRANCH  70  71
ATOM     71  O   UNL A   1      37.423  22.064  24.335  1.00  0.00    -0.376 OA
BRANCH  71  72
ATOM     72  C   UNL A   1      36.754  23.037  23.530  1.00  0.00     0.202 C 
BRANCH  72  73
ATOM     73  C   UNL A   1      35.227  23.234  23.650  1.00  0.00     0.261 C 
BRANCH  73  74
ATOM     74  O   UNL A   1      34.801  24.452  24.292  1.00  0.00    -0.463 OA
BRANCH  74  75
ATOM     75  C   UNL A   1      34.137  24.280  25.481  1.00  0.00     0.310 C 
ATOM     76  O   UNL A   1      34.463  23.485  26.341  1.00  0.00    -0.252 OA
BRANCH  75  77
ATOM     77  C   UNL A   1      32.889  25.135  25.532  1.00  0.00     0.119 C 
ATOM     78  C   UNL A   1      31.517  24.540  25.956  1.00  0.00     0.100 C 
ATOM     79  C   UNL A   1      32.538  25.826  24.179  1.00  0.00     0.027 C 
ATOM     80  C   UNL A   1      30.554  24.999  24.823  1.00  0.00     0.025 C 
ATOM     81  C   UNL A   1      32.098  24.817  23.143  1.00  0.00    -0.027 C 
ATOM     82  C   UNL A   1      31.144  26.387  24.504  1.00  0.00     0.017 C 
ATOM     83  C   UNL A   1      30.901  24.340  23.518  1.00  0.00    -0.027 C 
BRANCH  78  84
ATOM     84  C   UNL A   1      31.323  23.127  26.504  1.00  0.00     0.224 C 
ATOM     85  O   UNL A   1      30.760  23.008  27.604  1.00  0.00    -0.275 OA
ATOM     86  N   UNL A   1      31.687  21.953  25.945  1.00  0.00    -0.352 N 
ATOM     87  H   UNL A   1      31.526  21.181  26.535  1.00  0.00     0.163 HD
BRANCH  86  88
ATOM     88  C   UNL A   1      32.260  21.580  24.668  1.00  0.00     0.153 C 
BRANCH  88  89
ATOM     89  C   UNL A   1      32.373  20.098  24.388  1.00  0.00    -0.010 A 
ATOM     90  C   UNL A   1      32.650  19.151  25.381  1.00  0.00     0.007 A 
ATOM     91  C   UNL A   1      32.252  19.632  23.065  1.00  0.00     0.046 A 
ATOM     92  C   UNL A   1      32.961  17.826  25.051  1.00  0.00     0.000 A 
ATOM     93  C   UNL A   1      32.552  18.307  22.736  1.00  0.00     0.021 A 
ATOM     94  Cl  UNL A   1      31.710  20.664  21.786  1.00  0.00    -0.084 Cl
ATOM     95  C   UNL A   1      32.945  17.411  23.726  1.00  0.00     0.002 A 
ENDBRANCH  88  89
ENDBRANCH  86  88
ENDBRANCH  78  84
ENDBRANCH  75  77
ENDBRANCH  74  75
ENDBRANCH  73  74
ENDBRANCH  72  73
ENDBRANCH  71  72
ENDBRANCH  70  71
ENDBRANCH   1  70
TORSDOF 23
ENDMDL
MODEL 3
REMARK VINA RESULT:      -9.4      5.547     12.578
REMARK SMILES O=C(OCCOCCOCCOC(=O)[C@@H]1[C@H](C(=O)NCc2ccccc2Cl)[C@@H]2C=C[C@H]1C2)c1ccc(-c2c3nc(c(-c4ccc(S(=O)(=O)[O-])cc4)c4ccc([nH]4)c(-c4ccc(S(=O)(=O)[O-])cc4)c4nc(c(-c5ccc(S(=O)(=O)[O-])cc5)c5ccc2[nH]5)C=C4)C=C3)cc1
REMARK SMILES IDX 7 1 6 2 5 3 4 4 3 5 2 6 1 7 33 8 34 9 92 10 35 11 91 12
REMARK SMILES IDX 36 13 37 14 38 15 85 16 39 17 90 18 84 19 86 20 40 21 89 22
REMARK SMILES IDX 83 23 82 24 41 26 71 27 52 28 70 29 53 30 56 31 69 32 87 33
REMARK SMILES IDX 54 34 55 35 68 37 88 38 57 39 42 40 43 41 51 42 44 43 50 44
REMARK SMILES IDX 45 45 46 46 47 47 48 48 49 49 72 50 73 51 81 52 74 53 80 54
REMARK SMILES IDX 75 55 76 56 77 57 78 58 79 59 58 60 59 61 67 62 60 63 66 64
REMARK SMILES IDX 61 65 62 66 63 67 64 68 65 69 8 70 9 71 10 72 11 73 12 74
REMARK SMILES IDX 13 75 14 76 15 77 16 78 31 79 28 80 30 81 32 82 29 83 17 84
REMARK SMILES IDX 18 85 19 86 20 88 21 89 22 90 26 91 23 92 25 93 27 94 24 95
REMARK H PARENT 86 25 56 36 19 87
REMARK Flexibility Score: inf
ROOT
ATOM      1  C   UNL A   1      37.290  32.981  31.985  1.00  0.00     0.188 C 
ENDROOT
BRANCH   1   2
ATOM      2  O   UNL A   1      36.067  33.579  32.364  1.00  0.00    -0.376 OA
BRANCH   2   3
ATOM      3  C   UNL A   1      35.515  33.212  33.619  1.00  0.00     0.202 C 
BRANCH   3   4
ATOM      4  C   UNL A   1      36.033  33.869  34.914  1.00  0.00     0.261 C 
BRANCH   4   5
ATOM      5  O   UNL A   1      36.601  33.122  36.034  1.00  0.00    -0.460 OA
BRANCH   5   6
ATOM      6  C   UNL A   1      37.752  32.628  36.528  1.00  0.00     0.338 C 
ATOM      7  O   UNL A   1      38.017  32.843  37.711  1.00  0.00    -0.246 OA
BRANCH   6   8
ATOM      8  C   UNL A   1      38.747  31.861  35.735  1.00  0.00     0.060 A 
ATOM      9  C   UNL A   1      40.105  32.088  35.827  1.00  0.00     0.016 A 
ATOM     10  C   UNL A   1      38.310  30.853  34.855  1.00  0.00     0.016 A 
ATOM     11  C   UNL A   1      41.029  31.361  35.112  1.00  0.00     0.010 A 
ATOM     12  C   UNL A   1      39.228  30.147  34.062  1.00  0.00     0.010 A 
ATOM     13  C   UNL A   1      40.591  30.433  34.179  1.00  0.00    -0.014 A 
BRANCH  13  14
ATOM     14  C   UNL A   1      41.602  30.079  33.172  1.00  0.00     0.031 A 
ATOM     15  C   UNL A   1      41.992  31.157  32.201  1.00  0.00     0.074 A 
ATOM     16  C   UNL A   1      42.349  28.976  33.354  1.00  0.00     0.049 A 
ATOM     17  N   UNL A   1      42.911  31.145  31.276  1.00  0.00    -0.248 NA
ATOM     18  C   UNL A   1      41.283  32.447  32.324  1.00  0.00     0.031 C 
ATOM     19  C   UNL A   1      42.174  28.008  34.443  1.00  0.00     0.029 A 
ATOM     20  N   UNL A   1      43.443  28.518  32.675  1.00  0.00    -0.354 N 
ATOM     21  C   UNL A   1      42.878  32.411  30.702  1.00  0.00     0.074 A 
ATOM     22  C   UNL A   1      41.853  33.170  31.374  1.00  0.00     0.031 C 
ATOM     23  C   UNL A   1      43.134  27.073  34.357  1.00  0.00     0.029 A 
ATOM     24  C   UNL A   1      43.940  27.337  33.171  1.00  0.00     0.049 A 
ATOM     25  H   UNL A   1      43.836  28.988  31.904  1.00  0.00     0.167 HD
ATOM     26  C   UNL A   1      43.637  32.885  29.689  1.00  0.00     0.031 A 
ATOM     27  C   UNL A   1      44.910  26.545  32.678  1.00  0.00     0.031 A 
ATOM     28  C   UNL A   1      44.621  32.080  29.025  1.00  0.00     0.049 A 
ATOM     29  C   UNL A   1      45.606  27.010  31.425  1.00  0.00     0.074 A 
ATOM     30  C   UNL A   1      45.358  32.366  27.893  1.00  0.00     0.029 A 
ATOM     31  N   UNL A   1      44.999  30.812  29.450  1.00  0.00    -0.354 N 
ATOM     32  N   UNL A   1      45.478  28.155  30.791  1.00  0.00    -0.248 NA
ATOM     33  C   UNL A   1      46.563  26.084  30.813  1.00  0.00     0.031 C 
ATOM     34  C   UNL A   1      46.142  31.243  27.602  1.00  0.00     0.029 A 
ATOM     35  C   UNL A   1      45.947  30.290  28.593  1.00  0.00     0.049 A 
ATOM     36  H   UNL A   1      44.644  30.354  30.245  1.00  0.00     0.167 HD
ATOM     37  C   UNL A   1      46.352  28.094  29.714  1.00  0.00     0.074 A 
ATOM     38  C   UNL A   1      47.022  26.809  29.803  1.00  0.00     0.031 C 
ATOM     39  C   UNL A   1      46.584  29.005  28.735  1.00  0.00     0.031 A 
BRANCH  26  40
ATOM     40  C   UNL A   1      43.338  34.275  29.200  1.00  0.00    -0.014 A 
ATOM     41  C   UNL A   1      42.329  34.524  28.252  1.00  0.00     0.010 A 
ATOM     42  C   UNL A   1      44.117  35.350  29.668  1.00  0.00     0.010 A 
ATOM     43  C   UNL A   1      42.128  35.817  27.758  1.00  0.00     0.020 A 
ATOM     44  C   UNL A   1      43.903  36.646  29.194  1.00  0.00     0.020 A 
ATOM     45  C   UNL A   1      42.918  36.870  28.229  1.00  0.00     0.054 A 
BRANCH  45  46
ATOM     46  S   UNL A   1      42.630  38.539  27.579  1.00  0.00     0.124 S 
ATOM     47  O   UNL A   1      41.552  38.307  26.620  1.00  0.00    -0.237 OA
ATOM     48  O   UNL A   1      42.253  39.286  28.776  1.00  0.00    -0.237 OA
ATOM     49  O   UNL A   1      43.915  38.912  26.994  1.00  0.00    -0.744 OA
ENDBRANCH  45  46
ENDBRANCH  26  40
BRANCH  27  50
ATOM     50  C   UNL A   1      45.184  25.208  33.282  1.00  0.00    -0.014 A 
ATOM     51  C   UNL A   1      44.249  24.161  33.221  1.00  0.00     0.010 A 
ATOM     52  C   UNL A   1      46.392  24.994  33.977  1.00  0.00     0.010 A 
ATOM     53  C   UNL A   1      44.499  22.946  33.872  1.00  0.00     0.020 A 
ATOM     54  C   UNL A   1      46.662  23.773  34.599  1.00  0.00     0.020 A 
ATOM     55  C   UNL A   1      45.702  22.763  34.562  1.00  0.00     0.054 A 
BRANCH  55  56
ATOM     56  S   UNL A   1      46.001  21.188  35.410  1.00  0.00     0.124 S 
ATOM     57  O   UNL A   1      47.417  20.963  35.143  1.00  0.00    -0.237 OA
ATOM     58  O   UNL A   1      45.659  21.507  36.795  1.00  0.00    -0.237 OA
ATOM     59  O   UNL A   1      45.083  20.263  34.747  1.00  0.00    -0.744 OA
ENDBRANCH  55  56
ENDBRANCH  27  50
BRANCH  39  60
ATOM     60  C   UNL A   1      47.632  28.653  27.720  1.00  0.00    -0.014 A 
ATOM     61  C   UNL A   1      48.996  28.868  27.976  1.00  0.00     0.010 A 
ATOM     62  C   UNL A   1      47.239  28.040  26.517  1.00  0.00     0.010 A 
ATOM     63  C   UNL A   1      49.951  28.507  27.026  1.00  0.00     0.020 A 
ATOM     64  C   UNL A   1      48.192  27.646  25.580  1.00  0.00     0.020 A 
ATOM     65  C   UNL A   1      49.543  27.897  25.835  1.00  0.00     0.054 A 
BRANCH  65  66
ATOM     66  S   UNL A   1      50.805  27.395  24.637  1.00  0.00     0.124 S 
ATOM     67  O   UNL A   1      50.235  27.874  23.380  1.00  0.00    -0.237 OA
ATOM     68  O   UNL A   1      51.990  28.110  25.104  1.00  0.00    -0.237 OA
ATOM     69  O   UNL A   1      50.863  25.942  24.783  1.00  0.00    -0.744 OA
ENDBRANCH  65  66
ENDBRANCH  39  60
ENDBRANCH  13  14
ENDBRANCH   6   8
ENDBRANCH   5   6
ENDBRANCH   4   5
ENDBRANCH   3   4
ENDBRANCH   2   3
ENDBRANCH   1   2
BRANCH   1  70
ATOM     70  C   UNL A   1      37.183  31.618  31.329  1.00  0.00     0.188 C 
BRANCH  70  71
ATOM     71  O   UNL A   1      37.639  31.481  29.995  1.00  0.00    -0.376 OA
BRANCH  71  72
ATOM     72  C   UNL A   1      39.001  31.080  29.827  1.00  0.00     0.202 C 
BRANCH  72  73
ATOM     73  C   UNL A   1      39.383  29.584  29.840  1.00  0.00     0.261 C 
BRANCH  73  74
ATOM     74  O   UNL A   1      40.045  29.096  28.656  1.00  0.00    -0.463 OA
BRANCH  74  75
ATOM     75  C   UNL A   1      39.894  27.753  28.420  1.00  0.00     0.310 C 
ATOM     76  O   UNL A   1      39.207  27.009  29.092  1.00  0.00    -0.252 OA
BRANCH  75  77
ATOM     77  C   UNL A   1      40.779  27.304  27.275  1.00  0.00     0.119 C 
ATOM     78  C   UNL A   1      42.169  26.659  27.535  1.00  0.00     0.100 C 
ATOM     79  C   UNL A   1      41.131  28.436  26.263  1.00  0.00     0.027 C 
ATOM     80  C   UNL A   1      43.125  27.468  26.611  1.00  0.00     0.025 C 
ATOM     81  C   UNL A   1      42.044  29.467  26.886  1.00  0.00    -0.027 C 
ATOM     82  C   UNL A   1      42.195  27.728  25.410  1.00  0.00     0.017 C 
ATOM     83  C   UNL A   1      43.243  28.894  27.073  1.00  0.00    -0.027 C 
BRANCH  78  84
ATOM     84  C   UNL A   1      42.697  26.272  28.915  1.00  0.00     0.224 C 
ATOM     85  O   UNL A   1      42.561  27.093  29.836  1.00  0.00    -0.275 OA
ATOM     86  N   UNL A   1      43.309  25.127  29.288  1.00  0.00    -0.352 N 
ATOM     87  H   UNL A   1      43.633  25.151  30.218  1.00  0.00     0.163 HD
BRANCH  86  88
ATOM     88  C   UNL A   1      43.593  23.872  28.621  1.00  0.00     0.153 C 
BRANCH  88  89
ATOM     89  C   UNL A   1      44.565  23.929  27.464  1.00  0.00    -0.010 A 
ATOM     90  C   UNL A   1      45.947  24.079  27.633  1.00  0.00     0.007 A 
ATOM     91  C   UNL A   1      44.075  23.885  26.146  1.00  0.00     0.046 A 
ATOM     92  C   UNL A   1      46.784  24.346  26.543  1.00  0.00     0.000 A 
ATOM     93  C   UNL A   1      44.912  24.141  25.055  1.00  0.00     0.021 A 
ATOM     94  Cl  UNL A   1      42.423  23.496  25.804  1.00  0.00    -0.084 Cl
ATOM     95  C   UNL A   1      46.263  24.410  25.257  1.00  0.00     0.002 A 
ENDBRANCH  88  89
ENDBRANCH  86  88
ENDBRANCH  78  84
ENDBRANCH  75  77
ENDBRANCH  74  75
ENDBRANCH  73  74
ENDBRANCH  72  73
ENDBRANCH  71  72
ENDBRANCH  70  71
ENDBRANCH   1  70
TORSDOF 23
ENDMDL
