MODEL 1
REMARK VINA RESULT:     -10.4      0.000      0.000
REMARK SMILES C[C@@H](Oc1ccc2c(c1)OCO2)C(=O)N1CCn2nc(C(=O)OCCOCCOCCOC(=O)c3ccc(-c4c5nc(c(-c6ccc(S(=O)(=O)[O-])cc6)c6ccc([nH]6)c(-c6ccc(S(=O)(=O)[O-])cc6)c6nc(c(-c7ccc(S(=O)(=O)[O-])cc7)c7ccc4[nH]7)C=C6)C=C5)cc3)cc2C1
REMARK SMILES IDX 27 1 26 2 25 3 24 4 23 5 21 6 22 7 20 8 15 9 16 10 97 11
REMARK SMILES IDX 17 12 96 13 18 14 95 15 19 16 13 17 14 18 2 19 1 20 3 21
REMARK SMILES IDX 4 22 5 23 9 24 6 25 8 26 7 27 10 28 12 29 11 30 28 31 29 32
REMARK SMILES IDX 30 33 31 34 32 35 33 36 34 37 35 38 36 39 94 40 37 41 93 42
REMARK SMILES IDX 38 43 39 44 40 45 87 46 41 47 92 48 86 49 88 50 42 51 91 52
REMARK SMILES IDX 85 53 84 54 43 56 73 57 54 58 72 59 55 60 58 61 71 62 89 63
REMARK SMILES IDX 56 64 57 65 70 67 90 68 59 69 44 70 45 71 53 72 46 73 52 74
REMARK SMILES IDX 47 75 48 76 49 77 50 78 51 79 74 80 75 81 83 82 76 83 82 84
REMARK SMILES IDX 77 85 78 86 79 87 80 88 81 89 60 90 61 91 69 92 62 93 68 94
REMARK SMILES IDX 63 95 64 96 65 97 66 98 67 99
REMARK H PARENT 88 55 58 66
REMARK Flexibility Score: inf
ROOT
ATOM      1  C   UNL A   1      43.987  18.800  25.081  1.00  0.00     0.188 C 
ENDROOT
BRANCH   1   2
ATOM      2  O   UNL A   1      43.013  19.808  25.311  1.00  0.00    -0.376 OA
BRANCH   2   3
ATOM      3  C   UNL A   1      41.940  19.580  26.214  1.00  0.00     0.202 C 
BRANCH   3   4
ATOM      4  C   UNL A   1      41.521  20.629  27.268  1.00  0.00     0.261 C 
BRANCH   4   5
ATOM      5  O   UNL A   1      40.154  21.065  27.232  1.00  0.00    -0.458 OA
BRANCH   5   6
ATOM      6  C   UNL A   1      39.902  22.201  26.513  1.00  0.00     0.358 C 
ATOM      7  O   UNL A   1      40.765  23.000  26.174  1.00  0.00    -0.244 OA
BRANCH   6   8
ATOM      8  C   UNL A   1      38.492  22.292  26.087  1.00  0.00     0.170 A 
ATOM      9  N   UNL A   1      34.045  22.389  24.846  1.00  0.00    -0.332 N 
ATOM     10  C   UNL A   1      34.415  23.793  24.639  1.00  0.00     0.143 C 
ATOM     11  C   UNL A   1      35.060  21.359  25.070  1.00  0.00     0.175 C 
ATOM     12  C   UNL A   1      35.815  24.257  25.016  1.00  0.00     0.166 C 
ATOM     13  C   UNL A   1      36.399  21.877  25.413  1.00  0.00     0.059 A 
ATOM     14  N   UNL A   1      36.679  23.201  25.454  1.00  0.00    -0.265 N 
ATOM     15  C   UNL A   1      37.591  21.250  25.723  1.00  0.00     0.063 A 
ATOM     16  N   UNL A   1      37.898  23.491  25.925  1.00  0.00    -0.165 NA
BRANCH   9  17
ATOM     17  C   UNL A   1      32.746  21.901  24.644  1.00  0.00     0.263 C 
ATOM     18  O   UNL A   1      32.456  21.295  23.604  1.00  0.00    -0.271 OA
BRANCH  17  19
ATOM     19  C   UNL A   1      31.632  22.163  25.688  1.00  0.00     0.259 C 
ATOM     20  C   UNL A   1      32.141  22.838  26.957  1.00  0.00     0.064 C 
BRANCH  19  21
ATOM     21  O   UNL A   1      30.611  22.925  25.028  1.00  0.00    -0.481 OA
BRANCH  21  22
ATOM     22  C   UNL A   1      30.966  24.218  24.755  1.00  0.00     0.124 A 
ATOM     23  C   UNL A   1      31.052  24.636  23.415  1.00  0.00     0.050 A 
ATOM     24  C   UNL A   1      31.060  25.139  25.801  1.00  0.00     0.097 A 
ATOM     25  C   UNL A   1      31.274  25.977  23.104  1.00  0.00     0.054 A 
ATOM     26  C   UNL A   1      31.260  26.462  25.462  1.00  0.00     0.169 A 
ATOM     27  C   UNL A   1      31.365  26.868  24.149  1.00  0.00     0.166 A 
ATOM     28  O   UNL A   1      31.346  27.508  26.329  1.00  0.00    -0.453 OA
ATOM     29  O   UNL A   1      31.533  28.212  24.030  1.00  0.00    -0.454 OA
ATOM     30  C   UNL A   1      31.431  28.620  25.410  1.00  0.00     0.468 C 
ENDBRANCH  21  22
ENDBRANCH  19  21
ENDBRANCH  17  19
ENDBRANCH   9  17
ENDBRANCH   6   8
ENDBRANCH   5   6
ENDBRANCH   4   5
ENDBRANCH   3   4
ENDBRANCH   2   3
ENDBRANCH   1   2
BRANCH   1  31
ATOM     31  C   UNL A   1      44.842  18.799  23.790  1.00  0.00     0.188 C 
BRANCH  31  32
ATOM     32  O   UNL A   1      46.134  19.357  23.927  1.00  0.00    -0.376 OA
BRANCH  32  33
ATOM     33  C   UNL A   1      46.414  20.395  24.855  1.00  0.00     0.202 C 
BRANCH  33  34
ATOM     34  C   UNL A   1      46.339  21.885  24.519  1.00  0.00     0.261 C 
BRANCH  34  35
ATOM     35  O   UNL A   1      46.247  22.748  25.629  1.00  0.00    -0.460 OA
BRANCH  35  36
ATOM     36  C   UNL A   1      45.935  24.020  25.305  1.00  0.00     0.338 C 
ATOM     37  O   UNL A   1      46.564  24.764  24.576  1.00  0.00    -0.246 OA
BRANCH  36  38
ATOM     38  C   UNL A   1      44.729  24.401  26.048  1.00  0.00     0.060 A 
ATOM     39  C   UNL A   1      43.895  25.302  25.387  1.00  0.00     0.016 A 
ATOM     40  C   UNL A   1      44.751  24.264  27.443  1.00  0.00     0.016 A 
ATOM     41  C   UNL A   1      43.368  26.321  26.134  1.00  0.00     0.010 A 
ATOM     42  C   UNL A   1      44.247  25.296  28.184  1.00  0.00     0.010 A 
ATOM     43  C   UNL A   1      43.678  26.364  27.497  1.00  0.00    -0.014 A 
BRANCH  43  44
ATOM     44  C   UNL A   1      43.377  27.578  28.206  1.00  0.00     0.031 A 
ATOM     45  C   UNL A   1      44.525  28.491  28.257  1.00  0.00     0.074 A 
ATOM     46  C   UNL A   1      42.149  27.847  28.684  1.00  0.00     0.049 A 
ATOM     47  N   UNL A   1      45.295  28.727  29.265  1.00  0.00    -0.248 NA
ATOM     48  C   UNL A   1      45.006  29.025  26.974  1.00  0.00     0.031 C 
ATOM     49  C   UNL A   1      40.894  27.130  28.436  1.00  0.00     0.029 A 
ATOM     50  N   UNL A   1      41.752  28.919  29.412  1.00  0.00    -0.354 N 
ATOM     51  C   UNL A   1      46.224  29.639  28.789  1.00  0.00     0.074 A 
ATOM     52  C   UNL A   1      46.154  29.583  27.352  1.00  0.00     0.031 C 
ATOM     53  C   UNL A   1      39.857  27.921  28.798  1.00  0.00     0.029 A 
ATOM     54  C   UNL A   1      40.381  29.125  29.422  1.00  0.00     0.049 A 
ATOM     55  H   UNL A   1      42.383  29.501  29.894  1.00  0.00     0.167 HD
ATOM     56  C   UNL A   1      46.742  30.603  29.595  1.00  0.00     0.031 A 
ATOM     57  C   UNL A   1      39.754  30.257  29.833  1.00  0.00     0.031 A 
ATOM     58  C   UNL A   1      46.514  30.322  30.990  1.00  0.00     0.049 A 
ATOM     59  C   UNL A   1      40.709  30.995  30.699  1.00  0.00     0.074 A 
ATOM     60  C   UNL A   1      46.869  29.302  31.849  1.00  0.00     0.029 A 
ATOM     61  N   UNL A   1      45.470  30.986  31.591  1.00  0.00    -0.354 N 
ATOM     62  N   UNL A   1      41.124  30.549  31.852  1.00  0.00    -0.248 NA
ATOM     63  C   UNL A   1      41.557  32.012  30.090  1.00  0.00     0.031 C 
ATOM     64  C   UNL A   1      45.751  29.135  32.716  1.00  0.00     0.029 A 
ATOM     65  C   UNL A   1      44.788  30.089  32.375  1.00  0.00     0.049 A 
ATOM     66  H   UNL A   1      45.249  31.939  31.478  1.00  0.00     0.167 HD
ATOM     67  C   UNL A   1      42.468  30.894  31.910  1.00  0.00     0.074 A 
ATOM     68  C   UNL A   1      42.646  31.889  30.856  1.00  0.00     0.031 C 
ATOM     69  C   UNL A   1      43.359  30.137  32.618  1.00  0.00     0.031 A 
BRANCH  56  70
ATOM     70  C   UNL A   1      47.035  31.990  29.086  1.00  0.00    -0.014 A 
ATOM     71  C   UNL A   1      45.969  32.883  28.891  1.00  0.00     0.010 A 
ATOM     72  C   UNL A   1      48.286  32.351  28.538  1.00  0.00     0.010 A 
ATOM     73  C   UNL A   1      46.139  34.052  28.137  1.00  0.00     0.020 A 
ATOM     74  C   UNL A   1      48.480  33.534  27.831  1.00  0.00     0.020 A 
ATOM     75  C   UNL A   1      47.392  34.362  27.605  1.00  0.00     0.054 A 
BRANCH  75  76
ATOM     76  S   UNL A   1      47.578  35.811  26.543  1.00  0.00     0.124 S 
ATOM     77  O   UNL A   1      47.990  35.205  25.282  1.00  0.00    -0.237 OA
ATOM     78  O   UNL A   1      46.235  36.383  26.567  1.00  0.00    -0.237 OA
ATOM     79  O   UNL A   1      48.601  36.604  27.223  1.00  0.00    -0.744 OA
ENDBRANCH  75  76
ENDBRANCH  56  70
BRANCH  57  80
ATOM     80  C   UNL A   1      38.560  30.895  29.223  1.00  0.00    -0.014 A 
ATOM     81  C   UNL A   1      37.421  30.137  28.893  1.00  0.00     0.010 A 
ATOM     82  C   UNL A   1      38.434  32.299  29.225  1.00  0.00     0.010 A 
ATOM     83  C   UNL A   1      36.188  30.760  28.638  1.00  0.00     0.020 A 
ATOM     84  C   UNL A   1      37.210  32.928  28.964  1.00  0.00     0.020 A 
ATOM     85  C   UNL A   1      36.085  32.153  28.696  1.00  0.00     0.054 A 
BRANCH  85  86
ATOM     86  S   UNL A   1      34.455  32.940  28.540  1.00  0.00     0.124 S 
ATOM     87  O   UNL A   1      34.737  34.070  27.661  1.00  0.00    -0.237 OA
ATOM     88  O   UNL A   1      33.641  31.874  27.960  1.00  0.00    -0.237 OA
ATOM     89  O   UNL A   1      34.111  33.296  29.916  1.00  0.00    -0.744 OA
ENDBRANCH  85  86
ENDBRANCH  57  80
BRANCH  69  90
ATOM     90  C   UNL A   1      42.804  29.094  33.564  1.00  0.00    -0.014 A 
ATOM     91  C   UNL A   1      42.674  27.730  33.233  1.00  0.00     0.010 A 
ATOM     92  C   UNL A   1      42.541  29.488  34.888  1.00  0.00     0.010 A 
ATOM     93  C   UNL A   1      42.271  26.792  34.196  1.00  0.00     0.020 A 
ATOM     94  C   UNL A   1      42.156  28.556  35.856  1.00  0.00     0.020 A 
ATOM     95  C   UNL A   1      42.015  27.213  35.505  1.00  0.00     0.054 A 
BRANCH  95  96
ATOM     96  S   UNL A   1      41.547  25.990  36.762  1.00  0.00     0.124 S 
ATOM     97  O   UNL A   1      40.983  24.908  35.962  1.00  0.00    -0.237 OA
ATOM     98  O   UNL A   1      42.820  25.690  37.415  1.00  0.00    -0.237 OA
ATOM     99  O   UNL A   1      40.586  26.703  37.602  1.00  0.00    -0.744 OA
ENDBRANCH  95  96
ENDBRANCH  69  90
ENDBRANCH  43  44
ENDBRANCH  36  38
ENDBRANCH  35  36
ENDBRANCH  34  35
ENDBRANCH  33  34
ENDBRANCH  32  33
ENDBRANCH  31  32
ENDBRANCH   1  31
TORSDOF 24
ENDMDL
MODEL 2
REMARK VINA RESULT:      -9.7      3.518      8.293
REMARK SMILES C[C@@H](Oc1ccc2c(c1)OCO2)C(=O)N1CCn2nc(C(=O)OCCOCCOCCOC(=O)c3ccc(-c4c5nc(c(-c6ccc(S(=O)(=O)[O-])cc6)c6ccc([nH]6)c(-c6ccc(S(=O)(=O)[O-])cc6)c6nc(c(-c7ccc(S(=O)(=O)[O-])cc7)c7ccc4[nH]7)C=C6)C=C5)cc3)cc2C1
REMARK SMILES IDX 27 1 26 2 25 3 24 4 23 5 21 6 22 7 20 8 15 9 16 10 97 11
REMARK SMILES IDX 17 12 96 13 18 14 95 15 19 16 13 17 14 18 2 19 1 20 3 21
REMARK SMILES IDX 4 22 5 23 9 24 6 25 8 26 7 27 10 28 12 29 11 30 28 31 29 32
REMARK SMILES IDX 30 33 31 34 32 35 33 36 34 37 35 38 36 39 94 40 37 41 93 42
REMARK SMILES IDX 38 43 39 44 40 45 87 46 41 47 92 48 86 49 88 50 42 51 91 52
REMARK SMILES IDX 85 53 84 54 43 56 73 57 54 58 72 59 55 60 58 61 71 62 89 63
REMARK SMILES IDX 56 64 57 65 70 67 90 68 59 69 44 70 45 71 53 72 46 73 52 74
REMARK SMILES IDX 47 75 48 76 49 77 50 78 51 79 74 80 75 81 83 82 76 83 82 84
REMARK SMILES IDX 77 85 78 86 79 87 80 88 81 89 60 90 61 91 69 92 62 93 68 94
REMARK SMILES IDX 63 95 64 96 65 97 66 98 67 99
REMARK H PARENT 88 55 58 66
REMARK Flexibility Score: inf
ROOT
ATOM      1  C   UNL A   1      47.625  26.115  28.392  1.00  0.00     0.188 C 
ENDROOT
BRANCH   1   2
ATOM      2  O   UNL A   1      47.321  25.207  27.343  1.00  0.00    -0.376 OA
BRANCH   2   3
ATOM      3  C   UNL A   1      46.290  24.242  27.502  1.00  0.00     0.202 C 
BRANCH   3   4
ATOM      4  C   UNL A   1      44.855  24.485  26.987  1.00  0.00     0.261 C 
BRANCH   4   5
ATOM      5  O   UNL A   1      44.022  23.326  26.831  1.00  0.00    -0.458 OA
BRANCH   5   6
ATOM      6  C   UNL A   1      43.122  23.090  27.833  1.00  0.00     0.358 C 
ATOM      7  O   UNL A   1      43.400  23.132  29.025  1.00  0.00    -0.244 OA
BRANCH   6   8
ATOM      8  C   UNL A   1      41.752  22.899  27.320  1.00  0.00     0.170 A 
ATOM      9  N   UNL A   1      37.438  22.511  25.717  1.00  0.00    -0.332 N 
ATOM     10  C   UNL A   1      37.958  21.172  25.423  1.00  0.00     0.143 C 
ATOM     11  C   UNL A   1      38.166  23.438  26.585  1.00  0.00     0.175 C 
ATOM     12  C   UNL A   1      39.420  20.862  25.711  1.00  0.00     0.166 C 
ATOM     13  C   UNL A   1      39.572  23.067  26.839  1.00  0.00     0.059 A 
ATOM     14  N   UNL A   1      40.125  21.929  26.359  1.00  0.00    -0.265 N 
ATOM     15  C   UNL A   1      40.582  23.677  27.559  1.00  0.00     0.063 A 
ATOM     16  N   UNL A   1      41.444  21.828  26.561  1.00  0.00    -0.165 NA
BRANCH   9  17
ATOM     17  C   UNL A   1      36.143  22.923  25.372  1.00  0.00     0.263 C 
ATOM     18  O   UNL A   1      35.969  23.919  24.659  1.00  0.00    -0.271 OA
BRANCH  17  19
ATOM     19  C   UNL A   1      34.903  22.177  25.925  1.00  0.00     0.259 C 
ATOM     20  C   UNL A   1      34.364  22.780  27.218  1.00  0.00     0.064 C 
BRANCH  19  21
ATOM     21  O   UNL A   1      33.925  22.154  24.876  1.00  0.00    -0.481 OA
BRANCH  21  22
ATOM     22  C   UNL A   1      33.566  20.897  24.473  1.00  0.00     0.124 A 
ATOM     23  C   UNL A   1      32.528  20.750  23.536  1.00  0.00     0.050 A 
ATOM     24  C   UNL A   1      34.346  19.804  24.858  1.00  0.00     0.097 A 
ATOM     25  C   UNL A   1      32.229  19.496  23.001  1.00  0.00     0.054 A 
ATOM     26  C   UNL A   1      34.040  18.581  24.296  1.00  0.00     0.169 A 
ATOM     27  C   UNL A   1      33.010  18.432  23.394  1.00  0.00     0.166 A 
ATOM     28  O   UNL A   1      34.699  17.410  24.516  1.00  0.00    -0.453 OA
ATOM     29  O   UNL A   1      32.891  17.156  22.941  1.00  0.00    -0.454 OA
ATOM     30  C   UNL A   1      34.020  16.534  23.589  1.00  0.00     0.468 C 
ENDBRANCH  21  22
ENDBRANCH  19  21
ENDBRANCH  17  19
ENDBRANCH   9  17
ENDBRANCH   6   8
ENDBRANCH   5   6
ENDBRANCH   4   5
ENDBRANCH   3   4
ENDBRANCH   2   3
ENDBRANCH   1   2
BRANCH   1  31
ATOM     31  C   UNL A   1      48.988  26.848  28.440  1.00  0.00     0.188 C 
BRANCH  31  32
ATOM     32  O   UNL A   1      49.449  27.338  27.197  1.00  0.00    -0.376 OA
BRANCH  32  33
ATOM     33  C   UNL A   1      48.737  28.323  26.462  1.00  0.00     0.202 C 
BRANCH  33  34
ATOM     34  C   UNL A   1      47.684  29.250  27.072  1.00  0.00     0.261 C 
BRANCH  34  35
ATOM     35  O   UNL A   1      46.640  29.627  26.204  1.00  0.00    -0.460 OA
BRANCH  35  36
ATOM     36  C   UNL A   1      45.534  28.862  26.319  1.00  0.00     0.338 C 
ATOM     37  O   UNL A   1      45.450  27.665  26.118  1.00  0.00    -0.246 OA
BRANCH  36  38
ATOM     38  C   UNL A   1      44.405  29.735  26.657  1.00  0.00     0.060 A 
ATOM     39  C   UNL A   1      44.762  31.008  27.097  1.00  0.00     0.016 A 
ATOM     40  C   UNL A   1      43.185  29.127  26.987  1.00  0.00     0.016 A 
ATOM     41  C   UNL A   1      44.072  31.510  28.168  1.00  0.00     0.010 A 
ATOM     42  C   UNL A   1      42.514  29.616  28.072  1.00  0.00     0.010 A 
ATOM     43  C   UNL A   1      43.050  30.728  28.715  1.00  0.00    -0.014 A 
BRANCH  43  44
ATOM     44  C   UNL A   1      42.536  31.114  30.001  1.00  0.00     0.031 A 
ATOM     45  C   UNL A   1      42.432  29.976  30.922  1.00  0.00     0.074 A 
ATOM     46  C   UNL A   1      42.270  32.394  30.315  1.00  0.00     0.049 A 
ATOM     47  N   UNL A   1      41.361  29.352  31.280  1.00  0.00    -0.248 NA
ATOM     48  C   UNL A   1      43.689  29.315  31.307  1.00  0.00     0.031 C 
ATOM     49  C   UNL A   1      42.605  33.608  29.565  1.00  0.00     0.029 A 
ATOM     50  N   UNL A   1      41.734  32.879  31.461  1.00  0.00    -0.354 N 
ATOM     51  C   UNL A   1      41.805  28.357  32.137  1.00  0.00     0.074 A 
ATOM     52  C   UNL A   1      43.221  28.226  31.913  1.00  0.00     0.031 C 
ATOM     53  C   UNL A   1      42.486  34.678  30.384  1.00  0.00     0.029 A 
ATOM     54  C   UNL A   1      41.940  34.237  31.657  1.00  0.00     0.049 A 
ATOM     55  H   UNL A   1      41.239  32.316  32.100  1.00  0.00     0.167 HD
ATOM     56  C   UNL A   1      41.052  27.949  33.193  1.00  0.00     0.031 A 
ATOM     57  C   UNL A   1      41.756  34.904  32.824  1.00  0.00     0.031 A 
ATOM     58  C   UNL A   1      39.680  28.372  33.075  1.00  0.00     0.049 A 
ATOM     59  C   UNL A   1      40.856  34.073  33.666  1.00  0.00     0.074 A 
ATOM     60  C   UNL A   1      38.667  28.149  32.164  1.00  0.00     0.029 A 
ATOM     61  N   UNL A   1      39.313  29.484  33.796  1.00  0.00    -0.354 N 
ATOM     62  N   UNL A   1      39.613  33.827  33.361  1.00  0.00    -0.248 NA
ATOM     63  C   UNL A   1      41.455  33.139  34.611  1.00  0.00     0.031 C 
ATOM     64  C   UNL A   1      37.951  29.380  32.092  1.00  0.00     0.029 A 
ATOM     65  C   UNL A   1      38.532  30.276  32.992  1.00  0.00     0.049 A 
ATOM     66  H   UNL A   1      39.565  29.679  34.728  1.00  0.00     0.167 HD
ATOM     67  C   UNL A   1      39.408  32.502  33.720  1.00  0.00     0.074 A 
ATOM     68  C   UNL A   1      40.536  32.169  34.586  1.00  0.00     0.031 C 
ATOM     69  C   UNL A   1      38.499  31.725  33.058  1.00  0.00     0.031 A 
BRANCH  56  70
ATOM     70  C   UNL A   1      41.674  27.575  34.512  1.00  0.00    -0.014 A 
ATOM     71  C   UNL A   1      42.294  28.574  35.280  1.00  0.00     0.010 A 
ATOM     72  C   UNL A   1      41.905  26.234  34.892  1.00  0.00     0.010 A 
ATOM     73  C   UNL A   1      43.147  28.240  36.341  1.00  0.00     0.020 A 
ATOM     74  C   UNL A   1      42.709  25.891  35.975  1.00  0.00     0.020 A 
ATOM     75  C   UNL A   1      43.355  26.899  36.672  1.00  0.00     0.054 A 
BRANCH  75  76
ATOM     76  S   UNL A   1      44.539  26.473  37.967  1.00  0.00     0.124 S 
ATOM     77  O   UNL A   1      45.041  25.186  37.499  1.00  0.00    -0.237 OA
ATOM     78  O   UNL A   1      45.481  27.587  37.901  1.00  0.00    -0.237 OA
ATOM     79  O   UNL A   1      43.721  26.426  39.177  1.00  0.00    -0.744 OA
ENDBRANCH  75  76
ENDBRANCH  56  70
BRANCH  57  80
ATOM     80  C   UNL A   1      42.597  35.995  33.378  1.00  0.00    -0.014 A 
ATOM     81  C   UNL A   1      43.559  36.644  32.582  1.00  0.00     0.010 A 
ATOM     82  C   UNL A   1      42.257  36.590  34.611  1.00  0.00     0.010 A 
ATOM     83  C   UNL A   1      44.112  37.875  32.977  1.00  0.00     0.020 A 
ATOM     84  C   UNL A   1      42.810  37.811  35.015  1.00  0.00     0.020 A 
ATOM     85  C   UNL A   1      43.718  38.461  34.183  1.00  0.00     0.054 A 
BRANCH  85  86
ATOM     86  S   UNL A   1      44.301  40.131  34.602  1.00  0.00     0.124 S 
ATOM     87  O   UNL A   1      44.406  40.068  36.056  1.00  0.00    -0.237 OA
ATOM     88  O   UNL A   1      45.568  40.215  33.879  1.00  0.00    -0.237 OA
ATOM     89  O   UNL A   1      43.244  41.003  34.094  1.00  0.00    -0.744 OA
ENDBRANCH  85  86
ENDBRANCH  57  80
BRANCH  69  90
ATOM     90  C   UNL A   1      37.525  32.417  32.128  1.00  0.00    -0.014 A 
ATOM     91  C   UNL A   1      37.835  32.780  30.801  1.00  0.00     0.010 A 
ATOM     92  C   UNL A   1      36.199  32.572  32.570  1.00  0.00     0.010 A 
ATOM     93  C   UNL A   1      36.849  33.303  29.950  1.00  0.00     0.020 A 
ATOM     94  C   UNL A   1      35.209  33.076  31.722  1.00  0.00     0.020 A 
ATOM     95  C   UNL A   1      35.539  33.447  30.417  1.00  0.00     0.054 A 
BRANCH  95  96
ATOM     96  S   UNL A   1      34.254  34.073  29.298  1.00  0.00     0.124 S 
ATOM     97  O   UNL A   1      33.888  32.884  28.535  1.00  0.00    -0.237 OA
ATOM     98  O   UNL A   1      33.233  34.568  30.219  1.00  0.00    -0.237 OA
ATOM     99  O   UNL A   1      34.937  35.113  28.530  1.00  0.00    -0.744 OA
ENDBRANCH  95  96
ENDBRANCH  69  90
ENDBRANCH  43  44
ENDBRANCH  36  38
ENDBRANCH  35  36
ENDBRANCH  34  35
ENDBRANCH  33  34
ENDBRANCH  32  33
ENDBRANCH  31  32
ENDBRANCH   1  31
TORSDOF 24
ENDMDL
MODEL 3
REMARK VINA RESULT:      -9.6      4.350      6.398
REMARK SMILES C[C@@H](Oc1ccc2c(c1)OCO2)C(=O)N1CCn2nc(C(=O)OCCOCCOCCOC(=O)c3ccc(-c4c5nc(c(-c6ccc(S(=O)(=O)[O-])cc6)c6ccc([nH]6)c(-c6ccc(S(=O)(=O)[O-])cc6)c6nc(c(-c7ccc(S(=O)(=O)[O-])cc7)c7ccc4[nH]7)C=C6)C=C5)cc3)cc2C1
REMARK SMILES IDX 27 1 26 2 25 3 24 4 23 5 21 6 22 7 20 8 15 9 16 10 97 11
REMARK SMILES IDX 17 12 96 13 18 14 95 15 19 16 13 17 14 18 2 19 1 20 3 21
REMARK SMILES IDX 4 22 5 23 9 24 6 25 8 26 7 27 10 28 12 29 11 30 28 31 29 32
REMARK SMILES IDX 30 33 31 34 32 35 33 36 34 37 35 38 36 39 94 40 37 41 93 42
REMARK SMILES IDX 38 43 39 44 40 45 87 46 41 47 92 48 86 49 88 50 42 51 91 52
REMARK SMILES IDX 85 53 84 54 43 56 73 57 54 58 72 59 55 60 58 61 71 62 89 63
REMARK SMILES IDX 56 64 57 65 70 67 90 68 59 69 44 70 45 71 53 72 46 73 52 74
REMARK SMILES IDX 47 75 48 76 49 77 50 78 51 79 74 80 75 81 83 82 76 83 82 84
REMARK SMILES IDX 77 85 78 86 79 87 80 88 81 89 60 90 61 91 69 92 62 93 68 94
REMARK SMILES IDX 63 95 64 96 65 97 66 98 67 99
REMARK H PARENT 88 55 58 66
REMARK Flexibility Score: inf
ROOT
ATOM      1  C   UNL A   1      41.918  19.476  26.815  1.00  0.00     0.188 C 
ENDROOT
BRANCH   1   2
ATOM      2  O   UNL A   1      40.721  19.821  26.131  1.00  0.00    -0.376 OA
BRANCH   2   3
ATOM      3  C   UNL A   1      40.328  21.180  26.010  1.00  0.00     0.202 C 
BRANCH   3   4
ATOM      4  C   UNL A   1      40.309  22.138  27.221  1.00  0.00     0.261 C 
BRANCH   4   5
ATOM      5  O   UNL A   1      39.927  23.497  26.961  1.00  0.00    -0.458 OA
BRANCH   5   6
ATOM      6  C   UNL A   1      40.885  24.447  27.186  1.00  0.00     0.358 C 
ATOM      7  O   UNL A   1      42.062  24.318  26.874  1.00  0.00    -0.244 OA
BRANCH   6   8
ATOM      8  C   UNL A   1      40.318  25.692  27.739  1.00  0.00     0.170 A 
ATOM      9  N   UNL A   1      38.570  29.510  29.661  1.00  0.00    -0.332 N 
ATOM     10  C   UNL A   1      38.854  29.994  28.306  1.00  0.00     0.143 C 
ATOM     11  C   UNL A   1      38.606  28.083  29.983  1.00  0.00     0.175 C 
ATOM     12  C   UNL A   1      39.543  29.068  27.315  1.00  0.00     0.166 C 
ATOM     13  C   UNL A   1      39.270  27.240  28.970  1.00  0.00     0.059 A 
ATOM     14  N   UNL A   1      39.752  27.739  27.808  1.00  0.00    -0.265 N 
ATOM     15  C   UNL A   1      39.534  25.884  28.913  1.00  0.00     0.063 A 
ATOM     16  N   UNL A   1      40.451  26.860  27.079  1.00  0.00    -0.165 NA
BRANCH   9  17
ATOM     17  C   UNL A   1      38.053  30.329  30.675  1.00  0.00     0.263 C 
ATOM     18  O   UNL A   1      38.599  30.378  31.785  1.00  0.00    -0.271 OA
BRANCH  17  19
ATOM     19  C   UNL A   1      36.754  31.142  30.448  1.00  0.00     0.259 C 
ATOM     20  C   UNL A   1      35.902  30.611  29.300  1.00  0.00     0.064 C 
BRANCH  19  21
ATOM     21  O   UNL A   1      36.049  31.161  31.698  1.00  0.00    -0.481 OA
BRANCH  21  22
ATOM     22  C   UNL A   1      35.773  32.417  32.166  1.00  0.00     0.124 A 
ATOM     23  C   UNL A   1      36.837  33.272  32.498  1.00  0.00     0.050 A 
ATOM     24  C   UNL A   1      34.457  32.886  32.136  1.00  0.00     0.097 A 
ATOM     25  C   UNL A   1      36.596  34.602  32.844  1.00  0.00     0.054 A 
ATOM     26  C   UNL A   1      34.251  34.211  32.464  1.00  0.00     0.169 A 
ATOM     27  C   UNL A   1      35.293  35.044  32.810  1.00  0.00     0.166 A 
ATOM     28  O   UNL A   1      33.055  34.861  32.463  1.00  0.00    -0.453 OA
ATOM     29  O   UNL A   1      34.882  36.314  33.071  1.00  0.00    -0.454 OA
ATOM     30  C   UNL A   1      33.476  36.210  32.763  1.00  0.00     0.468 C 
ENDBRANCH  21  22
ENDBRANCH  19  21
ENDBRANCH  17  19
ENDBRANCH   9  17
ENDBRANCH   6   8
ENDBRANCH   5   6
ENDBRANCH   4   5
ENDBRANCH   3   4
ENDBRANCH   2   3
ENDBRANCH   1   2
BRANCH   1  31
ATOM     31  C   UNL A   1      42.663  18.156  26.500  1.00  0.00     0.188 C 
BRANCH  31  32
ATOM     32  O   UNL A   1      43.927  18.313  25.887  1.00  0.00    -0.376 OA
BRANCH  32  33
ATOM     33  C   UNL A   1      44.101  19.069  24.698  1.00  0.00     0.202 C 
BRANCH  33  34
ATOM     34  C   UNL A   1      44.892  20.376  24.623  1.00  0.00     0.261 C 
BRANCH  34  35
ATOM     35  O   UNL A   1      44.544  21.345  25.585  1.00  0.00    -0.460 OA
BRANCH  35  36
ATOM     36  C   UNL A   1      44.141  22.518  25.054  1.00  0.00     0.338 C 
ATOM     37  O   UNL A   1      43.106  22.729  24.451  1.00  0.00    -0.246 OA
BRANCH  36  38
ATOM     38  C   UNL A   1      45.207  23.505  25.256  1.00  0.00     0.060 A 
ATOM     39  C   UNL A   1      46.165  23.145  26.202  1.00  0.00     0.016 A 
ATOM     40  C   UNL A   1      44.938  24.837  24.910  1.00  0.00     0.016 A 
ATOM     41  C   UNL A   1      46.579  24.121  27.068  1.00  0.00     0.010 A 
ATOM     42  C   UNL A   1      45.330  25.805  25.791  1.00  0.00     0.010 A 
ATOM     43  C   UNL A   1      46.037  25.401  26.921  1.00  0.00    -0.014 A 
BRANCH  43  44
ATOM     44  C   UNL A   1      46.239  26.335  27.996  1.00  0.00     0.031 A 
ATOM     45  C   UNL A   1      47.581  26.927  27.973  1.00  0.00     0.074 A 
ATOM     46  C   UNL A   1      45.259  26.664  28.856  1.00  0.00     0.049 A 
ATOM     47  N   UNL A   1      48.575  26.646  28.746  1.00  0.00    -0.248 NA
ATOM     48  C   UNL A   1      47.921  27.759  26.808  1.00  0.00     0.031 C 
ATOM     49  C   UNL A   1      43.831  26.340  28.784  1.00  0.00     0.029 A 
ATOM     50  N   UNL A   1      45.335  27.479  29.936  1.00  0.00    -0.354 N 
ATOM     51  C   UNL A   1      49.605  27.460  28.302  1.00  0.00     0.074 A 
ATOM     52  C   UNL A   1      49.231  27.913  26.987  1.00  0.00     0.031 C 
ATOM     53  C   UNL A   1      43.153  27.150  29.630  1.00  0.00     0.029 A 
ATOM     54  C   UNL A   1      44.108  27.939  30.391  1.00  0.00     0.049 A 
ATOM     55  H   UNL A   1      46.188  27.723  30.363  1.00  0.00     0.167 HD
ATOM     56  C   UNL A   1      50.525  27.968  29.164  1.00  0.00     0.031 A 
ATOM     57  C   UNL A   1      43.920  28.963  31.261  1.00  0.00     0.031 A 
ATOM     58  C   UNL A   1      50.517  27.279  30.430  1.00  0.00     0.049 A 
ATOM     59  C   UNL A   1      45.200  29.156  31.992  1.00  0.00     0.074 A 
ATOM     60  C   UNL A   1      50.740  25.979  30.833  1.00  0.00     0.029 A 
ATOM     61  N   UNL A   1      49.845  27.893  31.462  1.00  0.00    -0.354 N 
ATOM     62  N   UNL A   1      45.700  28.270  32.808  1.00  0.00    -0.248 NA
ATOM     63  C   UNL A   1      46.155  30.128  31.477  1.00  0.00     0.031 C 
ATOM     64  C   UNL A   1      49.821  25.753  31.898  1.00  0.00     0.029 A 
ATOM     65  C   UNL A   1      49.115  26.938  32.124  1.00  0.00     0.049 A 
ATOM     66  H   UNL A   1      49.881  28.851  31.687  1.00  0.00     0.167 HD
ATOM     67  C   UNL A   1      47.068  28.298  32.578  1.00  0.00     0.074 A 
ATOM     68  C   UNL A   1      47.299  29.537  31.838  1.00  0.00     0.031 C 
ATOM     69  C   UNL A   1      47.837  27.184  32.764  1.00  0.00     0.031 A 
BRANCH  56  70
ATOM     70  C   UNL A   1      51.084  29.357  29.001  1.00  0.00    -0.014 A 
ATOM     71  C   UNL A   1      50.242  30.460  29.222  1.00  0.00     0.010 A 
ATOM     72  C   UNL A   1      52.325  29.610  28.376  1.00  0.00     0.010 A 
ATOM     73  C   UNL A   1      50.607  31.741  28.789  1.00  0.00     0.020 A 
ATOM     74  C   UNL A   1      52.721  30.885  27.988  1.00  0.00     0.020 A 
ATOM     75  C   UNL A   1      51.841  31.940  28.165  1.00  0.00     0.054 A 
BRANCH  75  76
ATOM     76  S   UNL A   1      52.257  33.571  27.511  1.00  0.00     0.124 S 
ATOM     77  O   UNL A   1      51.742  33.486  26.149  1.00  0.00    -0.237 OA
ATOM     78  O   UNL A   1      51.529  34.459  28.413  1.00  0.00    -0.237 OA
ATOM     79  O   UNL A   1      53.713  33.627  27.630  1.00  0.00    -0.744 OA
ENDBRANCH  75  76
ENDBRANCH  56  70
BRANCH  57  80
ATOM     80  C   UNL A   1      42.854  29.996  31.217  1.00  0.00    -0.014 A 
ATOM     81  C   UNL A   1      42.521  30.743  32.362  1.00  0.00     0.010 A 
ATOM     82  C   UNL A   1      42.358  30.444  29.975  1.00  0.00     0.010 A 
ATOM     83  C   UNL A   1      41.773  31.929  32.259  1.00  0.00     0.020 A 
ATOM     84  C   UNL A   1      41.606  31.620  29.865  1.00  0.00     0.020 A 
ATOM     85  C   UNL A   1      41.337  32.371  31.007  1.00  0.00     0.054 A 
BRANCH  85  86
ATOM     86  S   UNL A   1      40.526  33.990  30.859  1.00  0.00     0.124 S 
ATOM     87  O   UNL A   1      39.356  33.679  30.044  1.00  0.00    -0.237 OA
ATOM     88  O   UNL A   1      40.252  34.337  32.252  1.00  0.00    -0.237 OA
ATOM     89  O   UNL A   1      41.534  34.822  30.205  1.00  0.00    -0.744 OA
ENDBRANCH  85  86
ENDBRANCH  57  80
BRANCH  69  90
ATOM     90  C   UNL A   1      47.217  26.014  33.498  1.00  0.00    -0.014 A 
ATOM     91  C   UNL A   1      47.401  25.770  34.875  1.00  0.00     0.010 A 
ATOM     92  C   UNL A   1      46.296  25.218  32.797  1.00  0.00     0.010 A 
ATOM     93  C   UNL A   1      46.698  24.743  35.523  1.00  0.00     0.020 A 
ATOM     94  C   UNL A   1      45.580  24.204  33.439  1.00  0.00     0.020 A 
ATOM     95  C   UNL A   1      45.789  23.966  34.799  1.00  0.00     0.054 A 
BRANCH  95  96
ATOM     96  S   UNL A   1      44.840  22.674  35.650  1.00  0.00     0.124 S 
ATOM     97  O   UNL A   1      43.478  23.195  35.606  1.00  0.00    -0.237 OA
ATOM     98  O   UNL A   1      45.087  21.491  34.827  1.00  0.00    -0.237 OA
ATOM     99  O   UNL A   1      45.438  22.623  36.983  1.00  0.00    -0.744 OA
ENDBRANCH  95  96
ENDBRANCH  69  90
ENDBRANCH  43  44
ENDBRANCH  36  38
ENDBRANCH  35  36
ENDBRANCH  34  35
ENDBRANCH  33  34
ENDBRANCH  32  33
ENDBRANCH  31  32
ENDBRANCH   1  31
TORSDOF 24
ENDMDL
