MODEL 1
REMARK VINA RESULT:     -10.5      0.000      0.000
REMARK SMILES CN1C(=O)/C(=C\c2ccc(-c3ccccc3C(=O)OCCOCCOCCOC(=O)c3ccc(-c4c5nc(c(-c6ccc(S(=O)(=O)[O-])cc6)c6ccc([nH]6)c(-c6ccc(S(=O)(=O)[O-])cc6)c6nc(c(-c7ccc(S(=O)(=O)[O-])cc7)c7ccc4[nH]7)C=C6)C=C5)cc3)o2)C(=O)[NH+]=C1S
REMARK SMILES IDX 23 1 22 2 21 3 20 4 19 5 17 6 18 7 16 8 11 9 12 10 13 11
REMARK SMILES IDX 15 12 14 13 10 14 7 15 8 16 91 17 9 18 6 19 1 20 2 21 3 22
REMARK SMILES IDX 95 23 4 24 5 25 94 26 92 27 93 29 96 30 24 32 25 33 26 34
REMARK SMILES IDX 27 35 28 36 29 37 30 38 31 39 32 40 90 41 33 42 89 43 34 44
REMARK SMILES IDX 35 45 36 46 83 47 37 48 88 49 82 50 84 51 38 52 87 53 81 54
REMARK SMILES IDX 80 55 39 57 69 58 50 59 68 60 51 61 54 62 67 63 85 64 52 65
REMARK SMILES IDX 53 66 66 68 86 69 55 70 40 71 41 72 49 73 42 74 48 75 43 76
REMARK SMILES IDX 44 77 45 78 46 79 47 80 70 81 71 82 79 83 72 84 78 85 73 86
REMARK SMILES IDX 74 87 75 88 76 89 77 90 56 91 57 92 65 93 58 94 64 95 59 96
REMARK SMILES IDX 60 97 61 98 62 99 63 100
REMARK H PARENT 94 28 96 31 84 56 54 67
REMARK Flexibility Score: inf
ROOT
ATOM      1  C   UNL A   1      38.977  22.144  26.089  1.00  0.00     0.188 C 
ENDROOT
BRANCH   1   2
ATOM      2  O   UNL A   1      38.045  23.192  25.874  1.00  0.00    -0.376 OA
BRANCH   2   3
ATOM      3  C   UNL A   1      37.066  23.054  24.854  1.00  0.00     0.202 C 
BRANCH   3   4
ATOM      4  C   UNL A   1      35.810  23.930  24.860  1.00  0.00     0.261 C 
BRANCH   4   5
ATOM      5  O   UNL A   1      35.011  23.728  26.028  1.00  0.00    -0.460 OA
BRANCH   5   6
ATOM      6  C   UNL A   1      33.668  23.708  25.867  1.00  0.00     0.338 C 
ATOM      7  O   UNL A   1      32.900  24.635  26.058  1.00  0.00    -0.246 OA
BRANCH   6   8
ATOM      8  C   UNL A   1      33.252  22.407  25.288  1.00  0.00     0.071 A 
ATOM      9  C   UNL A   1      32.821  22.247  23.956  1.00  0.00     0.032 A 
ATOM     10  C   UNL A   1      32.425  20.963  23.537  1.00  0.00     0.013 A 
ATOM     11  C   UNL A   1      32.433  19.879  24.422  1.00  0.00     0.001 A 
ATOM     12  C   UNL A   1      33.250  21.316  26.175  1.00  0.00     0.016 A 
ATOM     13  C   UNL A   1      32.832  20.058  25.743  1.00  0.00     0.001 A 
BRANCH   9  14
ATOM     14  C   UNL A   1      32.745  23.365  23.021  1.00  0.00     0.135 A 
ATOM     15  C   UNL A   1      32.110  25.410  22.456  1.00  0.00     0.128 A 
ATOM     16  C   UNL A   1      33.014  24.970  21.499  1.00  0.00     0.051 A 
ATOM     17  O   UNL A   1      31.993  24.437  23.415  1.00  0.00    -0.457 OA
ATOM     18  C   UNL A   1      33.330  23.635  21.803  1.00  0.00     0.051 A 
BRANCH  15  19
ATOM     19  C   UNL A   1      31.342  26.602  22.421  1.00  0.00     0.071 C 
ATOM     20  C   UNL A   1      34.012  28.302  26.040  1.00  0.00     0.301 C 
ATOM     21  N   UNL A   1      32.881  28.478  25.133  1.00  0.00    -0.189 N 
ATOM     22  C   UNL A   1      32.916  27.671  24.016  1.00  0.00     0.349 C 
ATOM     23  C   UNL A   1      31.909  29.435  25.234  1.00  0.00     0.318 C 
ATOM     24  O   UNL A   1      33.935  27.071  23.686  1.00  0.00    -0.240 OA
ATOM     25  C   UNL A   1      31.664  27.634  23.228  1.00  0.00     0.157 C 
ATOM     26  N   UNL A   1      30.911  29.583  24.435  1.00  0.00    -0.200 N 
ATOM     27  C   UNL A   1      30.686  28.725  23.398  1.00  0.00     0.347 C 
ATOM     28  H   UNL A   1      30.293  30.335  24.577  1.00  0.00     0.316 HD
ATOM     29  O   UNL A   1      29.696  28.818  22.680  1.00  0.00    -0.241 OA
BRANCH  23  30
ATOM     30  S   UNL A   1      32.008  30.600  26.532  1.00  0.00    -0.055 SA
ATOM     31  H   UNL A   1      32.583  31.743  26.071  1.00  0.00     0.116 HD
ENDBRANCH  23  30
ENDBRANCH  15  19
ENDBRANCH   9  14
ENDBRANCH   6   8
ENDBRANCH   5   6
ENDBRANCH   4   5
ENDBRANCH   3   4
ENDBRANCH   2   3
ENDBRANCH   1   2
BRANCH   1  32
ATOM     32  C   UNL A   1      40.342  22.445  26.748  1.00  0.00     0.188 C 
BRANCH  32  33
ATOM     33  O   UNL A   1      41.437  21.594  26.497  1.00  0.00    -0.376 OA
BRANCH  33  34
ATOM     34  C   UNL A   1      42.685  22.121  26.085  1.00  0.00     0.202 C 
BRANCH  34  35
ATOM     35  C   UNL A   1      42.898  23.470  25.375  1.00  0.00     0.261 C 
BRANCH  35  36
ATOM     36  O   UNL A   1      43.049  24.632  26.190  1.00  0.00    -0.460 OA
BRANCH  36  37
ATOM     37  C   UNL A   1      42.073  25.565  26.050  1.00  0.00     0.338 C 
ATOM     38  O   UNL A   1      41.262  25.660  25.145  1.00  0.00    -0.246 OA
BRANCH  37  39
ATOM     39  C   UNL A   1      42.017  26.366  27.285  1.00  0.00     0.060 A 
ATOM     40  C   UNL A   1      40.998  26.111  28.216  1.00  0.00     0.016 A 
ATOM     41  C   UNL A   1      42.959  27.367  27.510  1.00  0.00     0.016 A 
ATOM     42  C   UNL A   1      40.908  26.879  29.378  1.00  0.00     0.010 A 
ATOM     43  C   UNL A   1      42.851  28.152  28.656  1.00  0.00     0.010 A 
ATOM     44  C   UNL A   1      41.809  27.932  29.576  1.00  0.00    -0.014 A 
BRANCH  44  45
ATOM     45  C   UNL A   1      41.551  28.962  30.609  1.00  0.00     0.031 A 
ATOM     46  C   UNL A   1      42.375  28.909  31.865  1.00  0.00     0.074 A 
ATOM     47  C   UNL A   1      40.573  29.872  30.471  1.00  0.00     0.049 A 
ATOM     48  N   UNL A   1      42.224  29.563  32.984  1.00  0.00    -0.248 NA
ATOM     49  C   UNL A   1      43.512  27.974  31.856  1.00  0.00     0.031 C 
ATOM     50  C   UNL A   1      39.745  30.055  29.282  1.00  0.00     0.029 A 
ATOM     51  N   UNL A   1      40.092  30.794  31.367  1.00  0.00    -0.354 N 
ATOM     52  C   UNL A   1      43.226  29.097  33.825  1.00  0.00     0.074 A 
ATOM     53  C   UNL A   1      43.967  28.095  33.092  1.00  0.00     0.031 C 
ATOM     54  C   UNL A   1      38.832  31.009  29.534  1.00  0.00     0.029 A 
ATOM     55  C   UNL A   1      38.983  31.466  30.916  1.00  0.00     0.049 A 
ATOM     56  H   UNL A   1      40.502  30.958  32.248  1.00  0.00     0.167 HD
ATOM     57  C   UNL A   1      43.498  29.462  35.100  1.00  0.00     0.031 A 
ATOM     58  C   UNL A   1      38.157  32.318  31.559  1.00  0.00     0.031 A 
ATOM     59  C   UNL A   1      42.734  30.436  35.831  1.00  0.00     0.049 A 
ATOM     60  C   UNL A   1      38.428  32.663  33.002  1.00  0.00     0.074 A 
ATOM     61  C   UNL A   1      42.928  30.888  37.124  1.00  0.00     0.029 A 
ATOM     62  N   UNL A   1      41.618  31.096  35.337  1.00  0.00    -0.354 N 
ATOM     63  N   UNL A   1      39.386  32.228  33.787  1.00  0.00    -0.248 NA
ATOM     64  C   UNL A   1      37.511  33.615  33.644  1.00  0.00     0.031 C 
ATOM     65  C   UNL A   1      41.893  31.775  37.431  1.00  0.00     0.029 A 
ATOM     66  C   UNL A   1      41.099  31.935  36.306  1.00  0.00     0.049 A 
ATOM     67  H   UNL A   1      41.251  30.984  34.430  1.00  0.00     0.167 HD
ATOM     68  C   UNL A   1      39.209  32.884  35.003  1.00  0.00     0.074 A 
ATOM     69  C   UNL A   1      38.050  33.739  34.852  1.00  0.00     0.031 C 
ATOM     70  C   UNL A   1      39.950  32.792  36.136  1.00  0.00     0.031 A 
BRANCH  57  71
ATOM     71  C   UNL A   1      44.629  28.749  35.793  1.00  0.00    -0.014 A 
ATOM     72  C   UNL A   1      45.973  29.071  35.529  1.00  0.00     0.010 A 
ATOM     73  C   UNL A   1      44.339  27.722  36.711  1.00  0.00     0.010 A 
ATOM     74  C   UNL A   1      47.005  28.335  36.120  1.00  0.00     0.020 A 
ATOM     75  C   UNL A   1      45.368  27.009  37.330  1.00  0.00     0.020 A 
ATOM     76  C   UNL A   1      46.695  27.302  37.009  1.00  0.00     0.054 A 
BRANCH  76  77
ATOM     77  S   UNL A   1      48.050  26.348  37.743  1.00  0.00     0.124 S 
ATOM     78  O   UNL A   1      47.573  26.150  39.109  1.00  0.00    -0.237 OA
ATOM     79  O   UNL A   1      48.085  25.148  36.911  1.00  0.00    -0.237 OA
ATOM     80  O   UNL A   1      49.207  27.229  37.609  1.00  0.00    -0.744 OA
ENDBRANCH  76  77
ENDBRANCH  57  71
BRANCH  58  81
ATOM     81  C   UNL A   1      36.983  32.882  30.838  1.00  0.00    -0.014 A 
ATOM     82  C   UNL A   1      35.696  32.355  31.042  1.00  0.00     0.010 A 
ATOM     83  C   UNL A   1      37.141  33.986  29.979  1.00  0.00     0.010 A 
ATOM     84  C   UNL A   1      34.588  32.927  30.409  1.00  0.00     0.020 A 
ATOM     85  C   UNL A   1      36.033  34.576  29.364  1.00  0.00     0.020 A 
ATOM     86  C   UNL A   1      34.762  34.042  29.583  1.00  0.00     0.054 A 
BRANCH  86  87
ATOM     87  S   UNL A   1      33.297  34.823  28.852  1.00  0.00     0.124 S 
ATOM     88  O   UNL A   1      33.874  35.974  28.166  1.00  0.00    -0.237 OA
ATOM     89  O   UNL A   1      32.777  33.766  27.988  1.00  0.00    -0.237 OA
ATOM     90  O   UNL A   1      32.462  35.139  30.010  1.00  0.00    -0.744 OA
ENDBRANCH  86  87
ENDBRANCH  58  81
BRANCH  70  91
ATOM     91  C   UNL A   1      39.586  33.683  37.296  1.00  0.00    -0.014 A 
ATOM     92  C   UNL A   1      38.924  33.185  38.431  1.00  0.00     0.010 A 
ATOM     93  C   UNL A   1      40.029  35.020  37.292  1.00  0.00     0.010 A 
ATOM     94  C   UNL A   1      38.707  34.012  39.539  1.00  0.00     0.020 A 
ATOM     95  C   UNL A   1      39.837  35.840  38.406  1.00  0.00     0.020 A 
ATOM     96  C   UNL A   1      39.172  35.331  39.522  1.00  0.00     0.054 A 
BRANCH  96  97
ATOM     97  S   UNL A   1      38.958  36.354  41.006  1.00  0.00     0.124 S 
ATOM     98  O   UNL A   1      37.821  35.711  41.658  1.00  0.00    -0.237 OA
ATOM     99  O   UNL A   1      40.241  36.204  41.686  1.00  0.00    -0.237 OA
ATOM    100  O   UNL A   1      38.695  37.689  40.472  1.00  0.00    -0.744 OA
ENDBRANCH  96  97
ENDBRANCH  70  91
ENDBRANCH  44  45
ENDBRANCH  37  39
ENDBRANCH  36  37
ENDBRANCH  35  36
ENDBRANCH  34  35
ENDBRANCH  33  34
ENDBRANCH  32  33
ENDBRANCH   1  32
TORSDOF 23
ENDMDL
MODEL 2
REMARK VINA RESULT:     -10.4      0.795      7.776
REMARK SMILES CN1C(=O)/C(=C\c2ccc(-c3ccccc3C(=O)OCCOCCOCCOC(=O)c3ccc(-c4c5nc(c(-c6ccc(S(=O)(=O)[O-])cc6)c6ccc([nH]6)c(-c6ccc(S(=O)(=O)[O-])cc6)c6nc(c(-c7ccc(S(=O)(=O)[O-])cc7)c7ccc4[nH]7)C=C6)C=C5)cc3)o2)C(=O)[NH+]=C1S
REMARK SMILES IDX 23 1 22 2 21 3 20 4 19 5 17 6 18 7 16 8 11 9 12 10 13 11
REMARK SMILES IDX 15 12 14 13 10 14 7 15 8 16 91 17 9 18 6 19 1 20 2 21 3 22
REMARK SMILES IDX 95 23 4 24 5 25 94 26 92 27 93 29 96 30 24 32 25 33 26 34
REMARK SMILES IDX 27 35 28 36 29 37 30 38 31 39 32 40 90 41 33 42 89 43 34 44
REMARK SMILES IDX 35 45 36 46 83 47 37 48 88 49 82 50 84 51 38 52 87 53 81 54
REMARK SMILES IDX 80 55 39 57 69 58 50 59 68 60 51 61 54 62 67 63 85 64 52 65
REMARK SMILES IDX 53 66 66 68 86 69 55 70 40 71 41 72 49 73 42 74 48 75 43 76
REMARK SMILES IDX 44 77 45 78 46 79 47 80 70 81 71 82 79 83 72 84 78 85 73 86
REMARK SMILES IDX 74 87 75 88 76 89 77 90 56 91 57 92 65 93 58 94 64 95 59 96
REMARK SMILES IDX 60 97 61 98 62 99 63 100
REMARK H PARENT 94 28 96 31 84 56 54 67
REMARK Flexibility Score: inf
ROOT
ATOM      1  C   UNL A   1      40.812  22.768  27.128  1.00  0.00     0.188 C 
ENDROOT
BRANCH   1   2
ATOM      2  O   UNL A   1      39.658  23.540  26.841  1.00  0.00    -0.376 OA
BRANCH   2   3
ATOM      3  C   UNL A   1      38.568  22.934  26.158  1.00  0.00     0.202 C 
BRANCH   3   4
ATOM      4  C   UNL A   1      37.318  23.749  25.817  1.00  0.00     0.261 C 
BRANCH   4   5
ATOM      5  O   UNL A   1      36.417  23.032  24.969  1.00  0.00    -0.460 OA
BRANCH   5   6
ATOM      6  C   UNL A   1      35.178  23.550  24.799  1.00  0.00     0.338 C 
ATOM      7  O   UNL A   1      34.899  24.723  24.627  1.00  0.00    -0.246 OA
BRANCH   6   8
ATOM      8  C   UNL A   1      34.183  22.452  24.723  1.00  0.00     0.071 A 
ATOM      9  C   UNL A   1      33.104  22.438  23.816  1.00  0.00     0.032 A 
ATOM     10  C   UNL A   1      32.212  21.350  23.865  1.00  0.00     0.013 A 
ATOM     11  C   UNL A   1      32.373  20.323  24.802  1.00  0.00     0.001 A 
ATOM     12  C   UNL A   1      34.335  21.422  25.667  1.00  0.00     0.016 A 
ATOM     13  C   UNL A   1      33.426  20.366  25.711  1.00  0.00     0.001 A 
BRANCH   9  14
ATOM     14  C   UNL A   1      32.871  23.519  22.864  1.00  0.00     0.135 A 
ATOM     15  C   UNL A   1      32.028  25.487  22.298  1.00  0.00     0.128 A 
ATOM     16  C   UNL A   1      32.901  25.098  21.291  1.00  0.00     0.051 A 
ATOM     17  O   UNL A   1      32.058  24.535  23.284  1.00  0.00    -0.457 OA
ATOM     18  C   UNL A   1      33.349  23.802  21.603  1.00  0.00     0.051 A 
BRANCH  15  19
ATOM     19  C   UNL A   1      31.161  26.609  22.289  1.00  0.00     0.071 C 
ATOM     20  C   UNL A   1      33.927  28.641  25.656  1.00  0.00     0.301 C 
ATOM     21  N   UNL A   1      32.723  28.692  24.830  1.00  0.00    -0.189 N 
ATOM     22  C   UNL A   1      32.748  27.857  23.735  1.00  0.00     0.349 C 
ATOM     23  C   UNL A   1      31.683  29.568  24.978  1.00  0.00     0.318 C 
ATOM     24  O   UNL A   1      33.788  27.333  23.347  1.00  0.00    -0.240 OA
ATOM     25  C   UNL A   1      31.451  27.690  23.042  1.00  0.00     0.157 C 
ATOM     26  N   UNL A   1      30.622  29.607  24.251  1.00  0.00    -0.200 N 
ATOM     27  C   UNL A   1      30.398  28.700  23.256  1.00  0.00     0.347 C 
ATOM     28  H   UNL A   1      29.953  30.309  24.418  1.00  0.00     0.316 HD
ATOM     29  O   UNL A   1      29.355  28.688  22.610  1.00  0.00    -0.241 OA
BRANCH  23  30
ATOM     30  S   UNL A   1      31.774  30.778  26.234  1.00  0.00    -0.055 SA
ATOM     31  H   UNL A   1      30.521  31.210  26.539  1.00  0.00     0.116 HD
ENDBRANCH  23  30
ENDBRANCH  15  19
ENDBRANCH   9  14
ENDBRANCH   6   8
ENDBRANCH   5   6
ENDBRANCH   4   5
ENDBRANCH   3   4
ENDBRANCH   2   3
ENDBRANCH   1   2
BRANCH   1  32
ATOM     32  C   UNL A   1      41.683  22.218  25.976  1.00  0.00     0.188 C 
BRANCH  32  33
ATOM     33  O   UNL A   1      43.063  22.506  25.948  1.00  0.00    -0.376 OA
BRANCH  33  34
ATOM     34  C   UNL A   1      43.567  23.567  25.158  1.00  0.00     0.202 C 
BRANCH  34  35
ATOM     35  C   UNL A   1      42.906  24.946  24.982  1.00  0.00     0.261 C 
BRANCH  35  36
ATOM     36  O   UNL A   1      43.571  26.076  25.546  1.00  0.00    -0.460 OA
BRANCH  36  37
ATOM     37  C   UNL A   1      42.836  27.216  25.587  1.00  0.00     0.338 C 
ATOM     38  O   UNL A   1      42.276  27.772  24.658  1.00  0.00    -0.246 OA
BRANCH  37  39
ATOM     39  C   UNL A   1      42.652  27.599  26.998  1.00  0.00     0.060 A 
ATOM     40  C   UNL A   1      41.807  26.826  27.809  1.00  0.00     0.016 A 
ATOM     41  C   UNL A   1      43.305  28.720  27.507  1.00  0.00     0.016 A 
ATOM     42  C   UNL A   1      41.595  27.189  29.140  1.00  0.00     0.010 A 
ATOM     43  C   UNL A   1      43.070  29.098  28.827  1.00  0.00     0.010 A 
ATOM     44  C   UNL A   1      42.192  28.353  29.637  1.00  0.00    -0.014 A 
BRANCH  44  45
ATOM     45  C   UNL A   1      41.740  28.947  30.917  1.00  0.00     0.031 A 
ATOM     46  C   UNL A   1      40.532  29.840  30.881  1.00  0.00     0.074 A 
ATOM     47  C   UNL A   1      42.419  28.761  32.061  1.00  0.00     0.049 A 
ATOM     48  N   UNL A   1      40.051  30.622  31.808  1.00  0.00    -0.248 NA
ATOM     49  C   UNL A   1      39.779  29.861  29.616  1.00  0.00     0.031 C 
ATOM     50  C   UNL A   1      43.570  27.879  32.231  1.00  0.00     0.029 A 
ATOM     51  N   UNL A   1      42.246  29.339  33.294  1.00  0.00    -0.354 N 
ATOM     52  C   UNL A   1      38.957  31.255  31.230  1.00  0.00     0.074 A 
ATOM     53  C   UNL A   1      38.857  30.776  29.869  1.00  0.00     0.031 C 
ATOM     54  C   UNL A   1      44.025  28.001  33.490  1.00  0.00     0.029 A 
ATOM     55  C   UNL A   1      43.226  29.003  34.196  1.00  0.00     0.049 A 
ATOM     56  H   UNL A   1      41.493  29.936  33.510  1.00  0.00     0.167 HD
ATOM     57  C   UNL A   1      38.118  32.163  31.781  1.00  0.00     0.031 A 
ATOM     58  C   UNL A   1      43.476  29.484  35.432  1.00  0.00     0.031 A 
ATOM     59  C   UNL A   1      38.246  32.657  33.124  1.00  0.00     0.049 A 
ATOM     60  C   UNL A   1      42.576  30.548  36.008  1.00  0.00     0.074 A 
ATOM     61  C   UNL A   1      37.445  33.570  33.785  1.00  0.00     0.029 A 
ATOM     62  N   UNL A   1      39.251  32.290  34.007  1.00  0.00    -0.354 N 
ATOM     63  N   UNL A   1      41.535  31.131  35.460  1.00  0.00    -0.248 NA
ATOM     64  C   UNL A   1      42.880  31.015  37.367  1.00  0.00     0.031 C 
ATOM     65  C   UNL A   1      38.003  33.801  35.046  1.00  0.00     0.029 A 
ATOM     66  C   UNL A   1      39.106  32.974  35.199  1.00  0.00     0.049 A 
ATOM     67  H   UNL A   1      39.963  31.637  33.813  1.00  0.00     0.167 HD
ATOM     68  C   UNL A   1      41.037  32.005  36.423  1.00  0.00     0.074 A 
ATOM     69  C   UNL A   1      41.895  31.879  37.584  1.00  0.00     0.031 C 
ATOM     70  C   UNL A   1      39.961  32.828  36.353  1.00  0.00     0.031 A 
BRANCH  57  71
ATOM     71  C   UNL A   1      37.034  32.721  30.896  1.00  0.00    -0.014 A 
ATOM     72  C   UNL A   1      37.303  33.719  29.942  1.00  0.00     0.010 A 
ATOM     73  C   UNL A   1      35.716  32.248  31.038  1.00  0.00     0.010 A 
ATOM     74  C   UNL A   1      36.264  34.281  29.194  1.00  0.00     0.020 A 
ATOM     75  C   UNL A   1      34.681  32.783  30.267  1.00  0.00     0.020 A 
ATOM     76  C   UNL A   1      34.957  33.815  29.370  1.00  0.00     0.054 A 
BRANCH  76  77
ATOM     77  S   UNL A   1      33.625  34.577  28.405  1.00  0.00     0.124 S 
ATOM     78  O   UNL A   1      32.532  34.607  29.374  1.00  0.00    -0.237 OA
ATOM     79  O   UNL A   1      34.187  35.879  28.054  1.00  0.00    -0.237 OA
ATOM     80  O   UNL A   1      33.438  33.660  27.284  1.00  0.00    -0.744 OA
ENDBRANCH  76  77
ENDBRANCH  57  71
BRANCH  58  81
ATOM     81  C   UNL A   1      44.648  28.969  36.193  1.00  0.00    -0.014 A 
ATOM     82  C   UNL A   1      44.532  27.822  36.996  1.00  0.00     0.010 A 
ATOM     83  C   UNL A   1      45.902  29.598  36.075  1.00  0.00     0.010 A 
ATOM     84  C   UNL A   1      45.649  27.307  37.660  1.00  0.00     0.020 A 
ATOM     85  C   UNL A   1      47.026  29.071  36.717  1.00  0.00     0.020 A 
ATOM     86  C   UNL A   1      46.893  27.928  37.507  1.00  0.00     0.054 A 
BRANCH  86  87
ATOM     87  S   UNL A   1      48.344  27.184  38.302  1.00  0.00     0.124 S 
ATOM     88  O   UNL A   1      49.415  27.535  37.374  1.00  0.00    -0.237 OA
ATOM     89  O   UNL A   1      48.376  27.864  39.594  1.00  0.00    -0.237 OA
ATOM     90  O   UNL A   1      48.010  25.762  38.362  1.00  0.00    -0.744 OA
ENDBRANCH  86  87
ENDBRANCH  58  81
BRANCH  70  91
ATOM     91  C   UNL A   1      39.588  33.618  37.582  1.00  0.00    -0.014 A 
ATOM     92  C   UNL A   1      38.796  33.066  38.603  1.00  0.00     0.010 A 
ATOM     93  C   UNL A   1      40.150  34.897  37.765  1.00  0.00     0.010 A 
ATOM     94  C   UNL A   1      38.567  33.784  39.782  1.00  0.00     0.020 A 
ATOM     95  C   UNL A   1      39.946  35.603  38.951  1.00  0.00     0.020 A 
ATOM     96  C   UNL A   1      39.151  35.044  39.952  1.00  0.00     0.054 A 
BRANCH  96  97
ATOM     97  S   UNL A   1      38.914  35.914  41.527  1.00  0.00     0.124 S 
ATOM     98  O   UNL A   1      40.045  35.432  42.314  1.00  0.00    -0.237 OA
ATOM     99  O   UNL A   1      38.976  37.318  41.130  1.00  0.00    -0.237 OA
ATOM    100  O   UNL A   1      37.601  35.459  41.981  1.00  0.00    -0.744 OA
ENDBRANCH  96  97
ENDBRANCH  70  91
ENDBRANCH  44  45
ENDBRANCH  37  39
ENDBRANCH  36  37
ENDBRANCH  35  36
ENDBRANCH  34  35
ENDBRANCH  33  34
ENDBRANCH  32  33
ENDBRANCH   1  32
TORSDOF 23
ENDMDL
MODEL 3
REMARK VINA RESULT:     -10.2      6.362     10.732
REMARK SMILES CN1C(=O)/C(=C\c2ccc(-c3ccccc3C(=O)OCCOCCOCCOC(=O)c3ccc(-c4c5nc(c(-c6ccc(S(=O)(=O)[O-])cc6)c6ccc([nH]6)c(-c6ccc(S(=O)(=O)[O-])cc6)c6nc(c(-c7ccc(S(=O)(=O)[O-])cc7)c7ccc4[nH]7)C=C6)C=C5)cc3)o2)C(=O)[NH+]=C1S
REMARK SMILES IDX 23 1 22 2 21 3 20 4 19 5 17 6 18 7 16 8 11 9 12 10 13 11
REMARK SMILES IDX 15 12 14 13 10 14 7 15 8 16 91 17 9 18 6 19 1 20 2 21 3 22
REMARK SMILES IDX 95 23 4 24 5 25 94 26 92 27 93 29 96 30 24 32 25 33 26 34
REMARK SMILES IDX 27 35 28 36 29 37 30 38 31 39 32 40 90 41 33 42 89 43 34 44
REMARK SMILES IDX 35 45 36 46 83 47 37 48 88 49 82 50 84 51 38 52 87 53 81 54
REMARK SMILES IDX 80 55 39 57 69 58 50 59 68 60 51 61 54 62 67 63 85 64 52 65
REMARK SMILES IDX 53 66 66 68 86 69 55 70 40 71 41 72 49 73 42 74 48 75 43 76
REMARK SMILES IDX 44 77 45 78 46 79 47 80 70 81 71 82 79 83 72 84 78 85 73 86
REMARK SMILES IDX 74 87 75 88 76 89 77 90 56 91 57 92 65 93 58 94 64 95 59 96
REMARK SMILES IDX 60 97 61 98 62 99 63 100
REMARK H PARENT 94 28 96 31 84 56 54 67
REMARK Flexibility Score: inf
ROOT
ATOM      1  C   UNL A   1      38.859  23.542  26.568  1.00  0.00     0.188 C 
ENDROOT
BRANCH   1   2
ATOM      2  O   UNL A   1      37.668  24.039  25.979  1.00  0.00    -0.376 OA
BRANCH   2   3
ATOM      3  C   UNL A   1      36.668  23.124  25.554  1.00  0.00     0.202 C 
BRANCH   3   4
ATOM      4  C   UNL A   1      35.187  23.418  25.811  1.00  0.00     0.261 C 
BRANCH   4   5
ATOM      5  O   UNL A   1      34.542  22.370  26.539  1.00  0.00    -0.460 OA
BRANCH   5   6
ATOM      6  C   UNL A   1      33.211  22.214  26.355  1.00  0.00     0.338 C 
ATOM      7  O   UNL A   1      32.322  22.819  26.929  1.00  0.00    -0.246 OA
BRANCH   6   8
ATOM      8  C   UNL A   1      32.968  21.268  25.238  1.00  0.00     0.071 A 
ATOM      9  C   UNL A   1      32.414  21.650  23.999  1.00  0.00     0.032 A 
ATOM     10  C   UNL A   1      32.206  20.651  23.030  1.00  0.00     0.013 A 
ATOM     11  C   UNL A   1      32.515  19.312  23.294  1.00  0.00     0.001 A 
ATOM     12  C   UNL A   1      33.268  19.921  25.500  1.00  0.00     0.016 A 
ATOM     13  C   UNL A   1      33.033  18.945  24.533  1.00  0.00     0.001 A 
BRANCH   9  14
ATOM     14  C   UNL A   1      32.027  23.027  23.709  1.00  0.00     0.135 A 
ATOM     15  C   UNL A   1      32.486  25.113  23.123  1.00  0.00     0.128 A 
ATOM     16  C   UNL A   1      31.107  24.960  23.086  1.00  0.00     0.051 A 
ATOM     17  O   UNL A   1      33.044  23.904  23.455  1.00  0.00    -0.457 OA
ATOM     18  C   UNL A   1      30.816  23.669  23.561  1.00  0.00     0.051 A 
BRANCH  15  19
ATOM     19  C   UNL A   1      33.215  26.318  22.961  1.00  0.00     0.071 C 
ATOM     20  C   UNL A   1      31.457  27.824  27.175  1.00  0.00     0.301 C 
ATOM     21  N   UNL A   1      32.250  28.104  25.980  1.00  0.00    -0.189 N 
ATOM     22  C   UNL A   1      32.647  26.983  25.285  1.00  0.00     0.349 C 
ATOM     23  C   UNL A   1      32.721  29.330  25.597  1.00  0.00     0.318 C 
ATOM     24  O   UNL A   1      32.575  25.860  25.776  1.00  0.00    -0.240 OA
ATOM     25  C   UNL A   1      33.212  27.244  23.942  1.00  0.00     0.157 C 
ATOM     26  N   UNL A   1      33.415  29.573  24.541  1.00  0.00    -0.200 N 
ATOM     27  C   UNL A   1      33.710  28.597  23.633  1.00  0.00     0.347 C 
ATOM     28  H   UNL A   1      33.741  30.488  24.383  1.00  0.00     0.316 HD
ATOM     29  O   UNL A   1      34.307  28.839  22.589  1.00  0.00    -0.241 OA
BRANCH  23  30
ATOM     30  S   UNL A   1      32.402  30.711  26.618  1.00  0.00    -0.055 SA
ATOM     31  H   UNL A   1      31.060  30.851  26.783  1.00  0.00     0.116 HD
ENDBRANCH  23  30
ENDBRANCH  15  19
ENDBRANCH   9  14
ENDBRANCH   6   8
ENDBRANCH   5   6
ENDBRANCH   4   5
ENDBRANCH   3   4
ENDBRANCH   2   3
ENDBRANCH   1   2
BRANCH   1  32
ATOM     32  C   UNL A   1      39.314  22.092  26.287  1.00  0.00     0.188 C 
BRANCH  32  33
ATOM     33  O   UNL A   1      40.087  21.407  27.247  1.00  0.00    -0.376 OA
BRANCH  33  34
ATOM     34  C   UNL A   1      41.476  21.213  27.055  1.00  0.00     0.202 C 
BRANCH  34  35
ATOM     35  C   UNL A   1      42.118  20.376  25.934  1.00  0.00     0.261 C 
BRANCH  35  36
ATOM     36  O   UNL A   1      43.521  20.128  26.013  1.00  0.00    -0.460 OA
BRANCH  36  37
ATOM     37  C   UNL A   1      44.245  20.567  24.952  1.00  0.00     0.338 C 
ATOM     38  O   UNL A   1      44.248  20.118  23.819  1.00  0.00    -0.246 OA
BRANCH  37  39
ATOM     39  C   UNL A   1      44.912  21.824  25.334  1.00  0.00     0.060 A 
ATOM     40  C   UNL A   1      45.298  22.012  26.670  1.00  0.00     0.016 A 
ATOM     41  C   UNL A   1      45.141  22.810  24.376  1.00  0.00     0.016 A 
ATOM     42  C   UNL A   1      45.903  23.208  27.058  1.00  0.00     0.010 A 
ATOM     43  C   UNL A   1      45.719  24.015  24.771  1.00  0.00     0.010 A 
ATOM     44  C   UNL A   1      46.072  24.229  26.117  1.00  0.00    -0.014 A 
BRANCH  44  45
ATOM     45  C   UNL A   1      46.398  25.609  26.547  1.00  0.00     0.031 A 
ATOM     46  C   UNL A   1      45.261  26.485  26.993  1.00  0.00     0.074 A 
ATOM     47  C   UNL A   1      47.648  26.094  26.479  1.00  0.00     0.049 A 
ATOM     48  N   UNL A   1      45.247  27.767  27.234  1.00  0.00    -0.248 NA
ATOM     49  C   UNL A   1      43.960  25.818  27.172  1.00  0.00     0.031 C 
ATOM     50  C   UNL A   1      48.836  25.329  26.113  1.00  0.00     0.029 A 
ATOM     51  N   UNL A   1      48.113  27.369  26.686  1.00  0.00    -0.354 N 
ATOM     52  C   UNL A   1      43.931  28.070  27.562  1.00  0.00     0.074 A 
ATOM     53  C   UNL A   1      43.175  26.840  27.473  1.00  0.00     0.031 C 
ATOM     54  C   UNL A   1      49.894  26.159  26.088  1.00  0.00     0.029 A 
ATOM     55  C   UNL A   1      49.445  27.519  26.388  1.00  0.00     0.049 A 
ATOM     56  H   UNL A   1      47.546  28.104  27.016  1.00  0.00     0.167 HD
ATOM     57  C   UNL A   1      43.397  29.268  27.896  1.00  0.00     0.031 A 
ATOM     58  C   UNL A   1      50.204  28.633  26.320  1.00  0.00     0.031 A 
ATOM     59  C   UNL A   1      44.151  30.491  27.950  1.00  0.00     0.049 A 
ATOM     60  C   UNL A   1      49.581  29.972  26.625  1.00  0.00     0.074 A 
ATOM     61  C   UNL A   1      43.712  31.758  28.285  1.00  0.00     0.029 A 
ATOM     62  N   UNL A   1      45.499  30.600  27.642  1.00  0.00    -0.354 N 
ATOM     63  N   UNL A   1      48.339  30.249  26.947  1.00  0.00    -0.248 NA
ATOM     64  C   UNL A   1      50.461  31.148  26.560  1.00  0.00     0.031 C 
ATOM     65  C   UNL A   1      44.781  32.644  28.121  1.00  0.00     0.029 A 
ATOM     66  C   UNL A   1      45.904  31.917  27.758  1.00  0.00     0.049 A 
ATOM     67  H   UNL A   1      46.082  29.850  27.381  1.00  0.00     0.167 HD
ATOM     68  C   UNL A   1      48.297  31.624  27.162  1.00  0.00     0.074 A 
ATOM     69  C   UNL A   1      49.637  32.123  26.927  1.00  0.00     0.031 C 
ATOM     70  C   UNL A   1      47.246  32.398  27.533  1.00  0.00     0.031 A 
BRANCH  57  71
ATOM     71  C   UNL A   1      41.915  29.310  28.160  1.00  0.00    -0.014 A 
ATOM     72  C   UNL A   1      40.977  29.155  27.123  1.00  0.00     0.010 A 
ATOM     73  C   UNL A   1      41.453  29.527  29.472  1.00  0.00     0.010 A 
ATOM     74  C   UNL A   1      39.609  29.284  27.381  1.00  0.00     0.020 A 
ATOM     75  C   UNL A   1      40.086  29.622  29.739  1.00  0.00     0.020 A 
ATOM     76  C   UNL A   1      39.173  29.527  28.687  1.00  0.00     0.054 A 
BRANCH  76  77
ATOM     77  S   UNL A   1      37.396  29.714  28.991  1.00  0.00     0.124 S 
ATOM     78  O   UNL A   1      37.212  28.911  30.197  1.00  0.00    -0.237 OA
ATOM     79  O   UNL A   1      37.252  31.157  29.171  1.00  0.00    -0.237 OA
ATOM     80  O   UNL A   1      36.778  29.175  27.783  1.00  0.00    -0.744 OA
ENDBRANCH  76  77
ENDBRANCH  57  71
BRANCH  58  81
ATOM     81  C   UNL A   1      51.635  28.519  25.925  1.00  0.00    -0.014 A 
ATOM     82  C   UNL A   1      52.623  28.248  26.886  1.00  0.00     0.010 A 
ATOM     83  C   UNL A   1      52.009  28.631  24.573  1.00  0.00     0.010 A 
ATOM     84  C   UNL A   1      53.958  28.082  26.502  1.00  0.00     0.020 A 
ATOM     85  C   UNL A   1      53.337  28.440  24.182  1.00  0.00     0.020 A 
ATOM     86  C   UNL A   1      54.304  28.167  25.150  1.00  0.00     0.054 A 
BRANCH  86  87
ATOM     87  S   UNL A   1      56.025  27.852  24.669  1.00  0.00     0.124 S 
ATOM     88  O   UNL A   1      56.458  29.164  24.201  1.00  0.00    -0.237 OA
ATOM     89  O   UNL A   1      56.622  27.398  25.922  1.00  0.00    -0.237 OA
ATOM     90  O   UNL A   1      55.909  26.825  23.635  1.00  0.00    -0.744 OA
ENDBRANCH  86  87
ENDBRANCH  58  81
BRANCH  70  91
ATOM     91  C   UNL A   1      47.496  33.864  27.780  1.00  0.00    -0.014 A 
ATOM     92  C   UNL A   1      47.953  34.337  29.021  1.00  0.00     0.010 A 
ATOM     93  C   UNL A   1      47.382  34.764  26.702  1.00  0.00     0.010 A 
ATOM     94  C   UNL A   1      48.287  35.686  29.181  1.00  0.00     0.020 A 
ATOM     95  C   UNL A   1      47.740  36.105  26.851  1.00  0.00     0.020 A 
ATOM     96  C   UNL A   1      48.186  36.560  28.093  1.00  0.00     0.054 A 
BRANCH  96  97
ATOM     97  S   UNL A   1      48.711  38.284  28.302  1.00  0.00     0.124 S 
ATOM     98  O   UNL A   1      49.610  38.192  29.450  1.00  0.00    -0.237 OA
ATOM     99  O   UNL A   1      49.353  38.581  27.024  1.00  0.00    -0.237 OA
ATOM    100  O   UNL A   1      47.462  39.001  28.546  1.00  0.00    -0.744 OA
ENDBRANCH  96  97
ENDBRANCH  70  91
ENDBRANCH  44  45
ENDBRANCH  37  39
ENDBRANCH  36  37
ENDBRANCH  35  36
ENDBRANCH  34  35
ENDBRANCH  33  34
ENDBRANCH  32  33
ENDBRANCH   1  32
TORSDOF 23
ENDMDL
