MODEL 1
REMARK VINA RESULT:      -9.2      0.000      0.000
REMARK SMILES CN(c1ccc(C(=O)OCCOCCOCCOC(=O)c2ccc(-c3c4nc(c(-c5ccc(S(=O)(=O)[O-])cc5)c5ccc([nH]5)c(-c5ccc(S(=O)(=O)[O-])cc5)c5nc(c(-c6ccc(S(=O)(=O)[O-])cc6)c6ccc3[nH]6)C=C5)C=C4)cc2)c(F)c1F)[C@H]1C[C@H]2CC[C@@H](C1)[NH2+]2
REMARK SMILES IDX 14 1 13 2 12 3 11 4 10 5 9 6 7 7 8 8 6 9 3 10 4 11 83 12
REMARK SMILES IDX 5 13 81 14 84 15 82 16 2 17 1 18 85 19 86 20 91 21 87 22
REMARK SMILES IDX 90 23 88 24 92 25 89 26 15 29 16 30 17 31 18 32 19 33 20 34
REMARK SMILES IDX 21 35 22 36 80 37 23 38 79 39 24 40 25 41 26 42 73 43 27 44
REMARK SMILES IDX 78 45 72 46 74 47 28 48 77 49 71 50 70 51 29 53 59 54 40 55
REMARK SMILES IDX 58 56 41 57 44 58 57 59 75 60 42 61 43 62 56 64 76 65 45 66
REMARK SMILES IDX 30 67 31 68 39 69 32 70 38 71 33 72 34 73 35 74 36 75 37 76
REMARK SMILES IDX 60 77 61 78 69 79 62 80 68 81 63 82 64 83 65 84 66 85 67 86
REMARK SMILES IDX 46 87 47 88 55 89 48 90 54 91 49 92 50 93 51 94 52 95 53 96
REMARK H PARENT 92 27 92 28 74 52 44 63
REMARK Flexibility Score: inf
ROOT
ATOM      1  C   UNL A   1      35.486  31.217  28.369  1.00  0.00     0.188 C 
ENDROOT
BRANCH   1   2
ATOM      2  C   UNL A   1      34.556  30.641  27.282  1.00  0.00     0.188 C 
BRANCH   2   3
ATOM      3  O   UNL A   1      33.236  30.237  27.607  1.00  0.00    -0.376 OA
BRANCH   3   4
ATOM      4  C   UNL A   1      32.178  30.548  26.711  1.00  0.00     0.202 C 
BRANCH   4   5
ATOM      5  C   UNL A   1      32.207  29.957  25.300  1.00  0.00     0.261 C 
BRANCH   5   6
ATOM      6  O   UNL A   1      30.885  29.681  24.819  1.00  0.00    -0.460 OA
BRANCH   6   7
ATOM      7  C   UNL A   1      30.791  29.048  23.629  1.00  0.00     0.341 C 
ATOM      8  O   UNL A   1      30.480  29.557  22.563  1.00  0.00    -0.246 OA
BRANCH   7   9
ATOM      9  C   UNL A   1      31.255  27.648  23.740  1.00  0.00     0.099 A 
ATOM     10  C   UNL A   1      32.078  24.958  24.017  1.00  0.00     0.076 A 
ATOM     11  C   UNL A   1      30.861  25.394  24.558  1.00  0.00     0.030 A 
ATOM     12  C   UNL A   1      32.787  25.861  23.221  1.00  0.00     0.182 A 
ATOM     13  C   UNL A   1      30.442  26.722  24.409  1.00  0.00     0.021 A 
ATOM     14  C   UNL A   1      32.438  27.204  23.159  1.00  0.00     0.175 A 
ATOM     15  F   UNL A   1      33.837  25.433  22.505  1.00  0.00    -0.201 F 
ATOM     16  F   UNL A   1      33.275  28.045  22.534  1.00  0.00    -0.203 F 
BRANCH  10  17
ATOM     17  N   UNL A   1      32.589  23.706  24.303  1.00  0.00    -0.369 N 
ATOM     18  C   UNL A   1      32.202  22.619  23.411  1.00  0.00     0.144 C 
BRANCH  17  19
ATOM     19  C   UNL A   1      33.175  23.362  25.626  1.00  0.00     0.093 C 
ATOM     20  C   UNL A   1      32.635  22.015  26.157  1.00  0.00     0.090 C 
ATOM     21  C   UNL A   1      34.704  23.539  25.777  1.00  0.00     0.090 C 
ATOM     22  C   UNL A   1      33.683  20.911  26.363  1.00  0.00     0.184 C 
ATOM     23  C   UNL A   1      35.504  22.250  26.015  1.00  0.00     0.184 C 
ATOM     24  C   UNL A   1      34.301  20.387  25.075  1.00  0.00     0.071 C 
ATOM     25  N   UNL A   1      34.855  21.451  27.060  1.00  0.00    -0.341 N 
ATOM     26  C   UNL A   1      35.510  21.283  24.838  1.00  0.00     0.071 C 
ATOM     27  H   UNL A   1      35.467  20.704  27.387  1.00  0.00     0.346 HD
ATOM     28  H   UNL A   1      34.621  21.988  27.896  1.00  0.00     0.346 HD
ENDBRANCH  17  19
ENDBRANCH  10  17
ENDBRANCH   7   9
ENDBRANCH   6   7
ENDBRANCH   5   6
ENDBRANCH   4   5
ENDBRANCH   3   4
ENDBRANCH   2   3
ENDBRANCH   1   2
BRANCH   1  29
ATOM     29  O   UNL A   1      35.496  32.590  28.682  1.00  0.00    -0.376 OA
BRANCH  29  30
ATOM     30  C   UNL A   1      34.389  33.184  29.334  1.00  0.00     0.202 C 
BRANCH  30  31
ATOM     31  C   UNL A   1      34.408  33.590  30.816  1.00  0.00     0.261 C 
BRANCH  31  32
ATOM     32  O   UNL A   1      34.383  32.520  31.768  1.00  0.00    -0.460 OA
BRANCH  32  33
ATOM     33  C   UNL A   1      35.044  32.769  32.928  1.00  0.00     0.338 C 
ATOM     34  O   UNL A   1      34.559  33.078  34.003  1.00  0.00    -0.246 OA
BRANCH  33  35
ATOM     35  C   UNL A   1      36.468  32.420  32.760  1.00  0.00     0.060 A 
ATOM     36  C   UNL A   1      37.412  33.019  33.607  1.00  0.00     0.016 A 
ATOM     37  C   UNL A   1      36.869  31.542  31.755  1.00  0.00     0.016 A 
ATOM     38  C   UNL A   1      38.771  32.754  33.435  1.00  0.00     0.010 A 
ATOM     39  C   UNL A   1      38.232  31.298  31.569  1.00  0.00     0.010 A 
ATOM     40  C   UNL A   1      39.190  31.922  32.389  1.00  0.00    -0.014 A 
BRANCH  40  41
ATOM     41  C   UNL A   1      40.626  31.833  32.030  1.00  0.00     0.031 A 
ATOM     42  C   UNL A   1      41.223  32.925  31.186  1.00  0.00     0.074 A 
ATOM     43  C   UNL A   1      41.382  30.791  32.420  1.00  0.00     0.049 A 
ATOM     44  N   UNL A   1      42.418  33.009  30.664  1.00  0.00    -0.248 NA
ATOM     45  C   UNL A   1      40.350  34.074  30.885  1.00  0.00     0.031 C 
ATOM     46  C   UNL A   1      40.935  29.689  33.272  1.00  0.00     0.029 A 
ATOM     47  N   UNL A   1      42.687  30.482  32.126  1.00  0.00    -0.354 N 
ATOM     48  C   UNL A   1      42.438  34.208  29.961  1.00  0.00     0.074 A 
ATOM     49  C   UNL A   1      41.131  34.810  30.110  1.00  0.00     0.031 C 
ATOM     50  C   UNL A   1      41.945  28.812  33.413  1.00  0.00     0.029 A 
ATOM     51  C   UNL A   1      43.093  29.270  32.632  1.00  0.00     0.049 A 
ATOM     52  H   UNL A   1      43.276  31.072  31.603  1.00  0.00     0.167 HD
ATOM     53  C   UNL A   1      43.452  34.757  29.252  1.00  0.00     0.031 A 
ATOM     54  C   UNL A   1      44.246  28.592  32.456  1.00  0.00     0.031 A 
ATOM     55  C   UNL A   1      44.745  34.150  29.089  1.00  0.00     0.049 A 
ATOM     56  C   UNL A   1      45.336  29.189  31.600  1.00  0.00     0.074 A 
ATOM     57  C   UNL A   1      45.844  34.640  28.404  1.00  0.00     0.029 A 
ATOM     58  N   UNL A   1      45.111  32.915  29.602  1.00  0.00    -0.354 N 
ATOM     59  N   UNL A   1      45.353  30.339  30.969  1.00  0.00    -0.248 NA
ATOM     60  C   UNL A   1      46.564  28.397  31.437  1.00  0.00     0.031 C 
ATOM     61  C   UNL A   1      46.855  33.677  28.456  1.00  0.00     0.029 A 
ATOM     62  C   UNL A   1      46.409  32.615  29.226  1.00  0.00     0.049 A 
ATOM     63  H   UNL A   1      44.534  32.339  30.153  1.00  0.00     0.167 HD
ATOM     64  C   UNL A   1      46.602  30.420  30.359  1.00  0.00     0.074 A 
ATOM     65  C   UNL A   1      47.316  29.209  30.706  1.00  0.00     0.031 C 
ATOM     66  C   UNL A   1      47.112  31.409  29.584  1.00  0.00     0.031 A 
BRANCH  53  67
ATOM     67  C   UNL A   1      43.188  36.068  28.563  1.00  0.00    -0.014 A 
ATOM     68  C   UNL A   1      42.580  36.118  27.297  1.00  0.00     0.010 A 
ATOM     69  C   UNL A   1      43.518  37.271  29.214  1.00  0.00     0.010 A 
ATOM     70  C   UNL A   1      42.334  37.348  26.680  1.00  0.00     0.020 A 
ATOM     71  C   UNL A   1      43.249  38.503  28.612  1.00  0.00     0.020 A 
ATOM     72  C   UNL A   1      42.672  38.533  27.342  1.00  0.00     0.054 A 
BRANCH  72  73
ATOM     73  S   UNL A   1      42.312  40.114  26.530  1.00  0.00     0.124 S 
ATOM     74  O   UNL A   1      42.312  41.039  27.661  1.00  0.00    -0.237 OA
ATOM     75  O   UNL A   1      43.430  40.259  25.601  1.00  0.00    -0.237 OA
ATOM     76  O   UNL A   1      41.010  39.896  25.905  1.00  0.00    -0.744 OA
ENDBRANCH  72  73
ENDBRANCH  53  67
BRANCH  54  77
ATOM     77  C   UNL A   1      44.426  27.250  33.077  1.00  0.00    -0.014 A 
ATOM     78  C   UNL A   1      44.842  27.128  34.416  1.00  0.00     0.010 A 
ATOM     79  C   UNL A   1      44.196  26.084  32.325  1.00  0.00     0.010 A 
ATOM     80  C   UNL A   1      45.044  25.866  34.982  1.00  0.00     0.020 A 
ATOM     81  C   UNL A   1      44.369  24.820  32.897  1.00  0.00     0.020 A 
ATOM     82  C   UNL A   1      44.805  24.720  34.219  1.00  0.00     0.054 A 
BRANCH  82  83
ATOM     83  S   UNL A   1      45.032  23.093  34.990  1.00  0.00     0.124 S 
ATOM     84  O   UNL A   1      44.991  23.422  36.410  1.00  0.00    -0.237 OA
ATOM     85  O   UNL A   1      43.888  22.341  34.480  1.00  0.00    -0.237 OA
ATOM     86  O   UNL A   1      46.331  22.654  34.485  1.00  0.00    -0.744 OA
ENDBRANCH  82  83
ENDBRANCH  54  77
BRANCH  66  87
ATOM     87  C   UNL A   1      48.528  31.256  29.090  1.00  0.00    -0.014 A 
ATOM     88  C   UNL A   1      48.810  30.670  27.844  1.00  0.00     0.010 A 
ATOM     89  C   UNL A   1      49.587  31.779  29.856  1.00  0.00     0.010 A 
ATOM     90  C   UNL A   1      50.128  30.587  27.384  1.00  0.00     0.020 A 
ATOM     91  C   UNL A   1      50.902  31.723  29.388  1.00  0.00     0.020 A 
ATOM     92  C   UNL A   1      51.165  31.116  28.159  1.00  0.00     0.054 A 
BRANCH  92  93
ATOM     93  S   UNL A   1      52.861  31.045  27.516  1.00  0.00     0.124 S 
ATOM     94  O   UNL A   1      52.798  31.967  26.387  1.00  0.00    -0.237 OA
ATOM     95  O   UNL A   1      53.654  31.500  28.656  1.00  0.00    -0.237 OA
ATOM     96  O   UNL A   1      53.040  29.638  27.164  1.00  0.00    -0.744 OA
ENDBRANCH  92  93
ENDBRANCH  66  87
ENDBRANCH  40  41
ENDBRANCH  33  35
ENDBRANCH  32  33
ENDBRANCH  31  32
ENDBRANCH  30  31
ENDBRANCH  29  30
ENDBRANCH   1  29
TORSDOF 22
ENDMDL
MODEL 2
REMARK VINA RESULT:      -8.7      5.342     10.127
REMARK SMILES CN(c1ccc(C(=O)OCCOCCOCCOC(=O)c2ccc(-c3c4nc(c(-c5ccc(S(=O)(=O)[O-])cc5)c5ccc([nH]5)c(-c5ccc(S(=O)(=O)[O-])cc5)c5nc(c(-c6ccc(S(=O)(=O)[O-])cc6)c6ccc3[nH]6)C=C5)C=C4)cc2)c(F)c1F)[C@H]1C[C@H]2CC[C@@H](C1)[NH2+]2
REMARK SMILES IDX 14 1 13 2 12 3 11 4 10 5 9 6 7 7 8 8 6 9 3 10 4 11 83 12
REMARK SMILES IDX 5 13 81 14 84 15 82 16 2 17 1 18 85 19 86 20 91 21 87 22
REMARK SMILES IDX 90 23 88 24 92 25 89 26 15 29 16 30 17 31 18 32 19 33 20 34
REMARK SMILES IDX 21 35 22 36 80 37 23 38 79 39 24 40 25 41 26 42 73 43 27 44
REMARK SMILES IDX 78 45 72 46 74 47 28 48 77 49 71 50 70 51 29 53 59 54 40 55
REMARK SMILES IDX 58 56 41 57 44 58 57 59 75 60 42 61 43 62 56 64 76 65 45 66
REMARK SMILES IDX 30 67 31 68 39 69 32 70 38 71 33 72 34 73 35 74 36 75 37 76
REMARK SMILES IDX 60 77 61 78 69 79 62 80 68 81 63 82 64 83 65 84 66 85 67 86
REMARK SMILES IDX 46 87 47 88 55 89 48 90 54 91 49 92 50 93 51 94 52 95 53 96
REMARK H PARENT 92 27 92 28 74 52 44 63
REMARK Flexibility Score: inf
ROOT
ATOM      1  C   UNL A   1      39.478  32.300  37.008  1.00  0.00     0.188 C 
ENDROOT
BRANCH   1   2
ATOM      2  C   UNL A   1      38.887  31.222  36.077  1.00  0.00     0.188 C 
BRANCH   2   3
ATOM      3  O   UNL A   1      38.180  31.595  34.906  1.00  0.00    -0.376 OA
BRANCH   3   4
ATOM      4  C   UNL A   1      38.528  30.993  33.667  1.00  0.00     0.202 C 
BRANCH   4   5
ATOM      5  C   UNL A   1      39.320  31.810  32.645  1.00  0.00     0.261 C 
BRANCH   5   6
ATOM      6  O   UNL A   1      39.966  30.965  31.684  1.00  0.00    -0.460 OA
BRANCH   6   7
ATOM      7  C   UNL A   1      39.247  30.627  30.592  1.00  0.00     0.341 C 
ATOM      8  O   UNL A   1      38.252  31.201  30.176  1.00  0.00    -0.246 OA
BRANCH   7   9
ATOM      9  C   UNL A   1      39.898  29.523  29.852  1.00  0.00     0.099 A 
ATOM     10  C   UNL A   1      41.202  27.477  28.402  1.00  0.00     0.076 A 
ATOM     11  C   UNL A   1      41.793  28.739  28.548  1.00  0.00     0.030 A 
ATOM     12  C   UNL A   1      40.027  27.231  29.118  1.00  0.00     0.182 A 
ATOM     13  C   UNL A   1      41.157  29.750  29.279  1.00  0.00     0.021 A 
ATOM     14  C   UNL A   1      39.335  28.256  29.752  1.00  0.00     0.175 A 
ATOM     15  F   UNL A   1      39.541  25.983  29.190  1.00  0.00    -0.201 F 
ATOM     16  F   UNL A   1      38.120  27.983  30.250  1.00  0.00    -0.203 F 
BRANCH  10  17
ATOM     17  N   UNL A   1      41.724  26.529  27.543  1.00  0.00    -0.369 N 
ATOM     18  C   UNL A   1      40.966  26.253  26.327  1.00  0.00     0.144 C 
BRANCH  17  19
ATOM     19  C   UNL A   1      42.768  25.556  27.962  1.00  0.00     0.093 C 
ATOM     20  C   UNL A   1      42.271  24.098  27.844  1.00  0.00     0.090 C 
ATOM     21  C   UNL A   1      44.196  25.787  27.414  1.00  0.00     0.090 C 
ATOM     22  C   UNL A   1      43.046  23.206  26.863  1.00  0.00     0.184 C 
ATOM     23  C   UNL A   1      44.734  24.699  26.474  1.00  0.00     0.184 C 
ATOM     24  C   UNL A   1      42.883  23.594  25.400  1.00  0.00     0.071 C 
ATOM     25  N   UNL A   1      44.490  23.376  27.059  1.00  0.00    -0.341 N 
ATOM     26  C   UNL A   1      44.002  24.595  25.142  1.00  0.00     0.071 C 
ATOM     27  H   UNL A   1      45.017  22.653  26.569  1.00  0.00     0.346 HD
ATOM     28  H   UNL A   1      44.781  23.303  28.034  1.00  0.00     0.346 HD
ENDBRANCH  17  19
ENDBRANCH  10  17
ENDBRANCH   7   9
ENDBRANCH   6   7
ENDBRANCH   5   6
ENDBRANCH   4   5
ENDBRANCH   3   4
ENDBRANCH   2   3
ENDBRANCH   1   2
BRANCH   1  29
ATOM     29  O   UNL A   1      38.918  32.576  38.270  1.00  0.00    -0.376 OA
BRANCH  29  30
ATOM     30  C   UNL A   1      38.502  33.888  38.597  1.00  0.00     0.202 C 
BRANCH  30  31
ATOM     31  C   UNL A   1      39.475  34.987  39.052  1.00  0.00     0.261 C 
BRANCH  31  32
ATOM     32  O   UNL A   1      39.443  36.211  38.309  1.00  0.00    -0.460 OA
BRANCH  32  33
ATOM     33  C   UNL A   1      40.654  36.795  38.113  1.00  0.00     0.338 C 
ATOM     34  O   UNL A   1      41.269  37.500  38.895  1.00  0.00    -0.246 OA
BRANCH  33  35
ATOM     35  C   UNL A   1      41.237  36.294  36.854  1.00  0.00     0.060 A 
ATOM     36  C   UNL A   1      40.382  36.030  35.774  1.00  0.00     0.016 A 
ATOM     37  C   UNL A   1      42.606  36.051  36.753  1.00  0.00     0.016 A 
ATOM     38  C   UNL A   1      40.896  35.500  34.590  1.00  0.00     0.010 A 
ATOM     39  C   UNL A   1      43.114  35.498  35.576  1.00  0.00     0.010 A 
ATOM     40  C   UNL A   1      42.259  35.195  34.500  1.00  0.00    -0.014 A 
BRANCH  40  41
ATOM     41  C   UNL A   1      42.777  34.401  33.359  1.00  0.00     0.031 A 
ATOM     42  C   UNL A   1      42.823  32.903  33.491  1.00  0.00     0.074 A 
ATOM     43  C   UNL A   1      43.224  34.995  32.238  1.00  0.00     0.049 A 
ATOM     44  N   UNL A   1      43.327  32.015  32.675  1.00  0.00    -0.248 NA
ATOM     45  C   UNL A   1      42.225  32.333  34.711  1.00  0.00     0.031 C 
ATOM     46  C   UNL A   1      43.197  36.432  31.970  1.00  0.00     0.029 A 
ATOM     47  N   UNL A   1      43.811  34.454  31.121  1.00  0.00    -0.354 N 
ATOM     48  C   UNL A   1      43.123  30.784  33.287  1.00  0.00     0.074 A 
ATOM     49  C   UNL A   1      42.464  31.041  34.549  1.00  0.00     0.031 C 
ATOM     50  C   UNL A   1      43.765  36.661  30.772  1.00  0.00     0.029 A 
ATOM     51  C   UNL A   1      44.230  35.394  30.209  1.00  0.00     0.049 A 
ATOM     52  H   UNL A   1      43.921  33.485  30.985  1.00  0.00     0.167 HD
ATOM     53  C   UNL A   1      43.458  29.551  32.841  1.00  0.00     0.031 A 
ATOM     54  C   UNL A   1      44.936  35.251  29.069  1.00  0.00     0.031 A 
ATOM     55  C   UNL A   1      44.129  29.297  31.594  1.00  0.00     0.049 A 
ATOM     56  C   UNL A   1      45.364  33.873  28.628  1.00  0.00     0.074 A 
ATOM     57  C   UNL A   1      44.492  28.078  31.048  1.00  0.00     0.029 A 
ATOM     58  N   UNL A   1      44.550  30.276  30.709  1.00  0.00    -0.354 N 
ATOM     59  N   UNL A   1      45.135  32.714  29.200  1.00  0.00    -0.248 NA
ATOM     60  C   UNL A   1      46.142  33.784  27.383  1.00  0.00     0.031 C 
ATOM     61  C   UNL A   1      45.183  28.324  29.858  1.00  0.00     0.029 A 
ATOM     62  C   UNL A   1      45.194  29.692  29.632  1.00  0.00     0.049 A 
ATOM     63  H   UNL A   1      44.411  31.243  30.827  1.00  0.00     0.167 HD
ATOM     64  C   UNL A   1      45.716  31.759  28.371  1.00  0.00     0.074 A 
ATOM     65  C   UNL A   1      46.296  32.472  27.252  1.00  0.00     0.031 C 
ATOM     66  C   UNL A   1      45.762  30.412  28.520  1.00  0.00     0.031 A 
BRANCH  53  67
ATOM     67  C   UNL A   1      43.136  28.379  33.729  1.00  0.00    -0.014 A 
ATOM     68  C   UNL A   1      41.859  27.794  33.729  1.00  0.00     0.010 A 
ATOM     69  C   UNL A   1      44.143  27.831  34.544  1.00  0.00     0.010 A 
ATOM     70  C   UNL A   1      41.585  26.699  34.553  1.00  0.00     0.020 A 
ATOM     71  C   UNL A   1      43.881  26.720  35.349  1.00  0.00     0.020 A 
ATOM     72  C   UNL A   1      42.598  26.170  35.359  1.00  0.00     0.054 A 
BRANCH  72  73
ATOM     73  S   UNL A   1      42.222  24.729  36.395  1.00  0.00     0.124 S 
ATOM     74  O   UNL A   1      40.943  25.113  36.990  1.00  0.00    -0.237 OA
ATOM     75  O   UNL A   1      42.161  23.642  35.422  1.00  0.00    -0.237 OA
ATOM     76  O   UNL A   1      43.346  24.667  37.326  1.00  0.00    -0.744 OA
ENDBRANCH  72  73
ENDBRANCH  53  67
BRANCH  54  77
ATOM     77  C   UNL A   1      45.318  36.450  28.272  1.00  0.00    -0.014 A 
ATOM     78  C   UNL A   1      46.608  37.001  28.376  1.00  0.00     0.010 A 
ATOM     79  C   UNL A   1      44.384  37.058  27.413  1.00  0.00     0.010 A 
ATOM     80  C   UNL A   1      46.948  38.148  27.654  1.00  0.00     0.020 A 
ATOM     81  C   UNL A   1      44.730  38.188  26.667  1.00  0.00     0.020 A 
ATOM     82  C   UNL A   1      46.007  38.734  26.802  1.00  0.00     0.054 A 
BRANCH  82  83
ATOM     83  S   UNL A   1      46.487  40.196  25.841  1.00  0.00     0.124 S 
ATOM     84  O   UNL A   1      47.707  40.618  26.521  1.00  0.00    -0.237 OA
ATOM     85  O   UNL A   1      46.666  39.646  24.500  1.00  0.00    -0.237 OA
ATOM     86  O   UNL A   1      45.344  41.093  25.991  1.00  0.00    -0.744 OA
ENDBRANCH  82  83
ENDBRANCH  54  77
BRANCH  66  87
ATOM     87  C   UNL A   1      46.420  29.605  27.431  1.00  0.00    -0.014 A 
ATOM     88  C   UNL A   1      47.801  29.342  27.446  1.00  0.00     0.010 A 
ATOM     89  C   UNL A   1      45.627  29.037  26.416  1.00  0.00     0.010 A 
ATOM     90  C   UNL A   1      48.380  28.546  26.453  1.00  0.00     0.020 A 
ATOM     91  C   UNL A   1      46.196  28.220  25.437  1.00  0.00     0.020 A 
ATOM     92  C   UNL A   1      47.573  27.989  25.455  1.00  0.00     0.054 A 
BRANCH  92  93
ATOM     93  S   UNL A   1      48.339  26.916  24.208  1.00  0.00     0.124 S 
ATOM     94  O   UNL A   1      48.569  27.845  23.106  1.00  0.00    -0.237 OA
ATOM     95  O   UNL A   1      49.539  26.438  24.890  1.00  0.00    -0.237 OA
ATOM     96  O   UNL A   1      47.323  25.895  23.959  1.00  0.00    -0.744 OA
ENDBRANCH  92  93
ENDBRANCH  66  87
ENDBRANCH  40  41
ENDBRANCH  33  35
ENDBRANCH  32  33
ENDBRANCH  31  32
ENDBRANCH  30  31
ENDBRANCH  29  30
ENDBRANCH   1  29
TORSDOF 22
ENDMDL
MODEL 3
REMARK VINA RESULT:      -8.6      3.082      8.851
REMARK SMILES CN(c1ccc(C(=O)OCCOCCOCCOC(=O)c2ccc(-c3c4nc(c(-c5ccc(S(=O)(=O)[O-])cc5)c5ccc([nH]5)c(-c5ccc(S(=O)(=O)[O-])cc5)c5nc(c(-c6ccc(S(=O)(=O)[O-])cc6)c6ccc3[nH]6)C=C5)C=C4)cc2)c(F)c1F)[C@H]1C[C@H]2CC[C@@H](C1)[NH2+]2
REMARK SMILES IDX 14 1 13 2 12 3 11 4 10 5 9 6 7 7 8 8 6 9 3 10 4 11 83 12
REMARK SMILES IDX 5 13 81 14 84 15 82 16 2 17 1 18 85 19 86 20 91 21 87 22
REMARK SMILES IDX 90 23 88 24 92 25 89 26 15 29 16 30 17 31 18 32 19 33 20 34
REMARK SMILES IDX 21 35 22 36 80 37 23 38 79 39 24 40 25 41 26 42 73 43 27 44
REMARK SMILES IDX 78 45 72 46 74 47 28 48 77 49 71 50 70 51 29 53 59 54 40 55
REMARK SMILES IDX 58 56 41 57 44 58 57 59 75 60 42 61 43 62 56 64 76 65 45 66
REMARK SMILES IDX 30 67 31 68 39 69 32 70 38 71 33 72 34 73 35 74 36 75 37 76
REMARK SMILES IDX 60 77 61 78 69 79 62 80 68 81 63 82 64 83 65 84 66 85 67 86
REMARK SMILES IDX 46 87 47 88 55 89 48 90 54 91 49 92 50 93 51 94 52 95 53 96
REMARK H PARENT 92 27 92 28 74 52 44 63
REMARK Flexibility Score: inf
ROOT
ATOM      1  C   UNL A   1      35.979  30.126  29.025  1.00  0.00     0.188 C 
ENDROOT
BRANCH   1   2
ATOM      2  C   UNL A   1      35.306  30.046  27.640  1.00  0.00     0.188 C 
BRANCH   2   3
ATOM      3  O   UNL A   1      34.026  29.455  27.498  1.00  0.00    -0.376 OA
BRANCH   3   4
ATOM      4  C   UNL A   1      32.991  30.192  26.862  1.00  0.00     0.202 C 
BRANCH   4   5
ATOM      5  C   UNL A   1      32.651  29.884  25.403  1.00  0.00     0.261 C 
BRANCH   5   6
ATOM      6  O   UNL A   1      31.233  29.835  25.193  1.00  0.00    -0.460 OA
BRANCH   6   7
ATOM      7  C   UNL A   1      30.805  29.179  24.092  1.00  0.00     0.341 C 
ATOM      8  O   UNL A   1      30.165  29.658  23.169  1.00  0.00    -0.246 OA
BRANCH   7   9
ATOM      9  C   UNL A   1      31.333  27.796  24.065  1.00  0.00     0.099 A 
ATOM     10  C   UNL A   1      32.296  25.139  24.093  1.00  0.00     0.076 A 
ATOM     11  C   UNL A   1      31.240  25.527  24.929  1.00  0.00     0.030 A 
ATOM     12  C   UNL A   1      32.746  26.070  23.154  1.00  0.00     0.182 A 
ATOM     13  C   UNL A   1      30.749  26.839  24.906  1.00  0.00     0.021 A 
ATOM     14  C   UNL A   1      32.345  27.400  23.199  1.00  0.00     0.175 A 
ATOM     15  F   UNL A   1      33.596  25.685  22.190  1.00  0.00    -0.201 F 
ATOM     16  F   UNL A   1      32.965  28.274  22.392  1.00  0.00    -0.203 F 
BRANCH  10  17
ATOM     17  N   UNL A   1      32.907  23.907  24.225  1.00  0.00    -0.369 N 
ATOM     18  C   UNL A   1      32.107  22.736  23.885  1.00  0.00     0.144 C 
BRANCH  17  19
ATOM     19  C   UNL A   1      34.149  23.709  25.019  1.00  0.00     0.093 C 
ATOM     20  C   UNL A   1      33.837  23.290  26.473  1.00  0.00     0.090 C 
ATOM     21  C   UNL A   1      35.280  22.894  24.350  1.00  0.00     0.090 C 
ATOM     22  C   UNL A   1      34.366  21.911  26.897  1.00  0.00     0.184 C 
ATOM     23  C   UNL A   1      35.626  21.556  25.022  1.00  0.00     0.184 C 
ATOM     24  C   UNL A   1      33.690  20.739  26.199  1.00  0.00     0.071 C 
ATOM     25  N   UNL A   1      35.760  21.751  26.469  1.00  0.00    -0.341 N 
ATOM     26  C   UNL A   1      34.524  20.507  24.946  1.00  0.00     0.071 C 
ATOM     27  H   UNL A   1      36.191  20.940  26.913  1.00  0.00     0.346 HD
ATOM     28  H   UNL A   1      36.356  22.540  26.720  1.00  0.00     0.346 HD
ENDBRANCH  17  19
ENDBRANCH  10  17
ENDBRANCH   7   9
ENDBRANCH   6   7
ENDBRANCH   5   6
ENDBRANCH   4   5
ENDBRANCH   3   4
ENDBRANCH   2   3
ENDBRANCH   1   2
BRANCH   1  29
ATOM     29  O   UNL A   1      36.297  31.361  29.623  1.00  0.00    -0.376 OA
BRANCH  29  30
ATOM     30  C   UNL A   1      35.271  32.207  30.110  1.00  0.00     0.202 C 
BRANCH  30  31
ATOM     31  C   UNL A   1      35.549  33.475  30.932  1.00  0.00     0.261 C 
BRANCH  31  32
ATOM     32  O   UNL A   1      36.781  34.152  30.657  1.00  0.00    -0.460 OA
BRANCH  32  33
ATOM     33  C   UNL A   1      37.783  33.904  31.542  1.00  0.00     0.338 C 
ATOM     34  O   UNL A   1      37.696  33.327  32.612  1.00  0.00    -0.246 OA
BRANCH  33  35
ATOM     35  C   UNL A   1      39.073  34.271  30.929  1.00  0.00     0.060 A 
ATOM     36  C   UNL A   1      39.108  34.567  29.558  1.00  0.00     0.016 A 
ATOM     37  C   UNL A   1      40.241  34.286  31.690  1.00  0.00     0.016 A 
ATOM     38  C   UNL A   1      40.322  34.861  28.938  1.00  0.00     0.010 A 
ATOM     39  C   UNL A   1      41.459  34.556  31.061  1.00  0.00     0.010 A 
ATOM     40  C   UNL A   1      41.509  34.818  29.679  1.00  0.00    -0.014 A 
BRANCH  40  41
ATOM     41  C   UNL A   1      42.824  34.872  28.996  1.00  0.00     0.031 A 
ATOM     42  C   UNL A   1      43.637  33.610  28.906  1.00  0.00     0.074 A 
ATOM     43  C   UNL A   1      43.303  36.022  28.487  1.00  0.00     0.049 A 
ATOM     44  N   UNL A   1      44.851  33.437  28.452  1.00  0.00    -0.248 NA
ATOM     45  C   UNL A   1      42.996  32.379  29.402  1.00  0.00     0.031 C 
ATOM     46  C   UNL A   1      42.598  37.303  28.474  1.00  0.00     0.029 A 
ATOM     47  N   UNL A   1      44.514  36.297  27.902  1.00  0.00    -0.354 N 
ATOM     48  C   UNL A   1      45.126  32.085  28.621  1.00  0.00     0.074 A 
ATOM     49  C   UNL A   1      43.960  31.487  29.234  1.00  0.00     0.031 C 
ATOM     50  C   UNL A   1      43.400  38.234  27.927  1.00  0.00     0.029 A 
ATOM     51  C   UNL A   1      44.685  37.625  27.590  1.00  0.00     0.049 A 
ATOM     52  H   UNL A   1      45.195  35.609  27.722  1.00  0.00     0.167 HD
ATOM     53  C   UNL A   1      46.250  31.403  28.300  1.00  0.00     0.031 A 
ATOM     54  C   UNL A   1      45.767  38.279  27.118  1.00  0.00     0.031 A 
ATOM     55  C   UNL A   1      47.416  32.001  27.707  1.00  0.00     0.049 A 
ATOM     56  C   UNL A   1      47.035  37.511  26.836  1.00  0.00     0.074 A 
ATOM     57  C   UNL A   1      48.597  31.387  27.327  1.00  0.00     0.029 A 
ATOM     58  N   UNL A   1      47.556  33.350  27.422  1.00  0.00    -0.354 N 
ATOM     59  N   UNL A   1      47.270  36.227  26.969  1.00  0.00    -0.248 NA
ATOM     60  C   UNL A   1      48.182  38.282  26.335  1.00  0.00     0.031 C 
ATOM     61  C   UNL A   1      49.472  32.374  26.864  1.00  0.00     0.029 A 
ATOM     62  C   UNL A   1      48.814  33.593  26.897  1.00  0.00     0.049 A 
ATOM     63  H   UNL A   1      46.864  34.034  27.571  1.00  0.00     0.167 HD
ATOM     64  C   UNL A   1      48.580  36.034  26.542  1.00  0.00     0.074 A 
ATOM     65  C   UNL A   1      49.084  37.329  26.135  1.00  0.00     0.031 C 
ATOM     66  C   UNL A   1      49.301  34.887  26.488  1.00  0.00     0.031 A 
BRANCH  53  67
ATOM     67  C   UNL A   1      46.287  29.933  28.619  1.00  0.00    -0.014 A 
ATOM     68  C   UNL A   1      46.662  29.473  29.893  1.00  0.00     0.010 A 
ATOM     69  C   UNL A   1      45.901  29.001  27.638  1.00  0.00     0.010 A 
ATOM     70  C   UNL A   1      46.678  28.103  30.172  1.00  0.00     0.020 A 
ATOM     71  C   UNL A   1      45.891  27.633  27.921  1.00  0.00     0.020 A 
ATOM     72  C   UNL A   1      46.294  27.192  29.182  1.00  0.00     0.054 A 
BRANCH  72  73
ATOM     73  S   UNL A   1      46.295  25.423  29.582  1.00  0.00     0.124 S 
ATOM     74  O   UNL A   1      47.107  25.391  30.797  1.00  0.00    -0.237 OA
ATOM     75  O   UNL A   1      44.876  25.135  29.768  1.00  0.00    -0.237 OA
ATOM     76  O   UNL A   1      46.906  24.803  28.410  1.00  0.00    -0.744 OA
ENDBRANCH  72  73
ENDBRANCH  53  67
BRANCH  54  77
ATOM     77  C   UNL A   1      45.716  39.753  26.910  1.00  0.00    -0.014 A 
ATOM     78  C   UNL A   1      45.539  40.291  25.622  1.00  0.00     0.010 A 
ATOM     79  C   UNL A   1      45.862  40.629  28.001  1.00  0.00     0.010 A 
ATOM     80  C   UNL A   1      45.529  41.675  25.428  1.00  0.00     0.020 A 
ATOM     81  C   UNL A   1      45.823  42.013  27.815  1.00  0.00     0.020 A 
ATOM     82  C   UNL A   1      45.670  42.528  26.526  1.00  0.00     0.054 A 
BRANCH  82  83
ATOM     83  S   UNL A   1      45.609  44.321  26.255  1.00  0.00     0.124 S 
ATOM     84  O   UNL A   1      45.351  44.823  27.601  1.00  0.00    -0.237 OA
ATOM     85  O   UNL A   1      46.938  44.603  25.718  1.00  0.00    -0.237 OA
ATOM     86  O   UNL A   1      44.513  44.485  25.304  1.00  0.00    -0.744 OA
ENDBRANCH  82  83
ENDBRANCH  54  77
BRANCH  66  87
ATOM     87  C   UNL A   1      50.698  34.959  25.928  1.00  0.00    -0.014 A 
ATOM     88  C   UNL A   1      50.940  34.868  24.547  1.00  0.00     0.010 A 
ATOM     89  C   UNL A   1      51.779  35.198  26.798  1.00  0.00     0.010 A 
ATOM     90  C   UNL A   1      52.241  34.991  24.047  1.00  0.00     0.020 A 
ATOM     91  C   UNL A   1      53.075  35.347  26.301  1.00  0.00     0.020 A 
ATOM     92  C   UNL A   1      53.300  35.231  24.928  1.00  0.00     0.054 A 
BRANCH  92  93
ATOM     93  S   UNL A   1      54.971  35.440  24.251  1.00  0.00     0.124 S 
ATOM     94  O   UNL A   1      54.812  34.944  22.888  1.00  0.00    -0.237 OA
ATOM     95  O   UNL A   1      55.189  36.879  24.375  1.00  0.00    -0.237 OA
ATOM     96  O   UNL A   1      55.804  34.613  25.123  1.00  0.00    -0.744 OA
ENDBRANCH  92  93
ENDBRANCH  66  87
ENDBRANCH  40  41
ENDBRANCH  33  35
ENDBRANCH  32  33
ENDBRANCH  31  32
ENDBRANCH  30  31
ENDBRANCH  29  30
ENDBRANCH   1  29
TORSDOF 22
ENDMDL
