MODEL 1
REMARK VINA RESULT:     -10.0      0.000      0.000
REMARK SMILES O=C(OCCOCCOCCOC(=O)[C@H]1[C@H]2CC[C@H](C2)[C@@H]1C(=O)N1CC[NH+](C2CCCCC2)CC1)c1ccc(-c2c3nc(c(-c4ccc(S(=O)(=O)[O-])cc4)c4ccc([nH]4)c(-c4ccc(S(=O)(=O)[O-])cc4)c4nc(c(-c5ccc(S(=O)(=O)[O-])cc5)c5ccc2[nH]5)C=C4)C=C3)cc1
REMARK SMILES IDX 7 1 6 2 5 3 4 4 3 5 2 6 1 7 36 8 37 9 95 10 38 11 94 12
REMARK SMILES IDX 39 13 40 14 41 15 88 16 42 17 93 18 87 19 89 20 43 21 92 22
REMARK SMILES IDX 86 23 85 24 44 26 74 27 55 28 73 29 56 30 59 31 72 32 90 33
REMARK SMILES IDX 57 34 58 35 71 37 91 38 60 39 45 40 46 41 54 42 47 43 53 44
REMARK SMILES IDX 48 45 49 46 50 47 51 48 52 49 75 50 76 51 84 52 77 53 83 54
REMARK SMILES IDX 78 55 79 56 80 57 81 58 82 59 61 60 62 61 70 62 63 63 69 64
REMARK SMILES IDX 64 65 65 66 66 67 67 68 68 69 8 70 9 71 10 72 11 73 12 74
REMARK SMILES IDX 13 75 14 76 15 77 16 78 21 79 17 80 20 81 19 82 18 83 22 84
REMARK SMILES IDX 23 85 24 86 25 87 35 88 26 89 34 90 27 91 28 93 29 94 33 95
REMARK SMILES IDX 30 96 32 97 31 98
REMARK H PARENT 89 25 59 36 27 92
REMARK Flexibility Score: inf
ROOT
ATOM      1  C   UNL A   1      38.878  21.368  25.600  1.00  0.00     0.188 C 
ENDROOT
BRANCH   1   2
ATOM      2  O   UNL A   1      39.333  21.667  26.913  1.00  0.00    -0.376 OA
BRANCH   2   3
ATOM      3  C   UNL A   1      40.334  22.668  27.074  1.00  0.00     0.202 C 
BRANCH   3   4
ATOM      4  C   UNL A   1      39.952  24.095  27.510  1.00  0.00     0.261 C 
BRANCH   4   5
ATOM      5  O   UNL A   1      40.845  25.162  27.143  1.00  0.00    -0.460 OA
BRANCH   5   6
ATOM      6  C   UNL A   1      40.700  26.507  27.137  1.00  0.00     0.338 C 
ATOM      7  O   UNL A   1      40.770  27.087  26.055  1.00  0.00    -0.246 OA
BRANCH   6   8
ATOM      8  C   UNL A   1      40.480  27.312  28.375  1.00  0.00     0.060 A 
ATOM      9  C   UNL A   1      41.111  28.517  28.678  1.00  0.00     0.016 A 
ATOM     10  C   UNL A   1      39.498  26.866  29.261  1.00  0.00     0.016 A 
ATOM     11  C   UNL A   1      40.947  29.166  29.904  1.00  0.00     0.010 A 
ATOM     12  C   UNL A   1      39.240  27.570  30.439  1.00  0.00     0.010 A 
ATOM     13  C   UNL A   1      40.024  28.687  30.816  1.00  0.00    -0.014 A 
BRANCH  13  14
ATOM     14  C   UNL A   1      39.939  29.171  32.222  1.00  0.00     0.031 A 
ATOM     15  C   UNL A   1      39.035  30.358  32.415  1.00  0.00     0.074 A 
ATOM     16  C   UNL A   1      40.582  28.625  33.281  1.00  0.00     0.049 A 
ATOM     17  N   UNL A   1      39.035  31.269  33.341  1.00  0.00    -0.248 NA
ATOM     18  C   UNL A   1      37.974  30.531  31.396  1.00  0.00     0.031 C 
ATOM     19  C   UNL A   1      41.218  27.306  33.343  1.00  0.00     0.029 A 
ATOM     20  N   UNL A   1      40.888  29.172  34.514  1.00  0.00    -0.354 N 
ATOM     21  C   UNL A   1      37.954  32.090  33.040  1.00  0.00     0.074 A 
ATOM     22  C   UNL A   1      37.419  31.670  31.770  1.00  0.00     0.031 C 
ATOM     23  C   UNL A   1      41.949  27.207  34.472  1.00  0.00     0.029 A 
ATOM     24  C   UNL A   1      41.898  28.480  35.173  1.00  0.00     0.049 A 
ATOM     25  H   UNL A   1      40.438  29.966  34.884  1.00  0.00     0.167 HD
ATOM     26  C   UNL A   1      37.407  33.053  33.815  1.00  0.00     0.031 A 
ATOM     27  C   UNL A   1      42.765  28.900  36.128  1.00  0.00     0.031 A 
ATOM     28  C   UNL A   1      37.990  33.420  35.071  1.00  0.00     0.049 A 
ATOM     29  C   UNL A   1      42.494  30.281  36.683  1.00  0.00     0.074 A 
ATOM     30  C   UNL A   1      37.557  34.335  36.007  1.00  0.00     0.029 A 
ATOM     31  N   UNL A   1      39.169  32.864  35.555  1.00  0.00    -0.354 N 
ATOM     32  N   UNL A   1      41.510  31.100  36.378  1.00  0.00    -0.248 NA
ATOM     33  C   UNL A   1      43.398  30.791  37.719  1.00  0.00     0.031 C 
ATOM     34  C   UNL A   1      38.509  34.371  37.033  1.00  0.00     0.029 A 
ATOM     35  C   UNL A   1      39.500  33.433  36.764  1.00  0.00     0.049 A 
ATOM     36  H   UNL A   1      39.691  32.165  35.100  1.00  0.00     0.167 HD
ATOM     37  C   UNL A   1      41.575  32.133  37.303  1.00  0.00     0.074 A 
ATOM     38  C   UNL A   1      42.775  31.905  38.087  1.00  0.00     0.031 C 
ATOM     39  C   UNL A   1      40.673  33.116  37.545  1.00  0.00     0.031 A 
BRANCH  26  40
ATOM     40  C   UNL A   1      36.145  33.704  33.311  1.00  0.00    -0.014 A 
ATOM     41  C   UNL A   1      36.198  34.923  32.603  1.00  0.00     0.010 A 
ATOM     42  C   UNL A   1      34.891  33.146  33.605  1.00  0.00     0.010 A 
ATOM     43  C   UNL A   1      35.026  35.612  32.277  1.00  0.00     0.020 A 
ATOM     44  C   UNL A   1      33.713  33.817  33.250  1.00  0.00     0.020 A 
ATOM     45  C   UNL A   1      33.790  35.060  32.617  1.00  0.00     0.054 A 
BRANCH  45  46
ATOM     46  S   UNL A   1      32.285  35.997  32.225  1.00  0.00     0.124 S 
ATOM     47  O   UNL A   1      32.424  36.198  30.785  1.00  0.00    -0.237 OA
ATOM     48  O   UNL A   1      31.223  35.082  32.631  1.00  0.00    -0.237 OA
ATOM     49  O   UNL A   1      32.409  37.205  33.038  1.00  0.00    -0.744 OA
ENDBRANCH  45  46
ENDBRANCH  26  40
BRANCH  27  50
ATOM     50  C   UNL A   1      44.031  28.146  36.481  1.00  0.00    -0.014 A 
ATOM     51  C   UNL A   1      44.203  27.322  37.602  1.00  0.00     0.010 A 
ATOM     52  C   UNL A   1      45.180  28.369  35.706  1.00  0.00     0.010 A 
ATOM     53  C   UNL A   1      45.477  26.787  37.926  1.00  0.00     0.020 A 
ATOM     54  C   UNL A   1      46.440  27.841  35.992  1.00  0.00     0.020 A 
ATOM     55  C   UNL A   1      46.588  27.050  37.113  1.00  0.00     0.054 A 
BRANCH  55  56
ATOM     56  S   UNL A   1      48.242  26.437  37.547  1.00  0.00     0.124 S 
ATOM     57  O   UNL A   1      49.040  27.659  37.578  1.00  0.00    -0.237 OA
ATOM     58  O   UNL A   1      48.000  25.803  38.840  1.00  0.00    -0.237 OA
ATOM     59  O   UNL A   1      48.567  25.518  36.457  1.00  0.00    -0.744 OA
ENDBRANCH  55  56
ENDBRANCH  27  50
BRANCH  39  60
ATOM     60  C   UNL A   1      40.802  33.839  38.852  1.00  0.00    -0.014 A 
ATOM     61  C   UNL A   1      41.441  35.080  38.975  1.00  0.00     0.010 A 
ATOM     62  C   UNL A   1      40.134  33.279  39.960  1.00  0.00     0.010 A 
ATOM     63  C   UNL A   1      41.400  35.757  40.197  1.00  0.00     0.020 A 
ATOM     64  C   UNL A   1      40.065  33.966  41.167  1.00  0.00     0.020 A 
ATOM     65  C   UNL A   1      40.703  35.201  41.279  1.00  0.00     0.054 A 
BRANCH  65  66
ATOM     66  S   UNL A   1      40.568  36.149  42.816  1.00  0.00     0.124 S 
ATOM     67  O   UNL A   1      39.591  35.368  43.568  1.00  0.00    -0.237 OA
ATOM     68  O   UNL A   1      41.935  36.116  43.331  1.00  0.00    -0.237 OA
ATOM     69  O   UNL A   1      40.109  37.464  42.372  1.00  0.00    -0.744 OA
ENDBRANCH  65  66
ENDBRANCH  39  60
ENDBRANCH  13  14
ENDBRANCH   6   8
ENDBRANCH   5   6
ENDBRANCH   4   5
ENDBRANCH   3   4
ENDBRANCH   2   3
ENDBRANCH   1   2
BRANCH   1  70
ATOM     70  C   UNL A   1      37.570  22.049  25.187  1.00  0.00     0.188 C 
BRANCH  70  71
ATOM     71  O   UNL A   1      36.935  22.920  26.106  1.00  0.00    -0.376 OA
BRANCH  71  72
ATOM     72  C   UNL A   1      35.634  23.384  25.774  1.00  0.00     0.202 C 
BRANCH  72  73
ATOM     73  C   UNL A   1      34.423  22.418  25.729  1.00  0.00     0.261 C 
BRANCH  73  74
ATOM     74  O   UNL A   1      33.237  22.849  25.022  1.00  0.00    -0.463 OA
BRANCH  74  75
ATOM     75  C   UNL A   1      32.830  24.103  25.345  1.00  0.00     0.310 C 
ATOM     76  O   UNL A   1      32.411  24.389  26.469  1.00  0.00    -0.252 OA
BRANCH  75  77
ATOM     77  C   UNL A   1      32.799  25.089  24.171  1.00  0.00     0.115 C 
ATOM     78  C   UNL A   1      31.924  24.429  23.058  1.00  0.00     0.004 C 
ATOM     79  C   UNL A   1      32.130  26.490  24.281  1.00  0.00     0.096 C 
ATOM     80  C   UNL A   1      30.450  24.257  23.513  1.00  0.00     0.005 C 
ATOM     81  C   UNL A   1      31.781  25.566  22.067  1.00  0.00     0.009 C 
ATOM     82  C   UNL A   1      31.123  26.491  23.095  1.00  0.00     0.003 C 
ATOM     83  C   UNL A   1      29.898  25.683  23.502  1.00  0.00     0.005 C 
BRANCH  79  84
ATOM     84  C   UNL A   1      32.981  27.752  24.113  1.00  0.00     0.227 C 
ATOM     85  O   UNL A   1      33.575  27.988  23.065  1.00  0.00    -0.275 OA
ATOM     86  N   UNL A   1      33.153  28.511  25.246  1.00  0.00    -0.331 N 
ATOM     87  C   UNL A   1      32.475  29.777  25.292  1.00  0.00     0.181 C 
ATOM     88  C   UNL A   1      34.422  28.537  25.981  1.00  0.00     0.181 C 
ATOM     89  C   UNL A   1      32.212  30.161  26.735  1.00  0.00     0.284 C 
ATOM     90  C   UNL A   1      34.220  28.995  27.446  1.00  0.00     0.284 C 
ATOM     91  N   UNL A   1      33.381  30.183  27.620  1.00  0.00    -0.330 N 
ATOM     92  H   UNL A   1      33.041  30.085  28.577  1.00  0.00     0.348 HD
BRANCH  91  93
ATOM     93  C   UNL A   1      34.036  31.493  27.771  1.00  0.00     0.184 C 
ATOM     94  C   UNL A   1      32.952  32.589  27.838  1.00  0.00     0.065 C 
ATOM     95  C   UNL A   1      35.087  31.604  28.882  1.00  0.00     0.065 C 
ATOM     96  C   UNL A   1      33.545  33.983  27.998  1.00  0.00     0.006 C 
ATOM     97  C   UNL A   1      35.622  33.030  29.019  1.00  0.00     0.006 C 
ATOM     98  C   UNL A   1      34.487  34.031  29.193  1.00  0.00     0.000 C 
ENDBRANCH  91  93
ENDBRANCH  79  84
ENDBRANCH  75  77
ENDBRANCH  74  75
ENDBRANCH  73  74
ENDBRANCH  72  73
ENDBRANCH  71  72
ENDBRANCH  70  71
ENDBRANCH   1  70
TORSDOF 22
ENDMDL
MODEL 2
REMARK VINA RESULT:      -9.7      3.806      8.151
REMARK SMILES O=C(OCCOCCOCCOC(=O)[C@H]1[C@H]2CC[C@H](C2)[C@@H]1C(=O)N1CC[NH+](C2CCCCC2)CC1)c1ccc(-c2c3nc(c(-c4ccc(S(=O)(=O)[O-])cc4)c4ccc([nH]4)c(-c4ccc(S(=O)(=O)[O-])cc4)c4nc(c(-c5ccc(S(=O)(=O)[O-])cc5)c5ccc2[nH]5)C=C4)C=C3)cc1
REMARK SMILES IDX 7 1 6 2 5 3 4 4 3 5 2 6 1 7 36 8 37 9 95 10 38 11 94 12
REMARK SMILES IDX 39 13 40 14 41 15 88 16 42 17 93 18 87 19 89 20 43 21 92 22
REMARK SMILES IDX 86 23 85 24 44 26 74 27 55 28 73 29 56 30 59 31 72 32 90 33
REMARK SMILES IDX 57 34 58 35 71 37 91 38 60 39 45 40 46 41 54 42 47 43 53 44
REMARK SMILES IDX 48 45 49 46 50 47 51 48 52 49 75 50 76 51 84 52 77 53 83 54
REMARK SMILES IDX 78 55 79 56 80 57 81 58 82 59 61 60 62 61 70 62 63 63 69 64
REMARK SMILES IDX 64 65 65 66 66 67 67 68 68 69 8 70 9 71 10 72 11 73 12 74
REMARK SMILES IDX 13 75 14 76 15 77 16 78 21 79 17 80 20 81 19 82 18 83 22 84
REMARK SMILES IDX 23 85 24 86 25 87 35 88 26 89 34 90 27 91 28 93 29 94 33 95
REMARK SMILES IDX 30 96 32 97 31 98
REMARK H PARENT 89 25 59 36 27 92
REMARK Flexibility Score: inf
ROOT
ATOM      1  C   UNL A   1      34.473  31.350  28.049  1.00  0.00     0.188 C 
ENDROOT
BRANCH   1   2
ATOM      2  O   UNL A   1      34.444  32.712  27.642  1.00  0.00    -0.376 OA
BRANCH   2   3
ATOM      3  C   UNL A   1      33.207  33.416  27.711  1.00  0.00     0.202 C 
BRANCH   3   4
ATOM      4  C   UNL A   1      33.150  34.843  28.288  1.00  0.00     0.261 C 
BRANCH   4   5
ATOM      5  O   UNL A   1      32.504  35.019  29.561  1.00  0.00    -0.460 OA
BRANCH   5   6
ATOM      6  C   UNL A   1      32.908  35.603  30.712  1.00  0.00     0.338 C 
ATOM      7  O   UNL A   1      32.311  36.611  31.085  1.00  0.00    -0.246 OA
BRANCH   6   8
ATOM      8  C   UNL A   1      34.048  35.095  31.531  1.00  0.00     0.060 A 
ATOM      9  C   UNL A   1      34.718  35.814  32.519  1.00  0.00     0.016 A 
ATOM     10  C   UNL A   1      34.417  33.761  31.353  1.00  0.00     0.016 A 
ATOM     11  C   UNL A   1      35.851  35.323  33.173  1.00  0.00     0.010 A 
ATOM     12  C   UNL A   1      35.477  33.219  32.085  1.00  0.00     0.010 A 
ATOM     13  C   UNL A   1      36.262  34.022  32.947  1.00  0.00    -0.014 A 
BRANCH  13  14
ATOM     14  C   UNL A   1      37.570  33.487  33.418  1.00  0.00     0.031 A 
ATOM     15  C   UNL A   1      37.735  33.481  34.913  1.00  0.00     0.074 A 
ATOM     16  C   UNL A   1      38.559  33.016  32.622  1.00  0.00     0.049 A 
ATOM     17  N   UNL A   1      38.813  33.497  35.637  1.00  0.00    -0.248 NA
ATOM     18  C   UNL A   1      36.479  33.457  35.699  1.00  0.00     0.031 C 
ATOM     19  C   UNL A   1      38.453  32.642  31.209  1.00  0.00     0.029 A 
ATOM     20  N   UNL A   1      39.908  32.856  32.881  1.00  0.00    -0.354 N 
ATOM     21  C   UNL A   1      38.366  33.439  36.953  1.00  0.00     0.074 A 
ATOM     22  C   UNL A   1      36.930  33.547  36.937  1.00  0.00     0.031 C 
ATOM     23  C   UNL A   1      39.684  32.441  30.698  1.00  0.00     0.029 A 
ATOM     24  C   UNL A   1      40.669  32.749  31.722  1.00  0.00     0.049 A 
ATOM     25  H   UNL A   1      40.288  32.821  33.789  1.00  0.00     0.167 HD
ATOM     26  C   UNL A   1      39.101  33.221  38.066  1.00  0.00     0.031 A 
ATOM     27  C   UNL A   1      41.982  33.019  31.511  1.00  0.00     0.031 A 
ATOM     28  C   UNL A   1      40.529  33.121  38.010  1.00  0.00     0.049 A 
ATOM     29  C   UNL A   1      42.785  33.327  32.755  1.00  0.00     0.074 A 
ATOM     30  C   UNL A   1      41.432  32.861  39.018  1.00  0.00     0.029 A 
ATOM     31  N   UNL A   1      41.259  33.291  36.838  1.00  0.00    -0.354 N 
ATOM     32  N   UNL A   1      42.375  33.332  34.006  1.00  0.00    -0.248 NA
ATOM     33  C   UNL A   1      44.211  33.628  32.591  1.00  0.00     0.031 C 
ATOM     34  C   UNL A   1      42.716  32.930  38.461  1.00  0.00     0.029 A 
ATOM     35  C   UNL A   1      42.606  33.171  37.097  1.00  0.00     0.049 A 
ATOM     36  H   UNL A   1      40.869  33.470  35.952  1.00  0.00     0.167 HD
ATOM     37  C   UNL A   1      43.521  33.457  34.779  1.00  0.00     0.074 A 
ATOM     38  C   UNL A   1      44.619  33.665  33.855  1.00  0.00     0.031 C 
ATOM     39  C   UNL A   1      43.662  33.313  36.121  1.00  0.00     0.031 A 
BRANCH  26  40
ATOM     40  C   UNL A   1      38.351  33.062  39.363  1.00  0.00    -0.014 A 
ATOM     41  C   UNL A   1      37.667  31.863  39.656  1.00  0.00     0.010 A 
ATOM     42  C   UNL A   1      38.256  34.132  40.266  1.00  0.00     0.010 A 
ATOM     43  C   UNL A   1      36.838  31.769  40.777  1.00  0.00     0.020 A 
ATOM     44  C   UNL A   1      37.453  34.031  41.409  1.00  0.00     0.020 A 
ATOM     45  C   UNL A   1      36.724  32.861  41.639  1.00  0.00     0.054 A 
BRANCH  45  46
ATOM     46  S   UNL A   1      35.603  32.730  43.061  1.00  0.00     0.124 S 
ATOM     47  O   UNL A   1      34.462  32.027  42.479  1.00  0.00    -0.237 OA
ATOM     48  O   UNL A   1      36.390  31.959  44.019  1.00  0.00    -0.237 OA
ATOM     49  O   UNL A   1      35.355  34.119  43.435  1.00  0.00    -0.744 OA
ENDBRANCH  45  46
ENDBRANCH  26  40
BRANCH  27  50
ATOM     50  C   UNL A   1      42.573  33.203  30.128  1.00  0.00    -0.014 A 
ATOM     51  C   UNL A   1      43.295  32.235  29.415  1.00  0.00     0.010 A 
ATOM     52  C   UNL A   1      42.514  34.476  29.539  1.00  0.00     0.010 A 
ATOM     53  C   UNL A   1      43.941  32.560  28.194  1.00  0.00     0.020 A 
ATOM     54  C   UNL A   1      43.126  34.817  28.332  1.00  0.00     0.020 A 
ATOM     55  C   UNL A   1      43.848  33.852  27.659  1.00  0.00     0.054 A 
BRANCH  55  56
ATOM     56  S   UNL A   1      44.727  34.310  26.137  1.00  0.00     0.124 S 
ATOM     57  O   UNL A   1      43.646  34.417  25.162  1.00  0.00    -0.237 OA
ATOM     58  O   UNL A   1      45.364  35.566  26.521  1.00  0.00    -0.237 OA
ATOM     59  O   UNL A   1      45.644  33.191  25.918  1.00  0.00    -0.744 OA
ENDBRANCH  55  56
ENDBRANCH  27  50
BRANCH  39  60
ATOM     60  C   UNL A   1      45.055  33.100  36.632  1.00  0.00    -0.014 A 
ATOM     61  C   UNL A   1      45.836  34.133  37.163  1.00  0.00     0.010 A 
ATOM     62  C   UNL A   1      45.522  31.770  36.677  1.00  0.00     0.010 A 
ATOM     63  C   UNL A   1      47.070  33.833  37.746  1.00  0.00     0.020 A 
ATOM     64  C   UNL A   1      46.734  31.466  37.285  1.00  0.00     0.020 A 
ATOM     65  C   UNL A   1      47.504  32.502  37.813  1.00  0.00     0.054 A 
BRANCH  65  66
ATOM     66  S   UNL A   1      49.053  32.126  38.674  1.00  0.00     0.124 S 
ATOM     67  O   UNL A   1      48.617  32.060  40.065  1.00  0.00    -0.237 OA
ATOM     68  O   UNL A   1      49.449  30.853  38.075  1.00  0.00    -0.237 OA
ATOM     69  O   UNL A   1      49.916  33.257  38.342  1.00  0.00    -0.744 OA
ENDBRANCH  65  66
ENDBRANCH  39  60
ENDBRANCH  13  14
ENDBRANCH   6   8
ENDBRANCH   5   6
ENDBRANCH   4   5
ENDBRANCH   3   4
ENDBRANCH   2   3
ENDBRANCH   1   2
BRANCH   1  70
ATOM     70  C   UNL A   1      33.461  30.435  27.353  1.00  0.00     0.188 C 
BRANCH  70  71
ATOM     71  O   UNL A   1      33.877  29.696  26.219  1.00  0.00    -0.376 OA
BRANCH  71  72
ATOM     72  C   UNL A   1      34.280  28.350  26.428  1.00  0.00     0.202 C 
BRANCH  72  73
ATOM     73  C   UNL A   1      34.052  27.265  25.345  1.00  0.00     0.261 C 
BRANCH  73  74
ATOM     74  O   UNL A   1      34.435  25.905  25.655  1.00  0.00    -0.463 OA
BRANCH  74  75
ATOM     75  C   UNL A   1      34.047  24.999  24.724  1.00  0.00     0.310 C 
ATOM     76  O   UNL A   1      34.743  24.721  23.745  1.00  0.00    -0.252 OA
BRANCH  75  77
ATOM     77  C   UNL A   1      32.622  24.460  24.911  1.00  0.00     0.115 C 
ATOM     78  C   UNL A   1      32.742  22.905  24.995  1.00  0.00     0.004 C 
ATOM     79  C   UNL A   1      31.782  24.761  26.186  1.00  0.00     0.096 C 
ATOM     80  C   UNL A   1      33.539  22.457  26.250  1.00  0.00     0.005 C 
ATOM     81  C   UNL A   1      31.336  22.512  25.400  1.00  0.00     0.009 C 
ATOM     82  C   UNL A   1      31.384  23.342  26.686  1.00  0.00     0.003 C 
ATOM     83  C   UNL A   1      32.578  22.732  27.407  1.00  0.00     0.005 C 
BRANCH  79  84
ATOM     84  C   UNL A   1      30.474  25.548  26.064  1.00  0.00     0.227 C 
ATOM     85  O   UNL A   1      29.478  25.238  26.711  1.00  0.00    -0.275 OA
ATOM     86  N   UNL A   1      30.448  26.514  25.085  1.00  0.00    -0.331 N 
ATOM     87  C   UNL A   1      30.457  27.883  25.520  1.00  0.00     0.181 C 
ATOM     88  C   UNL A   1      29.702  26.335  23.835  1.00  0.00     0.181 C 
ATOM     89  C   UNL A   1      31.069  28.755  24.441  1.00  0.00     0.284 C 
ATOM     90  C   UNL A   1      30.241  27.259  22.716  1.00  0.00     0.284 C 
ATOM     91  N   UNL A   1      30.464  28.653  23.109  1.00  0.00    -0.330 N 
ATOM     92  H   UNL A   1      31.160  28.973  22.434  1.00  0.00     0.348 HD
BRANCH  91  93
ATOM     93  C   UNL A   1      29.420  29.646  22.810  1.00  0.00     0.184 C 
ATOM     94  C   UNL A   1      29.522  30.800  23.831  1.00  0.00     0.065 C 
ATOM     95  C   UNL A   1      29.330  30.122  21.356  1.00  0.00     0.065 C 
ATOM     96  C   UNL A   1      28.474  31.880  23.591  1.00  0.00     0.006 C 
ATOM     97  C   UNL A   1      28.287  31.227  21.182  1.00  0.00     0.006 C 
ATOM     98  C   UNL A   1      28.532  32.375  22.153  1.00  0.00     0.000 C 
ENDBRANCH  91  93
ENDBRANCH  79  84
ENDBRANCH  75  77
ENDBRANCH  74  75
ENDBRANCH  73  74
ENDBRANCH  72  73
ENDBRANCH  71  72
ENDBRANCH  70  71
ENDBRANCH   1  70
TORSDOF 22
ENDMDL
MODEL 3
REMARK VINA RESULT:      -9.4      7.266      9.154
REMARK SMILES O=C(OCCOCCOCCOC(=O)[C@H]1[C@H]2CC[C@H](C2)[C@@H]1C(=O)N1CC[NH+](C2CCCCC2)CC1)c1ccc(-c2c3nc(c(-c4ccc(S(=O)(=O)[O-])cc4)c4ccc([nH]4)c(-c4ccc(S(=O)(=O)[O-])cc4)c4nc(c(-c5ccc(S(=O)(=O)[O-])cc5)c5ccc2[nH]5)C=C4)C=C3)cc1
REMARK SMILES IDX 7 1 6 2 5 3 4 4 3 5 2 6 1 7 36 8 37 9 95 10 38 11 94 12
REMARK SMILES IDX 39 13 40 14 41 15 88 16 42 17 93 18 87 19 89 20 43 21 92 22
REMARK SMILES IDX 86 23 85 24 44 26 74 27 55 28 73 29 56 30 59 31 72 32 90 33
REMARK SMILES IDX 57 34 58 35 71 37 91 38 60 39 45 40 46 41 54 42 47 43 53 44
REMARK SMILES IDX 48 45 49 46 50 47 51 48 52 49 75 50 76 51 84 52 77 53 83 54
REMARK SMILES IDX 78 55 79 56 80 57 81 58 82 59 61 60 62 61 70 62 63 63 69 64
REMARK SMILES IDX 64 65 65 66 66 67 67 68 68 69 8 70 9 71 10 72 11 73 12 74
REMARK SMILES IDX 13 75 14 76 15 77 16 78 21 79 17 80 20 81 19 82 18 83 22 84
REMARK SMILES IDX 23 85 24 86 25 87 35 88 26 89 34 90 27 91 28 93 29 94 33 95
REMARK SMILES IDX 30 96 32 97 31 98
REMARK H PARENT 89 25 59 36 27 92
REMARK Flexibility Score: inf
ROOT
ATOM      1  C   UNL A   1      41.486  21.860  25.780  1.00  0.00     0.188 C 
ENDROOT
BRANCH   1   2
ATOM      2  O   UNL A   1      42.627  21.094  26.145  1.00  0.00    -0.376 OA
BRANCH   2   3
ATOM      3  C   UNL A   1      43.911  21.539  25.715  1.00  0.00     0.202 C 
BRANCH   3   4
ATOM      4  C   UNL A   1      44.122  22.993  25.256  1.00  0.00     0.261 C 
BRANCH   4   5
ATOM      5  O   UNL A   1      45.293  23.677  25.737  1.00  0.00    -0.460 OA
BRANCH   5   6
ATOM      6  C   UNL A   1      46.085  24.623  25.181  1.00  0.00     0.338 C 
ATOM      7  O   UNL A   1      46.633  24.358  24.113  1.00  0.00    -0.246 OA
BRANCH   6   8
ATOM      8  C   UNL A   1      46.337  25.952  25.812  1.00  0.00     0.060 A 
ATOM      9  C   UNL A   1      47.179  26.186  26.898  1.00  0.00     0.016 A 
ATOM     10  C   UNL A   1      45.748  27.066  25.211  1.00  0.00     0.016 A 
ATOM     11  C   UNL A   1      47.286  27.434  27.514  1.00  0.00     0.010 A 
ATOM     12  C   UNL A   1      45.941  28.341  25.749  1.00  0.00     0.010 A 
ATOM     13  C   UNL A   1      46.647  28.529  26.961  1.00  0.00    -0.014 A 
BRANCH  13  14
ATOM     14  C   UNL A   1      46.519  29.838  27.660  1.00  0.00     0.031 A 
ATOM     15  C   UNL A   1      45.184  30.061  28.317  1.00  0.00     0.074 A 
ATOM     16  C   UNL A   1      47.487  30.781  27.747  1.00  0.00     0.049 A 
ATOM     17  N   UNL A   1      44.577  31.167  28.628  1.00  0.00    -0.248 NA
ATOM     18  C   UNL A   1      44.427  28.837  28.669  1.00  0.00     0.031 C 
ATOM     19  C   UNL A   1      48.915  30.609  27.468  1.00  0.00     0.029 A 
ATOM     20  N   UNL A   1      47.388  32.134  28.017  1.00  0.00    -0.354 N 
ATOM     21  C   UNL A   1      43.397  30.770  29.248  1.00  0.00     0.074 A 
ATOM     22  C   UNL A   1      43.296  29.338  29.131  1.00  0.00     0.031 C 
ATOM     23  C   UNL A   1      49.521  31.813  27.439  1.00  0.00     0.029 A 
ATOM     24  C   UNL A   1      48.513  32.846  27.616  1.00  0.00     0.049 A 
ATOM     25  H   UNL A   1      46.604  32.548  28.447  1.00  0.00     0.167 HD
ATOM     26  C   UNL A   1      42.526  31.542  29.936  1.00  0.00     0.031 A 
ATOM     27  C   UNL A   1      48.649  34.156  27.293  1.00  0.00     0.031 A 
ATOM     28  C   UNL A   1      42.688  32.963  30.015  1.00  0.00     0.049 A 
ATOM     29  C   UNL A   1      47.434  35.016  27.564  1.00  0.00     0.074 A 
ATOM     30  C   UNL A   1      41.938  33.897  30.696  1.00  0.00     0.029 A 
ATOM     31  N   UNL A   1      43.704  33.651  29.359  1.00  0.00    -0.354 N 
ATOM     32  N   UNL A   1      46.287  34.656  28.100  1.00  0.00    -0.248 NA
ATOM     33  C   UNL A   1      47.519  36.443  27.235  1.00  0.00     0.031 C 
ATOM     34  C   UNL A   1      42.470  35.159  30.403  1.00  0.00     0.029 A 
ATOM     35  C   UNL A   1      43.587  35.003  29.592  1.00  0.00     0.049 A 
ATOM     36  H   UNL A   1      44.404  33.232  28.808  1.00  0.00     0.167 HD
ATOM     37  C   UNL A   1      45.592  35.834  28.334  1.00  0.00     0.074 A 
ATOM     38  C   UNL A   1      46.386  36.901  27.756  1.00  0.00     0.031 C 
ATOM     39  C   UNL A   1      44.454  36.023  29.049  1.00  0.00     0.031 A 
BRANCH  26  40
ATOM     40  C   UNL A   1      41.392  30.838  30.636  1.00  0.00    -0.014 A 
ATOM     41  C   UNL A   1      40.181  30.578  29.960  1.00  0.00     0.010 A 
ATOM     42  C   UNL A   1      41.495  30.499  31.994  1.00  0.00     0.010 A 
ATOM     43  C   UNL A   1      39.073  30.075  30.647  1.00  0.00     0.020 A 
ATOM     44  C   UNL A   1      40.398  29.963  32.679  1.00  0.00     0.020 A 
ATOM     45  C   UNL A   1      39.185  29.784  32.008  1.00  0.00     0.054 A 
BRANCH  45  46
ATOM     46  S   UNL A   1      37.717  29.178  32.888  1.00  0.00     0.124 S 
ATOM     47  O   UNL A   1      37.946  29.687  34.239  1.00  0.00    -0.237 OA
ATOM     48  O   UNL A   1      36.622  29.811  32.159  1.00  0.00    -0.237 OA
ATOM     49  O   UNL A   1      37.803  27.728  32.746  1.00  0.00    -0.744 OA
ENDBRANCH  45  46
ENDBRANCH  26  40
BRANCH  27  50
ATOM     50  C   UNL A   1      49.841  34.699  26.532  1.00  0.00    -0.014 A 
ATOM     51  C   UNL A   1      50.005  34.662  25.140  1.00  0.00     0.010 A 
ATOM     52  C   UNL A   1      50.942  35.174  27.263  1.00  0.00     0.010 A 
ATOM     53  C   UNL A   1      51.229  35.054  24.539  1.00  0.00     0.020 A 
ATOM     54  C   UNL A   1      52.149  35.582  26.696  1.00  0.00     0.020 A 
ATOM     55  C   UNL A   1      52.294  35.516  25.324  1.00  0.00     0.054 A 
BRANCH  55  56
ATOM     56  S   UNL A   1      53.893  35.954  24.584  1.00  0.00     0.124 S 
ATOM     57  O   UNL A   1      53.894  37.412  24.660  1.00  0.00    -0.237 OA
ATOM     58  O   UNL A   1      54.833  35.270  25.467  1.00  0.00    -0.237 OA
ATOM     59  O   UNL A   1      53.807  35.410  23.229  1.00  0.00    -0.744 OA
ENDBRANCH  55  56
ENDBRANCH  27  50
BRANCH  39  60
ATOM     60  C   UNL A   1      44.154  37.428  29.476  1.00  0.00    -0.014 A 
ATOM     61  C   UNL A   1      43.331  38.288  28.738  1.00  0.00     0.010 A 
ATOM     62  C   UNL A   1      44.636  37.829  30.739  1.00  0.00     0.010 A 
ATOM     63  C   UNL A   1      42.986  39.534  29.268  1.00  0.00     0.020 A 
ATOM     64  C   UNL A   1      44.268  39.054  31.282  1.00  0.00     0.020 A 
ATOM     65  C   UNL A   1      43.446  39.902  30.540  1.00  0.00     0.054 A 
BRANCH  65  66
ATOM     66  S   UNL A   1      42.893  41.473  31.253  1.00  0.00     0.124 S 
ATOM     67  O   UNL A   1      41.445  41.295  31.289  1.00  0.00    -0.237 OA
ATOM     68  O   UNL A   1      43.561  41.486  32.552  1.00  0.00    -0.237 OA
ATOM     69  O   UNL A   1      43.376  42.473  30.302  1.00  0.00    -0.744 OA
ENDBRANCH  65  66
ENDBRANCH  39  60
ENDBRANCH  13  14
ENDBRANCH   6   8
ENDBRANCH   5   6
ENDBRANCH   4   5
ENDBRANCH   3   4
ENDBRANCH   2   3
ENDBRANCH   1   2
BRANCH   1  70
ATOM     70  C   UNL A   1      40.353  21.882  26.810  1.00  0.00     0.188 C 
BRANCH  70  71
ATOM     71  O   UNL A   1      39.019  21.722  26.361  1.00  0.00    -0.376 OA
BRANCH  71  72
ATOM     72  C   UNL A   1      38.246  22.900  26.179  1.00  0.00     0.202 C 
BRANCH  72  73
ATOM     73  C   UNL A   1      37.378  23.103  24.911  1.00  0.00     0.261 C 
BRANCH  73  74
ATOM     74  O   UNL A   1      36.049  23.650  25.079  1.00  0.00    -0.463 OA
BRANCH  74  75
ATOM     75  C   UNL A   1      35.220  23.409  24.032  1.00  0.00     0.310 C 
ATOM     76  O   UNL A   1      35.590  23.519  22.861  1.00  0.00    -0.252 OA
BRANCH  75  77
ATOM     77  C   UNL A   1      33.763  23.132  24.421  1.00  0.00     0.115 C 
ATOM     78  C   UNL A   1      33.437  21.686  23.924  1.00  0.00     0.004 C 
ATOM     79  C   UNL A   1      33.302  23.045  25.905  1.00  0.00     0.096 C 
ATOM     80  C   UNL A   1      34.289  20.620  24.663  1.00  0.00     0.005 C 
ATOM     81  C   UNL A   1      32.079  21.447  24.553  1.00  0.00     0.009 C 
ATOM     82  C   UNL A   1      32.608  21.654  25.976  1.00  0.00     0.003 C 
ATOM     83  C   UNL A   1      33.686  20.581  26.067  1.00  0.00     0.005 C 
BRANCH  79  84
ATOM     84  C   UNL A   1      32.282  24.053  26.442  1.00  0.00     0.227 C 
ATOM     85  O   UNL A   1      31.856  23.981  27.591  1.00  0.00    -0.275 OA
ATOM     86  N   UNL A   1      31.773  24.936  25.520  1.00  0.00    -0.331 N 
ATOM     87  C   UNL A   1      32.192  26.306  25.629  1.00  0.00     0.181 C 
ATOM     88  C   UNL A   1      30.409  24.815  24.996  1.00  0.00     0.181 C 
ATOM     89  C   UNL A   1      32.115  26.971  24.268  1.00  0.00     0.284 C 
ATOM     90  C   UNL A   1      30.256  25.542  23.638  1.00  0.00     0.284 C 
ATOM     91  N   UNL A   1      30.821  26.892  23.584  1.00  0.00    -0.330 N 
ATOM     92  H   UNL A   1      30.994  27.028  22.588  1.00  0.00     0.348 HD
BRANCH  91  93
ATOM     93  C   UNL A   1      29.924  28.041  23.792  1.00  0.00     0.184 C 
ATOM     94  C   UNL A   1      30.750  29.342  23.703  1.00  0.00     0.065 C 
ATOM     95  C   UNL A   1      28.646  28.069  22.946  1.00  0.00     0.065 C 
ATOM     96  C   UNL A   1      29.895  30.587  23.905  1.00  0.00     0.006 C 
ATOM     97  C   UNL A   1      27.846  29.354  23.164  1.00  0.00     0.006 C 
ATOM     98  C   UNL A   1      28.713  30.587  22.945  1.00  0.00     0.000 C 
ENDBRANCH  91  93
ENDBRANCH  79  84
ENDBRANCH  75  77
ENDBRANCH  74  75
ENDBRANCH  73  74
ENDBRANCH  72  73
ENDBRANCH  71  72
ENDBRANCH  70  71
ENDBRANCH   1  70
TORSDOF 22
ENDMDL
