MODEL 1
REMARK VINA RESULT:     -10.3      0.000      0.000
REMARK SMILES Cc1nsc(NC(=O)[C@]2([NH3+])CCC[C@@H](C)C2)c1C(=O)OCCOCCOCCOC(=O)c1ccc(-c2c3nc(c(-c4ccc(S(=O)(=O)[O-])cc4)c4ccc([nH]4)c(-c4ccc(S(=O)(=O)[O-])cc4)c4nc(c(-c5ccc(S(=O)(=O)[O-])cc5)c5ccc2[nH]5)C=C4)C=C3)cc1
REMARK SMILES IDX 24 1 23 2 22 3 21 4 20 5 18 6 19 7 17 8 1 9 2 10 3 11 4 12
REMARK SMILES IDX 5 13 6 14 7 15 8 17 9 18 11 19 16 20 12 21 14 22 13 23 15 24
REMARK SMILES IDX 10 25 25 29 26 30 27 31 28 32 29 33 30 34 31 35 32 36 33 37
REMARK SMILES IDX 91 38 34 39 90 40 35 41 36 42 37 43 84 44 38 45 89 46 83 47
REMARK SMILES IDX 85 48 39 49 88 50 82 51 81 52 40 54 70 55 51 56 69 57 52 58
REMARK SMILES IDX 55 59 68 60 86 61 53 62 54 63 67 65 87 66 56 67 41 68 42 69
REMARK SMILES IDX 50 70 43 71 49 72 44 73 45 74 46 75 47 76 48 77 71 78 72 79
REMARK SMILES IDX 80 80 73 81 79 82 74 83 75 84 76 85 77 86 78 87 57 88 58 89
REMARK SMILES IDX 66 90 59 91 65 92 60 93 61 94 62 95 63 96 64 97
REMARK H PARENT 6 16 10 26 10 27 10 28 85 53 55 64
REMARK Flexibility Score: inf
ROOT
ATOM      1  C   UNL A   1      39.324  22.942  26.881  1.00  0.00     0.188 C 
ENDROOT
BRANCH   1   2
ATOM      2  O   UNL A   1      38.696  23.891  26.030  1.00  0.00    -0.376 OA
BRANCH   2   3
ATOM      3  C   UNL A   1      37.292  24.090  26.113  1.00  0.00     0.202 C 
BRANCH   3   4
ATOM      4  C   UNL A   1      36.359  22.862  26.097  1.00  0.00     0.261 C 
BRANCH   4   5
ATOM      5  O   UNL A   1      36.437  22.049  24.910  1.00  0.00    -0.460 OA
BRANCH   5   6
ATOM      6  C   UNL A   1      35.883  22.552  23.772  1.00  0.00     0.343 C 
ATOM      7  O   UNL A   1      36.523  22.954  22.802  1.00  0.00    -0.246 OA
BRANCH   6   8
ATOM      8  C   UNL A   1      34.447  22.328  23.720  1.00  0.00     0.117 A 
ATOM      9  C   UNL A   1      34.261  20.022  24.971  1.00  0.00     0.069 C 
ATOM     10  C   UNL A   1      33.717  21.174  24.203  1.00  0.00     0.068 A 
ATOM     11  N   UNL A   1      32.436  21.107  23.843  1.00  0.00    -0.195 NA
ATOM     12  S   UNL A   1      32.113  22.345  22.814  1.00  0.00    -0.017 S 
ATOM     13  C   UNL A   1      33.584  23.176  23.029  1.00  0.00     0.131 A 
BRANCH  13  14
ATOM     14  N   UNL A   1      33.885  24.373  22.395  1.00  0.00    -0.310 N 
ATOM     15  C   UNL A   1      33.344  25.632  22.440  1.00  0.00     0.286 C 
ATOM     16  H   UNL A   1      34.652  24.302  21.782  1.00  0.00     0.171 HD
ATOM     17  O   UNL A   1      33.737  26.425  21.575  1.00  0.00    -0.267 OA
BRANCH  15  18
ATOM     18  C   UNL A   1      32.324  26.091  23.529  1.00  0.00     0.174 C 
ATOM     19  C   UNL A   1      32.343  27.637  23.692  1.00  0.00     0.079 C 
ATOM     20  C   UNL A   1      32.747  25.524  24.908  1.00  0.00     0.082 C 
ATOM     21  C   UNL A   1      31.444  28.119  24.843  1.00  0.00     0.007 C 
ATOM     22  C   UNL A   1      31.861  25.921  26.088  1.00  0.00    -0.008 C 
ATOM     23  C   UNL A   1      31.770  27.444  26.177  1.00  0.00     0.004 C 
ATOM     24  C   UNL A   1      30.493  25.236  26.066  1.00  0.00     0.008 C 
BRANCH  18  25
ATOM     25  N   UNL A   1      30.963  25.775  23.052  1.00  0.00    -0.345 N 
ATOM     26  H   UNL A   1      30.981  24.900  22.527  1.00  0.00     0.345 HD
ATOM     27  H   UNL A   1      30.631  26.527  22.449  1.00  0.00     0.345 HD
ATOM     28  H   UNL A   1      30.337  25.679  23.852  1.00  0.00     0.345 HD
ENDBRANCH  18  25
ENDBRANCH  15  18
ENDBRANCH  13  14
ENDBRANCH   6   8
ENDBRANCH   5   6
ENDBRANCH   4   5
ENDBRANCH   3   4
ENDBRANCH   2   3
ENDBRANCH   1   2
BRANCH   1  29
ATOM     29  C   UNL A   1      39.700  21.538  26.356  1.00  0.00     0.188 C 
BRANCH  29  30
ATOM     30  O   UNL A   1      40.369  20.708  27.288  1.00  0.00    -0.376 OA
BRANCH  30  31
ATOM     31  C   UNL A   1      41.564  20.078  26.848  1.00  0.00     0.202 C 
BRANCH  31  32
ATOM     32  C   UNL A   1      42.767  20.991  26.613  1.00  0.00     0.261 C 
BRANCH  32  33
ATOM     33  O   UNL A   1      43.072  21.193  25.244  1.00  0.00    -0.460 OA
BRANCH  33  34
ATOM     34  C   UNL A   1      44.366  21.037  24.903  1.00  0.00     0.338 C 
ATOM     35  O   UNL A   1      44.951  19.987  24.709  1.00  0.00    -0.246 OA
BRANCH  34  36
ATOM     36  C   UNL A   1      44.970  22.373  24.807  1.00  0.00     0.060 A 
ATOM     37  C   UNL A   1      46.114  22.592  25.575  1.00  0.00     0.016 A 
ATOM     38  C   UNL A   1      44.166  23.416  24.329  1.00  0.00     0.016 A 
ATOM     39  C   UNL A   1      46.228  23.813  26.191  1.00  0.00     0.010 A 
ATOM     40  C   UNL A   1      44.249  24.614  24.977  1.00  0.00     0.010 A 
ATOM     41  C   UNL A   1      45.195  24.731  25.992  1.00  0.00    -0.014 A 
BRANCH  41  42
ATOM     42  C   UNL A   1      45.007  25.752  26.991  1.00  0.00     0.031 A 
ATOM     43  C   UNL A   1      46.022  26.811  26.959  1.00  0.00     0.074 A 
ATOM     44  C   UNL A   1      43.905  25.752  27.765  1.00  0.00     0.049 A 
ATOM     45  N   UNL A   1      46.969  27.020  27.808  1.00  0.00    -0.248 NA
ATOM     46  C   UNL A   1      46.112  27.612  25.730  1.00  0.00     0.031 C 
ATOM     47  C   UNL A   1      42.694  24.934  27.619  1.00  0.00     0.029 A 
ATOM     48  N   UNL A   1      43.580  26.604  28.765  1.00  0.00    -0.354 N 
ATOM     49  C   UNL A   1      47.659  28.118  27.313  1.00  0.00     0.074 A 
ATOM     50  C   UNL A   1      47.252  28.265  25.940  1.00  0.00     0.031 C 
ATOM     51  C   UNL A   1      41.691  25.513  28.318  1.00  0.00     0.029 A 
ATOM     52  C   UNL A   1      42.222  26.659  29.041  1.00  0.00     0.049 A 
ATOM     53  H   UNL A   1      44.249  27.137  29.254  1.00  0.00     0.167 HD
ATOM     54  C   UNL A   1      48.295  28.998  28.133  1.00  0.00     0.031 A 
ATOM     55  C   UNL A   1      41.589  27.662  29.701  1.00  0.00     0.031 A 
ATOM     56  C   UNL A   1      48.404  28.491  29.476  1.00  0.00     0.049 A 
ATOM     57  C   UNL A   1      42.634  28.429  30.438  1.00  0.00     0.074 A 
ATOM     58  C   UNL A   1      49.013  27.395  30.051  1.00  0.00     0.029 A 
ATOM     59  N   UNL A   1      47.481  28.947  30.391  1.00  0.00    -0.354 N 
ATOM     60  N   UNL A   1      43.332  27.934  31.424  1.00  0.00    -0.248 NA
ATOM     61  C   UNL A   1      43.238  29.577  29.775  1.00  0.00     0.031 C 
ATOM     62  C   UNL A   1      48.126  26.979  31.085  1.00  0.00     0.029 A 
ATOM     63  C   UNL A   1      47.051  27.870  31.122  1.00  0.00     0.049 A 
ATOM     64  H   UNL A   1      47.184  29.879  30.500  1.00  0.00     0.167 HD
ATOM     65  C   UNL A   1      44.619  28.426  31.243  1.00  0.00     0.074 A 
ATOM     66  C   UNL A   1      44.477  29.506  30.270  1.00  0.00     0.031 C 
ATOM     67  C   UNL A   1      45.715  27.731  31.672  1.00  0.00     0.031 A 
BRANCH  54  68
ATOM     68  C   UNL A   1      48.441  30.464  27.816  1.00  0.00    -0.014 A 
ATOM     69  C   UNL A   1      47.315  31.297  27.962  1.00  0.00     0.010 A 
ATOM     70  C   UNL A   1      49.551  31.002  27.131  1.00  0.00     0.010 A 
ATOM     71  C   UNL A   1      47.275  32.567  27.374  1.00  0.00     0.020 A 
ATOM     72  C   UNL A   1      49.540  32.283  26.586  1.00  0.00     0.020 A 
ATOM     73  C   UNL A   1      48.383  33.040  26.671  1.00  0.00     0.054 A 
BRANCH  73  74
ATOM     74  S   UNL A   1      48.272  34.611  25.785  1.00  0.00     0.124 S 
ATOM     75  O   UNL A   1      49.511  34.603  25.014  1.00  0.00    -0.237 OA
ATOM     76  O   UNL A   1      47.042  34.447  25.016  1.00  0.00    -0.237 OA
ATOM     77  O   UNL A   1      48.206  35.603  26.856  1.00  0.00    -0.744 OA
ENDBRANCH  73  74
ENDBRANCH  54  68
BRANCH  55  78
ATOM     78  C   UNL A   1      40.239  28.205  29.390  1.00  0.00    -0.014 A 
ATOM     79  C   UNL A   1      39.311  28.488  30.410  1.00  0.00     0.010 A 
ATOM     80  C   UNL A   1      39.945  28.683  28.095  1.00  0.00     0.010 A 
ATOM     81  C   UNL A   1      38.161  29.258  30.149  1.00  0.00     0.020 A 
ATOM     82  C   UNL A   1      38.798  29.437  27.824  1.00  0.00     0.020 A 
ATOM     83  C   UNL A   1      37.921  29.741  28.859  1.00  0.00     0.054 A 
BRANCH  83  84
ATOM     84  S   UNL A   1      36.527  30.868  28.562  1.00  0.00     0.124 S 
ATOM     85  O   UNL A   1      36.009  30.393  27.282  1.00  0.00    -0.237 OA
ATOM     86  O   UNL A   1      35.671  30.628  29.719  1.00  0.00    -0.237 OA
ATOM     87  O   UNL A   1      37.154  32.188  28.524  1.00  0.00    -0.744 OA
ENDBRANCH  83  84
ENDBRANCH  55  78
BRANCH  67  88
ATOM     88  C   UNL A   1      45.510  26.549  32.592  1.00  0.00    -0.014 A 
ATOM     89  C   UNL A   1      45.508  26.655  33.998  1.00  0.00     0.010 A 
ATOM     90  C   UNL A   1      45.097  25.338  32.010  1.00  0.00     0.010 A 
ATOM     91  C   UNL A   1      45.106  25.573  34.795  1.00  0.00     0.020 A 
ATOM     92  C   UNL A   1      44.679  24.264  32.799  1.00  0.00     0.020 A 
ATOM     93  C   UNL A   1      44.686  24.386  34.189  1.00  0.00     0.054 A 
BRANCH  93  94
ATOM     94  S   UNL A   1      44.076  23.023  35.222  1.00  0.00     0.124 S 
ATOM     95  O   UNL A   1      42.667  23.364  35.396  1.00  0.00    -0.237 OA
ATOM     96  O   UNL A   1      44.342  21.846  34.399  1.00  0.00    -0.237 OA
ATOM     97  O   UNL A   1      44.889  23.114  36.435  1.00  0.00    -0.744 OA
ENDBRANCH  93  94
ENDBRANCH  67  88
ENDBRANCH  41  42
ENDBRANCH  34  36
ENDBRANCH  33  34
ENDBRANCH  32  33
ENDBRANCH  31  32
ENDBRANCH  30  31
ENDBRANCH  29  30
ENDBRANCH   1  29
TORSDOF 23
ENDMDL
MODEL 2
REMARK VINA RESULT:     -10.2      4.618     10.537
REMARK SMILES Cc1nsc(NC(=O)[C@]2([NH3+])CCC[C@@H](C)C2)c1C(=O)OCCOCCOCCOC(=O)c1ccc(-c2c3nc(c(-c4ccc(S(=O)(=O)[O-])cc4)c4ccc([nH]4)c(-c4ccc(S(=O)(=O)[O-])cc4)c4nc(c(-c5ccc(S(=O)(=O)[O-])cc5)c5ccc2[nH]5)C=C4)C=C3)cc1
REMARK SMILES IDX 24 1 23 2 22 3 21 4 20 5 18 6 19 7 17 8 1 9 2 10 3 11 4 12
REMARK SMILES IDX 5 13 6 14 7 15 8 17 9 18 11 19 16 20 12 21 14 22 13 23 15 24
REMARK SMILES IDX 10 25 25 29 26 30 27 31 28 32 29 33 30 34 31 35 32 36 33 37
REMARK SMILES IDX 91 38 34 39 90 40 35 41 36 42 37 43 84 44 38 45 89 46 83 47
REMARK SMILES IDX 85 48 39 49 88 50 82 51 81 52 40 54 70 55 51 56 69 57 52 58
REMARK SMILES IDX 55 59 68 60 86 61 53 62 54 63 67 65 87 66 56 67 41 68 42 69
REMARK SMILES IDX 50 70 43 71 49 72 44 73 45 74 46 75 47 76 48 77 71 78 72 79
REMARK SMILES IDX 80 80 73 81 79 82 74 83 75 84 76 85 77 86 78 87 57 88 58 89
REMARK SMILES IDX 66 90 59 91 65 92 60 93 61 94 62 95 63 96 64 97
REMARK H PARENT 6 16 10 26 10 27 10 28 85 53 55 64
REMARK Flexibility Score: inf
ROOT
ATOM      1  C   UNL A   1      34.766  31.441  27.973  1.00  0.00     0.188 C 
ENDROOT
BRANCH   1   2
ATOM      2  O   UNL A   1      34.049  30.839  26.905  1.00  0.00    -0.376 OA
BRANCH   2   3
ATOM      3  C   UNL A   1      32.642  30.669  27.010  1.00  0.00     0.202 C 
BRANCH   3   4
ATOM      4  C   UNL A   1      31.913  29.804  25.961  1.00  0.00     0.261 C 
BRANCH   4   5
ATOM      5  O   UNL A   1      31.912  28.389  26.226  1.00  0.00    -0.460 OA
BRANCH   5   6
ATOM      6  C   UNL A   1      32.968  27.666  25.757  1.00  0.00     0.343 C 
ATOM      7  O   UNL A   1      34.021  27.492  26.368  1.00  0.00    -0.246 OA
BRANCH   6   8
ATOM      8  C   UNL A   1      32.622  26.908  24.565  1.00  0.00     0.117 A 
ATOM      9  C   UNL A   1      33.840  28.319  22.711  1.00  0.00     0.069 C 
ATOM     10  C   UNL A   1      32.960  27.221  23.192  1.00  0.00     0.068 A 
ATOM     11  N   UNL A   1      32.343  26.492  22.263  1.00  0.00    -0.195 NA
ATOM     12  S   UNL A   1      31.252  25.513  23.002  1.00  0.00    -0.017 S 
ATOM     13  C   UNL A   1      31.756  25.818  24.600  1.00  0.00     0.131 A 
BRANCH  13  14
ATOM     14  N   UNL A   1      31.181  25.216  25.710  1.00  0.00    -0.310 N 
ATOM     15  C   UNL A   1      31.386  24.022  26.354  1.00  0.00     0.286 C 
ATOM     16  H   UNL A   1      30.475  25.763  26.124  1.00  0.00     0.171 HD
ATOM     17  O   UNL A   1      30.541  23.709  27.203  1.00  0.00    -0.267 OA
BRANCH  15  18
ATOM     18  C   UNL A   1      32.623  23.105  26.094  1.00  0.00     0.174 C 
ATOM     19  C   UNL A   1      33.946  23.916  26.185  1.00  0.00     0.079 C 
ATOM     20  C   UNL A   1      32.569  22.564  24.643  1.00  0.00     0.082 C 
ATOM     21  C   UNL A   1      35.178  23.075  25.811  1.00  0.00     0.007 C 
ATOM     22  C   UNL A   1      33.739  21.674  24.223  1.00  0.00    -0.008 C 
ATOM     23  C   UNL A   1      35.057  22.420  24.433  1.00  0.00     0.004 C 
ATOM     24  C   UNL A   1      33.713  20.298  24.890  1.00  0.00     0.008 C 
BRANCH  18  25
ATOM     25  N   UNL A   1      32.704  22.116  27.186  1.00  0.00    -0.345 N 
ATOM     26  H   UNL A   1      32.222  22.477  28.009  1.00  0.00     0.345 HD
ATOM     27  H   UNL A   1      33.683  21.941  27.414  1.00  0.00     0.345 HD
ATOM     28  H   UNL A   1      32.264  21.245  26.888  1.00  0.00     0.345 HD
ENDBRANCH  18  25
ENDBRANCH  15  18
ENDBRANCH  13  14
ENDBRANCH   6   8
ENDBRANCH   5   6
ENDBRANCH   4   5
ENDBRANCH   3   4
ENDBRANCH   2   3
ENDBRANCH   1   2
BRANCH   1  29
ATOM     29  C   UNL A   1      35.413  32.834  27.805  1.00  0.00     0.188 C 
BRANCH  29  30
ATOM     30  O   UNL A   1      34.531  33.859  27.388  1.00  0.00    -0.376 OA
BRANCH  30  31
ATOM     31  C   UNL A   1      34.309  34.928  28.299  1.00  0.00     0.202 C 
BRANCH  31  32
ATOM     32  C   UNL A   1      33.626  34.566  29.618  1.00  0.00     0.261 C 
BRANCH  32  33
ATOM     33  O   UNL A   1      34.346  34.984  30.765  1.00  0.00    -0.460 OA
BRANCH  33  34
ATOM     34  C   UNL A   1      33.705  34.844  31.942  1.00  0.00     0.338 C 
ATOM     35  O   UNL A   1      32.548  35.134  32.184  1.00  0.00    -0.246 OA
BRANCH  34  36
ATOM     36  C   UNL A   1      34.656  34.273  32.906  1.00  0.00     0.060 A 
ATOM     37  C   UNL A   1      35.699  35.106  33.313  1.00  0.00     0.016 A 
ATOM     38  C   UNL A   1      34.712  32.878  33.014  1.00  0.00     0.016 A 
ATOM     39  C   UNL A   1      36.937  34.531  33.454  1.00  0.00     0.010 A 
ATOM     40  C   UNL A   1      35.950  32.310  33.106  1.00  0.00     0.010 A 
ATOM     41  C   UNL A   1      37.045  33.166  33.185  1.00  0.00    -0.014 A 
BRANCH  41  42
ATOM     42  C   UNL A   1      38.340  32.659  32.807  1.00  0.00     0.031 A 
ATOM     43  C   UNL A   1      39.261  32.474  33.935  1.00  0.00     0.074 A 
ATOM     44  C   UNL A   1      38.578  32.281  31.537  1.00  0.00     0.049 A 
ATOM     45  N   UNL A   1      40.302  33.176  34.225  1.00  0.00    -0.248 NA
ATOM     46  C   UNL A   1      38.858  31.515  34.973  1.00  0.00     0.031 C 
ATOM     47  C   UNL A   1      37.611  32.112  30.444  1.00  0.00     0.029 A 
ATOM     48  N   UNL A   1      39.731  31.817  31.000  1.00  0.00    -0.354 N 
ATOM     49  C   UNL A   1      40.803  32.610  35.388  1.00  0.00     0.074 A 
ATOM     50  C   UNL A   1      39.752  31.784  35.921  1.00  0.00     0.031 C 
ATOM     51  C   UNL A   1      38.171  31.344  29.482  1.00  0.00     0.029 A 
ATOM     52  C   UNL A   1      39.555  31.074  29.842  1.00  0.00     0.049 A 
ATOM     53  H   UNL A   1      40.615  31.994  31.395  1.00  0.00     0.167 HD
ATOM     54  C   UNL A   1      42.131  32.629  35.683  1.00  0.00     0.031 A 
ATOM     55  C   UNL A   1      40.453  30.200  29.320  1.00  0.00     0.031 A 
ATOM     56  C   UNL A   1      42.854  33.532  34.827  1.00  0.00     0.049 A 
ATOM     57  C   UNL A   1      41.776  30.514  29.931  1.00  0.00     0.074 A 
ATOM     58  C   UNL A   1      42.807  34.890  34.590  1.00  0.00     0.029 A 
ATOM     59  N   UNL A   1      43.525  32.976  33.759  1.00  0.00    -0.354 N 
ATOM     60  N   UNL A   1      42.421  31.631  29.724  1.00  0.00    -0.248 NA
ATOM     61  C   UNL A   1      42.158  29.801  31.144  1.00  0.00     0.031 C 
ATOM     62  C   UNL A   1      43.054  35.032  33.194  1.00  0.00     0.029 A 
ATOM     63  C   UNL A   1      43.289  33.762  32.661  1.00  0.00     0.049 A 
ATOM     64  H   UNL A   1      44.075  32.159  33.781  1.00  0.00     0.167 HD
ATOM     65  C   UNL A   1      42.973  31.967  30.954  1.00  0.00     0.074 A 
ATOM     66  C   UNL A   1      42.858  30.756  31.764  1.00  0.00     0.031 C 
ATOM     67  C   UNL A   1      43.207  33.269  31.300  1.00  0.00     0.031 A 
BRANCH  54  68
ATOM     68  C   UNL A   1      42.821  31.536  36.458  1.00  0.00    -0.014 A 
ATOM     69  C   UNL A   1      43.217  31.800  37.783  1.00  0.00     0.010 A 
ATOM     70  C   UNL A   1      43.331  30.365  35.859  1.00  0.00     0.010 A 
ATOM     71  C   UNL A   1      44.146  30.980  38.436  1.00  0.00     0.020 A 
ATOM     72  C   UNL A   1      44.216  29.515  36.518  1.00  0.00     0.020 A 
ATOM     73  C   UNL A   1      44.654  29.855  37.787  1.00  0.00     0.054 A 
BRANCH  73  74
ATOM     74  S   UNL A   1      45.963  28.889  38.572  1.00  0.00     0.124 S 
ATOM     75  O   UNL A   1      47.000  29.898  38.763  1.00  0.00    -0.237 OA
ATOM     76  O   UNL A   1      45.309  28.408  39.785  1.00  0.00    -0.237 OA
ATOM     77  O   UNL A   1      46.267  27.858  37.581  1.00  0.00    -0.744 OA
ENDBRANCH  73  74
ENDBRANCH  54  68
BRANCH  55  78
ATOM     78  C   UNL A   1      40.139  28.901  28.666  1.00  0.00    -0.014 A 
ATOM     79  C   UNL A   1      40.467  28.661  27.319  1.00  0.00     0.010 A 
ATOM     80  C   UNL A   1      39.734  27.794  29.443  1.00  0.00     0.010 A 
ATOM     81  C   UNL A   1      40.434  27.357  26.788  1.00  0.00     0.020 A 
ATOM     82  C   UNL A   1      39.687  26.497  28.919  1.00  0.00     0.020 A 
ATOM     83  C   UNL A   1      40.059  26.280  27.597  1.00  0.00     0.054 A 
BRANCH  83  84
ATOM     84  S   UNL A   1      40.176  24.584  26.957  1.00  0.00     0.124 S 
ATOM     85  O   UNL A   1      38.938  24.454  26.192  1.00  0.00    -0.237 OA
ATOM     86  O   UNL A   1      41.405  24.625  26.170  1.00  0.00    -0.237 OA
ATOM     87  O   UNL A   1      40.246  23.764  28.165  1.00  0.00    -0.744 OA
ENDBRANCH  83  84
ENDBRANCH  55  78
BRANCH  67  88
ATOM     88  C   UNL A   1      43.116  34.331  30.227  1.00  0.00    -0.014 A 
ATOM     89  C   UNL A   1      41.894  34.841  29.746  1.00  0.00     0.010 A 
ATOM     90  C   UNL A   1      44.307  34.978  29.853  1.00  0.00     0.010 A 
ATOM     91  C   UNL A   1      41.868  35.967  28.910  1.00  0.00     0.020 A 
ATOM     92  C   UNL A   1      44.286  36.110  29.035  1.00  0.00     0.020 A 
ATOM     93  C   UNL A   1      43.067  36.599  28.566  1.00  0.00     0.054 A 
BRANCH  93  94
ATOM     94  S   UNL A   1      43.022  38.111  27.562  1.00  0.00     0.124 S 
ATOM     95  O   UNL A   1      41.879  37.876  26.684  1.00  0.00    -0.237 OA
ATOM     96  O   UNL A   1      42.843  39.161  28.562  1.00  0.00    -0.237 OA
ATOM     97  O   UNL A   1      44.324  38.123  26.893  1.00  0.00    -0.744 OA
ENDBRANCH  93  94
ENDBRANCH  67  88
ENDBRANCH  41  42
ENDBRANCH  34  36
ENDBRANCH  33  34
ENDBRANCH  32  33
ENDBRANCH  31  32
ENDBRANCH  30  31
ENDBRANCH  29  30
ENDBRANCH   1  29
TORSDOF 23
ENDMDL
MODEL 3
REMARK VINA RESULT:      -9.4      2.918      7.464
REMARK SMILES Cc1nsc(NC(=O)[C@]2([NH3+])CCC[C@@H](C)C2)c1C(=O)OCCOCCOCCOC(=O)c1ccc(-c2c3nc(c(-c4ccc(S(=O)(=O)[O-])cc4)c4ccc([nH]4)c(-c4ccc(S(=O)(=O)[O-])cc4)c4nc(c(-c5ccc(S(=O)(=O)[O-])cc5)c5ccc2[nH]5)C=C4)C=C3)cc1
REMARK SMILES IDX 24 1 23 2 22 3 21 4 20 5 18 6 19 7 17 8 1 9 2 10 3 11 4 12
REMARK SMILES IDX 5 13 6 14 7 15 8 17 9 18 11 19 16 20 12 21 14 22 13 23 15 24
REMARK SMILES IDX 10 25 25 29 26 30 27 31 28 32 29 33 30 34 31 35 32 36 33 37
REMARK SMILES IDX 91 38 34 39 90 40 35 41 36 42 37 43 84 44 38 45 89 46 83 47
REMARK SMILES IDX 85 48 39 49 88 50 82 51 81 52 40 54 70 55 51 56 69 57 52 58
REMARK SMILES IDX 55 59 68 60 86 61 53 62 54 63 67 65 87 66 56 67 41 68 42 69
REMARK SMILES IDX 50 70 43 71 49 72 44 73 45 74 46 75 47 76 48 77 71 78 72 79
REMARK SMILES IDX 80 80 73 81 79 82 74 83 75 84 76 85 77 86 78 87 57 88 58 89
REMARK SMILES IDX 66 90 59 91 65 92 60 93 61 94 62 95 63 96 64 97
REMARK H PARENT 6 16 10 26 10 27 10 28 85 53 55 64
REMARK Flexibility Score: inf
ROOT
ATOM      1  C   UNL A   1      39.279  21.356  25.750  1.00  0.00     0.188 C 
ENDROOT
BRANCH   1   2
ATOM      2  O   UNL A   1      37.864  21.354  25.626  1.00  0.00    -0.376 OA
BRANCH   2   3
ATOM      3  C   UNL A   1      37.230  22.305  24.783  1.00  0.00     0.202 C 
BRANCH   3   4
ATOM      4  C   UNL A   1      36.388  23.428  25.422  1.00  0.00     0.261 C 
BRANCH   4   5
ATOM      5  O   UNL A   1      35.210  23.807  24.684  1.00  0.00    -0.460 OA
BRANCH   5   6
ATOM      6  C   UNL A   1      34.136  22.972  24.754  1.00  0.00     0.343 C 
ATOM      7  O   UNL A   1      34.123  21.814  24.340  1.00  0.00    -0.246 OA
BRANCH   6   8
ATOM      8  C   UNL A   1      33.083  23.508  25.604  1.00  0.00     0.117 A 
ATOM      9  C   UNL A   1      33.420  22.068  27.778  1.00  0.00     0.069 C 
ATOM     10  C   UNL A   1      32.718  23.073  26.936  1.00  0.00     0.068 A 
ATOM     11  N   UNL A   1      31.581  23.573  27.417  1.00  0.00    -0.195 NA
ATOM     12  S   UNL A   1      30.859  24.464  26.242  1.00  0.00    -0.017 S 
ATOM     13  C   UNL A   1      32.163  24.449  25.147  1.00  0.00     0.131 A 
BRANCH  13  14
ATOM     14  N   UNL A   1      32.138  25.097  23.920  1.00  0.00    -0.310 N 
ATOM     15  C   UNL A   1      32.200  26.413  23.541  1.00  0.00     0.286 C 
ATOM     16  H   UNL A   1      32.060  24.478  23.158  1.00  0.00     0.171 HD
ATOM     17  O   UNL A   1      31.939  26.652  22.355  1.00  0.00    -0.267 OA
BRANCH  15  18
ATOM     18  C   UNL A   1      32.614  27.568  24.507  1.00  0.00     0.174 C 
ATOM     19  C   UNL A   1      33.777  27.124  25.438  1.00  0.00     0.079 C 
ATOM     20  C   UNL A   1      31.432  27.903  25.451  1.00  0.00     0.082 C 
ATOM     21  C   UNL A   1      34.129  28.191  26.489  1.00  0.00     0.007 C 
ATOM     22  C   UNL A   1      31.699  28.996  26.486  1.00  0.00    -0.008 C 
ATOM     23  C   UNL A   1      32.923  28.627  27.324  1.00  0.00     0.004 C 
ATOM     24  C   UNL A   1      31.790  30.394  25.870  1.00  0.00     0.008 C 
BRANCH  18  25
ATOM     25  N   UNL A   1      33.172  28.670  23.698  1.00  0.00    -0.345 N 
ATOM     26  H   UNL A   1      33.397  28.327  22.765  1.00  0.00     0.345 HD
ATOM     27  H   UNL A   1      34.019  29.024  24.144  1.00  0.00     0.345 HD
ATOM     28  H   UNL A   1      32.485  29.421  23.629  1.00  0.00     0.345 HD
ENDBRANCH  18  25
ENDBRANCH  15  18
ENDBRANCH  13  14
ENDBRANCH   6   8
ENDBRANCH   5   6
ENDBRANCH   4   5
ENDBRANCH   3   4
ENDBRANCH   2   3
ENDBRANCH   1   2
BRANCH   1  29
ATOM     29  C   UNL A   1      40.023  20.141  26.347  1.00  0.00     0.188 C 
BRANCH  29  30
ATOM     30  O   UNL A   1      41.045  19.601  25.530  1.00  0.00    -0.376 OA
BRANCH  30  31
ATOM     31  C   UNL A   1      42.340  19.494  26.105  1.00  0.00     0.202 C 
BRANCH  31  32
ATOM     32  C   UNL A   1      43.397  20.470  25.587  1.00  0.00     0.261 C 
BRANCH  32  33
ATOM     33  O   UNL A   1      43.221  21.798  26.049  1.00  0.00    -0.460 OA
BRANCH  33  34
ATOM     34  C   UNL A   1      43.059  22.734  25.093  1.00  0.00     0.338 C 
ATOM     35  O   UNL A   1      43.446  22.677  23.940  1.00  0.00    -0.246 OA
BRANCH  34  36
ATOM     36  C   UNL A   1      42.324  23.860  25.685  1.00  0.00     0.060 A 
ATOM     37  C   UNL A   1      42.851  25.132  25.457  1.00  0.00     0.016 A 
ATOM     38  C   UNL A   1      41.450  23.580  26.744  1.00  0.00     0.016 A 
ATOM     39  C   UNL A   1      42.821  26.017  26.504  1.00  0.00     0.010 A 
ATOM     40  C   UNL A   1      41.460  24.440  27.804  1.00  0.00     0.010 A 
ATOM     41  C   UNL A   1      42.261  25.574  27.704  1.00  0.00    -0.014 A 
BRANCH  41  42
ATOM     42  C   UNL A   1      42.675  26.230  28.918  1.00  0.00     0.031 A 
ATOM     43  C   UNL A   1      41.758  27.284  29.369  1.00  0.00     0.074 A 
ATOM     44  C   UNL A   1      43.743  25.781  29.604  1.00  0.00     0.049 A 
ATOM     45  N   UNL A   1      41.949  28.559  29.342  1.00  0.00    -0.248 NA
ATOM     46  C   UNL A   1      40.387  26.875  29.705  1.00  0.00     0.031 C 
ATOM     47  C   UNL A   1      44.492  24.534  29.403  1.00  0.00     0.029 A 
ATOM     48  N   UNL A   1      44.290  26.288  30.734  1.00  0.00    -0.354 N 
ATOM     49  C   UNL A   1      40.781  29.107  29.852  1.00  0.00     0.074 A 
ATOM     50  C   UNL A   1      39.792  28.061  29.812  1.00  0.00     0.031 C 
ATOM     51  C   UNL A   1      45.201  24.266  30.523  1.00  0.00     0.029 A 
ATOM     52  C   UNL A   1      45.044  25.373  31.454  1.00  0.00     0.049 A 
ATOM     53  H   UNL A   1      44.165  27.222  31.018  1.00  0.00     0.167 HD
ATOM     54  C   UNL A   1      40.777  30.284  30.533  1.00  0.00     0.031 A 
ATOM     55  C   UNL A   1      45.380  25.485  32.765  1.00  0.00     0.031 A 
ATOM     56  C   UNL A   1      42.025  30.988  30.389  1.00  0.00     0.049 A 
ATOM     57  C   UNL A   1      45.192  26.913  33.146  1.00  0.00     0.074 A 
ATOM     58  C   UNL A   1      42.721  31.516  29.322  1.00  0.00     0.029 A 
ATOM     59  N   UNL A   1      42.928  30.873  31.423  1.00  0.00    -0.354 N 
ATOM     60  N   UNL A   1      45.910  27.891  32.660  1.00  0.00    -0.248 NA
ATOM     61  C   UNL A   1      43.904  27.314  33.696  1.00  0.00     0.031 C 
ATOM     62  C   UNL A   1      44.093  31.279  29.621  1.00  0.00     0.029 A 
ATOM     63  C   UNL A   1      44.167  30.666  30.875  1.00  0.00     0.049 A 
ATOM     64  H   UNL A   1      42.720  30.929  32.384  1.00  0.00     0.167 HD
ATOM     65  C   UNL A   1      45.016  28.937  32.464  1.00  0.00     0.074 A 
ATOM     66  C   UNL A   1      43.818  28.555  33.209  1.00  0.00     0.031 C 
ATOM     67  C   UNL A   1      45.215  29.873  31.488  1.00  0.00     0.031 A 
BRANCH  54  68
ATOM     68  C   UNL A   1      39.809  30.590  31.648  1.00  0.00    -0.014 A 
ATOM     69  C   UNL A   1      38.991  31.729  31.532  1.00  0.00     0.010 A 
ATOM     70  C   UNL A   1      39.861  29.964  32.911  1.00  0.00     0.010 A 
ATOM     71  C   UNL A   1      38.333  32.263  32.647  1.00  0.00     0.020 A 
ATOM     72  C   UNL A   1      39.169  30.457  34.015  1.00  0.00     0.020 A 
ATOM     73  C   UNL A   1      38.446  31.631  33.885  1.00  0.00     0.054 A 
BRANCH  73  74
ATOM     74  S   UNL A   1      37.723  32.405  35.350  1.00  0.00     0.124 S 
ATOM     75  O   UNL A   1      36.423  32.834  34.845  1.00  0.00    -0.237 OA
ATOM     76  O   UNL A   1      37.705  31.302  36.305  1.00  0.00    -0.237 OA
ATOM     77  O   UNL A   1      38.660  33.482  35.664  1.00  0.00    -0.744 OA
ENDBRANCH  73  74
ENDBRANCH  54  68
BRANCH  55  78
ATOM     78  C   UNL A   1      45.447  24.374  33.754  1.00  0.00    -0.014 A 
ATOM     79  C   UNL A   1      44.352  23.518  33.968  1.00  0.00     0.010 A 
ATOM     80  C   UNL A   1      46.685  23.998  34.318  1.00  0.00     0.010 A 
ATOM     81  C   UNL A   1      44.505  22.311  34.679  1.00  0.00     0.020 A 
ATOM     82  C   UNL A   1      46.843  22.808  35.036  1.00  0.00     0.020 A 
ATOM     83  C   UNL A   1      45.755  21.957  35.195  1.00  0.00     0.054 A 
BRANCH  83  84
ATOM     84  S   UNL A   1      45.985  20.328  35.966  1.00  0.00     0.124 S 
ATOM     85  O   UNL A   1      47.404  20.072  35.735  1.00  0.00    -0.237 OA
ATOM     86  O   UNL A   1      45.604  20.576  37.354  1.00  0.00    -0.237 OA
ATOM     87  O   UNL A   1      45.071  19.463  35.223  1.00  0.00    -0.744 OA
ENDBRANCH  83  84
ENDBRANCH  55  78
BRANCH  67  88
ATOM     88  C   UNL A   1      46.559  29.924  30.797  1.00  0.00    -0.014 A 
ATOM     89  C   UNL A   1      47.639  30.701  31.263  1.00  0.00     0.010 A 
ATOM     90  C   UNL A   1      46.796  28.994  29.770  1.00  0.00     0.010 A 
ATOM     91  C   UNL A   1      48.920  30.549  30.710  1.00  0.00     0.020 A 
ATOM     92  C   UNL A   1      48.072  28.827  29.227  1.00  0.00     0.020 A 
ATOM     93  C   UNL A   1      49.129  29.607  29.699  1.00  0.00     0.054 A 
BRANCH  93  94
ATOM     94  S   UNL A   1      50.806  29.347  29.053  1.00  0.00     0.124 S 
ATOM     95  O   UNL A   1      51.259  28.182  29.808  1.00  0.00    -0.237 OA
ATOM     96  O   UNL A   1      50.575  29.124  27.628  1.00  0.00    -0.237 OA
ATOM     97  O   UNL A   1      51.498  30.597  29.371  1.00  0.00    -0.744 OA
ENDBRANCH  93  94
ENDBRANCH  67  88
ENDBRANCH  41  42
ENDBRANCH  34  36
ENDBRANCH  33  34
ENDBRANCH  32  33
ENDBRANCH  31  32
ENDBRANCH  30  31
ENDBRANCH  29  30
ENDBRANCH   1  29
TORSDOF 23
ENDMDL
