MODEL 1
REMARK VINA RESULT:      -9.4      0.000      0.000
REMARK SMILES CC(C)C[C@H](CNC(=O)N[C@@H](C)C1CCCCC1)C(=O)OCCOCCOCCOC(=O)c1ccc(-c2c3nc(c(-c4ccc(S(=O)(=O)[O-])cc4)c4ccc([nH]4)c(-c4ccc(S(=O)(=O)[O-])cc4)c4nc(c(-c5ccc(S(=O)(=O)[O-])cc5)c5ccc2[nH]5)C=C4)C=C3)cc1
REMARK SMILES IDX 25 1 24 2 23 3 22 4 21 5 19 6 20 7 5 8 4 9 2 10 1 11 3 12
REMARK SMILES IDX 6 13 7 14 8 15 9 17 10 18 11 20 12 21 13 22 14 23 18 24
REMARK SMILES IDX 15 25 17 26 16 27 26 28 27 29 28 30 29 31 30 32 31 33 32 34
REMARK SMILES IDX 33 35 34 36 92 37 35 38 91 39 36 40 37 41 38 42 85 43 39 44
REMARK SMILES IDX 90 45 84 46 86 47 40 48 89 49 83 50 82 51 41 53 71 54 52 55
REMARK SMILES IDX 70 56 53 57 56 58 69 59 87 60 54 61 55 62 68 64 88 65 57 66
REMARK SMILES IDX 42 67 43 68 51 69 44 70 50 71 45 72 46 73 47 74 48 75 49 76
REMARK SMILES IDX 72 77 73 78 81 79 74 80 80 81 75 82 76 83 77 84 78 85 79 86
REMARK SMILES IDX 58 87 59 88 67 89 60 90 66 91 61 92 62 93 63 94 64 95 65 96
REMARK H PARENT 7 16 10 19 86 52 56 63
REMARK Flexibility Score: inf
ROOT
ATOM      1  C   UNL A   1      39.881  20.339  25.939  1.00  0.00     0.188 C 
ENDROOT
BRANCH   1   2
ATOM      2  O   UNL A   1      39.088  19.471  25.157  1.00  0.00    -0.376 OA
BRANCH   2   3
ATOM      3  C   UNL A   1      37.744  19.798  24.844  1.00  0.00     0.202 C 
BRANCH   3   4
ATOM      4  C   UNL A   1      37.280  21.233  24.587  1.00  0.00     0.261 C 
BRANCH   4   5
ATOM      5  O   UNL A   1      35.868  21.408  24.345  1.00  0.00    -0.463 OA
BRANCH   5   6
ATOM      6  C   UNL A   1      35.105  21.434  25.469  1.00  0.00     0.310 C 
ATOM      7  O   UNL A   1      35.466  21.979  26.507  1.00  0.00    -0.252 OA
BRANCH   6   8
ATOM      8  C   UNL A   1      33.775  20.695  25.373  1.00  0.00     0.119 C 
BRANCH   8   9
ATOM      9  C   UNL A   1      33.985  19.338  24.663  1.00  0.00     0.020 C 
BRANCH   9  10
ATOM     10  C   UNL A   1      32.727  18.472  24.426  1.00  0.00    -0.017 C 
ATOM     11  C   UNL A   1      32.686  17.838  23.033  1.00  0.00     0.007 C 
ATOM     12  C   UNL A   1      32.650  17.375  25.489  1.00  0.00     0.007 C 
ENDBRANCH   9  10
ENDBRANCH   8   9
BRANCH   8  13
ATOM     13  C   UNL A   1      32.618  21.501  24.750  1.00  0.00     0.133 C 
BRANCH  13  14
ATOM     14  N   UNL A   1      32.948  22.111  23.466  1.00  0.00    -0.337 N 
ATOM     15  C   UNL A   1      33.190  23.330  22.988  1.00  0.00     0.315 C 
ATOM     16  H   UNL A   1      33.008  21.433  22.757  1.00  0.00     0.165 HD
ATOM     17  O   UNL A   1      33.468  23.408  21.787  1.00  0.00    -0.249 OA
ATOM     18  N   UNL A   1      33.159  24.467  23.677  1.00  0.00    -0.335 N 
ATOM     19  H   UNL A   1      33.369  25.239  23.103  1.00  0.00     0.165 HD
BRANCH  18  20
ATOM     20  C   UNL A   1      32.900  24.887  25.053  1.00  0.00     0.083 C 
ATOM     21  C   UNL A   1      34.198  25.470  25.625  1.00  0.00     0.031 C 
BRANCH  20  22
ATOM     22  C   UNL A   1      31.715  25.909  25.070  1.00  0.00     0.011 C 
ATOM     23  C   UNL A   1      32.104  27.168  24.268  1.00  0.00     0.006 C 
ATOM     24  C   UNL A   1      30.420  25.294  24.518  1.00  0.00     0.006 C 
ATOM     25  C   UNL A   1      30.955  28.145  24.047  1.00  0.00     0.000 C 
ATOM     26  C   UNL A   1      29.298  26.302  24.281  1.00  0.00     0.000 C 
ATOM     27  C   UNL A   1      29.765  27.449  23.400  1.00  0.00     0.000 C 
ENDBRANCH  20  22
ENDBRANCH  18  20
ENDBRANCH  13  14
ENDBRANCH   8  13
ENDBRANCH   6   8
ENDBRANCH   5   6
ENDBRANCH   4   5
ENDBRANCH   3   4
ENDBRANCH   2   3
ENDBRANCH   1   2
BRANCH   1  28
ATOM     28  C   UNL A   1      41.366  20.022  26.158  1.00  0.00     0.188 C 
BRANCH  28  29
ATOM     29  O   UNL A   1      42.181  20.850  26.960  1.00  0.00    -0.376 OA
BRANCH  29  30
ATOM     30  C   UNL A   1      41.746  22.177  27.229  1.00  0.00     0.202 C 
BRANCH  30  31
ATOM     31  C   UNL A   1      42.000  23.339  26.257  1.00  0.00     0.261 C 
BRANCH  31  32
ATOM     32  O   UNL A   1      41.016  24.381  26.269  1.00  0.00    -0.460 OA
BRANCH  32  33
ATOM     33  C   UNL A   1      41.498  25.620  26.008  1.00  0.00     0.338 C 
ATOM     34  O   UNL A   1      41.605  26.158  24.911  1.00  0.00    -0.246 OA
BRANCH  33  35
ATOM     35  C   UNL A   1      41.737  26.346  27.263  1.00  0.00     0.060 A 
ATOM     36  C   UNL A   1      40.974  25.997  28.379  1.00  0.00     0.016 A 
ATOM     37  C   UNL A   1      42.585  27.453  27.305  1.00  0.00     0.016 A 
ATOM     38  C   UNL A   1      41.053  26.760  29.536  1.00  0.00     0.010 A 
ATOM     39  C   UNL A   1      42.624  28.243  28.462  1.00  0.00     0.010 A 
ATOM     40  C   UNL A   1      41.824  27.921  29.570  1.00  0.00    -0.014 A 
BRANCH  40  41
ATOM     41  C   UNL A   1      41.529  28.894  30.652  1.00  0.00     0.031 A 
ATOM     42  C   UNL A   1      42.516  29.012  31.784  1.00  0.00     0.074 A 
ATOM     43  C   UNL A   1      40.526  29.786  30.557  1.00  0.00     0.049 A 
ATOM     44  N   UNL A   1      42.446  29.726  32.877  1.00  0.00    -0.248 NA
ATOM     45  C   UNL A   1      43.758  28.231  31.652  1.00  0.00     0.031 C 
ATOM     46  C   UNL A   1      39.611  29.922  29.424  1.00  0.00     0.029 A 
ATOM     47  N   UNL A   1      40.133  30.775  31.426  1.00  0.00    -0.354 N 
ATOM     48  C   UNL A   1      43.603  29.432  33.591  1.00  0.00     0.074 A 
ATOM     49  C   UNL A   1      44.365  28.492  32.799  1.00  0.00     0.031 C 
ATOM     50  C   UNL A   1      38.775  30.949  29.660  1.00  0.00     0.029 A 
ATOM     51  C   UNL A   1      39.048  31.495  30.988  1.00  0.00     0.049 A 
ATOM     52  H   UNL A   1      40.588  30.951  32.281  1.00  0.00     0.167 HD
ATOM     53  C   UNL A   1      43.989  29.891  34.804  1.00  0.00     0.031 A 
ATOM     54  C   UNL A   1      38.335  32.458  31.605  1.00  0.00     0.031 A 
ATOM     55  C   UNL A   1      43.243  30.843  35.579  1.00  0.00     0.049 A 
ATOM     56  C   UNL A   1      38.712  32.874  33.004  1.00  0.00     0.074 A 
ATOM     57  C   UNL A   1      43.518  31.330  36.844  1.00  0.00     0.029 A 
ATOM     58  N   UNL A   1      42.081  31.466  35.153  1.00  0.00    -0.354 N 
ATOM     59  N   UNL A   1      39.737  32.494  33.730  1.00  0.00    -0.248 NA
ATOM     60  C   UNL A   1      37.825  33.837  33.672  1.00  0.00     0.031 C 
ATOM     61  C   UNL A   1      42.495  32.216  37.201  1.00  0.00     0.029 A 
ATOM     62  C   UNL A   1      41.616  32.322  36.135  1.00  0.00     0.049 A 
ATOM     63  H   UNL A   1      41.650  31.321  34.279  1.00  0.00     0.167 HD
ATOM     64  C   UNL A   1      39.629  33.188  34.932  1.00  0.00     0.074 A 
ATOM     65  C   UNL A   1      38.446  34.019  34.829  1.00  0.00     0.031 C 
ATOM     66  C   UNL A   1      40.438  33.144  36.020  1.00  0.00     0.031 A 
BRANCH  53  67
ATOM     67  C   UNL A   1      45.224  29.275  35.401  1.00  0.00    -0.014 A 
ATOM     68  C   UNL A   1      46.501  29.831  35.212  1.00  0.00     0.010 A 
ATOM     69  C   UNL A   1      45.094  28.086  36.143  1.00  0.00     0.010 A 
ATOM     70  C   UNL A   1      47.633  29.178  35.709  1.00  0.00     0.020 A 
ATOM     71  C   UNL A   1      46.219  27.446  36.664  1.00  0.00     0.020 A 
ATOM     72  C   UNL A   1      47.485  27.982  36.421  1.00  0.00     0.054 A 
BRANCH  72  73
ATOM     73  S   UNL A   1      48.966  27.137  37.037  1.00  0.00     0.124 S 
ATOM     74  O   UNL A   1      49.741  26.959  35.812  1.00  0.00    -0.237 OA
ATOM     75  O   UNL A   1      49.513  28.099  37.992  1.00  0.00    -0.237 OA
ATOM     76  O   UNL A   1      48.443  25.908  37.628  1.00  0.00    -0.744 OA
ENDBRANCH  72  73
ENDBRANCH  53  67
BRANCH  54  77
ATOM     77  C   UNL A   1      37.149  33.056  30.931  1.00  0.00    -0.014 A 
ATOM     78  C   UNL A   1      37.267  33.653  29.664  1.00  0.00     0.010 A 
ATOM     79  C   UNL A   1      35.891  33.036  31.562  1.00  0.00     0.010 A 
ATOM     80  C   UNL A   1      36.150  34.224  29.043  1.00  0.00     0.020 A 
ATOM     81  C   UNL A   1      34.768  33.581  30.934  1.00  0.00     0.020 A 
ATOM     82  C   UNL A   1      34.907  34.179  29.680  1.00  0.00     0.054 A 
BRANCH  82  83
ATOM     83  S   UNL A   1      33.458  34.867  28.832  1.00  0.00     0.124 S 
ATOM     84  O   UNL A   1      33.191  33.855  27.815  1.00  0.00    -0.237 OA
ATOM     85  O   UNL A   1      32.475  34.957  29.909  1.00  0.00    -0.237 OA
ATOM     86  O   UNL A   1      33.937  36.152  28.327  1.00  0.00    -0.744 OA
ENDBRANCH  82  83
ENDBRANCH  54  77
BRANCH  66  87
ATOM     87  C   UNL A   1      40.103  34.050  37.175  1.00  0.00    -0.014 A 
ATOM     88  C   UNL A   1      40.310  35.438  37.101  1.00  0.00     0.010 A 
ATOM     89  C   UNL A   1      39.517  33.505  38.332  1.00  0.00     0.010 A 
ATOM     90  C   UNL A   1      39.969  36.261  38.178  1.00  0.00     0.020 A 
ATOM     91  C   UNL A   1      39.150  34.327  39.400  1.00  0.00     0.020 A 
ATOM     92  C   UNL A   1      39.393  35.699  39.323  1.00  0.00     0.054 A 
BRANCH  92  93
ATOM     93  S   UNL A   1      38.923  36.789  40.694  1.00  0.00     0.124 S 
ATOM     94  O   UNL A   1      40.208  37.030  41.344  1.00  0.00    -0.237 OA
ATOM     95  O   UNL A   1      38.342  37.940  40.007  1.00  0.00    -0.237 OA
ATOM     96  O   UNL A   1      37.975  35.988  41.465  1.00  0.00    -0.744 OA
ENDBRANCH  92  93
ENDBRANCH  66  87
ENDBRANCH  40  41
ENDBRANCH  33  35
ENDBRANCH  32  33
ENDBRANCH  31  32
ENDBRANCH  30  31
ENDBRANCH  29  30
ENDBRANCH  28  29
ENDBRANCH   1  28
TORSDOF 26
ENDMDL
MODEL 2
REMARK VINA RESULT:      -9.1      5.470      7.969
REMARK SMILES CC(C)C[C@H](CNC(=O)N[C@@H](C)C1CCCCC1)C(=O)OCCOCCOCCOC(=O)c1ccc(-c2c3nc(c(-c4ccc(S(=O)(=O)[O-])cc4)c4ccc([nH]4)c(-c4ccc(S(=O)(=O)[O-])cc4)c4nc(c(-c5ccc(S(=O)(=O)[O-])cc5)c5ccc2[nH]5)C=C4)C=C3)cc1
REMARK SMILES IDX 25 1 24 2 23 3 22 4 21 5 19 6 20 7 5 8 4 9 2 10 1 11 3 12
REMARK SMILES IDX 6 13 7 14 8 15 9 17 10 18 11 20 12 21 13 22 14 23 18 24
REMARK SMILES IDX 15 25 17 26 16 27 26 28 27 29 28 30 29 31 30 32 31 33 32 34
REMARK SMILES IDX 33 35 34 36 92 37 35 38 91 39 36 40 37 41 38 42 85 43 39 44
REMARK SMILES IDX 90 45 84 46 86 47 40 48 89 49 83 50 82 51 41 53 71 54 52 55
REMARK SMILES IDX 70 56 53 57 56 58 69 59 87 60 54 61 55 62 68 64 88 65 57 66
REMARK SMILES IDX 42 67 43 68 51 69 44 70 50 71 45 72 46 73 47 74 48 75 49 76
REMARK SMILES IDX 72 77 73 78 81 79 74 80 80 81 75 82 76 83 77 84 78 85 79 86
REMARK SMILES IDX 58 87 59 88 67 89 60 90 66 91 61 92 62 93 63 94 64 95 65 96
REMARK H PARENT 7 16 10 19 86 52 56 63
REMARK Flexibility Score: inf
ROOT
ATOM      1  C   UNL A   1      35.545  21.915  26.488  1.00  0.00     0.188 C 
ENDROOT
BRANCH   1   2
ATOM      2  O   UNL A   1      34.235  22.103  26.983  1.00  0.00    -0.376 OA
BRANCH   2   3
ATOM      3  C   UNL A   1      33.115  21.571  26.294  1.00  0.00     0.202 C 
BRANCH   3   4
ATOM      4  C   UNL A   1      31.740  22.241  26.310  1.00  0.00     0.261 C 
BRANCH   4   5
ATOM      5  O   UNL A   1      31.738  23.679  26.435  1.00  0.00    -0.463 OA
BRANCH   5   6
ATOM      6  C   UNL A   1      32.046  24.342  25.291  1.00  0.00     0.310 C 
ATOM      7  O   UNL A   1      33.178  24.738  25.034  1.00  0.00    -0.252 OA
BRANCH   6   8
ATOM      8  C   UNL A   1      30.873  24.606  24.353  1.00  0.00     0.119 C 
BRANCH   8   9
ATOM      9  C   UNL A   1      31.003  23.717  23.096  1.00  0.00     0.020 C 
BRANCH   9  10
ATOM     10  C   UNL A   1      32.339  22.963  22.910  1.00  0.00    -0.017 C 
ATOM     11  C   UNL A   1      32.154  21.479  22.585  1.00  0.00     0.007 C 
ATOM     12  C   UNL A   1      33.157  23.630  21.803  1.00  0.00     0.007 C 
ENDBRANCH   9  10
ENDBRANCH   8   9
BRANCH   8  13
ATOM     13  C   UNL A   1      30.639  26.087  23.993  1.00  0.00     0.133 C 
BRANCH  13  14
ATOM     14  N   UNL A   1      31.695  26.668  23.170  1.00  0.00    -0.337 N 
ATOM     15  C   UNL A   1      32.204  27.874  22.926  1.00  0.00     0.315 C 
ATOM     16  H   UNL A   1      32.160  25.974  22.651  1.00  0.00     0.165 HD
ATOM     17  O   UNL A   1      33.156  27.924  22.142  1.00  0.00    -0.249 OA
ATOM     18  N   UNL A   1      31.782  29.025  23.442  1.00  0.00    -0.335 N 
ATOM     19  H   UNL A   1      32.314  29.783  23.107  1.00  0.00     0.165 HD
BRANCH  18  20
ATOM     20  C   UNL A   1      30.748  29.475  24.371  1.00  0.00     0.083 C 
ATOM     21  C   UNL A   1      31.362  30.543  25.285  1.00  0.00     0.031 C 
BRANCH  20  22
ATOM     22  C   UNL A   1      29.517  30.003  23.562  1.00  0.00     0.011 C 
ATOM     23  C   UNL A   1      29.145  31.419  24.047  1.00  0.00     0.006 C 
ATOM     24  C   UNL A   1      29.783  30.003  22.049  1.00  0.00     0.006 C 
ATOM     25  C   UNL A   1      28.089  32.113  23.194  1.00  0.00     0.000 C 
ATOM     26  C   UNL A   1      28.723  30.729  21.224  1.00  0.00     0.000 C 
ATOM     27  C   UNL A   1      28.507  32.146  21.731  1.00  0.00     0.000 C 
ENDBRANCH  20  22
ENDBRANCH  18  20
ENDBRANCH  13  14
ENDBRANCH   8  13
ENDBRANCH   6   8
ENDBRANCH   5   6
ENDBRANCH   4   5
ENDBRANCH   3   4
ENDBRANCH   2   3
ENDBRANCH   1   2
BRANCH   1  28
ATOM     28  C   UNL A   1      35.755  21.529  25.018  1.00  0.00     0.188 C 
BRANCH  28  29
ATOM     29  O   UNL A   1      37.046  21.292  24.500  1.00  0.00    -0.376 OA
BRANCH  29  30
ATOM     30  C   UNL A   1      38.163  21.432  25.370  1.00  0.00     0.202 C 
BRANCH  30  31
ATOM     31  C   UNL A   1      39.151  20.285  25.631  1.00  0.00     0.261 C 
BRANCH  31  32
ATOM     32  O   UNL A   1      40.155  20.548  26.620  1.00  0.00    -0.460 OA
BRANCH  32  33
ATOM     33  C   UNL A   1      41.412  20.192  26.262  1.00  0.00     0.338 C 
ATOM     34  O   UNL A   1      41.763  19.143  25.732  1.00  0.00    -0.246 OA
BRANCH  33  35
ATOM     35  C   UNL A   1      42.329  21.326  26.437  1.00  0.00     0.060 A 
ATOM     36  C   UNL A   1      42.698  21.679  27.736  1.00  0.00     0.016 A 
ATOM     37  C   UNL A   1      42.699  22.127  25.356  1.00  0.00     0.016 A 
ATOM     38  C   UNL A   1      43.431  22.836  27.958  1.00  0.00     0.010 A 
ATOM     39  C   UNL A   1      43.400  23.318  25.593  1.00  0.00     0.010 A 
ATOM     40  C   UNL A   1      43.733  23.697  26.904  1.00  0.00    -0.014 A 
BRANCH  40  41
ATOM     41  C   UNL A   1      44.122  25.086  27.258  1.00  0.00     0.031 A 
ATOM     42  C   UNL A   1      45.529  25.526  26.951  1.00  0.00     0.074 A 
ATOM     43  C   UNL A   1      43.220  25.999  27.664  1.00  0.00     0.049 A 
ATOM     44  N   UNL A   1      46.129  26.653  27.233  1.00  0.00    -0.248 NA
ATOM     45  C   UNL A   1      46.365  24.568  26.206  1.00  0.00     0.031 C 
ATOM     46  C   UNL A   1      41.783  25.769  27.815  1.00  0.00     0.029 A 
ATOM     47  N   UNL A   1      43.384  27.322  27.992  1.00  0.00    -0.354 N 
ATOM     48  C   UNL A   1      47.428  26.515  26.757  1.00  0.00     0.074 A 
ATOM     49  C   UNL A   1      47.524  25.205  26.152  1.00  0.00     0.031 C 
ATOM     50  C   UNL A   1      41.195  26.920  28.189  1.00  0.00     0.029 A 
ATOM     51  C   UNL A   1      42.220  27.946  28.372  1.00  0.00     0.049 A 
ATOM     52  H   UNL A   1      44.255  27.781  27.958  1.00  0.00     0.167 HD
ATOM     53  C   UNL A   1      48.455  27.393  26.831  1.00  0.00     0.031 A 
ATOM     54  C   UNL A   1      42.013  29.189  28.849  1.00  0.00     0.031 A 
ATOM     55  C   UNL A   1      48.352  28.704  27.411  1.00  0.00     0.049 A 
ATOM     56  C   UNL A   1      43.188  30.115  29.033  1.00  0.00     0.074 A 
ATOM     57  C   UNL A   1      49.347  29.650  27.587  1.00  0.00     0.029 A 
ATOM     58  N   UNL A   1      47.179  29.260  27.895  1.00  0.00    -0.354 N 
ATOM     59  N   UNL A   1      44.445  29.929  28.702  1.00  0.00    -0.248 NA
ATOM     60  C   UNL A   1      42.920  31.411  29.672  1.00  0.00     0.031 C 
ATOM     61  C   UNL A   1      48.781  30.763  28.221  1.00  0.00     0.029 A 
ATOM     62  C   UNL A   1      47.425  30.530  28.385  1.00  0.00     0.049 A 
ATOM     63  H   UNL A   1      46.300  28.816  27.891  1.00  0.00     0.167 HD
ATOM     64  C   UNL A   1      45.111  31.094  29.072  1.00  0.00     0.074 A 
ATOM     65  C   UNL A   1      44.116  31.981  29.641  1.00  0.00     0.031 C 
ATOM     66  C   UNL A   1      46.426  31.403  28.948  1.00  0.00     0.031 A 
BRANCH  53  67
ATOM     67  C   UNL A   1      49.799  26.908  26.365  1.00  0.00    -0.014 A 
ATOM     68  C   UNL A   1      50.256  27.121  25.053  1.00  0.00     0.010 A 
ATOM     69  C   UNL A   1      50.606  26.188  27.266  1.00  0.00     0.010 A 
ATOM     70  C   UNL A   1      51.473  26.574  24.635  1.00  0.00     0.020 A 
ATOM     71  C   UNL A   1      51.835  25.665  26.860  1.00  0.00     0.020 A 
ATOM     72  C   UNL A   1      52.249  25.839  25.538  1.00  0.00     0.054 A 
BRANCH  72  73
ATOM     73  S   UNL A   1      53.813  25.119  24.971  1.00  0.00     0.124 S 
ATOM     74  O   UNL A   1      54.036  25.837  23.719  1.00  0.00    -0.237 OA
ATOM     75  O   UNL A   1      54.733  25.449  26.057  1.00  0.00    -0.237 OA
ATOM     76  O   UNL A   1      53.508  23.697  24.828  1.00  0.00    -0.744 OA
ENDBRANCH  72  73
ENDBRANCH  53  67
BRANCH  54  77
ATOM     77  C   UNL A   1      40.643  29.617  29.247  1.00  0.00    -0.014 A 
ATOM     78  C   UNL A   1      40.328  29.857  30.595  1.00  0.00     0.010 A 
ATOM     79  C   UNL A   1      39.641  29.780  28.272  1.00  0.00     0.010 A 
ATOM     80  C   UNL A   1      39.035  30.246  30.963  1.00  0.00     0.020 A 
ATOM     81  C   UNL A   1      38.356  30.195  28.631  1.00  0.00     0.020 A 
ATOM     82  C   UNL A   1      38.059  30.418  29.977  1.00  0.00     0.054 A 
BRANCH  82  83
ATOM     83  S   UNL A   1      36.405  30.985  30.464  1.00  0.00     0.124 S 
ATOM     84  O   UNL A   1      35.698  30.992  29.188  1.00  0.00    -0.237 OA
ATOM     85  O   UNL A   1      35.987  29.958  31.415  1.00  0.00    -0.237 OA
ATOM     86  O   UNL A   1      36.655  32.301  31.050  1.00  0.00    -0.744 OA
ENDBRANCH  82  83
ENDBRANCH  54  77
BRANCH  66  87
ATOM     87  C   UNL A   1      46.866  32.771  29.395  1.00  0.00    -0.014 A 
ATOM     88  C   UNL A   1      47.157  33.043  30.743  1.00  0.00     0.010 A 
ATOM     89  C   UNL A   1      47.043  33.787  28.437  1.00  0.00     0.010 A 
ATOM     90  C   UNL A   1      47.586  34.316  31.129  1.00  0.00     0.020 A 
ATOM     91  C   UNL A   1      47.496  35.052  28.816  1.00  0.00     0.020 A 
ATOM     92  C   UNL A   1      47.750  35.314  30.163  1.00  0.00     0.054 A 
BRANCH  92  93
ATOM     93  S   UNL A   1      48.343  36.948  30.681  1.00  0.00     0.124 S 
ATOM     94  O   UNL A   1      47.574  37.839  29.817  1.00  0.00    -0.237 OA
ATOM     95  O   UNL A   1      47.988  36.987  32.098  1.00  0.00    -0.237 OA
ATOM     96  O   UNL A   1      49.778  36.899  30.406  1.00  0.00    -0.744 OA
ENDBRANCH  92  93
ENDBRANCH  66  87
ENDBRANCH  40  41
ENDBRANCH  33  35
ENDBRANCH  32  33
ENDBRANCH  31  32
ENDBRANCH  30  31
ENDBRANCH  29  30
ENDBRANCH  28  29
ENDBRANCH   1  28
TORSDOF 26
ENDMDL
MODEL 3
REMARK VINA RESULT:      -8.9      5.579      8.086
REMARK SMILES CC(C)C[C@H](CNC(=O)N[C@@H](C)C1CCCCC1)C(=O)OCCOCCOCCOC(=O)c1ccc(-c2c3nc(c(-c4ccc(S(=O)(=O)[O-])cc4)c4ccc([nH]4)c(-c4ccc(S(=O)(=O)[O-])cc4)c4nc(c(-c5ccc(S(=O)(=O)[O-])cc5)c5ccc2[nH]5)C=C4)C=C3)cc1
REMARK SMILES IDX 25 1 24 2 23 3 22 4 21 5 19 6 20 7 5 8 4 9 2 10 1 11 3 12
REMARK SMILES IDX 6 13 7 14 8 15 9 17 10 18 11 20 12 21 13 22 14 23 18 24
REMARK SMILES IDX 15 25 17 26 16 27 26 28 27 29 28 30 29 31 30 32 31 33 32 34
REMARK SMILES IDX 33 35 34 36 92 37 35 38 91 39 36 40 37 41 38 42 85 43 39 44
REMARK SMILES IDX 90 45 84 46 86 47 40 48 89 49 83 50 82 51 41 53 71 54 52 55
REMARK SMILES IDX 70 56 53 57 56 58 69 59 87 60 54 61 55 62 68 64 88 65 57 66
REMARK SMILES IDX 42 67 43 68 51 69 44 70 50 71 45 72 46 73 47 74 48 75 49 76
REMARK SMILES IDX 72 77 73 78 81 79 74 80 80 81 75 82 76 83 77 84 78 85 79 86
REMARK SMILES IDX 58 87 59 88 67 89 60 90 66 91 61 92 62 93 63 94 64 95 65 96
REMARK H PARENT 7 16 10 19 86 52 56 63
REMARK Flexibility Score: inf
ROOT
ATOM      1  C   UNL A   1      35.815  22.251  26.526  1.00  0.00     0.188 C 
ENDROOT
BRANCH   1   2
ATOM      2  O   UNL A   1      34.457  22.207  26.911  1.00  0.00    -0.376 OA
BRANCH   2   3
ATOM      3  C   UNL A   1      33.434  22.619  26.018  1.00  0.00     0.202 C 
BRANCH   3   4
ATOM      4  C   UNL A   1      32.252  21.722  25.645  1.00  0.00     0.261 C 
BRANCH   4   5
ATOM      5  O   UNL A   1      30.958  22.359  25.617  1.00  0.00    -0.463 OA
BRANCH   5   6
ATOM      6  C   UNL A   1      30.970  23.670  25.971  1.00  0.00     0.310 C 
ATOM      7  O   UNL A   1      31.064  24.045  27.136  1.00  0.00    -0.252 OA
BRANCH   6   8
ATOM      8  C   UNL A   1      30.814  24.659  24.821  1.00  0.00     0.119 C 
BRANCH   8   9
ATOM      9  C   UNL A   1      32.123  24.713  24.002  1.00  0.00     0.020 C 
BRANCH   9  10
ATOM     10  C   UNL A   1      32.049  24.234  22.534  1.00  0.00    -0.017 C 
ATOM     11  C   UNL A   1      32.748  25.182  21.556  1.00  0.00     0.007 C 
ATOM     12  C   UNL A   1      32.659  22.836  22.416  1.00  0.00     0.007 C 
ENDBRANCH   9  10
ENDBRANCH   8   9
BRANCH   8  13
ATOM     13  C   UNL A   1      30.323  26.064  25.223  1.00  0.00     0.133 C 
BRANCH  13  14
ATOM     14  N   UNL A   1      29.775  26.837  24.114  1.00  0.00    -0.337 N 
ATOM     15  C   UNL A   1      30.204  27.741  23.235  1.00  0.00     0.315 C 
ATOM     16  H   UNL A   1      28.822  26.634  23.978  1.00  0.00     0.165 HD
ATOM     17  O   UNL A   1      29.380  28.142  22.407  1.00  0.00    -0.249 OA
ATOM     18  N   UNL A   1      31.429  28.254  23.168  1.00  0.00    -0.335 N 
ATOM     19  H   UNL A   1      31.503  28.908  22.436  1.00  0.00     0.165 HD
BRANCH  18  20
ATOM     20  C   UNL A   1      32.697  28.112  23.880  1.00  0.00     0.083 C 
ATOM     21  C   UNL A   1      33.777  28.853  23.081  1.00  0.00     0.031 C 
BRANCH  20  22
ATOM     22  C   UNL A   1      32.539  28.659  25.338  1.00  0.00     0.011 C 
ATOM     23  C   UNL A   1      33.891  28.572  26.075  1.00  0.00     0.006 C 
ATOM     24  C   UNL A   1      32.005  30.099  25.354  1.00  0.00     0.006 C 
ATOM     25  C   UNL A   1      33.905  29.262  27.434  1.00  0.00     0.000 C 
ATOM     26  C   UNL A   1      32.059  30.773  26.724  1.00  0.00     0.000 C 
ATOM     27  C   UNL A   1      33.459  30.712  27.313  1.00  0.00     0.000 C 
ENDBRANCH  20  22
ENDBRANCH  18  20
ENDBRANCH  13  14
ENDBRANCH   8  13
ENDBRANCH   6   8
ENDBRANCH   5   6
ENDBRANCH   4   5
ENDBRANCH   3   4
ENDBRANCH   2   3
ENDBRANCH   1   2
BRANCH   1  28
ATOM     28  C   UNL A   1      36.182  22.292  25.036  1.00  0.00     0.188 C 
BRANCH  28  29
ATOM     29  O   UNL A   1      37.477  21.951  24.591  1.00  0.00    -0.376 OA
BRANCH  29  30
ATOM     30  C   UNL A   1      38.524  21.866  25.551  1.00  0.00     0.202 C 
BRANCH  30  31
ATOM     31  C   UNL A   1      39.305  20.568  25.804  1.00  0.00     0.261 C 
BRANCH  31  32
ATOM     32  O   UNL A   1      40.398  20.674  26.726  1.00  0.00    -0.460 OA
BRANCH  32  33
ATOM     33  C   UNL A   1      41.614  20.392  26.199  1.00  0.00     0.338 C 
ATOM     34  O   UNL A   1      41.938  19.385  25.578  1.00  0.00    -0.246 OA
BRANCH  33  35
ATOM     35  C   UNL A   1      42.500  21.558  26.318  1.00  0.00     0.060 A 
ATOM     36  C   UNL A   1      43.052  21.839  27.570  1.00  0.00     0.016 A 
ATOM     37  C   UNL A   1      42.664  22.449  25.258  1.00  0.00     0.016 A 
ATOM     38  C   UNL A   1      43.763  23.014  27.764  1.00  0.00     0.010 A 
ATOM     39  C   UNL A   1      43.346  23.655  25.475  1.00  0.00     0.010 A 
ATOM     40  C   UNL A   1      43.863  23.960  26.745  1.00  0.00    -0.014 A 
BRANCH  40  41
ATOM     41  C   UNL A   1      44.246  25.340  27.140  1.00  0.00     0.031 A 
ATOM     42  C   UNL A   1      45.613  25.834  26.745  1.00  0.00     0.074 A 
ATOM     43  C   UNL A   1      43.358  26.205  27.665  1.00  0.00     0.049 A 
ATOM     44  N   UNL A   1      46.205  26.962  27.038  1.00  0.00    -0.248 NA
ATOM     45  C   UNL A   1      46.408  24.940  25.886  1.00  0.00     0.031 C 
ATOM     46  C   UNL A   1      41.945  25.927  27.918  1.00  0.00     0.029 A 
ATOM     47  N   UNL A   1      43.517  27.514  28.049  1.00  0.00    -0.354 N 
ATOM     48  C   UNL A   1      47.465  26.885  26.453  1.00  0.00     0.074 A 
ATOM     49  C   UNL A   1      47.543  25.611  25.773  1.00  0.00     0.031 C 
ATOM     50  C   UNL A   1      41.361  27.040  28.398  1.00  0.00     0.029 A 
ATOM     51  C   UNL A   1      42.373  28.084  28.553  1.00  0.00     0.049 A 
ATOM     52  H   UNL A   1      44.371  27.998  27.969  1.00  0.00     0.167 HD
ATOM     53  C   UNL A   1      48.473  27.787  26.492  1.00  0.00     0.031 A 
ATOM     54  C   UNL A   1      42.175  29.295  29.111  1.00  0.00     0.031 A 
ATOM     55  C   UNL A   1      48.387  29.063  27.147  1.00  0.00     0.049 A 
ATOM     56  C   UNL A   1      43.339  30.243  29.249  1.00  0.00     0.074 A 
ATOM     57  C   UNL A   1      49.369  30.026  27.293  1.00  0.00     0.029 A 
ATOM     58  N   UNL A   1      47.243  29.560  27.752  1.00  0.00    -0.354 N 
ATOM     59  N   UNL A   1      44.569  30.110  28.809  1.00  0.00    -0.248 NA
ATOM     60  C   UNL A   1      43.092  31.496  29.975  1.00  0.00     0.031 C 
ATOM     61  C   UNL A   1      48.830  31.089  28.028  1.00  0.00     0.029 A 
ATOM     62  C   UNL A   1      47.498  30.810  28.287  1.00  0.00     0.049 A 
ATOM     63  H   UNL A   1      46.377  29.093  27.794  1.00  0.00     0.167 HD
ATOM     64  C   UNL A   1      45.234  31.273  29.186  1.00  0.00     0.074 A 
ATOM     65  C   UNL A   1      44.268  32.101  29.879  1.00  0.00     0.031 C 
ATOM     66  C   UNL A   1      46.527  31.625  28.975  1.00  0.00     0.031 A 
BRANCH  53  67
ATOM     67  C   UNL A   1      49.786  27.364  25.894  1.00  0.00    -0.014 A 
ATOM     68  C   UNL A   1      50.123  27.643  24.559  1.00  0.00     0.010 A 
ATOM     69  C   UNL A   1      50.688  26.637  26.693  1.00  0.00     0.010 A 
ATOM     70  C   UNL A   1      51.316  27.154  24.017  1.00  0.00     0.020 A 
ATOM     71  C   UNL A   1      51.892  26.170  26.164  1.00  0.00     0.020 A 
ATOM     72  C   UNL A   1      52.186  26.409  24.821  1.00  0.00     0.054 A 
BRANCH  72  73
ATOM     73  S   UNL A   1      53.717  25.763  24.094  1.00  0.00     0.124 S 
ATOM     74  O   UNL A   1      53.650  24.351  24.463  1.00  0.00    -0.237 OA
ATOM     75  O   UNL A   1      53.545  26.049  22.672  1.00  0.00    -0.237 OA
ATOM     76  O   UNL A   1      54.766  26.532  24.759  1.00  0.00    -0.744 OA
ENDBRANCH  72  73
ENDBRANCH  53  67
BRANCH  54  77
ATOM     77  C   UNL A   1      40.832  29.663  29.639  1.00  0.00    -0.014 A 
ATOM     78  C   UNL A   1      39.858  30.226  28.798  1.00  0.00     0.010 A 
ATOM     79  C   UNL A   1      40.525  29.455  30.997  1.00  0.00     0.010 A 
ATOM     80  C   UNL A   1      38.603  30.580  29.305  1.00  0.00     0.020 A 
ATOM     81  C   UNL A   1      39.264  29.783  31.502  1.00  0.00     0.020 A 
ATOM     82  C   UNL A   1      38.312  30.351  30.653  1.00  0.00     0.054 A 
BRANCH  82  83
ATOM     83  S   UNL A   1      36.658  30.757  31.279  1.00  0.00     0.124 S 
ATOM     84  O   UNL A   1      35.880  30.844  30.047  1.00  0.00    -0.237 OA
ATOM     85  O   UNL A   1      36.356  29.616  32.140  1.00  0.00    -0.237 OA
ATOM     86  O   UNL A   1      36.861  32.023  31.982  1.00  0.00    -0.744 OA
ENDBRANCH  82  83
ENDBRANCH  54  77
BRANCH  66  87
ATOM     87  C   UNL A   1      46.968  32.980  29.457  1.00  0.00    -0.014 A 
ATOM     88  C   UNL A   1      47.582  33.148  30.711  1.00  0.00     0.010 A 
ATOM     89  C   UNL A   1      46.815  34.096  28.614  1.00  0.00     0.010 A 
ATOM     90  C   UNL A   1      48.004  34.414  31.126  1.00  0.00     0.020 A 
ATOM     91  C   UNL A   1      47.260  35.359  29.015  1.00  0.00     0.020 A 
ATOM     92  C   UNL A   1      47.837  35.513  30.276  1.00  0.00     0.054 A 
BRANCH  92  93
ATOM     93  S   UNL A   1      48.426  37.140  30.820  1.00  0.00     0.124 S 
ATOM     94  O   UNL A   1      49.733  36.816  31.385  1.00  0.00    -0.237 OA
ATOM     95  O   UNL A   1      48.452  37.907  29.577  1.00  0.00    -0.237 OA
ATOM     96  O   UNL A   1      47.417  37.568  31.787  1.00  0.00    -0.744 OA
ENDBRANCH  92  93
ENDBRANCH  66  87
ENDBRANCH  40  41
ENDBRANCH  33  35
ENDBRANCH  32  33
ENDBRANCH  31  32
ENDBRANCH  30  31
ENDBRANCH  29  30
ENDBRANCH  28  29
ENDBRANCH   1  28
TORSDOF 26
ENDMDL
