MODEL 1
REMARK VINA RESULT:      -7.8      0.000      0.000
REMARK SMILES COc1ccc(-c2cc([C@@H]3CC[N@@H+](CC(=O)OCCOCCOCCOC(=O)c4ccc(-c5c6nc(c(-c7ccc(S(=O)(=O)[O-])cc7)c7ccc([nH]7)c(-c7ccc(S(=O)(=O)[O-])cc7)c7nc(c(-c8ccc(S(=O)(=O)[O-])cc8)c8ccc5[nH]8)C=C7)C=C6)cc4)C3)ccn2)c2ccc(C)nc12
REMARK SMILES IDX 21 1 20 2 19 3 18 4 17 5 15 6 16 7 14 8 13 9 10 10 11 11
REMARK SMILES IDX 89 12 12 13 9 15 7 16 8 17 92 18 91 19 90 20 6 21 3 22 4 23
REMARK SMILES IDX 99 24 5 25 93 26 98 27 94 28 96 29 95 30 97 31 2 32 1 33
REMARK SMILES IDX 22 34 23 35 24 36 25 37 26 38 27 39 28 40 29 41 30 42 88 43
REMARK SMILES IDX 31 44 87 45 32 46 33 47 34 48 81 49 35 50 86 51 80 52 82 53
REMARK SMILES IDX 36 54 85 55 79 56 78 57 37 59 67 60 48 61 66 62 49 63 52 64
REMARK SMILES IDX 65 65 83 66 50 67 51 68 64 70 84 71 53 72 38 73 39 74 47 75
REMARK SMILES IDX 40 76 46 77 41 78 42 79 43 80 44 81 45 82 68 83 69 84 77 85
REMARK SMILES IDX 70 86 76 87 71 88 72 89 73 90 74 91 75 92 54 93 55 94 63 95
REMARK SMILES IDX 56 96 62 97 57 98 58 99 59 100 60 101 61 102
REMARK H PARENT 13 14 82 58 52 69
REMARK Flexibility Score: inf
ROOT
ATOM      1  C   UNL A   1      46.004  27.654  25.603  1.00  0.00     0.188 C 
ENDROOT
BRANCH   1   2
ATOM      2  O   UNL A   1      45.395  26.419  25.253  1.00  0.00    -0.376 OA
BRANCH   2   3
ATOM      3  C   UNL A   1      46.263  25.312  25.011  1.00  0.00     0.202 C 
BRANCH   3   4
ATOM      4  C   UNL A   1      45.757  23.917  25.411  1.00  0.00     0.261 C 
BRANCH   4   5
ATOM      5  O   UNL A   1      44.389  23.867  25.886  1.00  0.00    -0.459 OA
BRANCH   5   6
ATOM      6  C   UNL A   1      43.509  23.249  25.047  1.00  0.00     0.361 C 
ATOM      7  O   UNL A   1      43.854  22.568  24.082  1.00  0.00    -0.245 OA
BRANCH   6   8
ATOM      8  C   UNL A   1      42.037  23.343  25.448  1.00  0.00     0.386 C 
BRANCH   8   9
ATOM      9  N   UNL A   1      41.655  23.938  26.734  1.00  0.00    -0.325 N 
ATOM     10  C   UNL A   1      39.836  25.437  27.162  1.00  0.00     0.080 C 
ATOM     11  C   UNL A   1      39.443  24.008  27.549  1.00  0.00     0.075 C 
ATOM     12  C   UNL A   1      41.319  25.356  26.759  1.00  0.00     0.271 C 
ATOM     13  C   UNL A   1      40.749  23.232  27.616  1.00  0.00     0.263 C 
ATOM     14  H   UNL A   1      42.589  23.811  27.125  1.00  0.00     0.348 HD
BRANCH  10  15
ATOM     15  C   UNL A   1      39.462  26.429  28.236  1.00  0.00    -0.035 A 
ATOM     16  C   UNL A   1      38.445  28.503  28.895  1.00  0.00     0.071 A 
ATOM     17  C   UNL A   1      38.849  27.617  27.895  1.00  0.00     0.033 A 
ATOM     18  N   UNL A   1      38.680  28.314  30.210  1.00  0.00    -0.256 NA
ATOM     19  C   UNL A   1      39.317  27.175  30.530  1.00  0.00     0.112 A 
ATOM     20  C   UNL A   1      39.735  26.238  29.593  1.00  0.00     0.024 A 
BRANCH  16  21
ATOM     21  C   UNL A   1      37.708  29.694  28.501  1.00  0.00     0.010 A 
ATOM     22  C   UNL A   1      36.018  31.854  28.195  1.00  0.00     0.145 A 
ATOM     23  C   UNL A   1      35.641  30.606  27.688  1.00  0.00     0.049 A 
ATOM     24  C   UNL A   1      37.238  32.073  28.863  1.00  0.00     0.113 A 
ATOM     25  C   UNL A   1      36.490  29.527  27.834  1.00  0.00     0.015 A 
ATOM     26  C   UNL A   1      38.114  30.980  28.970  1.00  0.00     0.013 A 
ATOM     27  N   UNL A   1      37.558  33.273  29.412  1.00  0.00    -0.249 NA
ATOM     28  C   UNL A   1      39.367  31.209  29.590  1.00  0.00     0.013 A 
ATOM     29  C   UNL A   1      38.741  33.440  30.052  1.00  0.00     0.038 A 
ATOM     30  C   UNL A   1      39.681  32.437  30.144  1.00  0.00     0.024 A 
ATOM     31  C   UNL A   1      39.006  34.789  30.646  1.00  0.00     0.067 C 
BRANCH  22  32
ATOM     32  O   UNL A   1      35.061  32.834  28.027  1.00  0.00    -0.494 OA
ATOM     33  C   UNL A   1      33.764  32.270  27.843  1.00  0.00     0.278 C 
ENDBRANCH  22  32
ENDBRANCH  16  21
ENDBRANCH  10  15
ENDBRANCH   8   9
ENDBRANCH   6   8
ENDBRANCH   5   6
ENDBRANCH   4   5
ENDBRANCH   3   4
ENDBRANCH   2   3
ENDBRANCH   1   2
BRANCH   1  34
ATOM     34  C   UNL A   1      47.227  27.590  26.537  1.00  0.00     0.188 C 
BRANCH  34  35
ATOM     35  O   UNL A   1      46.889  27.379  27.897  1.00  0.00    -0.376 OA
BRANCH  35  36
ATOM     36  C   UNL A   1      47.323  26.212  28.571  1.00  0.00     0.202 C 
BRANCH  36  37
ATOM     37  C   UNL A   1      46.309  25.090  28.810  1.00  0.00     0.261 C 
BRANCH  37  38
ATOM     38  O   UNL A   1      44.960  25.382  28.419  1.00  0.00    -0.460 OA
BRANCH  38  39
ATOM     39  C   UNL A   1      43.999  25.335  29.364  1.00  0.00     0.338 C 
ATOM     40  O   UNL A   1      43.527  24.340  29.885  1.00  0.00    -0.246 OA
BRANCH  39  41
ATOM     41  C   UNL A   1      43.733  26.702  29.840  1.00  0.00     0.060 A 
ATOM     42  C   UNL A   1      43.046  27.586  28.997  1.00  0.00     0.016 A 
ATOM     43  C   UNL A   1      44.141  27.101  31.112  1.00  0.00     0.016 A 
ATOM     44  C   UNL A   1      42.793  28.891  29.414  1.00  0.00     0.010 A 
ATOM     45  C   UNL A   1      43.895  28.407  31.526  1.00  0.00     0.010 A 
ATOM     46  C   UNL A   1      43.251  29.315  30.667  1.00  0.00    -0.014 A 
BRANCH  46  47
ATOM     47  C   UNL A   1      43.211  30.746  31.039  1.00  0.00     0.031 A 
ATOM     48  C   UNL A   1      44.148  31.690  30.337  1.00  0.00     0.074 A 
ATOM     49  C   UNL A   1      42.379  31.188  31.998  1.00  0.00     0.049 A 
ATOM     50  N   UNL A   1      44.403  32.945  30.591  1.00  0.00    -0.248 NA
ATOM     51  C   UNL A   1      44.910  31.135  29.204  1.00  0.00     0.031 C 
ATOM     52  C   UNL A   1      41.391  30.374  32.704  1.00  0.00     0.029 A 
ATOM     53  N   UNL A   1      42.250  32.434  32.556  1.00  0.00    -0.354 N 
ATOM     54  C   UNL A   1      45.374  33.323  29.671  1.00  0.00     0.074 A 
ATOM     55  C   UNL A   1      45.678  32.159  28.868  1.00  0.00     0.031 C 
ATOM     56  C   UNL A   1      40.764  31.141  33.613  1.00  0.00     0.029 A 
ATOM     57  C   UNL A   1      41.345  32.481  33.589  1.00  0.00     0.049 A 
ATOM     58  H   UNL A   1      42.758  33.220  32.246  1.00  0.00     0.167 HD
ATOM     59  C   UNL A   1      45.959  34.533  29.512  1.00  0.00     0.031 A 
ATOM     60  C   UNL A   1      41.048  33.482  34.440  1.00  0.00     0.031 A 
ATOM     61  C   UNL A   1      45.651  35.680  30.326  1.00  0.00     0.049 A 
ATOM     62  C   UNL A   1      41.768  34.799  34.296  1.00  0.00     0.074 A 
ATOM     63  C   UNL A   1      46.173  36.958  30.246  1.00  0.00     0.029 A 
ATOM     64  N   UNL A   1      44.744  35.682  31.377  1.00  0.00    -0.354 N 
ATOM     65  N   UNL A   1      42.680  35.149  33.418  1.00  0.00    -0.248 NA
ATOM     66  C   UNL A   1      41.415  35.856  35.253  1.00  0.00     0.031 C 
ATOM     67  C   UNL A   1      45.630  37.715  31.288  1.00  0.00     0.029 A 
ATOM     68  C   UNL A   1      44.712  36.932  31.970  1.00  0.00     0.049 A 
ATOM     69  H   UNL A   1      44.203  34.909  31.658  1.00  0.00     0.167 HD
ATOM     70  C   UNL A   1      42.986  36.478  33.697  1.00  0.00     0.074 A 
ATOM     71  C   UNL A   1      42.151  36.870  34.816  1.00  0.00     0.031 C 
ATOM     72  C   UNL A   1      43.872  37.300  33.083  1.00  0.00     0.031 A 
BRANCH  59  73
ATOM     73  C   UNL A   1      47.020  34.664  28.450  1.00  0.00    -0.014 A 
ATOM     74  C   UNL A   1      46.719  35.145  27.164  1.00  0.00     0.010 A 
ATOM     75  C   UNL A   1      48.351  34.326  28.757  1.00  0.00     0.010 A 
ATOM     76  C   UNL A   1      47.720  35.249  26.194  1.00  0.00     0.020 A 
ATOM     77  C   UNL A   1      49.361  34.458  27.801  1.00  0.00     0.020 A 
ATOM     78  C   UNL A   1      49.036  34.903  26.519  1.00  0.00     0.054 A 
BRANCH  78  79
ATOM     79  S   UNL A   1      50.317  35.070  25.247  1.00  0.00     0.124 S 
ATOM     80  O   UNL A   1      49.740  36.085  24.369  1.00  0.00    -0.237 OA
ATOM     81  O   UNL A   1      51.481  35.495  26.020  1.00  0.00    -0.237 OA
ATOM     82  O   UNL A   1      50.411  33.730  24.671  1.00  0.00    -0.744 OA
ENDBRANCH  78  79
ENDBRANCH  59  73
BRANCH  60  83
ATOM     83  C   UNL A   1      40.043  33.271  35.519  1.00  0.00    -0.014 A 
ATOM     84  C   UNL A   1      38.669  33.382  35.250  1.00  0.00     0.010 A 
ATOM     85  C   UNL A   1      40.459  32.947  36.824  1.00  0.00     0.010 A 
ATOM     86  C   UNL A   1      37.729  33.190  36.267  1.00  0.00     0.020 A 
ATOM     87  C   UNL A   1      39.521  32.721  37.836  1.00  0.00     0.020 A 
ATOM     88  C   UNL A   1      38.162  32.854  37.553  1.00  0.00     0.054 A 
BRANCH  88  89
ATOM     89  S   UNL A   1      36.920  32.557  38.842  1.00  0.00     0.124 S 
ATOM     90  O   UNL A   1      35.712  33.104  38.232  1.00  0.00    -0.237 OA
ATOM     91  O   UNL A   1      36.957  31.104  38.982  1.00  0.00    -0.237 OA
ATOM     92  O   UNL A   1      37.434  33.301  39.990  1.00  0.00    -0.744 OA
ENDBRANCH  88  89
ENDBRANCH  60  83
BRANCH  72  93
ATOM     93  C   UNL A   1      43.955  38.723  33.575  1.00  0.00    -0.014 A 
ATOM     94  C   UNL A   1      44.767  39.079  34.666  1.00  0.00     0.010 A 
ATOM     95  C   UNL A   1      43.249  39.730  32.890  1.00  0.00     0.010 A 
ATOM     96  C   UNL A   1      44.845  40.410  35.083  1.00  0.00     0.020 A 
ATOM     97  C   UNL A   1      43.350  41.065  33.282  1.00  0.00     0.020 A 
ATOM     98  C   UNL A   1      44.137  41.396  34.387  1.00  0.00     0.054 A 
BRANCH  98  99
ATOM     99  S   UNL A   1      44.290  43.122  34.922  1.00  0.00     0.124 S 
ATOM    100  O   UNL A   1      44.825  42.974  36.273  1.00  0.00    -0.237 OA
ATOM    101  O   UNL A   1      45.212  43.680  33.937  1.00  0.00    -0.237 OA
ATOM    102  O   UNL A   1      42.923  43.631  34.846  1.00  0.00    -0.744 OA
ENDBRANCH  98  99
ENDBRANCH  72  93
ENDBRANCH  46  47
ENDBRANCH  39  41
ENDBRANCH  38  39
ENDBRANCH  37  38
ENDBRANCH  36  37
ENDBRANCH  35  36
ENDBRANCH  34  35
ENDBRANCH   1  34
TORSDOF 24
ENDMDL
MODEL 2
REMARK VINA RESULT:      -7.5      3.010      4.764
REMARK SMILES COc1ccc(-c2cc([C@@H]3CC[N@@H+](CC(=O)OCCOCCOCCOC(=O)c4ccc(-c5c6nc(c(-c7ccc(S(=O)(=O)[O-])cc7)c7ccc([nH]7)c(-c7ccc(S(=O)(=O)[O-])cc7)c7nc(c(-c8ccc(S(=O)(=O)[O-])cc8)c8ccc5[nH]8)C=C7)C=C6)cc4)C3)ccn2)c2ccc(C)nc12
REMARK SMILES IDX 21 1 20 2 19 3 18 4 17 5 15 6 16 7 14 8 13 9 10 10 11 11
REMARK SMILES IDX 89 12 12 13 9 15 7 16 8 17 92 18 91 19 90 20 6 21 3 22 4 23
REMARK SMILES IDX 99 24 5 25 93 26 98 27 94 28 96 29 95 30 97 31 2 32 1 33
REMARK SMILES IDX 22 34 23 35 24 36 25 37 26 38 27 39 28 40 29 41 30 42 88 43
REMARK SMILES IDX 31 44 87 45 32 46 33 47 34 48 81 49 35 50 86 51 80 52 82 53
REMARK SMILES IDX 36 54 85 55 79 56 78 57 37 59 67 60 48 61 66 62 49 63 52 64
REMARK SMILES IDX 65 65 83 66 50 67 51 68 64 70 84 71 53 72 38 73 39 74 47 75
REMARK SMILES IDX 40 76 46 77 41 78 42 79 43 80 44 81 45 82 68 83 69 84 77 85
REMARK SMILES IDX 70 86 76 87 71 88 72 89 73 90 74 91 75 92 54 93 55 94 63 95
REMARK SMILES IDX 56 96 62 97 57 98 58 99 59 100 60 101 61 102
REMARK H PARENT 13 14 82 58 52 69
REMARK Flexibility Score: inf
ROOT
ATOM      1  C   UNL A   1      45.225  27.381  25.680  1.00  0.00     0.188 C 
ENDROOT
BRANCH   1   2
ATOM      2  O   UNL A   1      45.240  25.994  25.368  1.00  0.00    -0.376 OA
BRANCH   2   3
ATOM      3  C   UNL A   1      46.462  25.455  24.865  1.00  0.00     0.202 C 
BRANCH   3   4
ATOM      4  C   UNL A   1      46.667  23.936  24.983  1.00  0.00     0.261 C 
BRANCH   4   5
ATOM      5  O   UNL A   1      45.740  23.254  25.864  1.00  0.00    -0.459 OA
BRANCH   5   6
ATOM      6  C   UNL A   1      45.110  22.176  25.315  1.00  0.00     0.361 C 
ATOM      7  O   UNL A   1      45.373  21.730  24.200  1.00  0.00    -0.245 OA
BRANCH   6   8
ATOM      8  C   UNL A   1      44.120  21.454  26.230  1.00  0.00     0.386 C 
BRANCH   8   9
ATOM      9  N   UNL A   1      42.904  22.133  26.691  1.00  0.00    -0.325 N 
ATOM     10  C   UNL A   1      40.642  21.650  26.068  1.00  0.00     0.080 C 
ATOM     11  C   UNL A   1      40.963  21.010  27.422  1.00  0.00     0.075 C 
ATOM     12  C   UNL A   1      41.891  22.470  25.699  1.00  0.00     0.271 C 
ATOM     13  C   UNL A   1      42.240  21.686  27.897  1.00  0.00     0.263 C 
ATOM     14  H   UNL A   1      43.415  22.980  26.945  1.00  0.00     0.348 HD
BRANCH  10  15
ATOM     15  C   UNL A   1      39.319  22.376  26.093  1.00  0.00    -0.035 A 
ATOM     16  C   UNL A   1      36.988  22.480  25.524  1.00  0.00     0.071 A 
ATOM     17  C   UNL A   1      38.226  21.840  25.443  1.00  0.00     0.033 A 
ATOM     18  N   UNL A   1      36.787  23.658  26.149  1.00  0.00    -0.256 NA
ATOM     19  C   UNL A   1      37.866  24.195  26.742  1.00  0.00     0.112 A 
ATOM     20  C   UNL A   1      39.127  23.610  26.719  1.00  0.00     0.024 A 
BRANCH  16  21
ATOM     21  C   UNL A   1      35.838  21.829  24.914  1.00  0.00     0.010 A 
ATOM     22  C   UNL A   1      33.431  20.656  24.244  1.00  0.00     0.145 A 
ATOM     23  C   UNL A   1      34.437  19.881  24.830  1.00  0.00     0.049 A 
ATOM     24  C   UNL A   1      33.585  22.029  23.969  1.00  0.00     0.113 A 
ATOM     25  C   UNL A   1      35.644  20.466  25.159  1.00  0.00     0.015 A 
ATOM     26  C   UNL A   1      34.830  22.607  24.267  1.00  0.00     0.013 A 
ATOM     27  N   UNL A   1      32.574  22.784  23.466  1.00  0.00    -0.249 NA
ATOM     28  C   UNL A   1      35.008  23.973  23.940  1.00  0.00     0.013 A 
ATOM     29  C   UNL A   1      32.761  24.104  23.221  1.00  0.00     0.038 A 
ATOM     30  C   UNL A   1      33.971  24.731  23.426  1.00  0.00     0.024 A 
ATOM     31  C   UNL A   1      31.590  24.867  22.685  1.00  0.00     0.067 C 
BRANCH  22  32
ATOM     32  O   UNL A   1      32.260  19.964  24.011  1.00  0.00    -0.494 OA
ATOM     33  C   UNL A   1      32.517  18.601  23.681  1.00  0.00     0.278 C 
ENDBRANCH  22  32
ENDBRANCH  16  21
ENDBRANCH  10  15
ENDBRANCH   8   9
ENDBRANCH   6   8
ENDBRANCH   5   6
ENDBRANCH   4   5
ENDBRANCH   3   4
ENDBRANCH   2   3
ENDBRANCH   1   2
BRANCH   1  34
ATOM     34  C   UNL A   1      46.406  27.925  26.505  1.00  0.00     0.188 C 
BRANCH  34  35
ATOM     35  O   UNL A   1      46.355  27.559  27.873  1.00  0.00    -0.376 OA
BRANCH  35  36
ATOM     36  C   UNL A   1      47.138  26.483  28.358  1.00  0.00     0.202 C 
BRANCH  36  37
ATOM     37  C   UNL A   1      46.435  25.165  28.692  1.00  0.00     0.261 C 
BRANCH  37  38
ATOM     38  O   UNL A   1      45.003  25.193  28.621  1.00  0.00    -0.460 OA
BRANCH  38  39
ATOM     39  C   UNL A   1      44.308  25.132  29.775  1.00  0.00     0.338 C 
ATOM     40  O   UNL A   1      44.061  24.138  30.435  1.00  0.00    -0.246 OA
BRANCH  39  41
ATOM     41  C   UNL A   1      44.051  26.502  30.249  1.00  0.00     0.060 A 
ATOM     42  C   UNL A   1      43.110  27.284  29.566  1.00  0.00     0.016 A 
ATOM     43  C   UNL A   1      44.720  27.003  31.365  1.00  0.00     0.016 A 
ATOM     44  C   UNL A   1      42.858  28.590  29.981  1.00  0.00     0.010 A 
ATOM     45  C   UNL A   1      44.473  28.310  31.775  1.00  0.00     0.010 A 
ATOM     46  C   UNL A   1      43.567  29.118  31.066  1.00  0.00    -0.014 A 
BRANCH  46  47
ATOM     47  C   UNL A   1      43.499  30.562  31.380  1.00  0.00     0.031 A 
ATOM     48  C   UNL A   1      44.424  31.494  30.646  1.00  0.00     0.074 A 
ATOM     49  C   UNL A   1      42.654  31.026  32.316  1.00  0.00     0.049 A 
ATOM     50  N   UNL A   1      44.655  32.763  30.851  1.00  0.00    -0.248 NA
ATOM     51  C   UNL A   1      45.202  30.908  29.540  1.00  0.00     0.031 C 
ATOM     52  C   UNL A   1      41.676  30.223  33.049  1.00  0.00     0.029 A 
ATOM     53  N   UNL A   1      42.499  32.291  32.823  1.00  0.00    -0.354 N 
ATOM     54  C   UNL A   1      45.624  33.121  29.921  1.00  0.00     0.074 A 
ATOM     55  C   UNL A   1      45.954  31.932  29.167  1.00  0.00     0.031 C 
ATOM     56  C   UNL A   1      41.030  31.014  33.923  1.00  0.00     0.029 A 
ATOM     57  C   UNL A   1      41.587  32.363  33.848  1.00  0.00     0.049 A 
ATOM     58  H   UNL A   1      42.994  33.073  32.485  1.00  0.00     0.167 HD
ATOM     59  C   UNL A   1      46.188  34.335  29.717  1.00  0.00     0.031 A 
ATOM     60  C   UNL A   1      41.268  33.392  34.658  1.00  0.00     0.031 A 
ATOM     61  C   UNL A   1      45.855  35.507  30.484  1.00  0.00     0.049 A 
ATOM     62  C   UNL A   1      41.964  34.714  34.464  1.00  0.00     0.074 A 
ATOM     63  C   UNL A   1      46.354  36.790  30.355  1.00  0.00     0.029 A 
ATOM     64  N   UNL A   1      44.941  35.534  31.528  1.00  0.00    -0.354 N 
ATOM     65  N   UNL A   1      42.875  35.046  33.578  1.00  0.00    -0.248 NA
ATOM     66  C   UNL A   1      41.587  35.803  35.376  1.00  0.00     0.031 C 
ATOM     67  C   UNL A   1      45.791  37.578  31.363  1.00  0.00     0.029 A 
ATOM     68  C   UNL A   1      44.883  36.806  32.071  1.00  0.00     0.049 A 
ATOM     69  H   UNL A   1      44.413  34.763  31.838  1.00  0.00     0.167 HD
ATOM     70  C   UNL A   1      43.155  36.390  33.806  1.00  0.00     0.074 A 
ATOM     71  C   UNL A   1      42.307  36.811  34.903  1.00  0.00     0.031 C 
ATOM     72  C   UNL A   1      44.030  37.203  33.164  1.00  0.00     0.031 A 
BRANCH  59  73
ATOM     73  C   UNL A   1      47.253  34.442  28.657  1.00  0.00    -0.014 A 
ATOM     74  C   UNL A   1      48.613  34.244  28.957  1.00  0.00     0.010 A 
ATOM     75  C   UNL A   1      46.881  34.717  27.328  1.00  0.00     0.010 A 
ATOM     76  C   UNL A   1      49.583  34.358  27.957  1.00  0.00     0.020 A 
ATOM     77  C   UNL A   1      47.844  34.801  26.319  1.00  0.00     0.020 A 
ATOM     78  C   UNL A   1      49.191  34.637  26.644  1.00  0.00     0.054 A 
BRANCH  78  79
ATOM     79  S   UNL A   1      50.471  34.757  25.363  1.00  0.00     0.124 S 
ATOM     80  O   UNL A   1      51.616  35.245  26.127  1.00  0.00    -0.237 OA
ATOM     81  O   UNL A   1      50.574  33.379  24.887  1.00  0.00    -0.237 OA
ATOM     82  O   UNL A   1      49.913  35.705  24.402  1.00  0.00    -0.744 OA
ENDBRANCH  78  79
ENDBRANCH  59  73
BRANCH  60  83
ATOM     83  C   UNL A   1      40.260  33.205  35.739  1.00  0.00    -0.014 A 
ATOM     84  C   UNL A   1      38.889  33.354  35.473  1.00  0.00     0.010 A 
ATOM     85  C   UNL A   1      40.670  32.867  37.042  1.00  0.00     0.010 A 
ATOM     86  C   UNL A   1      37.946  33.185  36.492  1.00  0.00     0.020 A 
ATOM     87  C   UNL A   1      39.729  32.665  38.056  1.00  0.00     0.020 A 
ATOM     88  C   UNL A   1      38.373  32.835  37.777  1.00  0.00     0.054 A 
BRANCH  88  89
ATOM     89  S   UNL A   1      37.127  32.569  39.068  1.00  0.00     0.124 S 
ATOM     90  O   UNL A   1      37.404  31.197  39.481  1.00  0.00    -0.237 OA
ATOM     91  O   UNL A   1      37.462  33.604  40.043  1.00  0.00    -0.237 OA
ATOM     92  O   UNL A   1      35.861  32.769  38.368  1.00  0.00    -0.744 OA
ENDBRANCH  88  89
ENDBRANCH  60  83
BRANCH  72  93
ATOM     93  C   UNL A   1      44.085  38.645  33.599  1.00  0.00    -0.014 A 
ATOM     94  C   UNL A   1      43.215  39.610  33.060  1.00  0.00     0.010 A 
ATOM     95  C   UNL A   1      44.986  39.026  34.611  1.00  0.00     0.010 A 
ATOM     96  C   UNL A   1      43.271  40.935  33.502  1.00  0.00     0.020 A 
ATOM     97  C   UNL A   1      45.021  40.340  35.079  1.00  0.00     0.020 A 
ATOM     98  C   UNL A   1      44.172  41.291  34.510  1.00  0.00     0.054 A 
BRANCH  98  99
ATOM     99  S   UNL A   1      44.192  43.007  35.095  1.00  0.00     0.124 S 
ATOM    100  O   UNL A   1      45.140  43.630  34.176  1.00  0.00    -0.237 OA
ATOM    101  O   UNL A   1      42.799  43.415  34.936  1.00  0.00    -0.237 OA
ATOM    102  O   UNL A   1      44.648  42.897  36.479  1.00  0.00    -0.744 OA
ENDBRANCH  98  99
ENDBRANCH  72  93
ENDBRANCH  46  47
ENDBRANCH  39  41
ENDBRANCH  38  39
ENDBRANCH  37  38
ENDBRANCH  36  37
ENDBRANCH  35  36
ENDBRANCH  34  35
ENDBRANCH   1  34
TORSDOF 24
ENDMDL
MODEL 3
REMARK VINA RESULT:      -7.2      5.149     11.799
REMARK SMILES COc1ccc(-c2cc([C@@H]3CC[N@@H+](CC(=O)OCCOCCOCCOC(=O)c4ccc(-c5c6nc(c(-c7ccc(S(=O)(=O)[O-])cc7)c7ccc([nH]7)c(-c7ccc(S(=O)(=O)[O-])cc7)c7nc(c(-c8ccc(S(=O)(=O)[O-])cc8)c8ccc5[nH]8)C=C7)C=C6)cc4)C3)ccn2)c2ccc(C)nc12
REMARK SMILES IDX 21 1 20 2 19 3 18 4 17 5 15 6 16 7 14 8 13 9 10 10 11 11
REMARK SMILES IDX 89 12 12 13 9 15 7 16 8 17 92 18 91 19 90 20 6 21 3 22 4 23
REMARK SMILES IDX 99 24 5 25 93 26 98 27 94 28 96 29 95 30 97 31 2 32 1 33
REMARK SMILES IDX 22 34 23 35 24 36 25 37 26 38 27 39 28 40 29 41 30 42 88 43
REMARK SMILES IDX 31 44 87 45 32 46 33 47 34 48 81 49 35 50 86 51 80 52 82 53
REMARK SMILES IDX 36 54 85 55 79 56 78 57 37 59 67 60 48 61 66 62 49 63 52 64
REMARK SMILES IDX 65 65 83 66 50 67 51 68 64 70 84 71 53 72 38 73 39 74 47 75
REMARK SMILES IDX 40 76 46 77 41 78 42 79 43 80 44 81 45 82 68 83 69 84 77 85
REMARK SMILES IDX 70 86 76 87 71 88 72 89 73 90 74 91 75 92 54 93 55 94 63 95
REMARK SMILES IDX 56 96 62 97 57 98 58 99 59 100 60 101 61 102
REMARK H PARENT 13 14 82 58 52 69
REMARK Flexibility Score: inf
ROOT
ATOM      1  C   UNL A   1      34.657  33.292  32.949  1.00  0.00     0.188 C 
ENDROOT
BRANCH   1   2
ATOM      2  O   UNL A   1      35.966  33.604  33.405  1.00  0.00    -0.376 OA
BRANCH   2   3
ATOM      3  C   UNL A   1      36.590  32.666  34.283  1.00  0.00     0.202 C 
BRANCH   3   4
ATOM      4  C   UNL A   1      38.072  32.343  34.036  1.00  0.00     0.261 C 
BRANCH   4   5
ATOM      5  O   UNL A   1      38.414  30.935  34.078  1.00  0.00    -0.459 OA
BRANCH   5   6
ATOM      6  C   UNL A   1      39.741  30.658  33.927  1.00  0.00     0.361 C 
ATOM      7  O   UNL A   1      40.634  31.471  34.155  1.00  0.00    -0.245 OA
BRANCH   6   8
ATOM      8  C   UNL A   1      40.076  29.211  33.568  1.00  0.00     0.386 C 
BRANCH   8   9
ATOM      9  N   UNL A   1      40.886  28.390  34.474  1.00  0.00    -0.325 N 
ATOM     10  C   UNL A   1      43.276  28.270  34.585  1.00  0.00     0.080 C 
ATOM     11  C   UNL A   1      42.745  29.200  35.680  1.00  0.00     0.075 C 
ATOM     12  C   UNL A   1      42.026  27.674  33.914  1.00  0.00     0.271 C 
ATOM     13  C   UNL A   1      41.256  28.902  35.777  1.00  0.00     0.263 C 
ATOM     14  H   UNL A   1      40.125  27.729  34.635  1.00  0.00     0.348 HD
BRANCH  10  15
ATOM     15  C   UNL A   1      44.302  27.302  35.123  1.00  0.00    -0.035 A 
ATOM     16  C   UNL A   1      46.055  26.775  36.678  1.00  0.00     0.071 A 
ATOM     17  C   UNL A   1      45.152  27.692  36.137  1.00  0.00     0.033 A 
ATOM     18  N   UNL A   1      46.215  25.516  36.222  1.00  0.00    -0.256 NA
ATOM     19  C   UNL A   1      45.414  25.158  35.205  1.00  0.00     0.112 A 
ATOM     20  C   UNL A   1      44.480  26.009  34.626  1.00  0.00     0.024 A 
BRANCH  16  21
ATOM     21  C   UNL A   1      46.860  27.193  37.817  1.00  0.00     0.010 A 
ATOM     22  C   UNL A   1      48.205  28.480  39.854  1.00  0.00     0.145 A 
ATOM     23  C   UNL A   1      48.788  28.399  38.586  1.00  0.00     0.049 A 
ATOM     24  C   UNL A   1      46.945  27.926  40.154  1.00  0.00     0.113 A 
ATOM     25  C   UNL A   1      48.118  27.748  37.567  1.00  0.00     0.015 A 
ATOM     26  C   UNL A   1      46.290  27.230  39.125  1.00  0.00     0.013 A 
ATOM     27  N   UNL A   1      46.361  28.075  41.371  1.00  0.00    -0.249 NA
ATOM     28  C   UNL A   1      45.049  26.623  39.439  1.00  0.00     0.013 A 
ATOM     29  C   UNL A   1      45.144  27.532  41.618  1.00  0.00     0.038 A 
ATOM     30  C   UNL A   1      44.465  26.781  40.682  1.00  0.00     0.024 A 
ATOM     31  C   UNL A   1      44.562  27.760  42.978  1.00  0.00     0.067 C 
BRANCH  22  32
ATOM     32  O   UNL A   1      48.953  29.197  40.765  1.00  0.00    -0.494 OA
ATOM     33  C   UNL A   1      50.047  28.428  41.261  1.00  0.00     0.278 C 
ENDBRANCH  22  32
ENDBRANCH  16  21
ENDBRANCH  10  15
ENDBRANCH   8   9
ENDBRANCH   6   8
ENDBRANCH   5   6
ENDBRANCH   4   5
ENDBRANCH   3   4
ENDBRANCH   2   3
ENDBRANCH   1   2
BRANCH   1  34
ATOM     34  C   UNL A   1      34.485  33.036  31.440  1.00  0.00     0.188 C 
BRANCH  34  35
ATOM     35  O   UNL A   1      35.602  33.440  30.667  1.00  0.00    -0.376 OA
BRANCH  35  36
ATOM     36  C   UNL A   1      35.492  33.575  29.263  1.00  0.00     0.202 C 
BRANCH  36  37
ATOM     37  C   UNL A   1      34.283  32.947  28.564  1.00  0.00     0.261 C 
BRANCH  37  38
ATOM     38  O   UNL A   1      34.590  31.992  27.538  1.00  0.00    -0.460 OA
BRANCH  38  39
ATOM     39  C   UNL A   1      34.587  30.684  27.865  1.00  0.00     0.338 C 
ATOM     40  O   UNL A   1      33.661  29.900  27.758  1.00  0.00    -0.246 OA
BRANCH  39  41
ATOM     41  C   UNL A   1      35.962  30.272  28.192  1.00  0.00     0.060 A 
ATOM     42  C   UNL A   1      36.241  29.834  29.494  1.00  0.00     0.016 A 
ATOM     43  C   UNL A   1      36.961  30.301  27.220  1.00  0.00     0.016 A 
ATOM     44  C   UNL A   1      37.537  29.453  29.838  1.00  0.00     0.010 A 
ATOM     45  C   UNL A   1      38.257  29.928  27.565  1.00  0.00     0.010 A 
ATOM     46  C   UNL A   1      38.556  29.535  28.881  1.00  0.00    -0.014 A 
BRANCH  46  47
ATOM     47  C   UNL A   1      39.972  29.368  29.274  1.00  0.00     0.031 A 
ATOM     48  C   UNL A   1      40.648  28.063  28.958  1.00  0.00     0.074 A 
ATOM     49  C   UNL A   1      40.630  30.346  29.919  1.00  0.00     0.049 A 
ATOM     50  N   UNL A   1      41.822  27.627  29.330  1.00  0.00    -0.248 NA
ATOM     51  C   UNL A   1      39.890  27.117  28.121  1.00  0.00     0.031 C 
ATOM     52  C   UNL A   1      40.091  31.671  30.226  1.00  0.00     0.029 A 
ATOM     53  N   UNL A   1      41.895  30.365  30.450  1.00  0.00    -0.354 N 
ATOM     54  C   UNL A   1      41.932  26.348  28.798  1.00  0.00     0.074 A 
ATOM     55  C   UNL A   1      40.698  26.068  28.098  1.00  0.00     0.031 C 
ATOM     56  C   UNL A   1      41.017  32.370  30.905  1.00  0.00     0.029 A 
ATOM     57  C   UNL A   1      42.188  31.525  31.126  1.00  0.00     0.049 A 
ATOM     58  H   UNL A   1      42.531  29.619  30.356  1.00  0.00     0.167 HD
ATOM     59  C   UNL A   1      42.970  25.483  28.888  1.00  0.00     0.031 A 
ATOM     60  C   UNL A   1      43.264  31.850  31.869  1.00  0.00     0.031 A 
ATOM     61  C   UNL A   1      44.188  25.773  29.598  1.00  0.00     0.049 A 
ATOM     62  C   UNL A   1      44.375  30.844  32.021  1.00  0.00     0.074 A 
ATOM     63  C   UNL A   1      45.310  24.978  29.743  1.00  0.00     0.029 A 
ATOM     64  N   UNL A   1      44.439  26.952  30.288  1.00  0.00    -0.354 N 
ATOM     65  N   UNL A   1      44.473  29.638  31.508  1.00  0.00    -0.248 NA
ATOM     66  C   UNL A   1      45.523  31.242  32.846  1.00  0.00     0.031 C 
ATOM     67  C   UNL A   1      46.212  25.647  30.575  1.00  0.00     0.029 A 
ATOM     68  C   UNL A   1      45.687  26.892  30.884  1.00  0.00     0.049 A 
ATOM     69  H   UNL A   1      43.821  27.716  30.345  1.00  0.00     0.167 HD
ATOM     70  C   UNL A   1      45.707  29.148  31.924  1.00  0.00     0.074 A 
ATOM     71  C   UNL A   1      46.324  30.193  32.717  1.00  0.00     0.031 C 
ATOM     72  C   UNL A   1      46.281  27.946  31.670  1.00  0.00     0.031 A 
BRANCH  59  73
ATOM     73  C   UNL A   1      42.813  24.131  28.244  1.00  0.00    -0.014 A 
ATOM     74  C   UNL A   1      42.435  23.000  28.990  1.00  0.00     0.010 A 
ATOM     75  C   UNL A   1      43.018  23.996  26.858  1.00  0.00     0.010 A 
ATOM     76  C   UNL A   1      42.305  21.754  28.370  1.00  0.00     0.020 A 
ATOM     77  C   UNL A   1      42.859  22.758  26.229  1.00  0.00     0.020 A 
ATOM     78  C   UNL A   1      42.518  21.642  26.992  1.00  0.00     0.054 A 
BRANCH  78  79
ATOM     79  S   UNL A   1      42.319  20.016  26.212  1.00  0.00     0.124 S 
ATOM     80  O   UNL A   1      41.057  20.179  25.495  1.00  0.00    -0.237 OA
ATOM     81  O   UNL A   1      43.511  19.917  25.373  1.00  0.00    -0.237 OA
ATOM     82  O   UNL A   1      42.278  19.091  27.342  1.00  0.00    -0.744 OA
ENDBRANCH  78  79
ENDBRANCH  59  73
BRANCH  60  83
ATOM     83  C   UNL A   1      43.330  33.176  32.545  1.00  0.00    -0.014 A 
ATOM     84  C   UNL A   1      43.891  34.286  31.891  1.00  0.00     0.010 A 
ATOM     85  C   UNL A   1      42.822  33.335  33.848  1.00  0.00     0.010 A 
ATOM     86  C   UNL A   1      43.958  35.527  32.532  1.00  0.00     0.020 A 
ATOM     87  C   UNL A   1      42.858  34.582  34.479  1.00  0.00     0.020 A 
ATOM     88  C   UNL A   1      43.435  35.668  33.821  1.00  0.00     0.054 A 
BRANCH  88  89
ATOM     89  S   UNL A   1      43.486  37.301  34.609  1.00  0.00     0.124 S 
ATOM     90  O   UNL A   1      44.917  37.587  34.626  1.00  0.00    -0.237 OA
ATOM     91  O   UNL A   1      42.688  38.114  33.695  1.00  0.00    -0.237 OA
ATOM     92  O   UNL A   1      42.878  37.069  35.917  1.00  0.00    -0.744 OA
ENDBRANCH  88  89
ENDBRANCH  60  83
BRANCH  72  93
ATOM     93  C   UNL A   1      47.666  27.708  32.215  1.00  0.00    -0.014 A 
ATOM     94  C   UNL A   1      47.870  27.164  33.495  1.00  0.00     0.010 A 
ATOM     95  C   UNL A   1      48.782  27.982  31.402  1.00  0.00     0.010 A 
ATOM     96  C   UNL A   1      49.166  26.931  33.964  1.00  0.00     0.020 A 
ATOM     97  C   UNL A   1      50.076  27.718  31.853  1.00  0.00     0.020 A 
ATOM     98  C   UNL A   1      50.261  27.207  33.139  1.00  0.00     0.054 A 
BRANCH  98  99
ATOM     99  S   UNL A   1      51.929  26.853  33.755  1.00  0.00     0.124 S 
ATOM    100  O   UNL A   1      52.748  27.090  32.570  1.00  0.00    -0.237 OA
ATOM    101  O   UNL A   1      52.084  27.827  34.833  1.00  0.00    -0.237 OA
ATOM    102  O   UNL A   1      51.851  25.460  34.190  1.00  0.00    -0.744 OA
ENDBRANCH  98  99
ENDBRANCH  72  93
ENDBRANCH  46  47
ENDBRANCH  39  41
ENDBRANCH  38  39
ENDBRANCH  37  38
ENDBRANCH  36  37
ENDBRANCH  35  36
ENDBRANCH  34  35
ENDBRANCH   1  34
TORSDOF 24
ENDMDL
