MODEL 1
REMARK VINA RESULT:      -9.1      0.000      0.000
REMARK SMILES O=C(OCCOCCOCCOC(=O)c1ccc(-c2c3nc(c(-c4ccc(S(=O)(=O)[O-])cc4)c4ccc([nH]4)c(-c4ccc(S(=O)(=O)[O-])cc4)c4nc(c(-c5ccc(S(=O)(=O)[O-])cc5)c5ccc2[nH]5)C=C4)C=C3)cc1)C(=O)N1CC[N@H+]2CCC[C@H]2C1
REMARK SMILES IDX 8 1 7 2 6 3 5 4 4 5 3 6 2 7 1 8 75 9 76 10 77 11 78 12 85 13
REMARK SMILES IDX 79 14 84 15 80 16 83 17 81 18 82 20 9 21 10 22 11 23 12 24
REMARK SMILES IDX 13 25 14 26 15 27 16 28 74 29 17 30 73 31 18 32 19 33 20 34
REMARK SMILES IDX 67 35 21 36 72 37 66 38 68 39 22 40 71 41 65 42 64 43 23 45
REMARK SMILES IDX 53 46 34 47 52 48 35 49 38 50 51 51 69 52 36 53 37 54 50 56
REMARK SMILES IDX 70 57 39 58 24 59 25 60 33 61 26 62 32 63 27 64 28 65 29 66
REMARK SMILES IDX 30 67 31 68 54 69 55 70 63 71 56 72 62 73 57 74 58 75 59 76
REMARK SMILES IDX 60 77 61 78 40 79 41 80 49 81 42 82 48 83 43 84 44 85 45 86
REMARK SMILES IDX 46 87 47 88
REMARK H PARENT 80 19 68 44 38 55
REMARK Flexibility Score: inf
ROOT
ATOM      1  C   UNL A   1      37.155  22.788  25.534  1.00  0.00     0.188 C 
ENDROOT
BRANCH   1   2
ATOM      2  C   UNL A   1      36.052  23.627  24.884  1.00  0.00     0.188 C 
BRANCH   2   3
ATOM      3  O   UNL A   1      34.869  23.848  25.663  1.00  0.00    -0.376 OA
BRANCH   3   4
ATOM      4  C   UNL A   1      33.661  23.212  25.236  1.00  0.00     0.202 C 
BRANCH   4   5
ATOM      5  C   UNL A   1      32.431  23.413  26.141  1.00  0.00     0.262 C 
BRANCH   5   6
ATOM      6  O   UNL A   1      32.450  24.734  26.704  1.00  0.00    -0.456 OA
BRANCH   6   7
ATOM      7  C   UNL A   1      31.698  25.755  26.256  1.00  0.00     0.397 C 
ATOM      8  O   UNL A   1      32.176  26.876  26.118  1.00  0.00    -0.240 OA
BRANCH   7   9
ATOM      9  C   UNL A   1      30.290  25.487  25.716  1.00  0.00     0.332 C 
ATOM     10  O   UNL A   1      29.455  25.151  26.558  1.00  0.00    -0.261 OA
BRANCH   9  11
ATOM     11  N   UNL A   1      30.013  25.508  24.338  1.00  0.00    -0.321 N 
ATOM     12  C   UNL A   1      30.953  25.213  23.256  1.00  0.00     0.181 C 
ATOM     13  C   UNL A   1      29.006  26.462  23.913  1.00  0.00     0.185 C 
ATOM     14  C   UNL A   1      31.387  26.534  22.522  1.00  0.00     0.284 C 
ATOM     15  C   UNL A   1      29.705  27.830  23.789  1.00  0.00     0.204 C 
ATOM     16  N   UNL A   1      31.116  27.757  23.306  1.00  0.00    -0.330 N 
ATOM     17  C   UNL A   1      28.960  28.790  22.873  1.00  0.00     0.073 C 
ATOM     18  C   UNL A   1      31.362  29.009  22.597  1.00  0.00     0.262 C 
ATOM     19  H   UNL A   1      31.777  27.669  24.078  1.00  0.00     0.348 HD
ATOM     20  C   UNL A   1      30.029  29.462  22.028  1.00  0.00     0.068 C 
ENDBRANCH   9  11
ENDBRANCH   7   9
ENDBRANCH   6   7
ENDBRANCH   5   6
ENDBRANCH   4   5
ENDBRANCH   3   4
ENDBRANCH   2   3
ENDBRANCH   1   2
BRANCH   1  21
ATOM     21  O   UNL A   1      37.775  21.824  24.683  1.00  0.00    -0.376 OA
BRANCH  21  22
ATOM     22  C   UNL A   1      37.516  20.464  24.994  1.00  0.00     0.202 C 
BRANCH  22  23
ATOM     23  C   UNL A   1      38.790  19.674  25.349  1.00  0.00     0.261 C 
BRANCH  23  24
ATOM     24  O   UNL A   1      39.766  20.416  26.101  1.00  0.00    -0.460 OA
BRANCH  24  25
ATOM     25  C   UNL A   1      41.008  19.880  26.101  1.00  0.00     0.338 C 
ATOM     26  O   UNL A   1      41.305  18.702  25.888  1.00  0.00    -0.246 OA
BRANCH  25  27
ATOM     27  C   UNL A   1      42.023  20.914  26.361  1.00  0.00     0.060 A 
ATOM     28  C   UNL A   1      42.231  21.348  27.675  1.00  0.00     0.016 A 
ATOM     29  C   UNL A   1      42.657  21.561  25.296  1.00  0.00     0.016 A 
ATOM     30  C   UNL A   1      43.014  22.481  27.922  1.00  0.00     0.010 A 
ATOM     31  C   UNL A   1      43.437  22.697  25.546  1.00  0.00     0.010 A 
ATOM     32  C   UNL A   1      43.576  23.195  26.854  1.00  0.00    -0.014 A 
BRANCH  32  33
ATOM     33  C   UNL A   1      44.136  24.556  27.077  1.00  0.00     0.031 A 
ATOM     34  C   UNL A   1      43.200  25.669  27.485  1.00  0.00     0.074 A 
ATOM     35  C   UNL A   1      45.451  24.811  26.943  1.00  0.00     0.049 A 
ATOM     36  N   UNL A   1      43.459  26.934  27.700  1.00  0.00    -0.248 NA
ATOM     37  C   UNL A   1      41.786  25.305  27.670  1.00  0.00     0.031 C 
ATOM     38  C   UNL A   1      46.474  23.825  26.599  1.00  0.00     0.029 A 
ATOM     39  N   UNL A   1      46.149  25.987  27.080  1.00  0.00    -0.354 N 
ATOM     40  C   UNL A   1      42.242  27.517  28.042  1.00  0.00     0.074 A 
ATOM     41  C   UNL A   1      41.242  26.474  27.975  1.00  0.00     0.031 C 
ATOM     42  C   UNL A   1      47.669  24.439  26.546  1.00  0.00     0.029 A 
ATOM     43  C   UNL A   1      47.494  25.865  26.822  1.00  0.00     0.049 A 
ATOM     44  H   UNL A   1      45.724  26.837  27.337  1.00  0.00     0.167 HD
ATOM     45  C   UNL A   1      41.979  28.799  28.389  1.00  0.00     0.031 A 
ATOM     46  C   UNL A   1      48.470  26.796  26.796  1.00  0.00     0.031 A 
ATOM     47  C   UNL A   1      42.966  29.845  28.451  1.00  0.00     0.049 A 
ATOM     48  C   UNL A   1      48.140  28.233  27.113  1.00  0.00     0.074 A 
ATOM     49  C   UNL A   1      42.792  31.172  28.804  1.00  0.00     0.029 A 
ATOM     50  N   UNL A   1      44.308  29.685  28.145  1.00  0.00    -0.354 N 
ATOM     51  N   UNL A   1      46.989  28.762  27.452  1.00  0.00    -0.248 NA
ATOM     52  C   UNL A   1      49.248  29.200  27.050  1.00  0.00     0.031 C 
ATOM     53  C   UNL A   1      44.020  31.827  28.662  1.00  0.00     0.029 A 
ATOM     54  C   UNL A   1      44.970  30.895  28.276  1.00  0.00     0.049 A 
ATOM     55  H   UNL A   1      44.729  28.836  27.875  1.00  0.00     0.167 HD
ATOM     56  C   UNL A   1      47.240  30.114  27.669  1.00  0.00     0.074 A 
ATOM     57  C   UNL A   1      48.653  30.322  27.434  1.00  0.00     0.031 C 
ATOM     58  C   UNL A   1      46.376  31.093  28.037  1.00  0.00     0.031 A 
BRANCH  45  59
ATOM     59  C   UNL A   1      40.548  29.154  28.702  1.00  0.00    -0.014 A 
ATOM     60  C   UNL A   1      39.627  29.440  27.678  1.00  0.00     0.010 A 
ATOM     61  C   UNL A   1      40.111  29.165  30.039  1.00  0.00     0.010 A 
ATOM     62  C   UNL A   1      38.305  29.769  27.988  1.00  0.00     0.020 A 
ATOM     63  C   UNL A   1      38.783  29.468  30.352  1.00  0.00     0.020 A 
ATOM     64  C   UNL A   1      37.892  29.785  29.324  1.00  0.00     0.054 A 
BRANCH  64  65
ATOM     65  S   UNL A   1      36.165  30.199  29.700  1.00  0.00     0.124 S 
ATOM     66  O   UNL A   1      36.174  31.655  29.586  1.00  0.00    -0.237 OA
ATOM     67  O   UNL A   1      35.430  29.492  28.653  1.00  0.00    -0.237 OA
ATOM     68  O   UNL A   1      35.971  29.681  31.051  1.00  0.00    -0.744 OA
ENDBRANCH  64  65
ENDBRANCH  45  59
BRANCH  46  69
ATOM     69  C   UNL A   1      49.859  26.405  26.430  1.00  0.00    -0.014 A 
ATOM     70  C   UNL A   1      50.326  26.552  25.112  1.00  0.00     0.010 A 
ATOM     71  C   UNL A   1      50.721  25.871  27.405  1.00  0.00     0.010 A 
ATOM     72  C   UNL A   1      51.625  26.157  24.773  1.00  0.00     0.020 A 
ATOM     73  C   UNL A   1      52.027  25.500  27.076  1.00  0.00     0.020 A 
ATOM     74  C   UNL A   1      52.468  25.634  25.759  1.00  0.00     0.054 A 
BRANCH  74  75
ATOM     75  S   UNL A   1      54.164  25.171  25.312  1.00  0.00     0.124 S 
ATOM     76  O   UNL A   1      54.884  25.413  26.558  1.00  0.00    -0.237 OA
ATOM     77  O   UNL A   1      54.020  23.770  24.924  1.00  0.00    -0.237 OA
ATOM     78  O   UNL A   1      54.488  26.082  24.215  1.00  0.00    -0.744 OA
ENDBRANCH  74  75
ENDBRANCH  46  69
BRANCH  58  79
ATOM     79  C   UNL A   1      46.933  32.478  28.240  1.00  0.00    -0.014 A 
ATOM     80  C   UNL A   1      47.501  32.865  29.468  1.00  0.00     0.010 A 
ATOM     81  C   UNL A   1      46.944  33.386  27.166  1.00  0.00     0.010 A 
ATOM     82  C   UNL A   1      48.042  34.145  29.625  1.00  0.00     0.020 A 
ATOM     83  C   UNL A   1      47.508  34.658  27.311  1.00  0.00     0.020 A 
ATOM     84  C   UNL A   1      48.042  35.034  28.544  1.00  0.00     0.054 A 
BRANCH  84  85
ATOM     85  S   UNL A   1      48.792  36.672  28.758  1.00  0.00     0.124 S 
ATOM     86  O   UNL A   1      49.608  36.479  29.953  1.00  0.00    -0.237 OA
ATOM     87  O   UNL A   1      49.533  36.853  27.513  1.00  0.00    -0.237 OA
ATOM     88  O   UNL A   1      47.643  37.559  28.925  1.00  0.00    -0.744 OA
ENDBRANCH  84  85
ENDBRANCH  58  79
ENDBRANCH  32  33
ENDBRANCH  25  27
ENDBRANCH  24  25
ENDBRANCH  23  24
ENDBRANCH  22  23
ENDBRANCH  21  22
ENDBRANCH   1  21
TORSDOF 21
ENDMDL
MODEL 2
REMARK VINA RESULT:      -9.0      2.215      8.716
REMARK SMILES O=C(OCCOCCOCCOC(=O)c1ccc(-c2c3nc(c(-c4ccc(S(=O)(=O)[O-])cc4)c4ccc([nH]4)c(-c4ccc(S(=O)(=O)[O-])cc4)c4nc(c(-c5ccc(S(=O)(=O)[O-])cc5)c5ccc2[nH]5)C=C4)C=C3)cc1)C(=O)N1CC[N@H+]2CCC[C@H]2C1
REMARK SMILES IDX 8 1 7 2 6 3 5 4 4 5 3 6 2 7 1 8 75 9 76 10 77 11 78 12 85 13
REMARK SMILES IDX 79 14 84 15 80 16 83 17 81 18 82 20 9 21 10 22 11 23 12 24
REMARK SMILES IDX 13 25 14 26 15 27 16 28 74 29 17 30 73 31 18 32 19 33 20 34
REMARK SMILES IDX 67 35 21 36 72 37 66 38 68 39 22 40 71 41 65 42 64 43 23 45
REMARK SMILES IDX 53 46 34 47 52 48 35 49 38 50 51 51 69 52 36 53 37 54 50 56
REMARK SMILES IDX 70 57 39 58 24 59 25 60 33 61 26 62 32 63 27 64 28 65 29 66
REMARK SMILES IDX 30 67 31 68 54 69 55 70 63 71 56 72 62 73 57 74 58 75 59 76
REMARK SMILES IDX 60 77 61 78 40 79 41 80 49 81 42 82 48 83 43 84 44 85 45 86
REMARK SMILES IDX 46 87 47 88
REMARK H PARENT 80 19 68 44 38 55
REMARK Flexibility Score: inf
ROOT
ATOM      1  C   UNL A   1      33.222  29.794  26.065  1.00  0.00     0.188 C 
ENDROOT
BRANCH   1   2
ATOM      2  C   UNL A   1      31.733  29.529  25.824  1.00  0.00     0.188 C 
BRANCH   2   3
ATOM      3  O   UNL A   1      31.397  28.284  25.196  1.00  0.00    -0.376 OA
BRANCH   3   4
ATOM      4  C   UNL A   1      32.329  27.735  24.261  1.00  0.00     0.202 C 
BRANCH   4   5
ATOM      5  C   UNL A   1      31.979  27.909  22.771  1.00  0.00     0.262 C 
BRANCH   5   6
ATOM      6  O   UNL A   1      31.675  26.631  22.189  1.00  0.00    -0.456 OA
BRANCH   6   7
ATOM      7  C   UNL A   1      32.606  25.750  21.780  1.00  0.00     0.397 C 
ATOM      8  O   UNL A   1      33.125  25.853  20.673  1.00  0.00    -0.240 OA
BRANCH   7   9
ATOM      9  C   UNL A   1      33.180  24.730  22.767  1.00  0.00     0.332 C 
ATOM     10  O   UNL A   1      34.372  24.457  22.613  1.00  0.00    -0.261 OA
BRANCH   9  11
ATOM     11  N   UNL A   1      32.364  24.068  23.700  1.00  0.00    -0.321 N 
ATOM     12  C   UNL A   1      32.471  24.140  25.158  1.00  0.00     0.181 C 
ATOM     13  C   UNL A   1      31.835  22.785  23.276  1.00  0.00     0.185 C 
ATOM     14  C   UNL A   1      33.083  22.813  25.736  1.00  0.00     0.284 C 
ATOM     15  C   UNL A   1      32.944  21.741  23.512  1.00  0.00     0.204 C 
ATOM     16  N   UNL A   1      33.783  21.998  24.721  1.00  0.00    -0.330 N 
ATOM     17  C   UNL A   1      32.403  20.324  23.628  1.00  0.00     0.073 C 
ATOM     18  C   UNL A   1      34.230  20.688  25.185  1.00  0.00     0.262 C 
ATOM     19  H   UNL A   1      34.594  22.576  24.503  1.00  0.00     0.348 HD
ATOM     20  C   UNL A   1      33.158  19.690  24.784  1.00  0.00     0.068 C 
ENDBRANCH   9  11
ENDBRANCH   7   9
ENDBRANCH   6   7
ENDBRANCH   5   6
ENDBRANCH   4   5
ENDBRANCH   3   4
ENDBRANCH   2   3
ENDBRANCH   1   2
BRANCH   1  21
ATOM     21  O   UNL A   1      33.516  30.742  27.091  1.00  0.00    -0.376 OA
BRANCH  21  22
ATOM     22  C   UNL A   1      34.846  30.727  27.587  1.00  0.00     0.202 C 
BRANCH  22  23
ATOM     23  C   UNL A   1      35.023  31.574  28.861  1.00  0.00     0.261 C 
BRANCH  23  24
ATOM     24  O   UNL A   1      36.360  32.058  29.079  1.00  0.00    -0.460 OA
BRANCH  24  25
ATOM     25  C   UNL A   1      36.959  31.584  30.195  1.00  0.00     0.338 C 
ATOM     26  O   UNL A   1      36.599  31.763  31.360  1.00  0.00    -0.246 OA
BRANCH  25  27
ATOM     27  C   UNL A   1      38.128  30.759  29.849  1.00  0.00     0.060 A 
ATOM     28  C   UNL A   1      39.123  30.551  30.812  1.00  0.00     0.016 A 
ATOM     29  C   UNL A   1      38.317  30.320  28.535  1.00  0.00     0.016 A 
ATOM     30  C   UNL A   1      40.342  29.973  30.445  1.00  0.00     0.010 A 
ATOM     31  C   UNL A   1      39.540  29.745  28.169  1.00  0.00     0.010 A 
ATOM     32  C   UNL A   1      40.579  29.617  29.109  1.00  0.00    -0.014 A 
BRANCH  32  33
ATOM     33  C   UNL A   1      41.960  29.300  28.653  1.00  0.00     0.031 A 
ATOM     34  C   UNL A   1      42.277  27.888  28.219  1.00  0.00     0.074 A 
ATOM     35  C   UNL A   1      42.921  30.241  28.602  1.00  0.00     0.049 A 
ATOM     36  N   UNL A   1      43.414  27.378  27.818  1.00  0.00    -0.248 NA
ATOM     37  C   UNL A   1      41.162  26.927  28.245  1.00  0.00     0.031 C 
ATOM     38  C   UNL A   1      42.746  31.650  28.947  1.00  0.00     0.029 A 
ATOM     39  N   UNL A   1      44.244  30.145  28.239  1.00  0.00    -0.354 N 
ATOM     40  C   UNL A   1      43.154  26.038  27.548  1.00  0.00     0.074 A 
ATOM     41  C   UNL A   1      41.760  25.808  27.860  1.00  0.00     0.031 C 
ATOM     42  C   UNL A   1      43.920  32.287  28.785  1.00  0.00     0.029 A 
ATOM     43  C   UNL A   1      44.936  31.327  28.354  1.00  0.00     0.049 A 
ATOM     44  H   UNL A   1      44.656  29.307  27.928  1.00  0.00     0.167 HD
ATOM     45  C   UNL A   1      43.992  25.085  27.075  1.00  0.00     0.031 A 
ATOM     46  C   UNL A   1      46.241  31.602  28.150  1.00  0.00     0.031 A 
ATOM     47  C   UNL A   1      45.381  25.303  26.770  1.00  0.00     0.049 A 
ATOM     48  C   UNL A   1      47.173  30.509  27.694  1.00  0.00     0.074 A 
ATOM     49  C   UNL A   1      46.305  24.399  26.274  1.00  0.00     0.029 A 
ATOM     50  N   UNL A   1      46.049  26.506  26.937  1.00  0.00    -0.354 N 
ATOM     51  N   UNL A   1      46.906  29.253  27.427  1.00  0.00    -0.248 NA
ATOM     52  C   UNL A   1      48.587  30.873  27.508  1.00  0.00     0.031 C 
ATOM     53  C   UNL A   1      47.545  25.041  26.191  1.00  0.00     0.029 A 
ATOM     54  C   UNL A   1      47.380  26.361  26.579  1.00  0.00     0.049 A 
ATOM     55  H   UNL A   1      45.638  27.340  27.261  1.00  0.00     0.167 HD
ATOM     56  C   UNL A   1      48.109  28.687  27.014  1.00  0.00     0.074 A 
ATOM     57  C   UNL A   1      49.104  29.738  27.057  1.00  0.00     0.031 C 
ATOM     58  C   UNL A   1      48.364  27.412  26.628  1.00  0.00     0.031 A 
BRANCH  45  59
ATOM     59  C   UNL A   1      43.432  23.699  26.887  1.00  0.00    -0.014 A 
ATOM     60  C   UNL A   1      43.107  23.212  25.607  1.00  0.00     0.010 A 
ATOM     61  C   UNL A   1      43.263  22.860  28.003  1.00  0.00     0.010 A 
ATOM     62  C   UNL A   1      42.587  21.924  25.454  1.00  0.00     0.020 A 
ATOM     63  C   UNL A   1      42.767  21.563  27.850  1.00  0.00     0.020 A 
ATOM     64  C   UNL A   1      42.416  21.109  26.577  1.00  0.00     0.054 A 
BRANCH  64  65
ATOM     65  S   UNL A   1      41.755  19.434  26.348  1.00  0.00     0.124 S 
ATOM     66  O   UNL A   1      42.460  18.994  25.147  1.00  0.00    -0.237 OA
ATOM     67  O   UNL A   1      42.144  18.763  27.586  1.00  0.00    -0.237 OA
ATOM     68  O   UNL A   1      40.320  19.648  26.183  1.00  0.00    -0.744 OA
ENDBRANCH  64  65
ENDBRANCH  45  59
BRANCH  46  69
ATOM     69  C   UNL A   1      46.757  32.977  28.400  1.00  0.00    -0.014 A 
ATOM     70  C   UNL A   1      47.233  33.349  29.669  1.00  0.00     0.010 A 
ATOM     71  C   UNL A   1      46.764  33.927  27.362  1.00  0.00     0.010 A 
ATOM     72  C   UNL A   1      47.691  34.650  29.901  1.00  0.00     0.020 A 
ATOM     73  C   UNL A   1      47.245  35.219  27.582  1.00  0.00     0.020 A 
ATOM     74  C   UNL A   1      47.695  35.577  28.854  1.00  0.00     0.054 A 
BRANCH  74  75
ATOM     75  S   UNL A   1      48.338  37.247  29.158  1.00  0.00     0.124 S 
ATOM     76  O   UNL A   1      48.880  37.124  30.508  1.00  0.00    -0.237 OA
ATOM     77  O   UNL A   1      49.323  37.408  28.091  1.00  0.00    -0.237 OA
ATOM     78  O   UNL A   1      47.153  38.095  29.034  1.00  0.00    -0.744 OA
ENDBRANCH  74  75
ENDBRANCH  46  69
BRANCH  58  79
ATOM     79  C   UNL A   1      49.766  27.080  26.189  1.00  0.00    -0.014 A 
ATOM     80  C   UNL A   1      50.723  26.600  27.101  1.00  0.00     0.010 A 
ATOM     81  C   UNL A   1      50.113  27.191  24.830  1.00  0.00     0.010 A 
ATOM     82  C   UNL A   1      52.010  26.266  26.667  1.00  0.00     0.020 A 
ATOM     83  C   UNL A   1      51.391  26.834  24.388  1.00  0.00     0.020 A 
ATOM     84  C   UNL A   1      52.335  26.386  25.311  1.00  0.00     0.054 A 
BRANCH  84  85
ATOM     85  S   UNL A   1      53.997  25.902  24.764  1.00  0.00     0.124 S 
ATOM     86  O   UNL A   1      54.033  26.427  23.403  1.00  0.00    -0.237 OA
ATOM     87  O   UNL A   1      54.863  26.582  25.724  1.00  0.00    -0.237 OA
ATOM     88  O   UNL A   1      53.985  24.445  24.871  1.00  0.00    -0.744 OA
ENDBRANCH  84  85
ENDBRANCH  58  79
ENDBRANCH  32  33
ENDBRANCH  25  27
ENDBRANCH  24  25
ENDBRANCH  23  24
ENDBRANCH  22  23
ENDBRANCH  21  22
ENDBRANCH   1  21
TORSDOF 21
ENDMDL
MODEL 3
REMARK VINA RESULT:      -9.0      4.281      9.652
REMARK SMILES O=C(OCCOCCOCCOC(=O)c1ccc(-c2c3nc(c(-c4ccc(S(=O)(=O)[O-])cc4)c4ccc([nH]4)c(-c4ccc(S(=O)(=O)[O-])cc4)c4nc(c(-c5ccc(S(=O)(=O)[O-])cc5)c5ccc2[nH]5)C=C4)C=C3)cc1)C(=O)N1CC[N@H+]2CCC[C@H]2C1
REMARK SMILES IDX 8 1 7 2 6 3 5 4 4 5 3 6 2 7 1 8 75 9 76 10 77 11 78 12 85 13
REMARK SMILES IDX 79 14 84 15 80 16 83 17 81 18 82 20 9 21 10 22 11 23 12 24
REMARK SMILES IDX 13 25 14 26 15 27 16 28 74 29 17 30 73 31 18 32 19 33 20 34
REMARK SMILES IDX 67 35 21 36 72 37 66 38 68 39 22 40 71 41 65 42 64 43 23 45
REMARK SMILES IDX 53 46 34 47 52 48 35 49 38 50 51 51 69 52 36 53 37 54 50 56
REMARK SMILES IDX 70 57 39 58 24 59 25 60 33 61 26 62 32 63 27 64 28 65 29 66
REMARK SMILES IDX 30 67 31 68 54 69 55 70 63 71 56 72 62 73 57 74 58 75 59 76
REMARK SMILES IDX 60 77 61 78 40 79 41 80 49 81 42 82 48 83 43 84 44 85 45 86
REMARK SMILES IDX 46 87 47 88
REMARK H PARENT 80 19 68 44 38 55
REMARK Flexibility Score: inf
ROOT
ATOM      1  C   UNL A   1      33.776  21.743  26.626  1.00  0.00     0.188 C 
ENDROOT
BRANCH   1   2
ATOM      2  C   UNL A   1      32.984  21.658  25.319  1.00  0.00     0.188 C 
BRANCH   2   3
ATOM      3  O   UNL A   1      32.771  22.890  24.616  1.00  0.00    -0.376 OA
BRANCH   3   4
ATOM      4  C   UNL A   1      32.460  22.817  23.222  1.00  0.00     0.202 C 
BRANCH   4   5
ATOM      5  C   UNL A   1      33.402  23.582  22.274  1.00  0.00     0.262 C 
BRANCH   5   6
ATOM      6  O   UNL A   1      33.468  24.964  22.662  1.00  0.00    -0.456 OA
BRANCH   6   7
ATOM      7  C   UNL A   1      33.237  25.991  21.826  1.00  0.00     0.397 C 
ATOM      8  O   UNL A   1      33.110  25.805  20.619  1.00  0.00    -0.240 OA
BRANCH   7   9
ATOM      9  C   UNL A   1      32.925  27.381  22.389  1.00  0.00     0.332 C 
ATOM     10  O   UNL A   1      33.848  28.196  22.327  1.00  0.00    -0.261 OA
BRANCH   9  11
ATOM     11  N   UNL A   1      31.711  27.656  23.039  1.00  0.00    -0.321 N 
ATOM     12  C   UNL A   1      31.052  28.960  23.141  1.00  0.00     0.181 C 
ATOM     13  C   UNL A   1      31.411  26.826  24.191  1.00  0.00     0.185 C 
ATOM     14  C   UNL A   1      31.206  29.548  24.590  1.00  0.00     0.284 C 
ATOM     15  C   UNL A   1      32.181  27.420  25.387  1.00  0.00     0.204 C 
ATOM     16  N   UNL A   1      32.286  28.910  25.371  1.00  0.00    -0.330 N 
ATOM     17  C   UNL A   1      31.584  27.021  26.727  1.00  0.00     0.073 C 
ATOM     18  C   UNL A   1      32.358  29.321  26.771  1.00  0.00     0.262 C 
ATOM     19  H   UNL A   1      33.122  29.226  24.881  1.00  0.00     0.348 HD
ATOM     20  C   UNL A   1      31.597  28.282  27.574  1.00  0.00     0.068 C 
ENDBRANCH   9  11
ENDBRANCH   7   9
ENDBRANCH   6   7
ENDBRANCH   5   6
ENDBRANCH   4   5
ENDBRANCH   3   4
ENDBRANCH   2   3
ENDBRANCH   1   2
BRANCH   1  21
ATOM     21  O   UNL A   1      35.186  21.904  26.479  1.00  0.00    -0.376 OA
BRANCH  21  22
ATOM     22  C   UNL A   1      35.660  22.032  25.147  1.00  0.00     0.202 C 
BRANCH  22  23
ATOM     23  C   UNL A   1      36.272  23.415  24.855  1.00  0.00     0.261 C 
BRANCH  23  24
ATOM     24  O   UNL A   1      37.016  23.985  25.946  1.00  0.00    -0.460 OA
BRANCH  24  25
ATOM     25  C   UNL A   1      38.278  23.515  26.076  1.00  0.00     0.338 C 
ATOM     26  O   UNL A   1      38.732  22.473  25.599  1.00  0.00    -0.246 OA
BRANCH  25  27
ATOM     27  C   UNL A   1      39.104  24.449  26.859  1.00  0.00     0.060 A 
ATOM     28  C   UNL A   1      38.876  24.569  28.236  1.00  0.00     0.016 A 
ATOM     29  C   UNL A   1      39.992  25.315  26.214  1.00  0.00     0.016 A 
ATOM     30  C   UNL A   1      39.479  25.605  28.957  1.00  0.00     0.010 A 
ATOM     31  C   UNL A   1      40.591  26.353  26.938  1.00  0.00     0.010 A 
ATOM     32  C   UNL A   1      40.297  26.537  28.301  1.00  0.00    -0.014 A 
BRANCH  32  33
ATOM     33  C   UNL A   1      40.682  27.803  28.982  1.00  0.00     0.031 A 
ATOM     34  C   UNL A   1      42.055  27.907  29.602  1.00  0.00     0.074 A 
ATOM     35  C   UNL A   1      39.846  28.857  29.040  1.00  0.00     0.049 A 
ATOM     36  N   UNL A   1      42.591  28.897  30.272  1.00  0.00    -0.248 NA
ATOM     37  C   UNL A   1      42.936  26.739  29.448  1.00  0.00     0.031 C 
ATOM     38  C   UNL A   1      38.511  28.913  28.448  1.00  0.00     0.029 A 
ATOM     39  N   UNL A   1      40.002  30.086  29.635  1.00  0.00    -0.354 N 
ATOM     40  C   UNL A   1      43.868  28.469  30.621  1.00  0.00     0.074 A 
ATOM     41  C   UNL A   1      44.014  27.122  30.117  1.00  0.00     0.031 C 
ATOM     42  C   UNL A   1      37.967  30.114  28.715  1.00  0.00     0.029 A 
ATOM     43  C   UNL A   1      38.901  30.900  29.520  1.00  0.00     0.049 A 
ATOM     44  H   UNL A   1      40.827  30.357  30.101  1.00  0.00     0.167 HD
ATOM     45  C   UNL A   1      44.837  29.138  31.292  1.00  0.00     0.031 A 
ATOM     46  C   UNL A   1      38.665  32.132  30.018  1.00  0.00     0.031 A 
ATOM     47  C   UNL A   1      44.697  30.475  31.804  1.00  0.00     0.049 A 
ATOM     48  C   UNL A   1      39.730  32.828  30.826  1.00  0.00     0.074 A 
ATOM     49  C   UNL A   1      45.630  31.236  32.487  1.00  0.00     0.029 A 
ATOM     50  N   UNL A   1      43.551  31.248  31.698  1.00  0.00    -0.354 N 
ATOM     51  N   UNL A   1      40.938  32.417  31.131  1.00  0.00    -0.248 NA
ATOM     52  C   UNL A   1      39.401  34.162  31.354  1.00  0.00     0.031 C 
ATOM     53  C   UNL A   1      45.031  32.451  32.839  1.00  0.00     0.029 A 
ATOM     54  C   UNL A   1      43.744  32.468  32.325  1.00  0.00     0.049 A 
ATOM     55  H   UNL A   1      42.723  30.970  31.243  1.00  0.00     0.167 HD
ATOM     56  C   UNL A   1      41.520  33.451  31.859  1.00  0.00     0.074 A 
ATOM     57  C   UNL A   1      40.537  34.510  31.943  1.00  0.00     0.031 C 
ATOM     58  C   UNL A   1      42.760  33.516  32.405  1.00  0.00     0.031 A 
BRANCH  45  59
ATOM     59  C   UNL A   1      46.135  28.414  31.541  1.00  0.00    -0.014 A 
ATOM     60  C   UNL A   1      46.306  27.593  32.671  1.00  0.00     0.010 A 
ATOM     61  C   UNL A   1      47.184  28.529  30.612  1.00  0.00     0.010 A 
ATOM     62  C   UNL A   1      47.519  26.931  32.885  1.00  0.00     0.020 A 
ATOM     63  C   UNL A   1      48.388  27.848  30.810  1.00  0.00     0.020 A 
ATOM     64  C   UNL A   1      48.554  27.066  31.955  1.00  0.00     0.054 A 
BRANCH  64  65
ATOM     65  S   UNL A   1      50.112  26.183  32.248  1.00  0.00     0.124 S 
ATOM     66  O   UNL A   1      50.749  27.024  33.258  1.00  0.00    -0.237 OA
ATOM     67  O   UNL A   1      49.658  24.875  32.714  1.00  0.00    -0.237 OA
ATOM     68  O   UNL A   1      50.761  26.183  30.940  1.00  0.00    -0.744 OA
ENDBRANCH  64  65
ENDBRANCH  45  59
BRANCH  46  69
ATOM     69  C   UNL A   1      37.346  32.785  29.789  1.00  0.00    -0.014 A 
ATOM     70  C   UNL A   1      37.116  33.563  28.642  1.00  0.00     0.010 A 
ATOM     71  C   UNL A   1      36.312  32.637  30.732  1.00  0.00     0.010 A 
ATOM     72  C   UNL A   1      35.883  34.194  28.448  1.00  0.00     0.020 A 
ATOM     73  C   UNL A   1      35.071  33.244  30.531  1.00  0.00     0.020 A 
ATOM     74  C   UNL A   1      34.867  34.029  29.395  1.00  0.00     0.054 A 
BRANCH  74  75
ATOM     75  S   UNL A   1      33.257  34.815  29.106  1.00  0.00     0.124 S 
ATOM     76  O   UNL A   1      32.621  33.877  28.186  1.00  0.00    -0.237 OA
ATOM     77  O   UNL A   1      32.685  34.872  30.449  1.00  0.00    -0.237 OA
ATOM     78  O   UNL A   1      33.610  36.112  28.532  1.00  0.00    -0.744 OA
ENDBRANCH  74  75
ENDBRANCH  46  69
BRANCH  58  79
ATOM     79  C   UNL A   1      43.146  34.787  33.117  1.00  0.00    -0.014 A 
ATOM     80  C   UNL A   1      42.994  34.920  34.509  1.00  0.00     0.010 A 
ATOM     81  C   UNL A   1      43.726  35.841  32.389  1.00  0.00     0.010 A 
ATOM     82  C   UNL A   1      43.389  36.095  35.155  1.00  0.00     0.020 A 
ATOM     83  C   UNL A   1      44.147  37.008  33.035  1.00  0.00     0.020 A 
ATOM     84  C   UNL A   1      43.963  37.133  34.412  1.00  0.00     0.054 A 
BRANCH  84  85
ATOM     85  S   UNL A   1      44.511  38.630  35.279  1.00  0.00     0.124 S 
ATOM     86  O   UNL A   1      45.950  38.614  35.036  1.00  0.00    -0.237 OA
ATOM     87  O   UNL A   1      43.770  39.688  34.597  1.00  0.00    -0.237 OA
ATOM     88  O   UNL A   1      44.110  38.393  36.665  1.00  0.00    -0.744 OA
ENDBRANCH  84  85
ENDBRANCH  58  79
ENDBRANCH  32  33
ENDBRANCH  25  27
ENDBRANCH  24  25
ENDBRANCH  23  24
ENDBRANCH  22  23
ENDBRANCH  21  22
ENDBRANCH   1  21
TORSDOF 21
ENDMDL
