MODEL 1
REMARK VINA RESULT:     -10.0      0.000      0.000
REMARK SMILES Cc1nn(C)c(=O)c(C(=O)N2CC[C@@H](C(=O)OCCOCCOCCOC(=O)c3ccc(-c4c5nc(c(-c6ccc(S(=O)(=O)[O-])cc6)c6ccc([nH]6)c(-c6ccc(S(=O)(=O)[O-])cc6)c6nc(c(-c7ccc(S(=O)(=O)[O-])cc7)c7ccc4[nH]7)C=C6)C=C5)cc3)[C@@H]2C)c1C
REMARK SMILES IDX 22 1 21 2 20 3 19 4 18 5 17 6 15 7 16 8 14 9 11 10 12 11
REMARK SMILES IDX 89 12 13 13 90 14 9 15 10 16 8 17 1 18 2 19 3 20 91 21 4 22
REMARK SMILES IDX 92 23 5 24 6 25 7 26 23 27 24 28 25 29 26 30 27 31 28 32
REMARK SMILES IDX 29 33 30 34 88 35 31 36 87 37 32 38 33 39 34 40 81 41 35 42
REMARK SMILES IDX 86 43 80 44 82 45 36 46 85 47 79 48 78 49 37 51 67 52 48 53
REMARK SMILES IDX 66 54 49 55 52 56 65 57 83 58 50 59 51 60 64 62 84 63 53 64
REMARK SMILES IDX 38 65 39 66 47 67 40 68 46 69 41 70 42 71 43 72 44 73 45 74
REMARK SMILES IDX 68 75 69 76 77 77 70 78 76 79 71 80 72 81 73 82 74 83 75 84
REMARK SMILES IDX 54 85 55 86 63 87 56 88 62 89 57 90 58 91 59 92 60 93 61 94
REMARK H PARENT 82 50 52 61
REMARK Flexibility Score: inf
ROOT
ATOM      1  C   UNL A   1      34.788  31.549  27.614  1.00  0.00     0.188 C 
ENDROOT
BRANCH   1   2
ATOM      2  C   UNL A   1      33.338  31.095  27.402  1.00  0.00     0.188 C 
BRANCH   2   3
ATOM      3  O   UNL A   1      33.092  29.727  27.112  1.00  0.00    -0.376 OA
BRANCH   3   4
ATOM      4  C   UNL A   1      32.557  29.374  25.843  1.00  0.00     0.202 C 
BRANCH   4   5
ATOM      5  C   UNL A   1      33.466  28.705  24.795  1.00  0.00     0.261 C 
BRANCH   5   6
ATOM      6  O   UNL A   1      33.055  27.388  24.349  1.00  0.00    -0.463 OA
BRANCH   6   7
ATOM      7  C   UNL A   1      31.801  27.289  23.847  1.00  0.00     0.311 C 
ATOM      8  O   UNL A   1      31.276  28.166  23.167  1.00  0.00    -0.252 OA
BRANCH   7   9
ATOM      9  C   UNL A   1      31.040  26.005  24.172  1.00  0.00     0.123 C 
ATOM     10  N   UNL A   1      31.625  24.126  25.543  1.00  0.00    -0.335 N 
ATOM     11  C   UNL A   1      30.508  24.771  26.200  1.00  0.00     0.121 C 
ATOM     12  C   UNL A   1      31.707  24.601  24.156  1.00  0.00     0.096 C 
ATOM     13  C   UNL A   1      30.504  26.162  25.605  1.00  0.00     0.039 C 
ATOM     14  C   UNL A   1      30.893  23.648  23.256  1.00  0.00     0.032 C 
BRANCH  10  15
ATOM     15  C   UNL A   1      32.349  23.172  26.234  1.00  0.00     0.260 C 
ATOM     16  O   UNL A   1      32.320  23.144  27.467  1.00  0.00    -0.269 OA
BRANCH  15  17
ATOM     17  C   UNL A   1      33.284  22.230  25.534  1.00  0.00     0.111 A 
ATOM     18  C   UNL A   1      36.868  21.608  24.495  1.00  0.00     0.069 C 
ATOM     19  C   UNL A   1      35.450  21.337  24.955  1.00  0.00     0.062 A 
ATOM     20  N   UNL A   1      35.054  20.110  24.852  1.00  0.00    -0.175 NA
ATOM     21  C   UNL A   1      34.615  22.447  25.496  1.00  0.00    -0.010 A 
ATOM     22  N   UNL A   1      33.740  19.852  25.118  1.00  0.00    -0.232 N 
ATOM     23  C   UNL A   1      35.361  23.606  26.078  1.00  0.00     0.047 C 
ATOM     24  C   UNL A   1      33.377  18.445  25.139  1.00  0.00     0.178 C 
ATOM     25  C   UNL A   1      32.772  20.849  25.226  1.00  0.00     0.279 A 
ATOM     26  O   UNL A   1      31.567  20.619  25.137  1.00  0.00    -0.267 OA
ENDBRANCH  15  17
ENDBRANCH  10  15
ENDBRANCH   7   9
ENDBRANCH   6   7
ENDBRANCH   5   6
ENDBRANCH   4   5
ENDBRANCH   3   4
ENDBRANCH   2   3
ENDBRANCH   1   2
BRANCH   1  27
ATOM     27  O   UNL A   1      34.975  32.917  27.872  1.00  0.00    -0.376 OA
BRANCH  27  28
ATOM     28  C   UNL A   1      34.400  33.500  29.029  1.00  0.00     0.202 C 
BRANCH  28  29
ATOM     29  C   UNL A   1      34.749  33.075  30.470  1.00  0.00     0.261 C 
BRANCH  29  30
ATOM     30  O   UNL A   1      35.384  31.806  30.664  1.00  0.00    -0.460 OA
BRANCH  30  31
ATOM     31  C   UNL A   1      36.358  31.746  31.601  1.00  0.00     0.338 C 
ATOM     32  O   UNL A   1      36.244  32.017  32.789  1.00  0.00    -0.246 OA
BRANCH  31  33
ATOM     33  C   UNL A   1      37.501  31.021  31.005  1.00  0.00     0.060 A 
ATOM     34  C   UNL A   1      38.331  30.264  31.847  1.00  0.00     0.016 A 
ATOM     35  C   UNL A   1      37.734  31.057  29.630  1.00  0.00     0.016 A 
ATOM     36  C   UNL A   1      39.410  29.555  31.323  1.00  0.00     0.010 A 
ATOM     37  C   UNL A   1      38.844  30.385  29.111  1.00  0.00     0.010 A 
ATOM     38  C   UNL A   1      39.703  29.661  29.959  1.00  0.00    -0.014 A 
BRANCH  38  39
ATOM     39  C   UNL A   1      41.042  29.263  29.468  1.00  0.00     0.031 A 
ATOM     40  C   UNL A   1      42.105  30.327  29.422  1.00  0.00     0.074 A 
ATOM     41  C   UNL A   1      41.324  28.004  29.094  1.00  0.00     0.049 A 
ATOM     42  N   UNL A   1      43.301  30.286  28.898  1.00  0.00    -0.248 NA
ATOM     43  C   UNL A   1      41.766  31.615  30.054  1.00  0.00     0.031 C 
ATOM     44  C   UNL A   1      40.417  26.862  29.191  1.00  0.00     0.029 A 
ATOM     45  N   UNL A   1      42.468  27.482  28.543  1.00  0.00    -0.354 N 
ATOM     46  C   UNL A   1      43.847  31.546  29.116  1.00  0.00     0.074 A 
ATOM     47  C   UNL A   1      42.850  32.333  29.805  1.00  0.00     0.031 C 
ATOM     48  C   UNL A   1      41.037  25.773  28.700  1.00  0.00     0.029 A 
ATOM     49  C   UNL A   1      42.359  26.155  28.205  1.00  0.00     0.049 A 
ATOM     50  H   UNL A   1      43.288  28.008  28.404  1.00  0.00     0.167 HD
ATOM     51  C   UNL A   1      45.071  32.007  28.769  1.00  0.00     0.031 A 
ATOM     52  C   UNL A   1      43.216  25.353  27.539  1.00  0.00     0.031 A 
ATOM     53  C   UNL A   1      46.051  31.223  28.069  1.00  0.00     0.049 A 
ATOM     54  C   UNL A   1      44.528  25.921  27.058  1.00  0.00     0.074 A 
ATOM     55  C   UNL A   1      47.314  31.600  27.650  1.00  0.00     0.029 A 
ATOM     56  N   UNL A   1      45.879  29.901  27.684  1.00  0.00    -0.354 N 
ATOM     57  N   UNL A   1      45.021  27.126  27.227  1.00  0.00    -0.248 NA
ATOM     58  C   UNL A   1      45.399  25.017  26.294  1.00  0.00     0.031 C 
ATOM     59  C   UNL A   1      47.881  30.526  26.956  1.00  0.00     0.029 A 
ATOM     60  C   UNL A   1      47.001  29.457  27.007  1.00  0.00     0.049 A 
ATOM     61  H   UNL A   1      45.076  29.361  27.866  1.00  0.00     0.167 HD
ATOM     62  C   UNL A   1      46.266  27.120  26.605  1.00  0.00     0.074 A 
ATOM     63  C   UNL A   1      46.461  25.783  26.082  1.00  0.00     0.031 C 
ATOM     64  C   UNL A   1      47.167  28.127  26.474  1.00  0.00     0.031 A 
BRANCH  51  65
ATOM     65  C   UNL A   1      45.391  33.440  29.097  1.00  0.00    -0.014 A 
ATOM     66  C   UNL A   1      45.972  33.800  30.325  1.00  0.00     0.010 A 
ATOM     67  C   UNL A   1      45.133  34.442  28.142  1.00  0.00     0.010 A 
ATOM     68  C   UNL A   1      46.266  35.137  30.604  1.00  0.00     0.020 A 
ATOM     69  C   UNL A   1      45.453  35.776  28.404  1.00  0.00     0.020 A 
ATOM     70  C   UNL A   1      46.008  36.116  29.639  1.00  0.00     0.054 A 
BRANCH  70  71
ATOM     71  S   UNL A   1      46.437  37.838  30.015  1.00  0.00     0.124 S 
ATOM     72  O   UNL A   1      46.994  37.724  31.361  1.00  0.00    -0.237 OA
ATOM     73  O   UNL A   1      47.395  38.163  28.963  1.00  0.00    -0.237 OA
ATOM     74  O   UNL A   1      45.159  38.540  29.930  1.00  0.00    -0.744 OA
ENDBRANCH  70  71
ENDBRANCH  51  65
BRANCH  52  75
ATOM     75  C   UNL A   1      42.846  23.939  27.252  1.00  0.00    -0.014 A 
ATOM     76  C   UNL A   1      42.236  23.591  26.035  1.00  0.00     0.010 A 
ATOM     77  C   UNL A   1      43.107  22.928  28.197  1.00  0.00     0.010 A 
ATOM     78  C   UNL A   1      41.892  22.262  25.767  1.00  0.00     0.020 A 
ATOM     79  C   UNL A   1      42.791  21.594  27.921  1.00  0.00     0.020 A 
ATOM     80  C   UNL A   1      42.182  21.271  26.709  1.00  0.00     0.054 A 
BRANCH  80  81
ATOM     81  S   UNL A   1      41.792  19.545  26.305  1.00  0.00     0.124 S 
ATOM     82  O   UNL A   1      42.207  18.845  27.516  1.00  0.00    -0.237 OA
ATOM     83  O   UNL A   1      40.352  19.599  26.067  1.00  0.00    -0.237 OA
ATOM     84  O   UNL A   1      42.602  19.278  25.119  1.00  0.00    -0.744 OA
ENDBRANCH  80  81
ENDBRANCH  52  75
BRANCH  64  85
ATOM     85  C   UNL A   1      48.451  27.815  25.749  1.00  0.00    -0.014 A 
ATOM     86  C   UNL A   1      49.648  27.585  26.451  1.00  0.00     0.010 A 
ATOM     87  C   UNL A   1      48.455  27.723  24.344  1.00  0.00     0.010 A 
ATOM     88  C   UNL A   1      50.836  27.330  25.759  1.00  0.00     0.020 A 
ATOM     89  C   UNL A   1      49.633  27.431  23.651  1.00  0.00     0.020 A 
ATOM     90  C   UNL A   1      50.821  27.261  24.362  1.00  0.00     0.054 A 
BRANCH  90  91
ATOM     91  S   UNL A   1      52.377  26.934  23.491  1.00  0.00     0.124 S 
ATOM     92  O   UNL A   1      53.077  28.209  23.635  1.00  0.00    -0.237 OA
ATOM     93  O   UNL A   1      52.940  25.820  24.249  1.00  0.00    -0.237 OA
ATOM     94  O   UNL A   1      51.954  26.607  22.132  1.00  0.00    -0.744 OA
ENDBRANCH  90  91
ENDBRANCH  64  85
ENDBRANCH  38  39
ENDBRANCH  31  33
ENDBRANCH  30  31
ENDBRANCH  29  30
ENDBRANCH  28  29
ENDBRANCH  27  28
ENDBRANCH   1  27
TORSDOF 22
ENDMDL
MODEL 2
REMARK VINA RESULT:     -10.0      5.752     11.508
REMARK SMILES Cc1nn(C)c(=O)c(C(=O)N2CC[C@@H](C(=O)OCCOCCOCCOC(=O)c3ccc(-c4c5nc(c(-c6ccc(S(=O)(=O)[O-])cc6)c6ccc([nH]6)c(-c6ccc(S(=O)(=O)[O-])cc6)c6nc(c(-c7ccc(S(=O)(=O)[O-])cc7)c7ccc4[nH]7)C=C6)C=C5)cc3)[C@@H]2C)c1C
REMARK SMILES IDX 22 1 21 2 20 3 19 4 18 5 17 6 15 7 16 8 14 9 11 10 12 11
REMARK SMILES IDX 89 12 13 13 90 14 9 15 10 16 8 17 1 18 2 19 3 20 91 21 4 22
REMARK SMILES IDX 92 23 5 24 6 25 7 26 23 27 24 28 25 29 26 30 27 31 28 32
REMARK SMILES IDX 29 33 30 34 88 35 31 36 87 37 32 38 33 39 34 40 81 41 35 42
REMARK SMILES IDX 86 43 80 44 82 45 36 46 85 47 79 48 78 49 37 51 67 52 48 53
REMARK SMILES IDX 66 54 49 55 52 56 65 57 83 58 50 59 51 60 64 62 84 63 53 64
REMARK SMILES IDX 38 65 39 66 47 67 40 68 46 69 41 70 42 71 43 72 44 73 45 74
REMARK SMILES IDX 68 75 69 76 77 77 70 78 76 79 71 80 72 81 73 82 74 83 75 84
REMARK SMILES IDX 54 85 55 86 63 87 56 88 62 89 57 90 58 91 59 92 60 93 61 94
REMARK H PARENT 82 50 52 61
REMARK Flexibility Score: inf
ROOT
ATOM      1  C   UNL A   1      42.371  21.014  26.290  1.00  0.00     0.188 C 
ENDROOT
BRANCH   1   2
ATOM      2  C   UNL A   1      41.386  19.849  26.130  1.00  0.00     0.188 C 
BRANCH   2   3
ATOM      3  O   UNL A   1      40.044  20.143  25.770  1.00  0.00    -0.376 OA
BRANCH   3   4
ATOM      4  C   UNL A   1      39.407  21.278  26.342  1.00  0.00     0.202 C 
BRANCH   4   5
ATOM      5  C   UNL A   1      38.237  21.948  25.596  1.00  0.00     0.261 C 
BRANCH   5   6
ATOM      6  O   UNL A   1      37.412  21.068  24.790  1.00  0.00    -0.463 OA
BRANCH   6   7
ATOM      7  C   UNL A   1      36.099  21.015  25.115  1.00  0.00     0.311 C 
ATOM      8  O   UNL A   1      35.378  20.054  24.857  1.00  0.00    -0.252 OA
BRANCH   7   9
ATOM      9  C   UNL A   1      35.528  22.235  25.836  1.00  0.00     0.123 C 
ATOM     10  N   UNL A   1      33.306  23.134  25.903  1.00  0.00    -0.335 N 
ATOM     11  C   UNL A   1      33.593  22.669  27.243  1.00  0.00     0.121 C 
ATOM     12  C   UNL A   1      34.564  23.245  25.153  1.00  0.00     0.096 C 
ATOM     13  C   UNL A   1      34.741  21.703  27.045  1.00  0.00     0.039 C 
ATOM     14  C   UNL A   1      35.113  24.678  25.312  1.00  0.00     0.032 C 
BRANCH  10  15
ATOM     15  C   UNL A   1      32.004  23.459  25.570  1.00  0.00     0.260 C 
ATOM     16  O   UNL A   1      31.071  22.745  25.947  1.00  0.00    -0.269 OA
BRANCH  15  17
ATOM     17  C   UNL A   1      31.686  24.599  24.648  1.00  0.00     0.111 A 
ATOM     18  C   UNL A   1      30.855  28.283  24.430  1.00  0.00     0.069 C 
ATOM     19  C   UNL A   1      31.426  26.927  24.068  1.00  0.00     0.062 A 
ATOM     20  N   UNL A   1      31.808  26.791  22.840  1.00  0.00    -0.175 NA
ATOM     21  C   UNL A   1      31.529  25.859  25.103  1.00  0.00    -0.010 A 
ATOM     22  N   UNL A   1      32.191  25.544  22.438  1.00  0.00    -0.232 N 
ATOM     23  C   UNL A   1      31.604  26.325  26.522  1.00  0.00     0.047 C 
ATOM     24  C   UNL A   1      32.756  25.472  21.100  1.00  0.00     0.178 C 
ATOM     25  C   UNL A   1      31.941  24.391  23.179  1.00  0.00     0.279 A 
ATOM     26  O   UNL A   1      31.982  23.263  22.690  1.00  0.00    -0.267 OA
ENDBRANCH  15  17
ENDBRANCH  10  15
ENDBRANCH   7   9
ENDBRANCH   6   7
ENDBRANCH   5   6
ENDBRANCH   4   5
ENDBRANCH   3   4
ENDBRANCH   2   3
ENDBRANCH   1   2
BRANCH   1  27
ATOM     27  O   UNL A   1      42.949  21.500  25.104  1.00  0.00    -0.376 OA
BRANCH  27  28
ATOM     28  C   UNL A   1      43.263  22.877  24.987  1.00  0.00     0.202 C 
BRANCH  28  29
ATOM     29  C   UNL A   1      42.361  24.012  25.514  1.00  0.00     0.261 C 
BRANCH  29  30
ATOM     30  O   UNL A   1      42.989  25.144  26.125  1.00  0.00    -0.460 OA
BRANCH  30  31
ATOM     31  C   UNL A   1      42.329  26.323  26.053  1.00  0.00     0.338 C 
ATOM     32  O   UNL A   1      41.682  26.740  25.101  1.00  0.00    -0.246 OA
BRANCH  31  33
ATOM     33  C   UNL A   1      42.281  26.888  27.419  1.00  0.00     0.060 A 
ATOM     34  C   UNL A   1      41.404  26.317  28.354  1.00  0.00     0.016 A 
ATOM     35  C   UNL A   1      43.114  27.946  27.786  1.00  0.00     0.016 A 
ATOM     36  C   UNL A   1      41.339  26.812  29.655  1.00  0.00     0.010 A 
ATOM     37  C   UNL A   1      43.014  28.473  29.077  1.00  0.00     0.010 A 
ATOM     38  C   UNL A   1      42.104  27.930  30.002  1.00  0.00    -0.014 A 
BRANCH  38  39
ATOM     39  C   UNL A   1      41.756  28.703  31.216  1.00  0.00     0.031 A 
ATOM     40  C   UNL A   1      40.570  29.626  31.130  1.00  0.00     0.074 A 
ATOM     41  C   UNL A   1      42.444  28.585  32.365  1.00  0.00     0.049 A 
ATOM     42  N   UNL A   1      40.148  30.520  31.985  1.00  0.00    -0.248 NA
ATOM     43  C   UNL A   1      39.753  29.526  29.908  1.00  0.00     0.031 C 
ATOM     44  C   UNL A   1      43.541  27.651  32.609  1.00  0.00     0.029 A 
ATOM     45  N   UNL A   1      42.315  29.273  33.545  1.00  0.00    -0.354 N 
ATOM     46  C   UNL A   1      39.032  31.102  31.395  1.00  0.00     0.074 A 
ATOM     47  C   UNL A   1      38.851  30.474  30.106  1.00  0.00     0.031 C 
ATOM     48  C   UNL A   1      43.997  27.837  33.861  1.00  0.00     0.029 A 
ATOM     49  C   UNL A   1      43.262  28.937  34.482  1.00  0.00     0.049 A 
ATOM     50  H   UNL A   1      41.613  29.944  33.704  1.00  0.00     0.167 HD
ATOM     51  C   UNL A   1      38.231  32.077  31.883  1.00  0.00     0.031 A 
ATOM     52  C   UNL A   1      43.526  29.484  35.687  1.00  0.00     0.031 A 
ATOM     53  C   UNL A   1      38.428  32.709  33.159  1.00  0.00     0.049 A 
ATOM     54  C   UNL A   1      42.693  30.649  36.162  1.00  0.00     0.074 A 
ATOM     55  C   UNL A   1      37.688  33.723  33.741  1.00  0.00     0.029 A 
ATOM     56  N   UNL A   1      39.439  32.387  34.053  1.00  0.00    -0.354 N 
ATOM     57  N   UNL A   1      41.668  31.226  35.581  1.00  0.00    -0.248 NA
ATOM     58  C   UNL A   1      43.058  31.236  37.459  1.00  0.00     0.031 C 
ATOM     59  C   UNL A   1      38.290  34.056  34.958  1.00  0.00     0.029 A 
ATOM     60  C   UNL A   1      39.360  33.202  35.169  1.00  0.00     0.049 A 
ATOM     61  H   UNL A   1      40.113  31.683  33.914  1.00  0.00     0.167 HD
ATOM     62  C   UNL A   1      41.254  32.233  36.448  1.00  0.00     0.074 A 
ATOM     63  C   UNL A   1      42.123  32.167  37.605  1.00  0.00     0.031 C 
ATOM     64  C   UNL A   1      40.249  33.134  36.302  1.00  0.00     0.031 A 
BRANCH  51  65
ATOM     65  C   UNL A   1      37.104  32.553  31.008  1.00  0.00    -0.014 A 
ATOM     66  C   UNL A   1      35.770  32.192  31.268  1.00  0.00     0.010 A 
ATOM     67  C   UNL A   1      37.384  33.403  29.922  1.00  0.00     0.010 A 
ATOM     68  C   UNL A   1      34.740  32.651  30.444  1.00  0.00     0.020 A 
ATOM     69  C   UNL A   1      36.354  33.889  29.113  1.00  0.00     0.020 A 
ATOM     70  C   UNL A   1      35.039  33.501  29.374  1.00  0.00     0.054 A 
BRANCH  70  71
ATOM     71  S   UNL A   1      33.675  34.112  28.346  1.00  0.00     0.124 S 
ATOM     72  O   UNL A   1      33.290  32.911  27.609  1.00  0.00    -0.237 OA
ATOM     73  O   UNL A   1      32.712  34.575  29.340  1.00  0.00    -0.237 OA
ATOM     74  O   UNL A   1      34.292  35.164  27.541  1.00  0.00    -0.744 OA
ENDBRANCH  70  71
ENDBRANCH  51  65
BRANCH  52  75
ATOM     75  C   UNL A   1      44.651  28.964  36.514  1.00  0.00    -0.014 A 
ATOM     76  C   UNL A   1      44.419  28.007  37.517  1.00  0.00     0.010 A 
ATOM     77  C   UNL A   1      45.965  29.421  36.299  1.00  0.00     0.010 A 
ATOM     78  C   UNL A   1      45.477  27.519  38.290  1.00  0.00     0.020 A 
ATOM     79  C   UNL A   1      47.030  28.913  37.050  1.00  0.00     0.020 A 
ATOM     80  C   UNL A   1      46.778  27.968  38.044  1.00  0.00     0.054 A 
BRANCH  80  81
ATOM     81  S   UNL A   1      48.141  27.263  39.012  1.00  0.00     0.124 S 
ATOM     82  O   UNL A   1      47.438  26.674  40.147  1.00  0.00    -0.237 OA
ATOM     83  O   UNL A   1      48.733  26.315  38.072  1.00  0.00    -0.237 OA
ATOM     84  O   UNL A   1      48.974  28.421  39.325  1.00  0.00    -0.744 OA
ENDBRANCH  80  81
ENDBRANCH  52  75
BRANCH  64  85
ATOM     85  C   UNL A   1      40.029  34.111  37.430  1.00  0.00    -0.014 A 
ATOM     86  C   UNL A   1      39.166  33.808  38.498  1.00  0.00     0.010 A 
ATOM     87  C   UNL A   1      40.715  35.339  37.433  1.00  0.00     0.010 A 
ATOM     88  C   UNL A   1      38.948  34.740  39.518  1.00  0.00     0.020 A 
ATOM     89  C   UNL A   1      40.529  36.258  38.469  1.00  0.00     0.020 A 
ATOM     90  C   UNL A   1      39.628  35.962  39.492  1.00  0.00     0.054 A 
BRANCH  90  91
ATOM     91  S   UNL A   1      39.322  37.154  40.824  1.00  0.00     0.124 S 
ATOM     92  O   UNL A   1      38.369  38.068  40.199  1.00  0.00    -0.237 OA
ATOM     93  O   UNL A   1      38.780  36.313  41.888  1.00  0.00    -0.237 OA
ATOM     94  O   UNL A   1      40.641  37.720  41.094  1.00  0.00    -0.744 OA
ENDBRANCH  90  91
ENDBRANCH  64  85
ENDBRANCH  38  39
ENDBRANCH  31  33
ENDBRANCH  30  31
ENDBRANCH  29  30
ENDBRANCH  28  29
ENDBRANCH  27  28
ENDBRANCH   1  27
TORSDOF 22
ENDMDL
MODEL 3
REMARK VINA RESULT:      -9.9      1.846      8.253
REMARK SMILES Cc1nn(C)c(=O)c(C(=O)N2CC[C@@H](C(=O)OCCOCCOCCOC(=O)c3ccc(-c4c5nc(c(-c6ccc(S(=O)(=O)[O-])cc6)c6ccc([nH]6)c(-c6ccc(S(=O)(=O)[O-])cc6)c6nc(c(-c7ccc(S(=O)(=O)[O-])cc7)c7ccc4[nH]7)C=C6)C=C5)cc3)[C@@H]2C)c1C
REMARK SMILES IDX 22 1 21 2 20 3 19 4 18 5 17 6 15 7 16 8 14 9 11 10 12 11
REMARK SMILES IDX 89 12 13 13 90 14 9 15 10 16 8 17 1 18 2 19 3 20 91 21 4 22
REMARK SMILES IDX 92 23 5 24 6 25 7 26 23 27 24 28 25 29 26 30 27 31 28 32
REMARK SMILES IDX 29 33 30 34 88 35 31 36 87 37 32 38 33 39 34 40 81 41 35 42
REMARK SMILES IDX 86 43 80 44 82 45 36 46 85 47 79 48 78 49 37 51 67 52 48 53
REMARK SMILES IDX 66 54 49 55 52 56 65 57 83 58 50 59 51 60 64 62 84 63 53 64
REMARK SMILES IDX 38 65 39 66 47 67 40 68 46 69 41 70 42 71 43 72 44 73 45 74
REMARK SMILES IDX 68 75 69 76 77 77 70 78 76 79 71 80 72 81 73 82 74 83 75 84
REMARK SMILES IDX 54 85 55 86 63 87 56 88 62 89 57 90 58 91 59 92 60 93 61 94
REMARK H PARENT 82 50 52 61
REMARK Flexibility Score: inf
ROOT
ATOM      1  C   UNL A   1      35.169  31.716  27.764  1.00  0.00     0.188 C 
ENDROOT
BRANCH   1   2
ATOM      2  C   UNL A   1      35.384  30.235  27.426  1.00  0.00     0.188 C 
BRANCH   2   3
ATOM      3  O   UNL A   1      34.307  29.332  27.627  1.00  0.00    -0.376 OA
BRANCH   3   4
ATOM      4  C   UNL A   1      33.323  29.192  26.610  1.00  0.00     0.202 C 
BRANCH   4   5
ATOM      5  C   UNL A   1      33.647  28.369  25.349  1.00  0.00     0.261 C 
BRANCH   5   6
ATOM      6  O   UNL A   1      32.813  28.628  24.191  1.00  0.00    -0.463 OA
BRANCH   6   7
ATOM      7  C   UNL A   1      33.273  28.162  23.005  1.00  0.00     0.311 C 
ATOM      8  O   UNL A   1      34.288  28.588  22.462  1.00  0.00    -0.252 OA
BRANCH   7   9
ATOM      9  C   UNL A   1      32.452  27.053  22.348  1.00  0.00     0.123 C 
ATOM     10  N   UNL A   1      32.493  24.674  22.639  1.00  0.00    -0.335 N 
ATOM     11  C   UNL A   1      31.209  25.118  23.137  1.00  0.00     0.121 C 
ATOM     12  C   UNL A   1      33.084  25.737  21.817  1.00  0.00     0.096 C 
ATOM     13  C   UNL A   1      31.419  26.594  23.391  1.00  0.00     0.039 C 
ATOM     14  C   UNL A   1      32.670  25.516  20.347  1.00  0.00     0.032 C 
BRANCH  10  15
ATOM     15  C   UNL A   1      32.912  23.386  22.920  1.00  0.00     0.260 C 
ATOM     16  O   UNL A   1      32.471  22.434  22.271  1.00  0.00    -0.269 OA
BRANCH  15  17
ATOM     17  C   UNL A   1      33.806  23.084  24.087  1.00  0.00     0.111 A 
ATOM     18  C   UNL A   1      33.926  22.126  27.744  1.00  0.00     0.069 C 
ATOM     19  C   UNL A   1      34.308  22.212  26.281  1.00  0.00     0.062 A 
ATOM     20  N   UNL A   1      35.515  21.849  25.995  1.00  0.00    -0.175 NA
ATOM     21  C   UNL A   1      33.312  22.680  25.275  1.00  0.00    -0.010 A 
ATOM     22  N   UNL A   1      35.944  22.049  24.715  1.00  0.00    -0.232 N 
ATOM     23  C   UNL A   1      31.873  22.500  25.643  1.00  0.00     0.047 C 
ATOM     24  C   UNL A   1      37.248  21.487  24.403  1.00  0.00     0.178 C 
ATOM     25  C   UNL A   1      35.264  22.848  23.797  1.00  0.00     0.279 A 
ATOM     26  O   UNL A   1      35.794  23.293  22.780  1.00  0.00    -0.267 OA
ENDBRANCH  15  17
ENDBRANCH  10  15
ENDBRANCH   7   9
ENDBRANCH   6   7
ENDBRANCH   5   6
ENDBRANCH   4   5
ENDBRANCH   3   4
ENDBRANCH   2   3
ENDBRANCH   1   2
BRANCH   1  27
ATOM     27  O   UNL A   1      34.375  31.981  28.893  1.00  0.00    -0.376 OA
BRANCH  27  28
ATOM     28  C   UNL A   1      34.988  32.172  30.156  1.00  0.00     0.202 C 
BRANCH  28  29
ATOM     29  C   UNL A   1      36.514  32.162  30.381  1.00  0.00     0.261 C 
BRANCH  29  30
ATOM     30  O   UNL A   1      37.049  31.247  31.343  1.00  0.00    -0.460 OA
BRANCH  30  31
ATOM     31  C   UNL A   1      37.317  29.993  30.912  1.00  0.00     0.338 C 
ATOM     32  O   UNL A   1      36.516  29.074  30.796  1.00  0.00    -0.246 OA
BRANCH  31  33
ATOM     33  C   UNL A   1      38.677  30.006  30.329  1.00  0.00     0.060 A 
ATOM     34  C   UNL A   1      38.814  29.896  28.937  1.00  0.00     0.016 A 
ATOM     35  C   UNL A   1      39.801  30.160  31.140  1.00  0.00     0.016 A 
ATOM     36  C   UNL A   1      40.077  29.919  28.348  1.00  0.00     0.010 A 
ATOM     37  C   UNL A   1      41.071  30.135  30.555  1.00  0.00     0.010 A 
ATOM     38  C   UNL A   1      41.212  29.980  29.164  1.00  0.00    -0.014 A 
BRANCH  38  39
ATOM     39  C   UNL A   1      42.531  29.601  28.607  1.00  0.00     0.031 A 
ATOM     40  C   UNL A   1      42.713  28.171  28.173  1.00  0.00     0.074 A 
ATOM     41  C   UNL A   1      43.532  30.487  28.464  1.00  0.00     0.049 A 
ATOM     42  N   UNL A   1      43.797  27.547  27.801  1.00  0.00    -0.248 NA
ATOM     43  C   UNL A   1      41.499  27.334  28.164  1.00  0.00     0.031 C 
ATOM     44  C   UNL A   1      43.449  31.919  28.745  1.00  0.00     0.029 A 
ATOM     45  N   UNL A   1      44.827  30.296  28.051  1.00  0.00    -0.354 N 
ATOM     46  C   UNL A   1      43.403  26.240  27.536  1.00  0.00     0.074 A 
ATOM     47  C   UNL A   1      41.985  26.157  27.803  1.00  0.00     0.031 C 
ATOM     48  C   UNL A   1      44.651  32.476  28.509  1.00  0.00     0.029 A 
ATOM     49  C   UNL A   1      45.597  31.432  28.116  1.00  0.00     0.049 A 
ATOM     50  H   UNL A   1      45.171  29.429  27.738  1.00  0.00     0.167 HD
ATOM     51  C   UNL A   1      44.157  25.200  27.110  1.00  0.00     0.031 A 
ATOM     52  C   UNL A   1      46.921  31.598  27.918  1.00  0.00     0.031 A 
ATOM     53  C   UNL A   1      45.570  25.287  26.861  1.00  0.00     0.049 A 
ATOM     54  C   UNL A   1      47.765  30.401  27.557  1.00  0.00     0.074 A 
ATOM     55  C   UNL A   1      46.434  24.289  26.449  1.00  0.00     0.029 A 
ATOM     56  N   UNL A   1      46.328  26.440  27.003  1.00  0.00    -0.354 N 
ATOM     57  N   UNL A   1      47.394  29.159  27.352  1.00  0.00    -0.248 NA
ATOM     58  C   UNL A   1      49.207  30.632  27.403  1.00  0.00     0.031 C 
ATOM     59  C   UNL A   1      47.725  24.823  26.402  1.00  0.00     0.029 A 
ATOM     60  C   UNL A   1      47.655  26.171  26.714  1.00  0.00     0.049 A 
ATOM     61  H   UNL A   1      45.975  27.319  27.270  1.00  0.00     0.167 HD
ATOM     62  C   UNL A   1      48.556  28.463  27.028  1.00  0.00     0.074 A 
ATOM     63  C   UNL A   1      49.634  29.430  27.038  1.00  0.00     0.031 C 
ATOM     64  C   UNL A   1      48.719  27.144  26.751  1.00  0.00     0.031 A 
BRANCH  51  65
ATOM     65  C   UNL A   1      43.473  23.871  26.939  1.00  0.00    -0.014 A 
ATOM     66  C   UNL A   1      43.077  23.407  25.672  1.00  0.00     0.010 A 
ATOM     67  C   UNL A   1      43.253  23.057  28.066  1.00  0.00     0.010 A 
ATOM     68  C   UNL A   1      42.448  22.167  25.538  1.00  0.00     0.020 A 
ATOM     69  C   UNL A   1      42.652  21.803  27.933  1.00  0.00     0.020 A 
ATOM     70  C   UNL A   1      42.245  21.371  26.670  1.00  0.00     0.054 A 
BRANCH  70  71
ATOM     71  S   UNL A   1      41.462  19.748  26.459  1.00  0.00     0.124 S 
ATOM     72  O   UNL A   1      41.676  19.137  27.769  1.00  0.00    -0.237 OA
ATOM     73  O   UNL A   1      40.080  20.101  26.147  1.00  0.00    -0.237 OA
ATOM     74  O   UNL A   1      42.212  19.141  25.361  1.00  0.00    -0.744 OA
ENDBRANCH  70  71
ENDBRANCH  51  65
BRANCH  52  75
ATOM     75  C   UNL A   1      47.540  32.942  28.093  1.00  0.00    -0.014 A 
ATOM     76  C   UNL A   1      48.330  33.225  29.220  1.00  0.00     0.010 A 
ATOM     77  C   UNL A   1      47.343  33.949  27.128  1.00  0.00     0.010 A 
ATOM     78  C   UNL A   1      48.911  34.487  29.381  1.00  0.00     0.020 A 
ATOM     79  C   UNL A   1      47.947  35.202  27.271  1.00  0.00     0.020 A 
ATOM     80  C   UNL A   1      48.725  35.464  28.399  1.00  0.00     0.054 A 
BRANCH  80  81
ATOM     81  S   UNL A   1      49.550  37.068  28.598  1.00  0.00     0.124 S 
ATOM     82  O   UNL A   1      50.556  37.028  27.541  1.00  0.00    -0.237 OA
ATOM     83  O   UNL A   1      48.453  38.010  28.392  1.00  0.00    -0.237 OA
ATOM     84  O   UNL A   1      50.072  37.019  29.961  1.00  0.00    -0.744 OA
ENDBRANCH  80  81
ENDBRANCH  52  75
BRANCH  64  85
ATOM     85  C   UNL A   1      50.113  26.675  26.420  1.00  0.00    -0.014 A 
ATOM     86  C   UNL A   1      50.584  26.663  25.095  1.00  0.00     0.010 A 
ATOM     87  C   UNL A   1      50.975  26.266  27.454  1.00  0.00     0.010 A 
ATOM     88  C   UNL A   1      51.868  26.193  24.804  1.00  0.00     0.020 A 
ATOM     89  C   UNL A   1      52.273  25.831  27.172  1.00  0.00     0.020 A 
ATOM     90  C   UNL A   1      52.702  25.775  25.846  1.00  0.00     0.054 A 
BRANCH  90  91
ATOM     91  S   UNL A   1      54.361  25.165  25.440  1.00  0.00     0.124 S 
ATOM     92  O   UNL A   1      54.805  26.136  24.443  1.00  0.00    -0.237 OA
ATOM     93  O   UNL A   1      55.048  25.226  26.727  1.00  0.00    -0.237 OA
ATOM     94  O   UNL A   1      54.120  23.817  24.930  1.00  0.00    -0.744 OA
ENDBRANCH  90  91
ENDBRANCH  64  85
ENDBRANCH  38  39
ENDBRANCH  31  33
ENDBRANCH  30  31
ENDBRANCH  29  30
ENDBRANCH  28  29
ENDBRANCH  27  28
ENDBRANCH   1  27
TORSDOF 22
ENDMDL
