MODEL 1
REMARK VINA RESULT:      -7.5      0.000      0.000
REMARK SMILES CCOc1cccc(OCC)c1-c1ccc([C@@H](C)C(=O)OCCOCCOCCOC(=O)c2ccc(-c3c4nc(c(-c5ccc(S(=O)(=O)[O-])cc5)c5ccc([nH]5)c(-c5ccc(S(=O)(=O)[O-])cc5)c5nc(c(-c6ccc(S(=O)(=O)[O-])cc6)c6ccc3[nH]6)C=C5)C=C4)cc2)cc1F
REMARK SMILES IDX 25 1 24 2 23 3 22 4 21 5 19 6 20 7 17 8 18 9 16 10 13 11
REMARK SMILES IDX 14 12 94 13 15 14 93 15 95 16 12 17 4 18 5 19 6 20 8 21 7 22
REMARK SMILES IDX 3 23 2 24 1 25 9 26 10 27 11 28 26 29 27 30 28 31 29 32
REMARK SMILES IDX 30 33 31 34 32 35 33 36 34 37 92 38 35 39 91 40 36 41 37 42
REMARK SMILES IDX 38 43 85 44 39 45 90 46 84 47 86 48 40 49 89 50 83 51 82 52
REMARK SMILES IDX 41 54 71 55 52 56 70 57 53 58 56 59 69 60 87 61 54 62 55 63
REMARK SMILES IDX 68 65 88 66 57 67 42 68 43 69 51 70 44 71 50 72 45 73 46 74
REMARK SMILES IDX 47 75 48 76 49 77 72 78 73 79 81 80 74 81 80 82 75 83 76 84
REMARK SMILES IDX 77 85 78 86 79 87 58 88 59 89 67 90 60 91 66 92 61 93 62 94
REMARK SMILES IDX 63 95 64 96 65 97
REMARK H PARENT 86 53 56 64
REMARK Flexibility Score: inf
ROOT
ATOM      1  C   UNL A   1      45.792  24.460  27.861  1.00  0.00     0.188 C 
ENDROOT
BRANCH   1   2
ATOM      2  O   UNL A   1      44.454  24.683  28.288  1.00  0.00    -0.376 OA
BRANCH   2   3
ATOM      3  C   UNL A   1      43.891  25.980  28.133  1.00  0.00     0.202 C 
BRANCH   3   4
ATOM      4  C   UNL A   1      43.108  26.252  26.845  1.00  0.00     0.261 C 
BRANCH   4   5
ATOM      5  O   UNL A   1      42.101  27.285  26.975  1.00  0.00    -0.463 OA
BRANCH   5   6
ATOM      6  C   UNL A   1      40.822  26.850  27.081  1.00  0.00     0.313 C 
ATOM      7  O   UNL A   1      40.254  26.224  26.187  1.00  0.00    -0.252 OA
BRANCH   6   8
ATOM      8  C   UNL A   1      40.071  27.199  28.365  1.00  0.00     0.126 C 
ATOM      9  C   UNL A   1      39.391  25.916  28.858  1.00  0.00     0.025 C 
BRANCH   8  10
ATOM     10  C   UNL A   1      39.094  28.369  28.505  1.00  0.00    -0.031 A 
ATOM     11  C   UNL A   1      36.987  30.321  28.783  1.00  0.00     0.025 A 
ATOM     12  C   UNL A   1      37.943  30.390  27.750  1.00  0.00     0.012 A 
ATOM     13  C   UNL A   1      37.155  29.291  29.712  1.00  0.00     0.131 A 
ATOM     14  C   UNL A   1      38.945  29.409  27.584  1.00  0.00     0.005 A 
ATOM     15  C   UNL A   1      38.184  28.345  29.585  1.00  0.00     0.044 A 
ATOM     16  F   UNL A   1      36.293  29.148  30.730  1.00  0.00    -0.206 F 
BRANCH  11  17
ATOM     17  C   UNL A   1      35.864  31.294  28.850  1.00  0.00     0.069 A 
ATOM     18  C   UNL A   1      35.949  32.395  29.742  1.00  0.00     0.130 A 
ATOM     19  C   UNL A   1      35.036  33.458  29.744  1.00  0.00     0.047 A 
ATOM     20  C   UNL A   1      33.981  33.451  28.852  1.00  0.00     0.008 A 
ATOM     21  C   UNL A   1      34.725  31.266  28.013  1.00  0.00     0.130 A 
ATOM     22  C   UNL A   1      33.820  32.351  28.018  1.00  0.00     0.047 A 
BRANCH  18  23
ATOM     23  O   UNL A   1      36.893  32.398  30.734  1.00  0.00    -0.493 OA
BRANCH  23  24
ATOM     24  C   UNL A   1      36.530  33.226  31.834  1.00  0.00     0.226 C 
ATOM     25  C   UNL A   1      36.264  32.287  32.977  1.00  0.00     0.049 C 
ENDBRANCH  23  24
ENDBRANCH  18  23
BRANCH  21  26
ATOM     26  O   UNL A   1      34.296  30.326  27.117  1.00  0.00    -0.493 OA
BRANCH  26  27
ATOM     27  C   UNL A   1      34.071  28.967  27.457  1.00  0.00     0.226 C 
ATOM     28  C   UNL A   1      33.152  28.379  26.403  1.00  0.00     0.049 C 
ENDBRANCH  26  27
ENDBRANCH  21  26
ENDBRANCH  11  17
ENDBRANCH   8  10
ENDBRANCH   6   8
ENDBRANCH   5   6
ENDBRANCH   4   5
ENDBRANCH   3   4
ENDBRANCH   2   3
ENDBRANCH   1   2
BRANCH   1  29
ATOM     29  C   UNL A   1      46.029  23.676  26.561  1.00  0.00     0.188 C 
BRANCH  29  30
ATOM     30  O   UNL A   1      47.157  24.078  25.799  1.00  0.00    -0.376 OA
BRANCH  30  31
ATOM     31  C   UNL A   1      46.954  24.119  24.393  1.00  0.00     0.202 C 
BRANCH  31  32
ATOM     32  C   UNL A   1      47.914  25.067  23.674  1.00  0.00     0.261 C 
BRANCH  32  33
ATOM     33  O   UNL A   1      48.518  25.993  24.598  1.00  0.00    -0.460 OA
BRANCH  33  34
ATOM     34  C   UNL A   1      48.487  27.301  24.290  1.00  0.00     0.338 C 
ATOM     35  O   UNL A   1      48.874  27.823  23.249  1.00  0.00    -0.246 OA
BRANCH  34  36
ATOM     36  C   UNL A   1      47.879  28.038  25.412  1.00  0.00     0.060 A 
ATOM     37  C   UNL A   1      48.670  28.604  26.422  1.00  0.00     0.016 A 
ATOM     38  C   UNL A   1      46.492  28.105  25.498  1.00  0.00     0.016 A 
ATOM     39  C   UNL A   1      48.088  29.204  27.535  1.00  0.00     0.010 A 
ATOM     40  C   UNL A   1      45.906  28.736  26.595  1.00  0.00     0.010 A 
ATOM     41  C   UNL A   1      46.698  29.264  27.631  1.00  0.00    -0.014 A 
BRANCH  41  42
ATOM     42  C   UNL A   1      46.044  29.780  28.852  1.00  0.00     0.031 A 
ATOM     43  C   UNL A   1      45.841  28.846  30.007  1.00  0.00     0.074 A 
ATOM     44  C   UNL A   1      45.601  31.048  28.911  1.00  0.00     0.049 A 
ATOM     45  N   UNL A   1      45.075  28.981  31.055  1.00  0.00    -0.248 NA
ATOM     46  C   UNL A   1      46.598  27.583  29.964  1.00  0.00     0.031 C 
ATOM     47  C   UNL A   1      45.819  32.073  27.891  1.00  0.00     0.029 A 
ATOM     48  N   UNL A   1      44.841  31.675  29.865  1.00  0.00    -0.354 N 
ATOM     49  C   UNL A   1      45.221  27.804  31.778  1.00  0.00     0.074 A 
ATOM     50  C   UNL A   1      46.150  26.967  31.049  1.00  0.00     0.031 C 
ATOM     51  C   UNL A   1      45.177  33.196  28.258  1.00  0.00     0.029 A 
ATOM     52  C   UNL A   1      44.454  32.943  29.502  1.00  0.00     0.049 A 
ATOM     53  H   UNL A   1      44.598  31.260  30.724  1.00  0.00     0.167 HD
ATOM     54  C   UNL A   1      44.620  27.450  32.939  1.00  0.00     0.031 A 
ATOM     55  C   UNL A   1      43.568  33.780  30.076  1.00  0.00     0.031 A 
ATOM     56  C   UNL A   1      43.693  28.292  33.646  1.00  0.00     0.049 A 
ATOM     57  C   UNL A   1      42.844  33.337  31.318  1.00  0.00     0.074 A 
ATOM     58  C   UNL A   1      43.013  28.031  34.821  1.00  0.00     0.029 A 
ATOM     59  N   UNL A   1      43.315  29.564  33.238  1.00  0.00    -0.354 N 
ATOM     60  N   UNL A   1      42.945  32.204  31.971  1.00  0.00    -0.248 NA
ATOM     61  C   UNL A   1      41.881  34.284  31.896  1.00  0.00     0.031 C 
ATOM     62  C   UNL A   1      42.191  29.129  35.102  1.00  0.00     0.029 A 
ATOM     63  C   UNL A   1      42.400  30.095  34.129  1.00  0.00     0.049 A 
ATOM     64  H   UNL A   1      43.650  30.021  32.433  1.00  0.00     0.167 HD
ATOM     65  C   UNL A   1      42.073  32.309  33.050  1.00  0.00     0.074 A 
ATOM     66  C   UNL A   1      41.462  33.620  32.966  1.00  0.00     0.031 C 
ATOM     67  C   UNL A   1      41.803  31.403  34.023  1.00  0.00     0.031 A 
BRANCH  54  68
ATOM     68  C   UNL A   1      44.907  26.074  33.471  1.00  0.00    -0.014 A 
ATOM     69  C   UNL A   1      45.806  25.871  34.535  1.00  0.00     0.010 A 
ATOM     70  C   UNL A   1      44.269  24.962  32.893  1.00  0.00     0.010 A 
ATOM     71  C   UNL A   1      46.093  24.577  34.980  1.00  0.00     0.020 A 
ATOM     72  C   UNL A   1      44.534  23.669  33.351  1.00  0.00     0.020 A 
ATOM     73  C   UNL A   1      45.460  23.484  34.379  1.00  0.00     0.054 A 
BRANCH  73  74
ATOM     74  S   UNL A   1      45.851  21.814  34.972  1.00  0.00     0.124 S 
ATOM     75  O   UNL A   1      44.629  21.085  34.641  1.00  0.00    -0.237 OA
ATOM     76  O   UNL A   1      47.028  21.459  34.181  1.00  0.00    -0.237 OA
ATOM     77  O   UNL A   1      46.098  22.003  36.399  1.00  0.00    -0.744 OA
ENDBRANCH  73  74
ENDBRANCH  54  68
BRANCH  55  78
ATOM     78  C   UNL A   1      43.280  35.095  29.443  1.00  0.00    -0.014 A 
ATOM     79  C   UNL A   1      42.367  35.192  28.380  1.00  0.00     0.010 A 
ATOM     80  C   UNL A   1      43.899  36.265  29.924  1.00  0.00     0.010 A 
ATOM     81  C   UNL A   1      42.078  36.434  27.809  1.00  0.00     0.020 A 
ATOM     82  C   UNL A   1      43.594  37.511  29.372  1.00  0.00     0.020 A 
ATOM     83  C   UNL A   1      42.690  37.587  28.311  1.00  0.00     0.054 A 
BRANCH  83  84
ATOM     84  S   UNL A   1      42.243  39.197  27.600  1.00  0.00     0.124 S 
ATOM     85  O   UNL A   1      43.551  39.763  27.287  1.00  0.00    -0.237 OA
ATOM     86  O   UNL A   1      41.425  38.819  26.450  1.00  0.00    -0.237 OA
ATOM     87  O   UNL A   1      41.516  39.857  28.682  1.00  0.00    -0.744 OA
ENDBRANCH  83  84
ENDBRANCH  55  78
BRANCH  67  88
ATOM     88  C   UNL A   1      40.832  31.814  35.095  1.00  0.00    -0.014 A 
ATOM     89  C   UNL A   1      39.448  31.631  34.934  1.00  0.00     0.010 A 
ATOM     90  C   UNL A   1      41.320  32.342  36.304  1.00  0.00     0.010 A 
ATOM     91  C   UNL A   1      38.565  31.995  35.954  1.00  0.00     0.020 A 
ATOM     92  C   UNL A   1      40.443  32.685  37.335  1.00  0.00     0.020 A 
ATOM     93  C   UNL A   1      39.069  32.521  37.148  1.00  0.00     0.054 A 
BRANCH  93  94
ATOM     94  S   UNL A   1      37.909  32.947  38.476  1.00  0.00     0.124 S 
ATOM     95  O   UNL A   1      36.616  32.729  37.831  1.00  0.00    -0.237 OA
ATOM     96  O   UNL A   1      38.257  31.993  39.526  1.00  0.00    -0.237 OA
ATOM     97  O   UNL A   1      38.226  34.340  38.780  1.00  0.00    -0.744 OA
ENDBRANCH  93  94
ENDBRANCH  67  88
ENDBRANCH  41  42
ENDBRANCH  34  36
ENDBRANCH  33  34
ENDBRANCH  32  33
ENDBRANCH  31  32
ENDBRANCH  30  31
ENDBRANCH  29  30
ENDBRANCH   1  29
TORSDOF 26
ENDMDL
MODEL 2
REMARK VINA RESULT:      -7.4      6.943     12.463
REMARK SMILES CCOc1cccc(OCC)c1-c1ccc([C@@H](C)C(=O)OCCOCCOCCOC(=O)c2ccc(-c3c4nc(c(-c5ccc(S(=O)(=O)[O-])cc5)c5ccc([nH]5)c(-c5ccc(S(=O)(=O)[O-])cc5)c5nc(c(-c6ccc(S(=O)(=O)[O-])cc6)c6ccc3[nH]6)C=C5)C=C4)cc2)cc1F
REMARK SMILES IDX 25 1 24 2 23 3 22 4 21 5 19 6 20 7 17 8 18 9 16 10 13 11
REMARK SMILES IDX 14 12 94 13 15 14 93 15 95 16 12 17 4 18 5 19 6 20 8 21 7 22
REMARK SMILES IDX 3 23 2 24 1 25 9 26 10 27 11 28 26 29 27 30 28 31 29 32
REMARK SMILES IDX 30 33 31 34 32 35 33 36 34 37 92 38 35 39 91 40 36 41 37 42
REMARK SMILES IDX 38 43 85 44 39 45 90 46 84 47 86 48 40 49 89 50 83 51 82 52
REMARK SMILES IDX 41 54 71 55 52 56 70 57 53 58 56 59 69 60 87 61 54 62 55 63
REMARK SMILES IDX 68 65 88 66 57 67 42 68 43 69 51 70 44 71 50 72 45 73 46 74
REMARK SMILES IDX 47 75 48 76 49 77 72 78 73 79 81 80 74 81 80 82 75 83 76 84
REMARK SMILES IDX 77 85 78 86 79 87 58 88 59 89 67 90 60 91 66 92 61 93 62 94
REMARK SMILES IDX 63 95 64 96 65 97
REMARK H PARENT 86 53 56 64
REMARK Flexibility Score: inf
ROOT
ATOM      1  C   UNL A   1      34.525  32.673  28.359  1.00  0.00     0.188 C 
ENDROOT
BRANCH   1   2
ATOM      2  O   UNL A   1      33.504  32.170  27.506  1.00  0.00    -0.376 OA
BRANCH   2   3
ATOM      3  C   UNL A   1      33.238  30.773  27.504  1.00  0.00     0.202 C 
BRANCH   3   4
ATOM      4  C   UNL A   1      33.484  30.017  26.196  1.00  0.00     0.261 C 
BRANCH   4   5
ATOM      5  O   UNL A   1      32.323  29.938  25.334  1.00  0.00    -0.463 OA
BRANCH   5   6
ATOM      6  C   UNL A   1      32.477  29.207  24.203  1.00  0.00     0.313 C 
ATOM      7  O   UNL A   1      31.714  29.297  23.242  1.00  0.00    -0.252 OA
BRANCH   6   8
ATOM      8  C   UNL A   1      33.637  28.214  24.168  1.00  0.00     0.126 C 
ATOM      9  C   UNL A   1      34.473  28.534  22.923  1.00  0.00     0.025 C 
BRANCH   8  10
ATOM     10  C   UNL A   1      33.480  26.696  24.288  1.00  0.00    -0.031 A 
ATOM     11  C   UNL A   1      33.498  23.840  24.705  1.00  0.00     0.025 A 
ATOM     12  C   UNL A   1      33.346  24.412  23.426  1.00  0.00     0.012 A 
ATOM     13  C   UNL A   1      33.571  24.735  25.777  1.00  0.00     0.131 A 
ATOM     14  C   UNL A   1      33.385  25.807  23.214  1.00  0.00     0.005 A 
ATOM     15  C   UNL A   1      33.553  26.124  25.578  1.00  0.00     0.044 A 
ATOM     16  F   UNL A   1      33.716  24.281  27.030  1.00  0.00    -0.206 F 
BRANCH  11  17
ATOM     17  C   UNL A   1      33.588  22.365  24.877  1.00  0.00     0.069 A 
ATOM     18  C   UNL A   1      32.403  21.585  24.827  1.00  0.00     0.130 A 
ATOM     19  C   UNL A   1      32.404  20.184  24.791  1.00  0.00     0.047 A 
ATOM     20  C   UNL A   1      33.605  19.503  24.820  1.00  0.00     0.008 A 
ATOM     21  C   UNL A   1      34.797  21.643  25.000  1.00  0.00     0.130 A 
ATOM     22  C   UNL A   1      34.781  20.230  24.950  1.00  0.00     0.047 A 
BRANCH  18  23
ATOM     23  O   UNL A   1      31.180  22.194  24.926  1.00  0.00    -0.493 OA
BRANCH  23  24
ATOM     24  C   UNL A   1      30.708  22.261  26.268  1.00  0.00     0.226 C 
ATOM     25  C   UNL A   1      30.269  23.683  26.472  1.00  0.00     0.049 C 
ENDBRANCH  23  24
ENDBRANCH  18  23
BRANCH  21  26
ATOM     26  O   UNL A   1      36.085  22.074  25.158  1.00  0.00    -0.493 OA
BRANCH  26  27
ATOM     27  C   UNL A   1      37.080  21.948  24.155  1.00  0.00     0.226 C 
ATOM     28  C   UNL A   1      36.704  22.881  23.019  1.00  0.00     0.049 C 
ENDBRANCH  26  27
ENDBRANCH  21  26
ENDBRANCH  11  17
ENDBRANCH   8  10
ENDBRANCH   6   8
ENDBRANCH   5   6
ENDBRANCH   4   5
ENDBRANCH   3   4
ENDBRANCH   2   3
ENDBRANCH   1   2
BRANCH   1  29
ATOM     29  C   UNL A   1      35.437  31.672  29.085  1.00  0.00     0.188 C 
BRANCH  29  30
ATOM     30  O   UNL A   1      36.629  31.321  28.399  1.00  0.00    -0.376 OA
BRANCH  30  31
ATOM     31  C   UNL A   1      37.262  30.133  28.856  1.00  0.00     0.202 C 
BRANCH  31  32
ATOM     32  C   UNL A   1      36.805  29.706  30.251  1.00  0.00     0.261 C 
BRANCH  32  33
ATOM     33  O   UNL A   1      37.922  29.600  31.154  1.00  0.00    -0.460 OA
BRANCH  33  34
ATOM     34  C   UNL A   1      37.668  29.305  32.440  1.00  0.00     0.338 C 
ATOM     35  O   UNL A   1      37.117  28.297  32.871  1.00  0.00    -0.246 OA
BRANCH  34  36
ATOM     36  C   UNL A   1      38.184  30.395  33.288  1.00  0.00     0.060 A 
ATOM     37  C   UNL A   1      39.438  30.302  33.907  1.00  0.00     0.016 A 
ATOM     38  C   UNL A   1      37.371  31.499  33.530  1.00  0.00     0.016 A 
ATOM     39  C   UNL A   1      39.873  31.284  34.792  1.00  0.00     0.010 A 
ATOM     40  C   UNL A   1      37.819  32.501  34.391  1.00  0.00     0.010 A 
ATOM     41  C   UNL A   1      39.058  32.386  35.046  1.00  0.00    -0.014 A 
BRANCH  41  42
ATOM     42  C   UNL A   1      39.430  33.384  36.072  1.00  0.00     0.031 A 
ATOM     43  C   UNL A   1      40.438  34.436  35.719  1.00  0.00     0.074 A 
ATOM     44  C   UNL A   1      38.909  33.322  37.310  1.00  0.00     0.049 A 
ATOM     45  N   UNL A   1      41.109  35.235  36.503  1.00  0.00    -0.248 NA
ATOM     46  C   UNL A   1      40.735  34.598  34.285  1.00  0.00     0.031 C 
ATOM     47  C   UNL A   1      37.858  32.404  37.746  1.00  0.00     0.029 A 
ATOM     48  N   UNL A   1      39.228  34.033  38.439  1.00  0.00    -0.354 N 
ATOM     49  C   UNL A   1      41.942  35.966  35.666  1.00  0.00     0.074 A 
ATOM     50  C   UNL A   1      41.690  35.517  34.313  1.00  0.00     0.031 C 
ATOM     51  C   UNL A   1      37.639  32.585  39.060  1.00  0.00     0.029 A 
ATOM     52  C   UNL A   1      38.580  33.582  39.564  1.00  0.00     0.049 A 
ATOM     53  H   UNL A   1      39.855  34.791  38.443  1.00  0.00     0.167 HD
ATOM     54  C   UNL A   1      42.846  36.917  36.002  1.00  0.00     0.031 A 
ATOM     55  C   UNL A   1      38.771  33.893  40.861  1.00  0.00     0.031 A 
ATOM     56  C   UNL A   1      43.089  37.345  37.353  1.00  0.00     0.049 A 
ATOM     57  C   UNL A   1      39.839  34.888  41.225  1.00  0.00     0.074 A 
ATOM     58  C   UNL A   1      43.991  38.288  37.811  1.00  0.00     0.029 A 
ATOM     59  N   UNL A   1      42.423  36.853  38.467  1.00  0.00    -0.354 N 
ATOM     60  N   UNL A   1      40.659  35.541  40.436  1.00  0.00    -0.248 NA
ATOM     61  C   UNL A   1      40.010  35.182  42.653  1.00  0.00     0.031 C 
ATOM     62  C   UNL A   1      43.900  38.336  39.206  1.00  0.00     0.029 A 
ATOM     63  C   UNL A   1      42.904  37.461  39.613  1.00  0.00     0.049 A 
ATOM     64  H   UNL A   1      41.713  36.172  38.444  1.00  0.00     0.167 HD
ATOM     65  C   UNL A   1      41.433  36.339  41.272  1.00  0.00     0.074 A 
ATOM     66  C   UNL A   1      40.974  36.095  42.624  1.00  0.00     0.031 C 
ATOM     67  C   UNL A   1      42.432  37.198  40.950  1.00  0.00     0.031 A 
BRANCH  54  68
ATOM     68  C   UNL A   1      43.672  37.503  34.891  1.00  0.00    -0.014 A 
ATOM     69  C   UNL A   1      44.910  36.945  34.523  1.00  0.00     0.010 A 
ATOM     70  C   UNL A   1      43.201  38.637  34.204  1.00  0.00     0.010 A 
ATOM     71  C   UNL A   1      45.682  37.537  33.519  1.00  0.00     0.020 A 
ATOM     72  C   UNL A   1      43.958  39.218  33.183  1.00  0.00     0.020 A 
ATOM     73  C   UNL A   1      45.203  38.675  32.861  1.00  0.00     0.054 A 
BRANCH  73  74
ATOM     74  S   UNL A   1      46.224  39.428  31.563  1.00  0.00     0.124 S 
ATOM     75  O   UNL A   1      47.104  40.297  32.339  1.00  0.00    -0.237 OA
ATOM     76  O   UNL A   1      46.869  38.269  30.948  1.00  0.00    -0.237 OA
ATOM     77  O   UNL A   1      45.253  40.118  30.716  1.00  0.00    -0.744 OA
ENDBRANCH  73  74
ENDBRANCH  54  68
BRANCH  55  78
ATOM     78  C   UNL A   1      37.965  33.209  41.909  1.00  0.00    -0.014 A 
ATOM     79  C   UNL A   1      36.783  33.793  42.394  1.00  0.00     0.010 A 
ATOM     80  C   UNL A   1      38.362  31.953  42.403  1.00  0.00     0.010 A 
ATOM     81  C   UNL A   1      36.014  33.134  43.357  1.00  0.00     0.020 A 
ATOM     82  C   UNL A   1      37.583  31.279  43.347  1.00  0.00     0.020 A 
ATOM     83  C   UNL A   1      36.416  31.879  43.824  1.00  0.00     0.054 A 
BRANCH  83  84
ATOM     84  S   UNL A   1      35.362  31.010  45.020  1.00  0.00     0.124 S 
ATOM     85  O   UNL A   1      36.214  29.895  45.420  1.00  0.00    -0.237 OA
ATOM     86  O   UNL A   1      35.133  32.031  46.040  1.00  0.00    -0.237 OA
ATOM     87  O   UNL A   1      34.183  30.649  44.236  1.00  0.00    -0.744 OA
ENDBRANCH  83  84
ENDBRANCH  55  78
BRANCH  67  88
ATOM     88  C   UNL A   1      43.070  37.964  42.076  1.00  0.00    -0.014 A 
ATOM     89  C   UNL A   1      42.592  39.229  42.459  1.00  0.00     0.010 A 
ATOM     90  C   UNL A   1      44.130  37.381  42.795  1.00  0.00     0.010 A 
ATOM     91  C   UNL A   1      43.182  39.912  43.527  1.00  0.00     0.020 A 
ATOM     92  C   UNL A   1      44.707  38.050  43.877  1.00  0.00     0.020 A 
ATOM     93  C   UNL A   1      44.237  39.318  44.228  1.00  0.00     0.054 A 
BRANCH  93  94
ATOM     94  S   UNL A   1      44.960  40.202  45.636  1.00  0.00     0.124 S 
ATOM     95  O   UNL A   1      44.103  39.770  46.738  1.00  0.00    -0.237 OA
ATOM     96  O   UNL A   1      46.329  39.694  45.668  1.00  0.00    -0.237 OA
ATOM     97  O   UNL A   1      44.834  41.609  45.264  1.00  0.00    -0.744 OA
ENDBRANCH  93  94
ENDBRANCH  67  88
ENDBRANCH  41  42
ENDBRANCH  34  36
ENDBRANCH  33  34
ENDBRANCH  32  33
ENDBRANCH  31  32
ENDBRANCH  30  31
ENDBRANCH  29  30
ENDBRANCH   1  29
TORSDOF 26
ENDMDL
MODEL 3
REMARK VINA RESULT:      -6.5      2.230      3.184
REMARK SMILES CCOc1cccc(OCC)c1-c1ccc([C@@H](C)C(=O)OCCOCCOCCOC(=O)c2ccc(-c3c4nc(c(-c5ccc(S(=O)(=O)[O-])cc5)c5ccc([nH]5)c(-c5ccc(S(=O)(=O)[O-])cc5)c5nc(c(-c6ccc(S(=O)(=O)[O-])cc6)c6ccc3[nH]6)C=C5)C=C4)cc2)cc1F
REMARK SMILES IDX 25 1 24 2 23 3 22 4 21 5 19 6 20 7 17 8 18 9 16 10 13 11
REMARK SMILES IDX 14 12 94 13 15 14 93 15 95 16 12 17 4 18 5 19 6 20 8 21 7 22
REMARK SMILES IDX 3 23 2 24 1 25 9 26 10 27 11 28 26 29 27 30 28 31 29 32
REMARK SMILES IDX 30 33 31 34 32 35 33 36 34 37 92 38 35 39 91 40 36 41 37 42
REMARK SMILES IDX 38 43 85 44 39 45 90 46 84 47 86 48 40 49 89 50 83 51 82 52
REMARK SMILES IDX 41 54 71 55 52 56 70 57 53 58 56 59 69 60 87 61 54 62 55 63
REMARK SMILES IDX 68 65 88 66 57 67 42 68 43 69 51 70 44 71 50 72 45 73 46 74
REMARK SMILES IDX 47 75 48 76 49 77 72 78 73 79 81 80 74 81 80 82 75 83 76 84
REMARK SMILES IDX 77 85 78 86 79 87 58 88 59 89 67 90 60 91 66 92 61 93 62 94
REMARK SMILES IDX 63 95 64 96 65 97
REMARK H PARENT 86 53 56 64
REMARK Flexibility Score: inf
ROOT
ATOM      1  C   UNL A   1      45.923  24.708  28.959  1.00  0.00     0.188 C 
ENDROOT
BRANCH   1   2
ATOM      2  O   UNL A   1      45.089  24.598  30.106  1.00  0.00    -0.376 OA
BRANCH   2   3
ATOM      3  C   UNL A   1      44.010  25.511  30.260  1.00  0.00     0.202 C 
BRANCH   3   4
ATOM      4  C   UNL A   1      43.140  25.780  29.029  1.00  0.00     0.261 C 
BRANCH   4   5
ATOM      5  O   UNL A   1      42.321  26.969  29.135  1.00  0.00    -0.463 OA
BRANCH   5   6
ATOM      6  C   UNL A   1      41.737  27.386  27.985  1.00  0.00     0.313 C 
ATOM      7  O   UNL A   1      42.298  27.324  26.891  1.00  0.00    -0.252 OA
BRANCH   6   8
ATOM      8  C   UNL A   1      40.335  27.984  28.091  1.00  0.00     0.126 C 
ATOM      9  C   UNL A   1      39.949  28.489  26.696  1.00  0.00     0.025 C 
BRANCH   8  10
ATOM     10  C   UNL A   1      39.916  29.024  29.134  1.00  0.00    -0.031 A 
ATOM     11  C   UNL A   1      39.191  31.235  30.841  1.00  0.00     0.025 A 
ATOM     12  C   UNL A   1      40.126  30.257  31.234  1.00  0.00     0.012 A 
ATOM     13  C   UNL A   1      38.577  31.039  29.600  1.00  0.00     0.131 A 
ATOM     14  C   UNL A   1      40.518  29.202  30.382  1.00  0.00     0.005 A 
ATOM     15  C   UNL A   1      38.921  29.959  28.771  1.00  0.00     0.044 A 
ATOM     16  F   UNL A   1      37.673  31.918  29.144  1.00  0.00    -0.206 F 
BRANCH  11  17
ATOM     17  C   UNL A   1      38.901  32.408  31.708  1.00  0.00     0.069 A 
ATOM     18  C   UNL A   1      37.813  32.349  32.618  1.00  0.00     0.130 A 
ATOM     19  C   UNL A   1      37.576  33.321  33.600  1.00  0.00     0.047 A 
ATOM     20  C   UNL A   1      38.421  34.409  33.698  1.00  0.00     0.008 A 
ATOM     21  C   UNL A   1      39.694  33.577  31.769  1.00  0.00     0.130 A 
ATOM     22  C   UNL A   1      39.449  34.542  32.773  1.00  0.00     0.047 A 
BRANCH  18  23
ATOM     23  O   UNL A   1      36.868  31.366  32.489  1.00  0.00    -0.493 OA
BRANCH  23  24
ATOM     24  C   UNL A   1      35.539  31.876  32.525  1.00  0.00     0.226 C 
ATOM     25  C   UNL A   1      35.220  32.275  31.112  1.00  0.00     0.049 C 
ENDBRANCH  23  24
ENDBRANCH  18  23
BRANCH  21  26
ATOM     26  O   UNL A   1      40.744  33.989  30.996  1.00  0.00    -0.493 OA
BRANCH  26  27
ATOM     27  C   UNL A   1      40.625  34.964  29.973  1.00  0.00     0.226 C 
ATOM     28  C   UNL A   1      39.408  34.608  29.140  1.00  0.00     0.049 C 
ENDBRANCH  26  27
ENDBRANCH  21  26
ENDBRANCH  11  17
ENDBRANCH   8  10
ENDBRANCH   6   8
ENDBRANCH   5   6
ENDBRANCH   4   5
ENDBRANCH   3   4
ENDBRANCH   2   3
ENDBRANCH   1   2
BRANCH   1  29
ATOM     29  C   UNL A   1      45.674  23.762  27.775  1.00  0.00     0.188 C 
BRANCH  29  30
ATOM     30  O   UNL A   1      46.738  23.658  26.840  1.00  0.00    -0.376 OA
BRANCH  30  31
ATOM     31  C   UNL A   1      46.338  23.490  25.486  1.00  0.00     0.202 C 
BRANCH  31  32
ATOM     32  C   UNL A   1      47.004  24.485  24.535  1.00  0.00     0.261 C 
BRANCH  32  33
ATOM     33  O   UNL A   1      47.436  25.666  25.239  1.00  0.00    -0.460 OA
BRANCH  33  34
ATOM     34  C   UNL A   1      47.232  26.858  24.654  1.00  0.00     0.338 C 
ATOM     35  O   UNL A   1      47.251  27.104  23.452  1.00  0.00    -0.246 OA
BRANCH  34  36
ATOM     36  C   UNL A   1      46.949  27.857  25.700  1.00  0.00     0.060 A 
ATOM     37  C   UNL A   1      47.979  28.612  26.280  1.00  0.00     0.016 A 
ATOM     38  C   UNL A   1      45.644  27.994  26.162  1.00  0.00     0.016 A 
ATOM     39  C   UNL A   1      47.722  29.475  27.342  1.00  0.00     0.010 A 
ATOM     40  C   UNL A   1      45.378  28.883  27.204  1.00  0.00     0.010 A 
ATOM     41  C   UNL A   1      46.417  29.607  27.816  1.00  0.00    -0.014 A 
BRANCH  41  42
ATOM     42  C   UNL A   1      46.127  30.416  29.019  1.00  0.00     0.031 A 
ATOM     43  C   UNL A   1      46.016  29.719  30.342  1.00  0.00     0.074 A 
ATOM     44  C   UNL A   1      45.922  31.741  28.923  1.00  0.00     0.049 A 
ATOM     45  N   UNL A   1      45.518  30.156  31.467  1.00  0.00    -0.248 NA
ATOM     46  C   UNL A   1      46.526  28.339  30.397  1.00  0.00     0.031 C 
ATOM     47  C   UNL A   1      46.090  32.542  27.710  1.00  0.00     0.029 A 
ATOM     48  N   UNL A   1      45.492  32.639  29.865  1.00  0.00    -0.354 N 
ATOM     49  C   UNL A   1      45.613  29.092  32.355  1.00  0.00     0.074 A 
ATOM     50  C   UNL A   1      46.218  27.990  31.638  1.00  0.00     0.031 C 
ATOM     51  C   UNL A   1      45.735  33.810  27.975  1.00  0.00     0.029 A 
ATOM     52  C   UNL A   1      45.254  33.892  29.352  1.00  0.00     0.049 A 
ATOM     53  H   UNL A   1      45.367  32.411  30.815  1.00  0.00     0.167 HD
ATOM     54  C   UNL A   1      45.216  29.039  33.649  1.00  0.00     0.031 A 
ATOM     55  C   UNL A   1      44.658  34.962  29.911  1.00  0.00     0.031 A 
ATOM     56  C   UNL A   1      44.609  30.143  34.343  1.00  0.00     0.049 A 
ATOM     57  C   UNL A   1      44.144  34.859  31.321  1.00  0.00     0.074 A 
ATOM     58  C   UNL A   1      44.154  30.197  35.648  1.00  0.00     0.029 A 
ATOM     59  N   UNL A   1      44.371  31.390  33.783  1.00  0.00    -0.354 N 
ATOM     60  N   UNL A   1      44.190  33.836  32.142  1.00  0.00    -0.248 NA
ATOM     61  C   UNL A   1      43.494  36.052  31.878  1.00  0.00     0.031 C 
ATOM     62  C   UNL A   1      43.603  31.465  35.864  1.00  0.00     0.029 A 
ATOM     63  C   UNL A   1      43.762  32.217  34.710  1.00  0.00     0.049 A 
ATOM     64  H   UNL A   1      44.603  31.649  32.862  1.00  0.00     0.167 HD
ATOM     65  C   UNL A   1      43.591  34.269  33.320  1.00  0.00     0.074 A 
ATOM     66  C   UNL A   1      43.202  35.649  33.108  1.00  0.00     0.031 C 
ATOM     67  C   UNL A   1      43.382  33.587  34.474  1.00  0.00     0.031 A 
BRANCH  54  68
ATOM     68  C   UNL A   1      45.375  27.726  34.364  1.00  0.00    -0.014 A 
ATOM     69  C   UNL A   1      46.499  27.458  35.166  1.00  0.00     0.010 A 
ATOM     70  C   UNL A   1      44.382  26.740  34.227  1.00  0.00     0.010 A 
ATOM     71  C   UNL A   1      46.648  26.212  35.781  1.00  0.00     0.020 A 
ATOM     72  C   UNL A   1      44.513  25.501  34.860  1.00  0.00     0.020 A 
ATOM     73  C   UNL A   1      45.657  25.238  35.617  1.00  0.00     0.054 A 
BRANCH  73  74
ATOM     74  S   UNL A   1      45.872  23.628  36.424  1.00  0.00     0.124 S 
ATOM     75  O   UNL A   1      44.649  22.931  36.035  1.00  0.00    -0.237 OA
ATOM     76  O   UNL A   1      47.102  23.124  35.815  1.00  0.00    -0.237 OA
ATOM     77  O   UNL A   1      45.976  23.962  37.843  1.00  0.00    -0.744 OA
ENDBRANCH  73  74
ENDBRANCH  54  68
BRANCH  55  78
ATOM     78  C   UNL A   1      44.468  36.202  29.110  1.00  0.00    -0.014 A 
ATOM     79  C   UNL A   1      43.332  36.361  28.299  1.00  0.00     0.010 A 
ATOM     80  C   UNL A   1      45.411  37.244  29.179  1.00  0.00     0.010 A 
ATOM     81  C   UNL A   1      43.143  37.539  27.572  1.00  0.00     0.020 A 
ATOM     82  C   UNL A   1      45.214  38.433  28.473  1.00  0.00     0.020 A 
ATOM     83  C   UNL A   1      44.083  38.569  27.666  1.00  0.00     0.054 A 
BRANCH  83  84
ATOM     84  S   UNL A   1      43.779  40.118  26.769  1.00  0.00     0.124 S 
ATOM     85  O   UNL A   1      44.017  41.119  27.804  1.00  0.00    -0.237 OA
ATOM     86  O   UNL A   1      44.772  40.064  25.699  1.00  0.00    -0.237 OA
ATOM     87  O   UNL A   1      42.392  39.990  26.328  1.00  0.00    -0.744 OA
ENDBRANCH  83  84
ENDBRANCH  55  78
BRANCH  67  88
ATOM     88  C   UNL A   1      42.737  34.336  35.608  1.00  0.00    -0.014 A 
ATOM     89  C   UNL A   1      43.501  35.107  36.500  1.00  0.00     0.010 A 
ATOM     90  C   UNL A   1      41.337  34.308  35.746  1.00  0.00     0.010 A 
ATOM     91  C   UNL A   1      42.878  35.817  37.530  1.00  0.00     0.020 A 
ATOM     92  C   UNL A   1      40.708  35.035  36.760  1.00  0.00     0.020 A 
ATOM     93  C   UNL A   1      41.485  35.775  37.654  1.00  0.00     0.054 A 
BRANCH  93  94
ATOM     94  S   UNL A   1      40.693  36.737  38.971  1.00  0.00     0.124 S 
ATOM     95  O   UNL A   1      41.663  37.808  39.190  1.00  0.00    -0.237 OA
ATOM     96  O   UNL A   1      39.433  37.147  38.359  1.00  0.00    -0.237 OA
ATOM     97  O   UNL A   1      40.563  35.782  40.068  1.00  0.00    -0.744 OA
ENDBRANCH  93  94
ENDBRANCH  67  88
ENDBRANCH  41  42
ENDBRANCH  34  36
ENDBRANCH  33  34
ENDBRANCH  32  33
ENDBRANCH  31  32
ENDBRANCH  30  31
ENDBRANCH  29  30
ENDBRANCH   1  29
TORSDOF 26
ENDMDL
