MODEL 1
REMARK VINA RESULT:     -10.0      0.000      0.000
REMARK SMILES Cc1ccc(C(=O)N2CCC3(CCC(=O)N(CC(=O)OCCOCCOCCOC(=O)c4ccc(-c5c6nc(c(-c7ccc(S(=O)(=O)[O-])cc7)c7ccc([nH]7)c(-c7ccc(S(=O)(=O)[O-])cc7)c7nc(c(-c8ccc(S(=O)(=O)[O-])cc8)c8ccc5[nH]8)C=C7)C=C6)cc4)C3)CC2)cc1O
REMARK SMILES IDX 24 1 23 2 22 3 21 4 20 5 18 6 19 7 17 8 16 9 6 10 7 11 8 12
REMARK SMILES IDX 9 13 94 14 10 15 93 16 11 17 12 18 92 19 13 20 14 21 15 22
REMARK SMILES IDX 5 23 1 24 2 25 3 26 96 27 4 28 95 29 97 30 25 32 26 33 27 34
REMARK SMILES IDX 28 35 29 36 30 37 31 38 32 39 33 40 91 41 34 42 90 43 35 44
REMARK SMILES IDX 36 45 37 46 84 47 38 48 89 49 83 50 85 51 39 52 88 53 82 54
REMARK SMILES IDX 81 55 40 57 70 58 51 59 69 60 52 61 55 62 68 63 86 64 53 65
REMARK SMILES IDX 54 66 67 68 87 69 56 70 41 71 42 72 50 73 43 74 49 75 44 76
REMARK SMILES IDX 45 77 46 78 47 79 48 80 71 81 72 82 80 83 73 84 79 85 74 86
REMARK SMILES IDX 75 87 76 88 77 89 78 90 57 91 58 92 66 93 59 94 65 95 60 96
REMARK SMILES IDX 61 97 62 98 63 99 64 100
REMARK H PARENT 97 31 85 56 55 67
REMARK Flexibility Score: inf
ROOT
ATOM      1  C   UNL A   1      36.061  22.625  24.826  1.00  0.00     0.188 C 
ENDROOT
BRANCH   1   2
ATOM      2  O   UNL A   1      35.531  23.537  23.871  1.00  0.00    -0.376 OA
BRANCH   2   3
ATOM      3  C   UNL A   1      34.769  23.034  22.781  1.00  0.00     0.202 C 
BRANCH   3   4
ATOM      4  C   UNL A   1      33.824  24.026  22.089  1.00  0.00     0.261 C 
BRANCH   4   5
ATOM      5  O   UNL A   1      34.116  25.426  22.340  1.00  0.00    -0.462 OA
BRANCH   5   6
ATOM      6  C   UNL A   1      33.340  26.336  21.695  1.00  0.00     0.325 C 
ATOM      7  O   UNL A   1      33.204  26.366  20.474  1.00  0.00    -0.250 OA
BRANCH   6   8
ATOM      8  C   UNL A   1      32.489  27.262  22.599  1.00  0.00     0.242 C 
BRANCH   8   9
ATOM      9  N   UNL A   1      31.236  26.858  23.259  1.00  0.00    -0.331 N 
ATOM     10  C   UNL A   1      33.066  21.628  26.730  1.00  0.00     0.253 C 
ATOM     11  O   UNL A   1      33.961  21.621  27.570  1.00  0.00    -0.269 OA
ATOM     12  N   UNL A   1      32.335  22.768  26.434  1.00  0.00    -0.339 N 
ATOM     13  C   UNL A   1      33.024  24.042  26.447  1.00  0.00     0.120 C 
ATOM     14  C   UNL A   1      30.882  22.814  26.321  1.00  0.00     0.120 C 
ATOM     15  C   UNL A   1      32.715  24.756  25.131  1.00  0.00     0.030 C 
ATOM     16  C   UNL A   1      30.443  23.602  25.087  1.00  0.00     0.030 C 
ATOM     17  C   UNL A   1      31.190  24.951  24.907  1.00  0.00    -0.008 C 
ATOM     18  C   UNL A   1      30.619  25.972  25.934  1.00  0.00     0.019 C 
ATOM     19  C   UNL A   1      30.930  25.451  23.445  1.00  0.00     0.127 C 
ATOM     20  C   UNL A   1      31.061  27.390  25.607  1.00  0.00     0.101 C 
ATOM     21  C   UNL A   1      30.597  27.651  24.196  1.00  0.00     0.223 C 
ATOM     22  O   UNL A   1      29.547  28.231  23.954  1.00  0.00    -0.275 OA
BRANCH  10  23
ATOM     23  C   UNL A   1      32.887  20.433  25.854  1.00  0.00     0.043 A 
ATOM     24  C   UNL A   1      32.953  16.967  23.278  1.00  0.00     0.048 C 
ATOM     25  C   UNL A   1      32.907  18.151  24.195  1.00  0.00    -0.009 A 
ATOM     26  C   UNL A   1      32.781  19.429  23.643  1.00  0.00     0.008 A 
ATOM     27  C   UNL A   1      33.036  18.039  25.586  1.00  0.00     0.119 A 
ATOM     28  C   UNL A   1      32.799  20.555  24.463  1.00  0.00     0.014 A 
ATOM     29  C   UNL A   1      33.009  19.161  26.413  1.00  0.00     0.060 A 
BRANCH  27  30
ATOM     30  O   UNL A   1      33.228  16.837  26.206  1.00  0.00    -0.508 OA
ATOM     31  H   UNL A   1      34.079  16.602  26.520  1.00  0.00     0.293 HD
ENDBRANCH  27  30
ENDBRANCH  10  23
ENDBRANCH   8   9
ENDBRANCH   6   8
ENDBRANCH   5   6
ENDBRANCH   4   5
ENDBRANCH   3   4
ENDBRANCH   2   3
ENDBRANCH   1   2
BRANCH   1  32
ATOM     32  C   UNL A   1      37.387  21.931  24.524  1.00  0.00     0.188 C 
BRANCH  32  33
ATOM     33  O   UNL A   1      38.323  22.059  25.580  1.00  0.00    -0.376 OA
BRANCH  33  34
ATOM     34  C   UNL A   1      38.116  23.189  26.417  1.00  0.00     0.202 C 
BRANCH  34  35
ATOM     35  C   UNL A   1      39.061  24.296  25.963  1.00  0.00     0.261 C 
BRANCH  35  36
ATOM     36  O   UNL A   1      39.856  24.836  27.042  1.00  0.00    -0.460 OA
BRANCH  36  37
ATOM     37  C   UNL A   1      40.433  26.037  26.817  1.00  0.00     0.338 C 
ATOM     38  O   UNL A   1      40.892  26.444  25.754  1.00  0.00    -0.246 OA
BRANCH  37  39
ATOM     39  C   UNL A   1      40.246  26.894  28.008  1.00  0.00     0.060 A 
ATOM     40  C   UNL A   1      40.961  28.098  28.091  1.00  0.00     0.016 A 
ATOM     41  C   UNL A   1      39.393  26.520  29.044  1.00  0.00     0.016 A 
ATOM     42  C   UNL A   1      40.871  28.902  29.227  1.00  0.00     0.010 A 
ATOM     43  C   UNL A   1      39.311  27.319  30.190  1.00  0.00     0.010 A 
ATOM     44  C   UNL A   1      40.078  28.494  30.305  1.00  0.00    -0.014 A 
BRANCH  44  45
ATOM     45  C   UNL A   1      40.182  29.190  31.614  1.00  0.00     0.031 A 
ATOM     46  C   UNL A   1      39.137  30.218  31.964  1.00  0.00     0.074 A 
ATOM     47  C   UNL A   1      41.175  28.917  32.481  1.00  0.00     0.049 A 
ATOM     48  N   UNL A   1      39.070  31.011  33.001  1.00  0.00    -0.248 NA
ATOM     49  C   UNL A   1      38.020  30.374  31.016  1.00  0.00     0.031 C 
ATOM     50  C   UNL A   1      42.220  27.913  32.288  1.00  0.00     0.029 A 
ATOM     51  N   UNL A   1      41.472  29.480  33.699  1.00  0.00    -0.354 N 
ATOM     52  C   UNL A   1      37.924  31.778  32.818  1.00  0.00     0.074 A 
ATOM     53  C   UNL A   1      37.331  31.364  31.565  1.00  0.00     0.031 C 
ATOM     54  C   UNL A   1      43.056  27.946  33.343  1.00  0.00     0.029 A 
ATOM     55  C   UNL A   1      42.630  28.998  34.263  1.00  0.00     0.049 A 
ATOM     56  H   UNL A   1      40.908  30.164  34.128  1.00  0.00     0.167 HD
ATOM     57  C   UNL A   1      37.412  32.740  33.619  1.00  0.00     0.031 A 
ATOM     58  C   UNL A   1      43.290  29.384  35.375  1.00  0.00     0.031 A 
ATOM     59  C   UNL A   1      37.996  33.146  34.870  1.00  0.00     0.049 A 
ATOM     60  C   UNL A   1      42.730  30.503  36.219  1.00  0.00     0.074 A 
ATOM     61  C   UNL A   1      37.528  34.090  35.768  1.00  0.00     0.029 A 
ATOM     62  N   UNL A   1      39.174  32.642  35.397  1.00  0.00    -0.354 N 
ATOM     63  N   UNL A   1      41.627  31.195  36.049  1.00  0.00    -0.248 NA
ATOM     64  C   UNL A   1      43.499  30.890  37.412  1.00  0.00     0.031 C 
ATOM     65  C   UNL A   1      38.455  34.205  36.805  1.00  0.00     0.029 A 
ATOM     66  C   UNL A   1      39.465  33.280  36.591  1.00  0.00     0.049 A 
ATOM     67  H   UNL A   1      39.722  31.936  34.984  1.00  0.00     0.167 HD
ATOM     68  C   UNL A   1      41.557  32.070  37.130  1.00  0.00     0.074 A 
ATOM     69  C   UNL A   1      42.717  31.811  37.955  1.00  0.00     0.031 C 
ATOM     70  C   UNL A   1      40.616  33.005  37.413  1.00  0.00     0.031 A 
BRANCH  57  71
ATOM     71  C   UNL A   1      36.171  33.457  33.161  1.00  0.00    -0.014 A 
ATOM     72  C   UNL A   1      34.891  32.914  33.366  1.00  0.00     0.010 A 
ATOM     73  C   UNL A   1      36.289  34.741  32.595  1.00  0.00     0.010 A 
ATOM     74  C   UNL A   1      33.752  33.638  33.004  1.00  0.00     0.020 A 
ATOM     75  C   UNL A   1      35.152  35.478  32.257  1.00  0.00     0.020 A 
ATOM     76  C   UNL A   1      33.888  34.918  32.458  1.00  0.00     0.054 A 
BRANCH  76  77
ATOM     77  S   UNL A   1      32.390  35.861  32.064  1.00  0.00     0.124 S 
ATOM     78  O   UNL A   1      31.368  35.128  32.806  1.00  0.00    -0.237 OA
ATOM     79  O   UNL A   1      32.707  37.191  32.577  1.00  0.00    -0.237 OA
ATOM     80  O   UNL A   1      32.291  35.765  30.610  1.00  0.00    -0.744 OA
ENDBRANCH  76  77
ENDBRANCH  57  71
BRANCH  58  81
ATOM     81  C   UNL A   1      44.588  28.747  35.743  1.00  0.00    -0.014 A 
ATOM     82  C   UNL A   1      44.629  27.615  36.575  1.00  0.00     0.010 A 
ATOM     83  C   UNL A   1      45.800  29.307  35.296  1.00  0.00     0.010 A 
ATOM     84  C   UNL A   1      45.855  27.078  36.985  1.00  0.00     0.020 A 
ATOM     85  C   UNL A   1      47.026  28.754  35.676  1.00  0.00     0.020 A 
ATOM     86  C   UNL A   1      47.046  27.654  36.535  1.00  0.00     0.054 A 
BRANCH  86  87
ATOM     87  S   UNL A   1      48.625  26.937  37.068  1.00  0.00     0.124 S 
ATOM     88  O   UNL A   1      48.958  27.761  38.224  1.00  0.00    -0.237 OA
ATOM     89  O   UNL A   1      48.258  25.554  37.361  1.00  0.00    -0.237 OA
ATOM     90  O   UNL A   1      49.490  27.110  35.903  1.00  0.00    -0.744 OA
ENDBRANCH  86  87
ENDBRANCH  58  81
BRANCH  70  91
ATOM     91  C   UNL A   1      40.761  33.785  38.695  1.00  0.00    -0.014 A 
ATOM     92  C   UNL A   1      41.518  34.969  38.753  1.00  0.00     0.010 A 
ATOM     93  C   UNL A   1      40.073  33.357  39.846  1.00  0.00     0.010 A 
ATOM     94  C   UNL A   1      41.610  35.691  39.947  1.00  0.00     0.020 A 
ATOM     95  C   UNL A   1      40.137  34.093  41.032  1.00  0.00     0.020 A 
ATOM     96  C   UNL A   1      40.918  35.249  41.079  1.00  0.00     0.054 A 
BRANCH  96  97
ATOM     97  S   UNL A   1      41.019  36.226  42.603  1.00  0.00     0.124 S 
ATOM     98  O   UNL A   1      40.938  37.593  42.094  1.00  0.00    -0.237 OA
ATOM     99  O   UNL A   1      39.856  35.766  43.357  1.00  0.00    -0.237 OA
ATOM    100  O   UNL A   1      42.312  35.851  43.172  1.00  0.00    -0.744 OA
ENDBRANCH  96  97
ENDBRANCH  70  91
ENDBRANCH  44  45
ENDBRANCH  37  39
ENDBRANCH  36  37
ENDBRANCH  35  36
ENDBRANCH  34  35
ENDBRANCH  33  34
ENDBRANCH  32  33
ENDBRANCH   1  32
TORSDOF 23
ENDMDL
MODEL 2
REMARK VINA RESULT:      -9.5      6.332      8.487
REMARK SMILES Cc1ccc(C(=O)N2CCC3(CCC(=O)N(CC(=O)OCCOCCOCCOC(=O)c4ccc(-c5c6nc(c(-c7ccc(S(=O)(=O)[O-])cc7)c7ccc([nH]7)c(-c7ccc(S(=O)(=O)[O-])cc7)c7nc(c(-c8ccc(S(=O)(=O)[O-])cc8)c8ccc5[nH]8)C=C7)C=C6)cc4)C3)CC2)cc1O
REMARK SMILES IDX 24 1 23 2 22 3 21 4 20 5 18 6 19 7 17 8 16 9 6 10 7 11 8 12
REMARK SMILES IDX 9 13 94 14 10 15 93 16 11 17 12 18 92 19 13 20 14 21 15 22
REMARK SMILES IDX 5 23 1 24 2 25 3 26 96 27 4 28 95 29 97 30 25 32 26 33 27 34
REMARK SMILES IDX 28 35 29 36 30 37 31 38 32 39 33 40 91 41 34 42 90 43 35 44
REMARK SMILES IDX 36 45 37 46 84 47 38 48 89 49 83 50 85 51 39 52 88 53 82 54
REMARK SMILES IDX 81 55 40 57 70 58 51 59 69 60 52 61 55 62 68 63 86 64 53 65
REMARK SMILES IDX 54 66 67 68 87 69 56 70 41 71 42 72 50 73 43 74 49 75 44 76
REMARK SMILES IDX 45 77 46 78 47 79 48 80 71 81 72 82 80 83 73 84 79 85 74 86
REMARK SMILES IDX 75 87 76 88 77 89 78 90 57 91 58 92 66 93 59 94 65 95 60 96
REMARK SMILES IDX 61 97 62 98 63 99 64 100
REMARK H PARENT 97 31 85 56 55 67
REMARK Flexibility Score: inf
ROOT
ATOM      1  C   UNL A   1      36.000  22.135  24.354  1.00  0.00     0.188 C 
ENDROOT
BRANCH   1   2
ATOM      2  O   UNL A   1      35.897  22.994  23.225  1.00  0.00    -0.376 OA
BRANCH   2   3
ATOM      3  C   UNL A   1      34.648  23.610  22.934  1.00  0.00     0.202 C 
BRANCH   3   4
ATOM      4  C   UNL A   1      34.589  25.138  23.068  1.00  0.00     0.261 C 
BRANCH   4   5
ATOM      5  O   UNL A   1      33.915  25.822  21.979  1.00  0.00    -0.462 OA
BRANCH   5   6
ATOM      6  C   UNL A   1      33.792  27.171  22.091  1.00  0.00     0.325 C 
ATOM      7  O   UNL A   1      34.044  27.953  21.177  1.00  0.00    -0.250 OA
BRANCH   6   8
ATOM      8  C   UNL A   1      33.156  27.685  23.407  1.00  0.00     0.242 C 
BRANCH   8   9
ATOM      9  N   UNL A   1      31.820  27.298  23.891  1.00  0.00    -0.331 N 
ATOM     10  C   UNL A   1      32.963  21.560  26.812  1.00  0.00     0.253 C 
ATOM     11  O   UNL A   1      33.768  21.384  27.722  1.00  0.00    -0.269 OA
ATOM     12  N   UNL A   1      32.338  22.780  26.600  1.00  0.00    -0.339 N 
ATOM     13  C   UNL A   1      33.101  23.988  26.840  1.00  0.00     0.120 C 
ATOM     14  C   UNL A   1      30.910  22.948  26.362  1.00  0.00     0.120 C 
ATOM     15  C   UNL A   1      32.970  24.879  25.604  1.00  0.00     0.030 C 
ATOM     16  C   UNL A   1      30.646  23.911  25.204  1.00  0.00     0.030 C 
ATOM     17  C   UNL A   1      31.490  25.213  25.269  1.00  0.00    -0.008 C 
ATOM     18  C   UNL A   1      30.885  26.140  26.362  1.00  0.00     0.019 C 
ATOM     19  C   UNL A   1      31.409  25.905  23.866  1.00  0.00     0.127 C 
ATOM     20  C   UNL A   1      31.445  27.550  26.263  1.00  0.00     0.101 C 
ATOM     21  C   UNL A   1      31.142  28.016  24.861  1.00  0.00     0.223 C 
ATOM     22  O   UNL A   1      30.159  28.698  24.601  1.00  0.00    -0.275 OA
BRANCH  10  23
ATOM     23  C   UNL A   1      32.798  20.499  25.777  1.00  0.00     0.043 A 
ATOM     24  C   UNL A   1      32.901  17.464  22.704  1.00  0.00     0.048 C 
ATOM     25  C   UNL A   1      32.845  18.495  23.792  1.00  0.00    -0.009 A 
ATOM     26  C   UNL A   1      32.602  19.827  23.449  1.00  0.00     0.008 A 
ATOM     27  C   UNL A   1      33.076  18.187  25.139  1.00  0.00     0.119 A 
ATOM     28  C   UNL A   1      32.607  20.818  24.428  1.00  0.00     0.014 A 
ATOM     29  C   UNL A   1      33.037  19.170  26.128  1.00  0.00     0.060 A 
BRANCH  27  30
ATOM     30  O   UNL A   1      33.384  16.923  25.557  1.00  0.00    -0.508 OA
ATOM     31  H   UNL A   1      33.680  16.779  26.434  1.00  0.00     0.293 HD
ENDBRANCH  27  30
ENDBRANCH  10  23
ENDBRANCH   8   9
ENDBRANCH   6   8
ENDBRANCH   5   6
ENDBRANCH   4   5
ENDBRANCH   3   4
ENDBRANCH   2   3
ENDBRANCH   1   2
BRANCH   1  32
ATOM     32  C   UNL A   1      37.384  21.671  24.800  1.00  0.00     0.188 C 
BRANCH  32  33
ATOM     33  O   UNL A   1      38.007  22.586  25.684  1.00  0.00    -0.376 OA
BRANCH  33  34
ATOM     34  C   UNL A   1      39.286  22.176  26.152  1.00  0.00     0.202 C 
BRANCH  34  35
ATOM     35  C   UNL A   1      39.418  20.675  25.917  1.00  0.00     0.261 C 
BRANCH  35  36
ATOM     36  O   UNL A   1      40.728  20.292  25.442  1.00  0.00    -0.460 OA
BRANCH  36  37
ATOM     37  C   UNL A   1      41.642  19.989  26.391  1.00  0.00     0.338 C 
ATOM     38  O   UNL A   1      41.864  18.881  26.869  1.00  0.00    -0.246 OA
BRANCH  37  39
ATOM     39  C   UNL A   1      42.500  21.170  26.629  1.00  0.00     0.060 A 
ATOM     40  C   UNL A   1      42.601  21.677  27.932  1.00  0.00     0.016 A 
ATOM     41  C   UNL A   1      43.188  21.788  25.587  1.00  0.00     0.016 A 
ATOM     42  C   UNL A   1      43.340  22.831  28.191  1.00  0.00     0.010 A 
ATOM     43  C   UNL A   1      43.920  22.953  25.843  1.00  0.00     0.010 A 
ATOM     44  C   UNL A   1      43.969  23.504  27.138  1.00  0.00    -0.014 A 
BRANCH  44  45
ATOM     45  C   UNL A   1      44.525  24.865  27.348  1.00  0.00     0.031 A 
ATOM     46  C   UNL A   1      43.586  25.966  27.770  1.00  0.00     0.074 A 
ATOM     47  C   UNL A   1      45.835  25.127  27.176  1.00  0.00     0.049 A 
ATOM     48  N   UNL A   1      43.822  27.242  27.927  1.00  0.00    -0.248 NA
ATOM     49  C   UNL A   1      42.193  25.575  28.050  1.00  0.00     0.031 C 
ATOM     50  C   UNL A   1      46.858  24.145  26.818  1.00  0.00     0.029 A 
ATOM     51  N   UNL A   1      46.525  26.312  27.268  1.00  0.00    -0.354 N 
ATOM     52  C   UNL A   1      42.608  27.810  28.294  1.00  0.00     0.074 A 
ATOM     53  C   UNL A   1      41.632  26.743  28.328  1.00  0.00     0.031 C 
ATOM     54  C   UNL A   1      48.042  24.774  26.700  1.00  0.00     0.029 A 
ATOM     55  C   UNL A   1      47.855  26.204  26.934  1.00  0.00     0.049 A 
ATOM     56  H   UNL A   1      46.106  27.159  27.547  1.00  0.00     0.167 HD
ATOM     57  C   UNL A   1      42.329  29.103  28.578  1.00  0.00     0.031 A 
ATOM     58  C   UNL A   1      48.804  27.154  26.798  1.00  0.00     0.031 A 
ATOM     59  C   UNL A   1      43.300  30.164  28.554  1.00  0.00     0.049 A 
ATOM     60  C   UNL A   1      48.450  28.598  27.060  1.00  0.00     0.074 A 
ATOM     61  C   UNL A   1      43.116  31.501  28.862  1.00  0.00     0.029 A 
ATOM     62  N   UNL A   1      44.631  30.015  28.198  1.00  0.00    -0.354 N 
ATOM     63  N   UNL A   1      47.304  29.113  27.440  1.00  0.00    -0.248 NA
ATOM     64  C   UNL A   1      49.522  29.590  26.883  1.00  0.00     0.031 C 
ATOM     65  C   UNL A   1      44.318  32.173  28.629  1.00  0.00     0.029 A 
ATOM     66  C   UNL A   1      45.270  31.241  28.247  1.00  0.00     0.049 A 
ATOM     67  H   UNL A   1      45.057  29.163  27.949  1.00  0.00     0.167 HD
ATOM     68  C   UNL A   1      47.530  30.481  27.580  1.00  0.00     0.074 A 
ATOM     69  C   UNL A   1      48.922  30.711  27.259  1.00  0.00     0.031 C 
ATOM     70  C   UNL A   1      46.662  31.458  27.940  1.00  0.00     0.031 A 
BRANCH  57  71
ATOM     71  C   UNL A   1      40.905  29.465  28.908  1.00  0.00    -0.014 A 
ATOM     72  C   UNL A   1      39.885  29.383  27.946  1.00  0.00     0.010 A 
ATOM     73  C   UNL A   1      40.573  29.805  30.233  1.00  0.00     0.010 A 
ATOM     74  C   UNL A   1      38.559  29.645  28.300  1.00  0.00     0.020 A 
ATOM     75  C   UNL A   1      39.245  30.042  30.596  1.00  0.00     0.020 A 
ATOM     76  C   UNL A   1      38.246  29.967  29.625  1.00  0.00     0.054 A 
BRANCH  76  77
ATOM     77  S   UNL A   1      36.508  30.233  30.068  1.00  0.00     0.124 S 
ATOM     78  O   UNL A   1      36.451  31.686  30.206  1.00  0.00    -0.237 OA
ATOM     79  O   UNL A   1      35.797  29.683  28.917  1.00  0.00    -0.237 OA
ATOM     80  O   UNL A   1      36.347  29.484  31.312  1.00  0.00    -0.744 OA
ENDBRANCH  76  77
ENDBRANCH  57  71
BRANCH  58  81
ATOM     81  C   UNL A   1      50.177  26.790  26.344  1.00  0.00    -0.014 A 
ATOM     82  C   UNL A   1      51.145  26.334  27.257  1.00  0.00     0.010 A 
ATOM     83  C   UNL A   1      50.537  26.946  24.992  1.00  0.00     0.010 A 
ATOM     84  C   UNL A   1      52.455  26.080  26.836  1.00  0.00     0.020 A 
ATOM     85  C   UNL A   1      51.836  26.660  24.561  1.00  0.00     0.020 A 
ATOM     86  C   UNL A   1      52.792  26.248  25.490  1.00  0.00     0.054 A 
BRANCH  86  87
ATOM     87  S   UNL A   1      54.493  25.901  24.962  1.00  0.00     0.124 S 
ATOM     88  O   UNL A   1      54.552  24.446  25.064  1.00  0.00    -0.237 OA
ATOM     89  O   UNL A   1      54.517  26.441  23.605  1.00  0.00    -0.237 OA
ATOM     90  O   UNL A   1      55.308  26.631  25.930  1.00  0.00    -0.744 OA
ENDBRANCH  86  87
ENDBRANCH  58  81
BRANCH  70  91
ATOM     91  C   UNL A   1      47.194  32.863  28.066  1.00  0.00    -0.014 A 
ATOM     92  C   UNL A   1      47.905  33.281  29.205  1.00  0.00     0.010 A 
ATOM     93  C   UNL A   1      47.034  33.760  26.993  1.00  0.00     0.010 A 
ATOM     94  C   UNL A   1      48.416  34.579  29.282  1.00  0.00     0.020 A 
ATOM     95  C   UNL A   1      47.570  35.049  27.053  1.00  0.00     0.020 A 
ATOM     96  C   UNL A   1      48.246  35.455  28.205  1.00  0.00     0.054 A 
BRANCH  96  97
ATOM     97  S   UNL A   1      48.956  37.121  28.312  1.00  0.00     0.124 S 
ATOM     98  O   UNL A   1      48.009  37.907  27.525  1.00  0.00    -0.237 OA
ATOM     99  O   UNL A   1      48.947  37.382  29.749  1.00  0.00    -0.237 OA
ATOM    100  O   UNL A   1      50.284  36.973  27.720  1.00  0.00    -0.744 OA
ENDBRANCH  96  97
ENDBRANCH  70  91
ENDBRANCH  44  45
ENDBRANCH  37  39
ENDBRANCH  36  37
ENDBRANCH  35  36
ENDBRANCH  34  35
ENDBRANCH  33  34
ENDBRANCH  32  33
ENDBRANCH   1  32
TORSDOF 23
ENDMDL
MODEL 3
REMARK VINA RESULT:      -9.4      3.435      9.741
REMARK SMILES Cc1ccc(C(=O)N2CCC3(CCC(=O)N(CC(=O)OCCOCCOCCOC(=O)c4ccc(-c5c6nc(c(-c7ccc(S(=O)(=O)[O-])cc7)c7ccc([nH]7)c(-c7ccc(S(=O)(=O)[O-])cc7)c7nc(c(-c8ccc(S(=O)(=O)[O-])cc8)c8ccc5[nH]8)C=C7)C=C6)cc4)C3)CC2)cc1O
REMARK SMILES IDX 24 1 23 2 22 3 21 4 20 5 18 6 19 7 17 8 16 9 6 10 7 11 8 12
REMARK SMILES IDX 9 13 94 14 10 15 93 16 11 17 12 18 92 19 13 20 14 21 15 22
REMARK SMILES IDX 5 23 1 24 2 25 3 26 96 27 4 28 95 29 97 30 25 32 26 33 27 34
REMARK SMILES IDX 28 35 29 36 30 37 31 38 32 39 33 40 91 41 34 42 90 43 35 44
REMARK SMILES IDX 36 45 37 46 84 47 38 48 89 49 83 50 85 51 39 52 88 53 82 54
REMARK SMILES IDX 81 55 40 57 70 58 51 59 69 60 52 61 55 62 68 63 86 64 53 65
REMARK SMILES IDX 54 66 67 68 87 69 56 70 41 71 42 72 50 73 43 74 49 75 44 76
REMARK SMILES IDX 45 77 46 78 47 79 48 80 71 81 72 82 80 83 73 84 79 85 74 86
REMARK SMILES IDX 75 87 76 88 77 89 78 90 57 91 58 92 66 93 59 94 65 95 60 96
REMARK SMILES IDX 61 97 62 98 63 99 64 100
REMARK H PARENT 97 31 85 56 55 67
REMARK Flexibility Score: inf
ROOT
ATOM      1  C   UNL A   1      33.590  21.004  26.598  1.00  0.00     0.188 C 
ENDROOT
BRANCH   1   2
ATOM      2  O   UNL A   1      33.501  22.423  26.537  1.00  0.00    -0.376 OA
BRANCH   2   3
ATOM      3  C   UNL A   1      32.613  23.100  27.417  1.00  0.00     0.202 C 
BRANCH   3   4
ATOM      4  C   UNL A   1      31.112  22.925  27.146  1.00  0.00     0.261 C 
BRANCH   4   5
ATOM      5  O   UNL A   1      30.780  22.494  25.800  1.00  0.00    -0.462 OA
BRANCH   5   6
ATOM      6  C   UNL A   1      30.653  23.468  24.861  1.00  0.00     0.325 C 
ATOM      7  O   UNL A   1      30.213  24.589  25.103  1.00  0.00    -0.250 OA
BRANCH   6   8
ATOM      8  C   UNL A   1      31.247  23.145  23.467  1.00  0.00     0.242 C 
BRANCH   8   9
ATOM      9  N   UNL A   1      32.290  23.945  22.802  1.00  0.00    -0.331 N 
ATOM     10  C   UNL A   1      31.247  29.936  25.204  1.00  0.00     0.253 C 
ATOM     11  O   UNL A   1      31.246  30.223  26.398  1.00  0.00    -0.269 OA
ATOM     12  N   UNL A   1      31.985  28.878  24.697  1.00  0.00    -0.339 N 
ATOM     13  C   UNL A   1      32.104  27.681  25.504  1.00  0.00     0.120 C 
ATOM     14  C   UNL A   1      32.830  28.951  23.511  1.00  0.00     0.120 C 
ATOM     15  C   UNL A   1      31.726  26.485  24.629  1.00  0.00     0.030 C 
ATOM     16  C   UNL A   1      32.617  27.743  22.599  1.00  0.00     0.030 C 
ATOM     17  C   UNL A   1      32.605  26.385  23.352  1.00  0.00    -0.008 C 
ATOM     18  C   UNL A   1      34.069  26.018  23.731  1.00  0.00     0.019 C 
ATOM     19  C   UNL A   1      32.009  25.307  22.384  1.00  0.00     0.127 C 
ATOM     20  C   UNL A   1      34.177  24.567  24.174  1.00  0.00     0.101 C 
ATOM     21  C   UNL A   1      33.641  23.745  23.028  1.00  0.00     0.223 C 
ATOM     22  O   UNL A   1      34.376  23.242  22.189  1.00  0.00    -0.275 OA
BRANCH  10  23
ATOM     23  C   UNL A   1      30.275  30.611  24.297  1.00  0.00     0.043 A 
ATOM     24  C   UNL A   1      27.926  32.715  21.345  1.00  0.00     0.048 C 
ATOM     25  C   UNL A   1      28.717  31.956  22.366  1.00  0.00    -0.009 A 
ATOM     26  C   UNL A   1      29.161  32.624  23.511  1.00  0.00     0.008 A 
ATOM     27  C   UNL A   1      29.078  30.613  22.200  1.00  0.00     0.119 A 
ATOM     28  C   UNL A   1      29.952  31.964  24.448  1.00  0.00     0.014 A 
ATOM     29  C   UNL A   1      29.833  29.937  23.158  1.00  0.00     0.060 A 
BRANCH  27  30
ATOM     30  O   UNL A   1      28.743  29.900  21.083  1.00  0.00    -0.508 OA
ATOM     31  H   UNL A   1      28.945  30.238  20.233  1.00  0.00     0.293 HD
ENDBRANCH  27  30
ENDBRANCH  10  23
ENDBRANCH   8   9
ENDBRANCH   6   8
ENDBRANCH   5   6
ENDBRANCH   4   5
ENDBRANCH   3   4
ENDBRANCH   2   3
ENDBRANCH   1   2
BRANCH   1  32
ATOM     32  C   UNL A   1      34.483  20.280  25.594  1.00  0.00     0.188 C 
BRANCH  32  33
ATOM     33  O   UNL A   1      35.854  20.595  25.756  1.00  0.00    -0.376 OA
BRANCH  33  34
ATOM     34  C   UNL A   1      36.429  21.305  24.667  1.00  0.00     0.202 C 
BRANCH  34  35
ATOM     35  C   UNL A   1      37.914  21.498  24.957  1.00  0.00     0.261 C 
BRANCH  35  36
ATOM     36  O   UNL A   1      38.177  22.615  25.835  1.00  0.00    -0.460 OA
BRANCH  36  37
ATOM     37  C   UNL A   1      39.464  22.795  26.204  1.00  0.00     0.338 C 
ATOM     38  O   UNL A   1      40.410  22.052  25.958  1.00  0.00    -0.246 OA
BRANCH  37  39
ATOM     39  C   UNL A   1      39.616  24.148  26.782  1.00  0.00     0.060 A 
ATOM     40  C   UNL A   1      40.485  25.054  26.159  1.00  0.00     0.016 A 
ATOM     41  C   UNL A   1      38.927  24.525  27.934  1.00  0.00     0.016 A 
ATOM     42  C   UNL A   1      40.714  26.315  26.710  1.00  0.00     0.010 A 
ATOM     43  C   UNL A   1      39.166  25.785  28.495  1.00  0.00     0.010 A 
ATOM     44  C   UNL A   1      40.089  26.672  27.909  1.00  0.00    -0.014 A 
BRANCH  44  45
ATOM     45  C   UNL A   1      40.524  27.887  28.645  1.00  0.00     0.031 A 
ATOM     46  C   UNL A   1      41.909  27.906  29.241  1.00  0.00     0.074 A 
ATOM     47  C   UNL A   1      39.719  28.957  28.781  1.00  0.00     0.049 A 
ATOM     48  N   UNL A   1      42.473  28.812  29.996  1.00  0.00    -0.248 NA
ATOM     49  C   UNL A   1      42.769  26.746  28.950  1.00  0.00     0.031 C 
ATOM     50  C   UNL A   1      38.377  29.088  28.212  1.00  0.00     0.029 A 
ATOM     51  N   UNL A   1      39.912  30.136  29.458  1.00  0.00    -0.354 N 
ATOM     52  C   UNL A   1      43.740  28.322  30.293  1.00  0.00     0.074 A 
ATOM     53  C   UNL A   1      43.860  27.033  29.647  1.00  0.00     0.031 C 
ATOM     54  C   UNL A   1      37.862  30.275  28.582  1.00  0.00     0.029 A 
ATOM     55  C   UNL A   1      38.816  30.968  29.446  1.00  0.00     0.049 A 
ATOM     56  H   UNL A   1      40.757  30.366  29.910  1.00  0.00     0.167 HD
ATOM     57  C   UNL A   1      44.716  28.892  31.037  1.00  0.00     0.031 A 
ATOM     58  C   UNL A   1      38.595  32.136  30.084  1.00  0.00     0.031 A 
ATOM     59  C   UNL A   1      44.602  30.177  31.672  1.00  0.00     0.049 A 
ATOM     60  C   UNL A   1      39.678  32.720  30.959  1.00  0.00     0.074 A 
ATOM     61  C   UNL A   1      45.553  30.852  32.418  1.00  0.00     0.029 A 
ATOM     62  N   UNL A   1      43.472  30.979  31.646  1.00  0.00    -0.354 N 
ATOM     63  N   UNL A   1      40.883  32.259  31.201  1.00  0.00    -0.248 NA
ATOM     64  C   UNL A   1      39.375  33.987  31.641  1.00  0.00     0.031 C 
ATOM     65  C   UNL A   1      44.977  32.031  32.897  1.00  0.00     0.029 A 
ATOM     66  C   UNL A   1      43.691  32.126  32.389  1.00  0.00     0.049 A 
ATOM     67  H   UNL A   1      42.637  30.765  31.169  1.00  0.00     0.167 HD
ATOM     68  C   UNL A   1      41.489  33.198  32.033  1.00  0.00     0.074 A 
ATOM     69  C   UNL A   1      40.526  34.258  32.240  1.00  0.00     0.031 C 
ATOM     70  C   UNL A   1      42.731  33.183  32.577  1.00  0.00     0.031 A 
BRANCH  57  71
ATOM     71  C   UNL A   1      45.992  28.121  31.242  1.00  0.00    -0.014 A 
ATOM     72  C   UNL A   1      46.081  27.088  32.191  1.00  0.00     0.010 A 
ATOM     73  C   UNL A   1      47.093  28.378  30.402  1.00  0.00     0.010 A 
ATOM     74  C   UNL A   1      47.252  26.334  32.304  1.00  0.00     0.020 A 
ATOM     75  C   UNL A   1      48.254  27.608  30.494  1.00  0.00     0.020 A 
ATOM     76  C   UNL A   1      48.330  26.594  31.450  1.00  0.00     0.054 A 
BRANCH  76  77
ATOM     77  S   UNL A   1      49.809  25.553  31.574  1.00  0.00     0.124 S 
ATOM     78  O   UNL A   1      50.856  26.543  31.809  1.00  0.00    -0.237 OA
ATOM     79  O   UNL A   1      49.496  24.688  32.709  1.00  0.00    -0.237 OA
ATOM     80  O   UNL A   1      49.870  24.879  30.280  1.00  0.00    -0.744 OA
ENDBRANCH  76  77
ENDBRANCH  57  71
BRANCH  58  81
ATOM     81  C   UNL A   1      37.274  32.820  29.971  1.00  0.00    -0.014 A 
ATOM     82  C   UNL A   1      37.091  33.898  29.087  1.00  0.00     0.010 A 
ATOM     83  C   UNL A   1      36.201  32.422  30.790  1.00  0.00     0.010 A 
ATOM     84  C   UNL A   1      35.875  34.589  29.052  1.00  0.00     0.020 A 
ATOM     85  C   UNL A   1      34.974  33.089  30.734  1.00  0.00     0.020 A 
ATOM     86  C   UNL A   1      34.825  34.181  29.879  1.00  0.00     0.054 A 
BRANCH  86  87
ATOM     87  S   UNL A   1      33.252  35.083  29.810  1.00  0.00     0.124 S 
ATOM     88  O   UNL A   1      33.670  36.384  29.298  1.00  0.00    -0.237 OA
ATOM     89  O   UNL A   1      32.461  34.267  28.892  1.00  0.00    -0.237 OA
ATOM     90  O   UNL A   1      32.790  35.073  31.197  1.00  0.00    -0.744 OA
ENDBRANCH  86  87
ENDBRANCH  58  81
BRANCH  70  91
ATOM     91  C   UNL A   1      43.151  34.370  33.406  1.00  0.00    -0.014 A 
ATOM     92  C   UNL A   1      43.538  35.583  32.809  1.00  0.00     0.010 A 
ATOM     93  C   UNL A   1      43.095  34.287  34.810  1.00  0.00     0.010 A 
ATOM     94  C   UNL A   1      43.893  36.679  33.601  1.00  0.00     0.020 A 
ATOM     95  C   UNL A   1      43.419  35.390  35.604  1.00  0.00     0.020 A 
ATOM     96  C   UNL A   1      43.830  36.576  34.994  1.00  0.00     0.054 A 
BRANCH  96  97
ATOM     97  S   UNL A   1      44.254  38.025  35.999  1.00  0.00     0.124 S 
ATOM     98  O   UNL A   1      43.371  37.866  37.151  1.00  0.00    -0.237 OA
ATOM     99  O   UNL A   1      45.676  37.826  36.265  1.00  0.00    -0.237 OA
ATOM    100  O   UNL A   1      43.942  39.156  35.128  1.00  0.00    -0.744 OA
ENDBRANCH  96  97
ENDBRANCH  70  91
ENDBRANCH  44  45
ENDBRANCH  37  39
ENDBRANCH  36  37
ENDBRANCH  35  36
ENDBRANCH  34  35
ENDBRANCH  33  34
ENDBRANCH  32  33
ENDBRANCH   1  32
TORSDOF 23
ENDMDL
