MODEL 1
REMARK VINA RESULT:      -8.7      0.000      0.000
REMARK SMILES C=CC[C@H](CNC(=O)OC(C)(C)C)C(=O)OCCOCCOCCOC(=O)c1ccc(-c2c3nc(c(-c4ccc(S(=O)(=O)[O-])cc4)c4ccc([nH]4)c(-c4ccc(S(=O)(=O)[O-])cc4)c4nc(c(-c5ccc(S(=O)(=O)[O-])cc5)c5ccc2[nH]5)C=C4)C=C3)cc1
REMARK SMILES IDX 20 1 19 2 18 3 17 4 16 5 14 6 15 7 4 8 3 9 2 10 1 11 5 12
REMARK SMILES IDX 6 13 7 14 8 16 9 17 10 18 11 19 12 20 13 21 21 22 22 23
REMARK SMILES IDX 23 24 24 25 25 26 26 27 27 28 28 29 29 30 87 31 30 32 86 33
REMARK SMILES IDX 31 34 32 35 33 36 80 37 34 38 85 39 79 40 81 41 35 42 84 43
REMARK SMILES IDX 78 44 77 45 36 47 66 48 47 49 65 50 48 51 51 52 64 53 82 54
REMARK SMILES IDX 49 55 50 56 63 58 83 59 52 60 37 61 38 62 46 63 39 64 45 65
REMARK SMILES IDX 40 66 41 67 42 68 43 69 44 70 67 71 68 72 76 73 69 74 75 75
REMARK SMILES IDX 70 76 71 77 72 78 73 79 74 80 53 81 54 82 62 83 55 84 61 85
REMARK SMILES IDX 56 86 57 87 58 88 59 89 60 90
REMARK H PARENT 6 15 81 46 51 57
REMARK Flexibility Score: inf
ROOT
ATOM      1  C   UNL A   1      36.214  21.080  25.079  1.00  0.00     0.188 C 
ENDROOT
BRANCH   1   2
ATOM      2  O   UNL A   1      35.638  21.533  26.294  1.00  0.00    -0.376 OA
BRANCH   2   3
ATOM      3  C   UNL A   1      34.337  22.097  26.303  1.00  0.00     0.202 C 
BRANCH   3   4
ATOM      4  C   UNL A   1      33.403  21.950  25.085  1.00  0.00     0.261 C 
BRANCH   4   5
ATOM      5  O   UNL A   1      32.959  23.148  24.404  1.00  0.00    -0.463 OA
BRANCH   5   6
ATOM      6  C   UNL A   1      32.137  23.961  25.123  1.00  0.00     0.311 C 
ATOM      7  O   UNL A   1      30.979  23.661  25.396  1.00  0.00    -0.252 OA
BRANCH   6   8
ATOM      8  C   UNL A   1      32.735  25.324  25.510  1.00  0.00     0.122 C 
BRANCH   8   9
ATOM      9  C   UNL A   1      31.713  26.075  26.382  1.00  0.00     0.044 C 
BRANCH   9  10
ATOM     10  C   UNL A   1      32.208  27.414  26.855  1.00  0.00    -0.034 C 
ATOM     11  C   UNL A   1      31.520  28.221  27.672  1.00  0.00     0.004 C 
ENDBRANCH   9  10
ENDBRANCH   8   9
BRANCH   8  12
ATOM     12  C   UNL A   1      33.294  26.181  24.348  1.00  0.00     0.135 C 
BRANCH  12  13
ATOM     13  N   UNL A   1      32.631  25.979  23.067  1.00  0.00    -0.321 N 
ATOM     14  C   UNL A   1      31.948  26.854  22.275  1.00  0.00     0.407 C 
ATOM     15  H   UNL A   1      32.686  25.062  22.713  1.00  0.00     0.167 HD
ATOM     16  O   UNL A   1      31.407  26.433  21.255  1.00  0.00    -0.225 OA
BRANCH  14  17
ATOM     17  O   UNL A   1      31.944  28.142  22.699  1.00  0.00    -0.444 OA
BRANCH  17  18
ATOM     18  C   UNL A   1      30.694  28.737  23.166  1.00  0.00     0.106 C 
ATOM     19  C   UNL A   1      30.891  29.649  24.391  1.00  0.00     0.056 C 
ATOM     20  C   UNL A   1      29.991  29.480  22.023  1.00  0.00     0.056 C 
ATOM     21  C   UNL A   1      29.795  27.567  23.604  1.00  0.00     0.056 C 
ENDBRANCH  17  18
ENDBRANCH  14  17
ENDBRANCH  12  13
ENDBRANCH   8  12
ENDBRANCH   6   8
ENDBRANCH   5   6
ENDBRANCH   4   5
ENDBRANCH   3   4
ENDBRANCH   2   3
ENDBRANCH   1   2
BRANCH   1  22
ATOM     22  C   UNL A   1      37.720  20.781  25.025  1.00  0.00     0.188 C 
BRANCH  22  23
ATOM     23  O   UNL A   1      38.545  21.707  25.681  1.00  0.00    -0.376 OA
BRANCH  23  24
ATOM     24  C   UNL A   1      39.802  21.286  26.169  1.00  0.00     0.202 C 
BRANCH  24  25
ATOM     25  C   UNL A   1      40.950  22.259  26.503  1.00  0.00     0.261 C 
BRANCH  25  26
ATOM     26  O   UNL A   1      40.734  23.665  26.312  1.00  0.00    -0.460 OA
BRANCH  26  27
ATOM     27  C   UNL A   1      41.819  24.478  26.335  1.00  0.00     0.338 C 
ATOM     28  O   UNL A   1      42.763  24.453  25.568  1.00  0.00    -0.246 OA
BRANCH  27  29
ATOM     29  C   UNL A   1      41.553  25.558  27.319  1.00  0.00     0.060 A 
ATOM     30  C   UNL A   1      42.346  26.717  27.301  1.00  0.00     0.016 A 
ATOM     31  C   UNL A   1      40.509  25.442  28.238  1.00  0.00     0.016 A 
ATOM     32  C   UNL A   1      42.096  27.758  28.201  1.00  0.00     0.010 A 
ATOM     33  C   UNL A   1      40.279  26.473  29.157  1.00  0.00     0.010 A 
ATOM     34  C   UNL A   1      41.080  27.630  29.157  1.00  0.00    -0.014 A 
BRANCH  34  35
ATOM     35  C   UNL A   1      40.929  28.634  30.243  1.00  0.00     0.031 A 
ATOM     36  C   UNL A   1      41.802  28.517  31.465  1.00  0.00     0.074 A 
ATOM     37  C   UNL A   1      40.021  29.625  30.162  1.00  0.00     0.049 A 
ATOM     38  N   UNL A   1      41.773  29.209  32.574  1.00  0.00    -0.248 NA
ATOM     39  C   UNL A   1      42.843  27.476  31.432  1.00  0.00     0.031 C 
ATOM     40  C   UNL A   1      39.146  29.884  29.019  1.00  0.00     0.029 A 
ATOM     41  N   UNL A   1      39.671  30.591  31.076  1.00  0.00    -0.354 N 
ATOM     42  C   UNL A   1      42.778  28.680  33.378  1.00  0.00     0.074 A 
ATOM     43  C   UNL A   1      43.387  27.599  32.635  1.00  0.00     0.031 C 
ATOM     44  C   UNL A   1      38.346  30.926  29.307  1.00  0.00     0.029 A 
ATOM     45  C   UNL A   1      38.619  31.382  30.670  1.00  0.00     0.049 A 
ATOM     46  H   UNL A   1      40.129  30.707  31.940  1.00  0.00     0.167 HD
ATOM     47  C   UNL A   1      43.155  29.058  34.622  1.00  0.00     0.031 A 
ATOM     48  C   UNL A   1      37.932  32.336  31.332  1.00  0.00     0.031 A 
ATOM     49  C   UNL A   1      42.542  30.127  35.365  1.00  0.00     0.049 A 
ATOM     50  C   UNL A   1      38.319  32.680  32.751  1.00  0.00     0.074 A 
ATOM     51  C   UNL A   1      42.877  30.599  36.623  1.00  0.00     0.029 A 
ATOM     52  N   UNL A   1      41.465  30.883  34.930  1.00  0.00    -0.354 N 
ATOM     53  N   UNL A   1      39.295  32.195  33.483  1.00  0.00    -0.248 NA
ATOM     54  C   UNL A   1      37.512  33.703  33.432  1.00  0.00     0.031 C 
ATOM     55  C   UNL A   1      41.958  31.589  36.978  1.00  0.00     0.029 A 
ATOM     56  C   UNL A   1      41.097  31.790  35.911  1.00  0.00     0.049 A 
ATOM     57  H   UNL A   1      41.025  30.789  34.054  1.00  0.00     0.167 HD
ATOM     58  C   UNL A   1      39.234  32.876  34.696  1.00  0.00     0.074 A 
ATOM     59  C   UNL A   1      38.143  33.820  34.593  1.00  0.00     0.031 C 
ATOM     60  C   UNL A   1      40.011  32.731  35.799  1.00  0.00     0.031 A 
BRANCH  47  61
ATOM     61  C   UNL A   1      44.266  28.287  35.288  1.00  0.00    -0.014 A 
ATOM     62  C   UNL A   1      44.086  26.956  35.702  1.00  0.00     0.010 A 
ATOM     63  C   UNL A   1      45.535  28.881  35.420  1.00  0.00     0.010 A 
ATOM     64  C   UNL A   1      45.152  26.238  36.253  1.00  0.00     0.020 A 
ATOM     65  C   UNL A   1      46.610  28.157  35.944  1.00  0.00     0.020 A 
ATOM     66  C   UNL A   1      46.408  26.842  36.365  1.00  0.00     0.054 A 
BRANCH  66  67
ATOM     67  S   UNL A   1      47.785  25.864  37.027  1.00  0.00     0.124 S 
ATOM     68  O   UNL A   1      47.964  26.454  38.352  1.00  0.00    -0.237 OA
ATOM     69  O   UNL A   1      47.248  24.507  37.011  1.00  0.00    -0.237 OA
ATOM     70  O   UNL A   1      48.874  26.112  36.085  1.00  0.00    -0.744 OA
ENDBRANCH  66  67
ENDBRANCH  47  61
BRANCH  48  71
ATOM     71  C   UNL A   1      36.769  33.014  30.689  1.00  0.00    -0.014 A 
ATOM     72  C   UNL A   1      36.961  34.028  29.733  1.00  0.00     0.010 A 
ATOM     73  C   UNL A   1      35.455  32.677  31.067  1.00  0.00     0.010 A 
ATOM     74  C   UNL A   1      35.866  34.714  29.195  1.00  0.00     0.020 A 
ATOM     75  C   UNL A   1      34.357  33.336  30.505  1.00  0.00     0.020 A 
ATOM     76  C   UNL A   1      34.571  34.363  29.585  1.00  0.00     0.054 A 
BRANCH  76  77
ATOM     77  S   UNL A   1      33.167  35.252  28.857  1.00  0.00     0.124 S 
ATOM     78  O   UNL A   1      33.830  36.351  28.163  1.00  0.00    -0.237 OA
ATOM     79  O   UNL A   1      32.561  34.236  28.000  1.00  0.00    -0.237 OA
ATOM     80  O   UNL A   1      32.366  35.637  30.016  1.00  0.00    -0.744 OA
ENDBRANCH  76  77
ENDBRANCH  48  71
BRANCH  60  81
ATOM     81  C   UNL A   1      39.742  33.637  36.974  1.00  0.00    -0.014 A 
ATOM     82  C   UNL A   1      38.850  33.268  37.997  1.00  0.00     0.010 A 
ATOM     83  C   UNL A   1      40.437  34.857  37.084  1.00  0.00     0.010 A 
ATOM     84  C   UNL A   1      38.633  34.114  39.087  1.00  0.00     0.020 A 
ATOM     85  C   UNL A   1      40.249  35.691  38.189  1.00  0.00     0.020 A 
ATOM     86  C   UNL A   1      39.336  35.321  39.178  1.00  0.00     0.054 A 
BRANCH  86  87
ATOM     87  S   UNL A   1      39.066  36.380  40.625  1.00  0.00     0.124 S 
ATOM     88  O   UNL A   1      38.493  37.580  40.022  1.00  0.00    -0.237 OA
ATOM     89  O   UNL A   1      38.149  35.586  41.438  1.00  0.00    -0.237 OA
ATOM     90  O   UNL A   1      40.404  36.546  41.189  1.00  0.00    -0.744 OA
ENDBRANCH  86  87
ENDBRANCH  60  81
ENDBRANCH  34  35
ENDBRANCH  27  29
ENDBRANCH  26  27
ENDBRANCH  25  26
ENDBRANCH  24  25
ENDBRANCH  23  24
ENDBRANCH  22  23
ENDBRANCH   1  22
TORSDOF 26
ENDMDL
MODEL 2
REMARK VINA RESULT:      -8.1      1.742      2.569
REMARK SMILES C=CC[C@H](CNC(=O)OC(C)(C)C)C(=O)OCCOCCOCCOC(=O)c1ccc(-c2c3nc(c(-c4ccc(S(=O)(=O)[O-])cc4)c4ccc([nH]4)c(-c4ccc(S(=O)(=O)[O-])cc4)c4nc(c(-c5ccc(S(=O)(=O)[O-])cc5)c5ccc2[nH]5)C=C4)C=C3)cc1
REMARK SMILES IDX 20 1 19 2 18 3 17 4 16 5 14 6 15 7 4 8 3 9 2 10 1 11 5 12
REMARK SMILES IDX 6 13 7 14 8 16 9 17 10 18 11 19 12 20 13 21 21 22 22 23
REMARK SMILES IDX 23 24 24 25 25 26 26 27 27 28 28 29 29 30 87 31 30 32 86 33
REMARK SMILES IDX 31 34 32 35 33 36 80 37 34 38 85 39 79 40 81 41 35 42 84 43
REMARK SMILES IDX 78 44 77 45 36 47 66 48 47 49 65 50 48 51 51 52 64 53 82 54
REMARK SMILES IDX 49 55 50 56 63 58 83 59 52 60 37 61 38 62 46 63 39 64 45 65
REMARK SMILES IDX 40 66 41 67 42 68 43 69 44 70 67 71 68 72 76 73 69 74 75 75
REMARK SMILES IDX 70 76 71 77 72 78 73 79 74 80 53 81 54 82 62 83 55 84 61 85
REMARK SMILES IDX 56 86 57 87 58 88 59 89 60 90
REMARK H PARENT 6 15 81 46 51 57
REMARK Flexibility Score: inf
ROOT
ATOM      1  C   UNL A   1      36.798  22.709  24.829  1.00  0.00     0.188 C 
ENDROOT
BRANCH   1   2
ATOM      2  O   UNL A   1      36.234  23.332  25.972  1.00  0.00    -0.376 OA
BRANCH   2   3
ATOM      3  C   UNL A   1      35.391  24.464  25.828  1.00  0.00     0.202 C 
BRANCH   3   4
ATOM      4  C   UNL A   1      34.548  24.665  24.553  1.00  0.00     0.261 C 
BRANCH   4   5
ATOM      5  O   UNL A   1      33.213  25.210  24.684  1.00  0.00    -0.463 OA
BRANCH   5   6
ATOM      6  C   UNL A   1      33.146  26.552  24.905  1.00  0.00     0.311 C 
ATOM      7  O   UNL A   1      33.995  27.336  24.492  1.00  0.00    -0.252 OA
BRANCH   6   8
ATOM      8  C   UNL A   1      31.968  27.016  25.776  1.00  0.00     0.122 C 
BRANCH   8   9
ATOM      9  C   UNL A   1      30.968  25.853  25.907  1.00  0.00     0.044 C 
BRANCH   9  10
ATOM     10  C   UNL A   1      29.796  25.972  24.972  1.00  0.00    -0.034 C 
ATOM     11  C   UNL A   1      29.791  25.512  23.715  1.00  0.00     0.004 C 
ENDBRANCH   9  10
ENDBRANCH   8   9
BRANCH   8  12
ATOM     12  C   UNL A   1      31.301  28.353  25.368  1.00  0.00     0.135 C 
BRANCH  12  13
ATOM     13  N   UNL A   1      31.713  28.870  24.071  1.00  0.00    -0.321 N 
ATOM     14  C   UNL A   1      30.998  29.065  22.926  1.00  0.00     0.407 C 
ATOM     15  H   UNL A   1      32.663  29.121  24.009  1.00  0.00     0.167 HD
ATOM     16  O   UNL A   1      31.585  29.454  21.919  1.00  0.00    -0.225 OA
BRANCH  14  17
ATOM     17  O   UNL A   1      29.669  28.815  23.021  1.00  0.00    -0.444 OA
BRANCH  17  18
ATOM     18  C   UNL A   1      28.720  29.910  22.830  1.00  0.00     0.106 C 
ATOM     19  C   UNL A   1      28.998  31.105  23.759  1.00  0.00     0.056 C 
ATOM     20  C   UNL A   1      28.683  30.340  21.358  1.00  0.00     0.056 C 
ATOM     21  C   UNL A   1      27.335  29.351  23.203  1.00  0.00     0.056 C 
ENDBRANCH  17  18
ENDBRANCH  14  17
ENDBRANCH  12  13
ENDBRANCH   8  12
ENDBRANCH   6   8
ENDBRANCH   5   6
ENDBRANCH   4   5
ENDBRANCH   3   4
ENDBRANCH   2   3
ENDBRANCH   1   2
BRANCH   1  22
ATOM     22  C   UNL A   1      37.796  21.556  25.014  1.00  0.00     0.188 C 
BRANCH  22  23
ATOM     23  O   UNL A   1      38.545  21.589  26.202  1.00  0.00    -0.376 OA
BRANCH  23  24
ATOM     24  C   UNL A   1      39.633  22.483  26.305  1.00  0.00     0.202 C 
BRANCH  24  25
ATOM     25  C   UNL A   1      39.926  23.316  27.569  1.00  0.00     0.261 C 
BRANCH  25  26
ATOM     26  O   UNL A   1      39.296  24.599  27.705  1.00  0.00    -0.460 OA
BRANCH  26  27
ATOM     27  C   UNL A   1      40.009  25.693  27.340  1.00  0.00     0.338 C 
ATOM     28  O   UNL A   1      40.324  26.011  26.209  1.00  0.00    -0.246 OA
BRANCH  27  29
ATOM     29  C   UNL A   1      40.147  26.562  28.536  1.00  0.00     0.060 A 
ATOM     30  C   UNL A   1      39.120  26.586  29.492  1.00  0.00     0.016 A 
ATOM     31  C   UNL A   1      41.296  27.330  28.728  1.00  0.00     0.016 A 
ATOM     32  C   UNL A   1      39.240  27.378  30.639  1.00  0.00     0.010 A 
ATOM     33  C   UNL A   1      41.402  28.144  29.862  1.00  0.00     0.010 A 
ATOM     34  C   UNL A   1      40.369  28.186  30.817  1.00  0.00    -0.014 A 
BRANCH  34  35
ATOM     35  C   UNL A   1      40.426  29.178  31.924  1.00  0.00     0.031 A 
ATOM     36  C   UNL A   1      41.502  29.039  32.968  1.00  0.00     0.074 A 
ATOM     37  C   UNL A   1      39.527  30.177  32.018  1.00  0.00     0.049 A 
ATOM     38  N   UNL A   1      41.680  29.718  34.072  1.00  0.00    -0.248 NA
ATOM     39  C   UNL A   1      42.511  27.992  32.737  1.00  0.00     0.031 C 
ATOM     40  C   UNL A   1      38.464  30.456  31.053  1.00  0.00     0.029 A 
ATOM     41  N   UNL A   1      39.356  31.134  32.990  1.00  0.00    -0.354 N 
ATOM     42  C   UNL A   1      42.807  29.172  34.676  1.00  0.00     0.074 A 
ATOM     43  C   UNL A   1      43.263  28.095  33.825  1.00  0.00     0.031 C 
ATOM     44  C   UNL A   1      37.739  31.501  31.491  1.00  0.00     0.029 A 
ATOM     45  C   UNL A   1      38.256  31.937  32.788  1.00  0.00     0.049 A 
ATOM     46  H   UNL A   1      39.963  31.236  33.759  1.00  0.00     0.167 HD
ATOM     47  C   UNL A   1      43.405  29.532  35.837  1.00  0.00     0.031 A 
ATOM     48  C   UNL A   1      37.708  32.888  33.573  1.00  0.00     0.031 A 
ATOM     49  C   UNL A   1      42.945  30.596  36.689  1.00  0.00     0.049 A 
ATOM     50  C   UNL A   1      38.346  33.212  34.903  1.00  0.00     0.074 A 
ATOM     51  C   UNL A   1      43.505  31.050  37.871  1.00  0.00     0.029 A 
ATOM     52  N   UNL A   1      41.815  31.365  36.463  1.00  0.00    -0.354 N 
ATOM     53  N   UNL A   1      39.433  32.711  35.442  1.00  0.00    -0.248 NA
ATOM     54  C   UNL A   1      37.684  34.233  35.729  1.00  0.00     0.031 C 
ATOM     55  C   UNL A   1      42.674  32.043  38.396  1.00  0.00     0.029 A 
ATOM     56  C   UNL A   1      41.637  32.263  37.503  1.00  0.00     0.049 A 
ATOM     57  H   UNL A   1      41.224  31.286  35.679  1.00  0.00     0.167 HD
ATOM     58  C   UNL A   1      39.597  33.378  36.654  1.00  0.00     0.074 A 
ATOM     59  C   UNL A   1      38.514  34.331  36.759  1.00  0.00     0.031 C 
ATOM     60  C   UNL A   1      40.558  33.213  37.597  1.00  0.00     0.031 A 
BRANCH  47  61
ATOM     61  C   UNL A   1      44.610  28.745  36.283  1.00  0.00    -0.014 A 
ATOM     62  C   UNL A   1      45.914  29.154  35.953  1.00  0.00     0.010 A 
ATOM     63  C   UNL A   1      44.433  27.627  37.120  1.00  0.00     0.010 A 
ATOM     64  C   UNL A   1      47.019  28.447  36.438  1.00  0.00     0.020 A 
ATOM     65  C   UNL A   1      45.536  26.936  37.630  1.00  0.00     0.020 A 
ATOM     66  C   UNL A   1      46.822  27.347  37.278  1.00  0.00     0.054 A 
BRANCH  66  67
ATOM     67  S   UNL A   1      48.278  26.489  37.940  1.00  0.00     0.124 S 
ATOM     68  O   UNL A   1      48.799  27.469  38.890  1.00  0.00    -0.237 OA
ATOM     69  O   UNL A   1      47.696  25.288  38.530  1.00  0.00    -0.237 OA
ATOM     70  O   UNL A   1      49.113  26.260  36.762  1.00  0.00    -0.744 OA
ENDBRANCH  66  67
ENDBRANCH  47  61
BRANCH  48  71
ATOM     71  C   UNL A   1      36.454  33.583  33.156  1.00  0.00    -0.014 A 
ATOM     72  C   UNL A   1      35.201  33.169  33.644  1.00  0.00     0.010 A 
ATOM     73  C   UNL A   1      36.505  34.640  32.228  1.00  0.00     0.010 A 
ATOM     74  C   UNL A   1      34.026  33.772  33.187  1.00  0.00     0.020 A 
ATOM     75  C   UNL A   1      35.334  35.270  31.795  1.00  0.00     0.020 A 
ATOM     76  C   UNL A   1      34.099  34.820  32.265  1.00  0.00     0.054 A 
BRANCH  76  77
ATOM     77  S   UNL A   1      32.562  35.602  31.703  1.00  0.00     0.124 S 
ATOM     78  O   UNL A   1      31.569  34.977  32.570  1.00  0.00    -0.237 OA
ATOM     79  O   UNL A   1      32.819  37.018  31.953  1.00  0.00    -0.237 OA
ATOM     80  O   UNL A   1      32.483  35.230  30.292  1.00  0.00    -0.744 OA
ENDBRANCH  76  77
ENDBRANCH  48  71
BRANCH  60  81
ATOM     81  C   UNL A   1      40.512  34.107  38.812  1.00  0.00    -0.014 A 
ATOM     82  C   UNL A   1      41.148  35.361  38.825  1.00  0.00     0.010 A 
ATOM     83  C   UNL A   1      39.771  33.707  39.941  1.00  0.00     0.010 A 
ATOM     84  C   UNL A   1      41.073  36.181  39.954  1.00  0.00     0.020 A 
ATOM     85  C   UNL A   1      39.665  34.538  41.059  1.00  0.00     0.020 A 
ATOM     86  C   UNL A   1      40.330  35.766  41.064  1.00  0.00     0.054 A 
BRANCH  86  87
ATOM     87  S   UNL A   1      40.215  36.869  42.500  1.00  0.00     0.124 S 
ATOM     88  O   UNL A   1      41.580  36.840  43.017  1.00  0.00    -0.237 OA
ATOM     89  O   UNL A   1      39.796  38.133  41.900  1.00  0.00    -0.237 OA
ATOM     90  O   UNL A   1      39.214  36.229  43.351  1.00  0.00    -0.744 OA
ENDBRANCH  86  87
ENDBRANCH  60  81
ENDBRANCH  34  35
ENDBRANCH  27  29
ENDBRANCH  26  27
ENDBRANCH  25  26
ENDBRANCH  24  25
ENDBRANCH  23  24
ENDBRANCH  22  23
ENDBRANCH   1  22
TORSDOF 26
ENDMDL
MODEL 3
REMARK VINA RESULT:      -8.0      2.485      9.123
REMARK SMILES C=CC[C@H](CNC(=O)OC(C)(C)C)C(=O)OCCOCCOCCOC(=O)c1ccc(-c2c3nc(c(-c4ccc(S(=O)(=O)[O-])cc4)c4ccc([nH]4)c(-c4ccc(S(=O)(=O)[O-])cc4)c4nc(c(-c5ccc(S(=O)(=O)[O-])cc5)c5ccc2[nH]5)C=C4)C=C3)cc1
REMARK SMILES IDX 20 1 19 2 18 3 17 4 16 5 14 6 15 7 4 8 3 9 2 10 1 11 5 12
REMARK SMILES IDX 6 13 7 14 8 16 9 17 10 18 11 19 12 20 13 21 21 22 22 23
REMARK SMILES IDX 23 24 24 25 25 26 26 27 27 28 28 29 29 30 87 31 30 32 86 33
REMARK SMILES IDX 31 34 32 35 33 36 80 37 34 38 85 39 79 40 81 41 35 42 84 43
REMARK SMILES IDX 78 44 77 45 36 47 66 48 47 49 65 50 48 51 51 52 64 53 82 54
REMARK SMILES IDX 49 55 50 56 63 58 83 59 52 60 37 61 38 62 46 63 39 64 45 65
REMARK SMILES IDX 40 66 41 67 42 68 43 69 44 70 67 71 68 72 76 73 69 74 75 75
REMARK SMILES IDX 70 76 71 77 72 78 73 79 74 80 53 81 54 82 62 83 55 84 61 85
REMARK SMILES IDX 56 86 57 87 58 88 59 89 60 90
REMARK H PARENT 6 15 81 46 51 57
REMARK Flexibility Score: inf
ROOT
ATOM      1  C   UNL A   1      33.947  31.110  27.314  1.00  0.00     0.188 C 
ENDROOT
BRANCH   1   2
ATOM      2  O   UNL A   1      32.549  31.274  27.139  1.00  0.00    -0.376 OA
BRANCH   2   3
ATOM      3  C   UNL A   1      31.757  30.201  26.656  1.00  0.00     0.202 C 
BRANCH   3   4
ATOM      4  C   UNL A   1      32.017  29.589  25.266  1.00  0.00     0.261 C 
BRANCH   4   5
ATOM      5  O   UNL A   1      31.118  28.562  24.781  1.00  0.00    -0.463 OA
BRANCH   5   6
ATOM      6  C   UNL A   1      31.434  27.288  25.140  1.00  0.00     0.311 C 
ATOM      7  O   UNL A   1      30.736  26.618  25.895  1.00  0.00    -0.252 OA
BRANCH   6   8
ATOM      8  C   UNL A   1      32.772  26.764  24.595  1.00  0.00     0.122 C 
BRANCH   8   9
ATOM      9  C   UNL A   1      32.536  26.199  23.182  1.00  0.00     0.044 C 
BRANCH   9  10
ATOM     10  C   UNL A   1      33.379  26.865  22.130  1.00  0.00    -0.034 C 
ATOM     11  C   UNL A   1      33.907  28.089  22.258  1.00  0.00     0.004 C 
ENDBRANCH   9  10
ENDBRANCH   8   9
BRANCH   8  12
ATOM     12  C   UNL A   1      33.556  25.797  25.517  1.00  0.00     0.135 C 
BRANCH  12  13
ATOM     13  N   UNL A   1      32.726  24.885  26.291  1.00  0.00    -0.321 N 
ATOM     14  C   UNL A   1      32.686  23.522  26.308  1.00  0.00     0.407 C 
ATOM     15  H   UNL A   1      32.090  25.322  26.903  1.00  0.00     0.167 HD
ATOM     16  O   UNL A   1      31.840  22.962  27.003  1.00  0.00    -0.225 OA
BRANCH  14  17
ATOM     17  O   UNL A   1      33.619  22.903  25.544  1.00  0.00    -0.444 OA
BRANCH  17  18
ATOM     18  C   UNL A   1      33.243  22.400  24.224  1.00  0.00     0.106 C 
ATOM     19  C   UNL A   1      31.778  22.706  23.866  1.00  0.00     0.056 C 
ATOM     20  C   UNL A   1      34.204  22.928  23.152  1.00  0.00     0.056 C 
ATOM     21  C   UNL A   1      33.389  20.869  24.289  1.00  0.00     0.056 C 
ENDBRANCH  17  18
ENDBRANCH  14  17
ENDBRANCH  12  13
ENDBRANCH   8  12
ENDBRANCH   6   8
ENDBRANCH   5   6
ENDBRANCH   4   5
ENDBRANCH   3   4
ENDBRANCH   2   3
ENDBRANCH   1   2
BRANCH   1  22
ATOM     22  C   UNL A   1      34.657  31.859  28.452  1.00  0.00     0.188 C 
BRANCH  22  23
ATOM     23  O   UNL A   1      35.380  33.000  28.067  1.00  0.00    -0.376 OA
BRANCH  23  24
ATOM     24  C   UNL A   1      34.690  34.214  27.858  1.00  0.00     0.202 C 
BRANCH  24  25
ATOM     25  C   UNL A   1      33.222  34.436  28.273  1.00  0.00     0.261 C 
BRANCH  25  26
ATOM     26  O   UNL A   1      32.832  34.106  29.614  1.00  0.00    -0.460 OA
BRANCH  26  27
ATOM     27  C   UNL A   1      33.241  34.932  30.610  1.00  0.00     0.338 C 
ATOM     28  O   UNL A   1      32.649  35.905  31.037  1.00  0.00    -0.246 OA
BRANCH  27  29
ATOM     29  C   UNL A   1      34.430  34.313  31.249  1.00  0.00     0.060 A 
ATOM     30  C   UNL A   1      35.635  35.030  31.302  1.00  0.00     0.016 A 
ATOM     31  C   UNL A   1      34.349  33.041  31.819  1.00  0.00     0.016 A 
ATOM     32  C   UNL A   1      36.759  34.477  31.924  1.00  0.00     0.010 A 
ATOM     33  C   UNL A   1      35.485  32.478  32.414  1.00  0.00     0.010 A 
ATOM     34  C   UNL A   1      36.701  33.184  32.457  1.00  0.00    -0.014 A 
BRANCH  34  35
ATOM     35  C   UNL A   1      37.933  32.506  32.941  1.00  0.00     0.031 A 
ATOM     36  C   UNL A   1      38.419  32.795  34.337  1.00  0.00     0.074 A 
ATOM     37  C   UNL A   1      38.625  31.662  32.153  1.00  0.00     0.049 A 
ATOM     38  N   UNL A   1      39.516  32.405  34.931  1.00  0.00    -0.248 NA
ATOM     39  C   UNL A   1      37.550  33.640  35.174  1.00  0.00     0.031 C 
ATOM     40  C   UNL A   1      38.244  31.257  30.801  1.00  0.00     0.029 A 
ATOM     41  N   UNL A   1      39.814  31.006  32.375  1.00  0.00    -0.354 N 
ATOM     42  C   UNL A   1      39.481  32.968  36.202  1.00  0.00     0.074 A 
ATOM     43  C   UNL A   1      38.261  33.739  36.288  1.00  0.00     0.031 C 
ATOM     44  C   UNL A   1      39.190  30.438  30.305  1.00  0.00     0.029 A 
ATOM     45  C   UNL A   1      40.266  30.295  31.286  1.00  0.00     0.049 A 
ATOM     46  H   UNL A   1      40.296  31.041  33.233  1.00  0.00     0.167 HD
ATOM     47  C   UNL A   1      40.386  32.855  37.204  1.00  0.00     0.031 A 
ATOM     48  C   UNL A   1      41.426  29.637  31.088  1.00  0.00     0.031 A 
ATOM     49  C   UNL A   1      41.605  32.096  37.114  1.00  0.00     0.049 A 
ATOM     50  C   UNL A   1      42.456  29.598  32.193  1.00  0.00     0.074 A 
ATOM     51  C   UNL A   1      42.568  31.903  38.090  1.00  0.00     0.029 A 
ATOM     52  N   UNL A   1      42.037  31.415  35.987  1.00  0.00    -0.354 N 
ATOM     53  N   UNL A   1      42.391  30.106  33.401  1.00  0.00    -0.248 NA
ATOM     54  C   UNL A   1      43.715  28.895  31.906  1.00  0.00     0.031 C 
ATOM     55  C   UNL A   1      43.616  31.167  37.530  1.00  0.00     0.029 A 
ATOM     56  C   UNL A   1      43.272  30.835  36.230  1.00  0.00     0.049 A 
ATOM     57  H   UNL A   1      41.541  31.353  35.139  1.00  0.00     0.167 HD
ATOM     58  C   UNL A   1      43.586  29.757  34.025  1.00  0.00     0.074 A 
ATOM     59  C   UNL A   1      44.345  28.978  33.070  1.00  0.00     0.031 C 
ATOM     60  C   UNL A   1      44.019  30.056  35.275  1.00  0.00     0.031 A 
BRANCH  47  61
ATOM     61  C   UNL A   1      40.116  33.602  38.484  1.00  0.00    -0.014 A 
ATOM     62  C   UNL A   1      39.413  33.005  39.545  1.00  0.00     0.010 A 
ATOM     63  C   UNL A   1      40.652  34.892  38.658  1.00  0.00     0.010 A 
ATOM     64  C   UNL A   1      39.236  33.692  40.750  1.00  0.00     0.020 A 
ATOM     65  C   UNL A   1      40.502  35.570  39.871  1.00  0.00     0.020 A 
ATOM     66  C   UNL A   1      39.787  34.967  40.907  1.00  0.00     0.054 A 
BRANCH  66  67
ATOM     67  S   UNL A   1      39.592  35.807  42.503  1.00  0.00     0.124 S 
ATOM     68  O   UNL A   1      39.796  37.206  42.134  1.00  0.00    -0.237 OA
ATOM     69  O   UNL A   1      38.230  35.450  42.886  1.00  0.00    -0.237 OA
ATOM     70  O   UNL A   1      40.643  35.224  43.335  1.00  0.00    -0.744 OA
ENDBRANCH  66  67
ENDBRANCH  47  61
BRANCH  48  71
ATOM     71  C   UNL A   1      41.716  28.992  29.774  1.00  0.00    -0.014 A 
ATOM     72  C   UNL A   1      42.249  29.735  28.705  1.00  0.00     0.010 A 
ATOM     73  C   UNL A   1      41.414  27.632  29.571  1.00  0.00     0.010 A 
ATOM     74  C   UNL A   1      42.441  29.142  27.453  1.00  0.00     0.020 A 
ATOM     75  C   UNL A   1      41.639  27.026  28.331  1.00  0.00     0.020 A 
ATOM     76  C   UNL A   1      42.135  27.790  27.274  1.00  0.00     0.054 A 
BRANCH  76  77
ATOM     77  S   UNL A   1      42.413  27.037  25.647  1.00  0.00     0.124 S 
ATOM     78  O   UNL A   1      41.216  26.219  25.482  1.00  0.00    -0.237 OA
ATOM     79  O   UNL A   1      42.510  28.203  24.772  1.00  0.00    -0.237 OA
ATOM     80  O   UNL A   1      43.659  26.293  25.821  1.00  0.00    -0.744 OA
ENDBRANCH  76  77
ENDBRANCH  48  71
BRANCH  60  81
ATOM     81  C   UNL A   1      45.357  29.510  35.706  1.00  0.00    -0.014 A 
ATOM     82  C   UNL A   1      45.477  28.240  36.297  1.00  0.00     0.010 A 
ATOM     83  C   UNL A   1      46.524  30.261  35.464  1.00  0.00     0.010 A 
ATOM     84  C   UNL A   1      46.730  27.746  36.669  1.00  0.00     0.020 A 
ATOM     85  C   UNL A   1      47.783  29.757  35.802  1.00  0.00     0.020 A 
ATOM     86  C   UNL A   1      47.877  28.508  36.417  1.00  0.00     0.054 A 
BRANCH  86  87
ATOM     87  S   UNL A   1      49.495  27.825  36.870  1.00  0.00     0.124 S 
ATOM     88  O   UNL A   1      49.322  26.406  36.570  1.00  0.00    -0.237 OA
ATOM     89  O   UNL A   1      50.407  28.548  35.989  1.00  0.00    -0.237 OA
ATOM     90  O   UNL A   1      49.623  28.149  38.290  1.00  0.00    -0.744 OA
ENDBRANCH  86  87
ENDBRANCH  60  81
ENDBRANCH  34  35
ENDBRANCH  27  29
ENDBRANCH  26  27
ENDBRANCH  25  26
ENDBRANCH  24  25
ENDBRANCH  23  24
ENDBRANCH  22  23
ENDBRANCH   1  22
TORSDOF 26
ENDMDL
