MODEL 1
REMARK VINA RESULT:     -10.9      0.000      0.000
REMARK SMILES CCOc1ccc(-n2nnc(-c3nc(C)c(C(=O)OCCOCCOCCOC(=O)c4ccc(-c5c6nc(c(-c7ccc(S(=O)(=O)[O-])cc7)c7ccc([nH]7)c(-c7ccc(S(=O)(=O)[O-])cc7)c7nc(c(-c8ccc(S(=O)(=O)[O-])cc8)c8ccc5[nH]8)C=C7)C=C6)cc4)s3)c2C)cc1
REMARK SMILES IDX 23 1 22 2 21 3 20 4 19 5 17 6 18 7 16 8 12 9 13 10 91 11
REMARK SMILES IDX 14 12 15 13 11 14 8 15 9 16 92 17 10 18 93 19 7 20 4 21 5 22
REMARK SMILES IDX 95 23 6 24 94 25 3 26 2 27 1 28 24 29 25 30 26 31 27 32
REMARK SMILES IDX 28 33 29 34 30 35 31 36 32 37 90 38 33 39 89 40 34 41 35 42
REMARK SMILES IDX 36 43 83 44 37 45 88 46 82 47 84 48 38 49 87 50 81 51 80 52
REMARK SMILES IDX 39 54 69 55 50 56 68 57 51 58 54 59 67 60 85 61 52 62 53 63
REMARK SMILES IDX 66 65 86 66 55 67 40 68 41 69 49 70 42 71 48 72 43 73 44 74
REMARK SMILES IDX 45 75 46 76 47 77 70 78 71 79 79 80 72 81 78 82 73 83 74 84
REMARK SMILES IDX 75 85 76 86 77 87 56 88 57 89 65 90 58 91 64 92 59 93 60 94
REMARK SMILES IDX 61 95 62 96 63 97
REMARK H PARENT 84 53 54 64
REMARK Flexibility Score: inf
ROOT
ATOM      1  C   UNL A   1      40.559  21.042  26.799  1.00  0.00     0.188 C 
ENDROOT
BRANCH   1   2
ATOM      2  O   UNL A   1      40.323  22.357  26.307  1.00  0.00    -0.376 OA
BRANCH   2   3
ATOM      3  C   UNL A   1      39.055  22.980  26.478  1.00  0.00     0.202 C 
BRANCH   3   4
ATOM      4  C   UNL A   1      37.879  22.586  25.568  1.00  0.00     0.261 C 
BRANCH   4   5
ATOM      5  O   UNL A   1      37.024  21.580  26.121  1.00  0.00    -0.459 OA
BRANCH   5   6
ATOM      6  C   UNL A   1      36.011  21.108  25.344  1.00  0.00     0.350 C 
ATOM      7  O   UNL A   1      36.022  20.034  24.754  1.00  0.00    -0.245 OA
BRANCH   6   8
ATOM      8  C   UNL A   1      34.882  22.004  25.414  1.00  0.00     0.135 A 
ATOM      9  C   UNL A   1      33.097  23.551  24.903  1.00  0.00     0.146 A 
ATOM     10  N   UNL A   1      32.980  23.164  26.155  1.00  0.00    -0.239 NA
ATOM     11  S   UNL A   1      34.540  23.053  24.117  1.00  0.00    -0.105 S 
ATOM     12  C   UNL A   1      33.990  22.246  26.451  1.00  0.00     0.064 A 
ATOM     13  C   UNL A   1      34.025  21.660  27.820  1.00  0.00     0.068 C 
BRANCH   9  14
ATOM     14  C   UNL A   1      32.024  24.208  24.103  1.00  0.00     0.145 A 
ATOM     15  N   UNL A   1      30.749  25.768  23.302  1.00  0.00    -0.217 N 
ATOM     16  N   UNL A   1      30.145  24.580  23.073  1.00  0.00    -0.061 NA
ATOM     17  C   UNL A   1      31.923  25.583  24.002  1.00  0.00     0.072 A 
ATOM     18  N   UNL A   1      30.981  23.613  23.457  1.00  0.00    -0.127 NA
ATOM     19  C   UNL A   1      32.795  26.647  24.573  1.00  0.00     0.069 C 
BRANCH  15  20
ATOM     20  C   UNL A   1      30.183  27.004  22.941  1.00  0.00     0.067 A 
ATOM     21  C   UNL A   1      29.358  29.641  22.706  1.00  0.00     0.119 A 
ATOM     22  C   UNL A   1      28.510  28.696  23.291  1.00  0.00     0.048 A 
ATOM     23  C   UNL A   1      30.603  29.261  22.216  1.00  0.00     0.048 A 
ATOM     24  C   UNL A   1      28.910  27.358  23.395  1.00  0.00     0.032 A 
ATOM     25  C   UNL A   1      30.999  27.937  22.295  1.00  0.00     0.032 A 
BRANCH  21  26
ATOM     26  O   UNL A   1      29.001  30.960  22.750  1.00  0.00    -0.494 OA
BRANCH  26  27
ATOM     27  C   UNL A   1      28.630  31.492  21.473  1.00  0.00     0.226 C 
ATOM     28  C   UNL A   1      27.965  32.859  21.565  1.00  0.00     0.049 C 
ENDBRANCH  26  27
ENDBRANCH  21  26
ENDBRANCH  15  20
ENDBRANCH   9  14
ENDBRANCH   6   8
ENDBRANCH   5   6
ENDBRANCH   4   5
ENDBRANCH   3   4
ENDBRANCH   2   3
ENDBRANCH   1   2
BRANCH   1  29
ATOM     29  C   UNL A   1      40.290  19.805  25.916  1.00  0.00     0.188 C 
BRANCH  29  30
ATOM     30  O   UNL A   1      41.399  18.938  25.783  1.00  0.00    -0.376 OA
BRANCH  30  31
ATOM     31  C   UNL A   1      42.632  19.344  26.362  1.00  0.00     0.202 C 
BRANCH  31  32
ATOM     32  C   UNL A   1      43.798  19.741  25.454  1.00  0.00     0.261 C 
BRANCH  32  33
ATOM     33  O   UNL A   1      43.671  20.987  24.791  1.00  0.00    -0.460 OA
BRANCH  33  34
ATOM     34  C   UNL A   1      44.443  21.979  25.280  1.00  0.00     0.338 C 
ATOM     35  O   UNL A   1      45.652  22.089  25.167  1.00  0.00    -0.246 OA
BRANCH  34  36
ATOM     36  C   UNL A   1      43.588  22.879  26.056  1.00  0.00     0.060 A 
ATOM     37  C   UNL A   1      42.972  23.928  25.372  1.00  0.00     0.016 A 
ATOM     38  C   UNL A   1      43.670  22.843  27.457  1.00  0.00     0.016 A 
ATOM     39  C   UNL A   1      42.636  25.054  26.087  1.00  0.00     0.010 A 
ATOM     40  C   UNL A   1      43.358  23.976  28.164  1.00  0.00     0.010 A 
ATOM     41  C   UNL A   1      42.932  25.094  27.454  1.00  0.00    -0.014 A 
BRANCH  41  42
ATOM     42  C   UNL A   1      42.748  26.348  28.146  1.00  0.00     0.031 A 
ATOM     43  C   UNL A   1      43.860  27.294  27.948  1.00  0.00     0.074 A 
ATOM     44  C   UNL A   1      41.623  26.641  28.821  1.00  0.00     0.049 A 
ATOM     45  N   UNL A   1      44.737  27.663  28.818  1.00  0.00    -0.248 NA
ATOM     46  C   UNL A   1      44.134  27.743  26.573  1.00  0.00     0.031 C 
ATOM     47  C   UNL A   1      40.363  25.894  28.839  1.00  0.00     0.029 A 
ATOM     48  N   UNL A   1      41.333  27.756  29.540  1.00  0.00    -0.354 N 
ATOM     49  C   UNL A   1      45.535  28.586  28.157  1.00  0.00     0.074 A 
ATOM     50  C   UNL A   1      45.262  28.429  26.751  1.00  0.00     0.031 C 
ATOM     51  C   UNL A   1      39.387  26.694  29.323  1.00  0.00     0.029 A 
ATOM     52  C   UNL A   1      39.976  27.953  29.752  1.00  0.00     0.049 A 
ATOM     53  H   UNL A   1      42.023  28.371  29.880  1.00  0.00     0.167 HD
ATOM     54  C   UNL A   1      46.129  29.610  28.828  1.00  0.00     0.031 A 
ATOM     55  C   UNL A   1      39.386  29.108  30.156  1.00  0.00     0.031 A 
ATOM     56  C   UNL A   1      46.153  29.384  30.250  1.00  0.00     0.049 A 
ATOM     57  C   UNL A   1      40.438  29.951  30.783  1.00  0.00     0.074 A 
ATOM     58  C   UNL A   1      46.630  28.371  31.061  1.00  0.00     0.029 A 
ATOM     59  N   UNL A   1      45.268  30.103  31.020  1.00  0.00    -0.354 N 
ATOM     60  N   UNL A   1      41.012  29.659  31.916  1.00  0.00    -0.248 NA
ATOM     61  C   UNL A   1      41.174  30.882  29.937  1.00  0.00     0.031 C 
ATOM     62  C   UNL A   1      45.671  28.251  32.107  1.00  0.00     0.029 A 
ATOM     63  C   UNL A   1      44.700  29.235  31.915  1.00  0.00     0.049 A 
ATOM     64  H   UNL A   1      45.077  31.066  30.942  1.00  0.00     0.167 HD
ATOM     65  C   UNL A   1      42.345  30.006  31.740  1.00  0.00     0.074 A 
ATOM     66  C   UNL A   1      42.363  30.848  30.546  1.00  0.00     0.031 C 
ATOM     67  C   UNL A   1      43.342  29.349  32.405  1.00  0.00     0.031 A 
BRANCH  54  68
ATOM     68  C   UNL A   1      46.264  30.988  28.230  1.00  0.00    -0.014 A 
ATOM     69  C   UNL A   1      45.149  31.846  28.245  1.00  0.00     0.010 A 
ATOM     70  C   UNL A   1      47.347  31.355  27.401  1.00  0.00     0.010 A 
ATOM     71  C   UNL A   1      45.091  32.968  27.410  1.00  0.00     0.020 A 
ATOM     72  C   UNL A   1      47.321  32.497  26.604  1.00  0.00     0.020 A 
ATOM     73  C   UNL A   1      46.174  33.275  26.584  1.00  0.00     0.054 A 
BRANCH  73  74
ATOM     74  S   UNL A   1      46.046  34.653  25.423  1.00  0.00     0.124 S 
ATOM     75  O   UNL A   1      45.547  35.720  26.284  1.00  0.00    -0.237 OA
ATOM     76  O   UNL A   1      47.423  34.798  24.962  1.00  0.00    -0.237 OA
ATOM     77  O   UNL A   1      45.105  34.163  24.417  1.00  0.00    -0.744 OA
ENDBRANCH  73  74
ENDBRANCH  54  68
BRANCH  55  78
ATOM     78  C   UNL A   1      38.063  29.645  29.748  1.00  0.00    -0.014 A 
ATOM     79  C   UNL A   1      37.159  30.140  30.708  1.00  0.00     0.010 A 
ATOM     80  C   UNL A   1      37.790  29.928  28.393  1.00  0.00     0.010 A 
ATOM     81  C   UNL A   1      36.073  30.948  30.333  1.00  0.00     0.020 A 
ATOM     82  C   UNL A   1      36.702  30.719  28.010  1.00  0.00     0.020 A 
ATOM     83  C   UNL A   1      35.865  31.252  28.985  1.00  0.00     0.054 A 
BRANCH  83  84
ATOM     84  S   UNL A   1      34.585  32.454  28.521  1.00  0.00     0.124 S 
ATOM     85  O   UNL A   1      33.596  31.616  27.851  1.00  0.00    -0.237 OA
ATOM     86  O   UNL A   1      34.180  33.002  29.813  1.00  0.00    -0.237 OA
ATOM     87  O   UNL A   1      35.294  33.392  27.651  1.00  0.00    -0.744 OA
ENDBRANCH  83  84
ENDBRANCH  55  78
BRANCH  67  88
ATOM     88  C   UNL A   1      42.981  28.484  33.590  1.00  0.00    -0.014 A 
ATOM     89  C   UNL A   1      42.551  28.987  34.833  1.00  0.00     0.010 A 
ATOM     90  C   UNL A   1      42.946  27.092  33.382  1.00  0.00     0.010 A 
ATOM     91  C   UNL A   1      42.135  28.116  35.852  1.00  0.00     0.020 A 
ATOM     92  C   UNL A   1      42.513  26.222  34.384  1.00  0.00     0.020 A 
ATOM     93  C   UNL A   1      42.122  26.737  35.620  1.00  0.00     0.054 A 
BRANCH  93  94
ATOM     94  S   UNL A   1      41.556  25.616  36.930  1.00  0.00     0.124 S 
ATOM     95  O   UNL A   1      40.446  26.356  37.522  1.00  0.00    -0.237 OA
ATOM     96  O   UNL A   1      41.188  24.412  36.190  1.00  0.00    -0.237 OA
ATOM     97  O   UNL A   1      42.729  25.469  37.792  1.00  0.00    -0.744 OA
ENDBRANCH  93  94
ENDBRANCH  67  88
ENDBRANCH  41  42
ENDBRANCH  34  36
ENDBRANCH  33  34
ENDBRANCH  32  33
ENDBRANCH  31  32
ENDBRANCH  30  31
ENDBRANCH  29  30
ENDBRANCH   1  29
TORSDOF 24
ENDMDL
MODEL 2
REMARK VINA RESULT:     -10.4      1.912      2.592
REMARK SMILES CCOc1ccc(-n2nnc(-c3nc(C)c(C(=O)OCCOCCOCCOC(=O)c4ccc(-c5c6nc(c(-c7ccc(S(=O)(=O)[O-])cc7)c7ccc([nH]7)c(-c7ccc(S(=O)(=O)[O-])cc7)c7nc(c(-c8ccc(S(=O)(=O)[O-])cc8)c8ccc5[nH]8)C=C7)C=C6)cc4)s3)c2C)cc1
REMARK SMILES IDX 23 1 22 2 21 3 20 4 19 5 17 6 18 7 16 8 12 9 13 10 91 11
REMARK SMILES IDX 14 12 15 13 11 14 8 15 9 16 92 17 10 18 93 19 7 20 4 21 5 22
REMARK SMILES IDX 95 23 6 24 94 25 3 26 2 27 1 28 24 29 25 30 26 31 27 32
REMARK SMILES IDX 28 33 29 34 30 35 31 36 32 37 90 38 33 39 89 40 34 41 35 42
REMARK SMILES IDX 36 43 83 44 37 45 88 46 82 47 84 48 38 49 87 50 81 51 80 52
REMARK SMILES IDX 39 54 69 55 50 56 68 57 51 58 54 59 67 60 85 61 52 62 53 63
REMARK SMILES IDX 66 65 86 66 55 67 40 68 41 69 49 70 42 71 48 72 43 73 44 74
REMARK SMILES IDX 45 75 46 76 47 77 70 78 71 79 79 80 72 81 78 82 73 83 74 84
REMARK SMILES IDX 75 85 76 86 77 87 56 88 57 89 65 90 58 91 64 92 59 93 60 94
REMARK SMILES IDX 61 95 62 96 63 97
REMARK H PARENT 84 53 54 64
REMARK Flexibility Score: inf
ROOT
ATOM      1  C   UNL A   1      40.674  21.462  27.485  1.00  0.00     0.188 C 
ENDROOT
BRANCH   1   2
ATOM      2  O   UNL A   1      39.786  21.863  26.447  1.00  0.00    -0.376 OA
BRANCH   2   3
ATOM      3  C   UNL A   1      38.785  22.845  26.686  1.00  0.00     0.202 C 
BRANCH   3   4
ATOM      4  C   UNL A   1      37.497  22.847  25.845  1.00  0.00     0.261 C 
BRANCH   4   5
ATOM      5  O   UNL A   1      36.541  21.857  26.237  1.00  0.00    -0.459 OA
BRANCH   5   6
ATOM      6  C   UNL A   1      35.690  21.381  25.287  1.00  0.00     0.350 C 
ATOM      7  O   UNL A   1      35.427  20.196  25.112  1.00  0.00    -0.245 OA
BRANCH   6   8
ATOM      8  C   UNL A   1      35.060  22.481  24.598  1.00  0.00     0.135 A 
ATOM      9  C   UNL A   1      33.629  24.320  23.960  1.00  0.00     0.146 A 
ATOM     10  N   UNL A   1      34.618  24.232  23.097  1.00  0.00    -0.239 NA
ATOM     11  S   UNL A   1      33.523  23.027  25.084  1.00  0.00    -0.105 S 
ATOM     12  C   UNL A   1      35.468  23.189  23.476  1.00  0.00     0.064 A 
ATOM     13  C   UNL A   1      36.675  22.932  22.642  1.00  0.00     0.068 C 
BRANCH   9  14
ATOM     14  C   UNL A   1      32.744  25.508  24.133  1.00  0.00     0.145 A 
ATOM     15  N   UNL A   1      31.325  27.075  23.654  1.00  0.00    -0.217 N 
ATOM     16  N   UNL A   1      31.966  27.429  24.791  1.00  0.00    -0.061 NA
ATOM     17  C   UNL A   1      31.826  25.884  23.171  1.00  0.00     0.072 A 
ATOM     18  N   UNL A   1      32.753  26.414  25.152  1.00  0.00    -0.127 NA
ATOM     19  C   UNL A   1      31.491  25.241  21.870  1.00  0.00     0.069 C 
BRANCH  15  20
ATOM     20  C   UNL A   1      30.353  27.880  23.033  1.00  0.00     0.067 A 
ATOM     21  C   UNL A   1      28.536  29.831  22.267  1.00  0.00     0.119 A 
ATOM     22  C   UNL A   1      28.089  28.685  22.934  1.00  0.00     0.048 A 
ATOM     23  C   UNL A   1      29.884  29.986  21.963  1.00  0.00     0.048 A 
ATOM     24  C   UNL A   1      28.997  27.686  23.305  1.00  0.00     0.032 A 
ATOM     25  C   UNL A   1      30.786  28.994  22.307  1.00  0.00     0.032 A 
BRANCH  21  26
ATOM     26  O   UNL A   1      27.652  30.850  22.049  1.00  0.00    -0.494 OA
BRANCH  26  27
ATOM     27  C   UNL A   1      27.525  31.742  23.164  1.00  0.00     0.226 C 
ATOM     28  C   UNL A   1      28.837  32.419  23.538  1.00  0.00     0.049 C 
ENDBRANCH  26  27
ENDBRANCH  21  26
ENDBRANCH  15  20
ENDBRANCH   9  14
ENDBRANCH   6   8
ENDBRANCH   5   6
ENDBRANCH   4   5
ENDBRANCH   3   4
ENDBRANCH   2   3
ENDBRANCH   1   2
BRANCH   1  29
ATOM     29  C   UNL A   1      41.401  20.102  27.427  1.00  0.00     0.188 C 
BRANCH  29  30
ATOM     30  O   UNL A   1      41.675  19.650  26.115  1.00  0.00    -0.376 OA
BRANCH  30  31
ATOM     31  C   UNL A   1      42.569  18.557  25.962  1.00  0.00     0.202 C 
BRANCH  31  32
ATOM     32  C   UNL A   1      43.843  18.734  25.132  1.00  0.00     0.261 C 
BRANCH  32  33
ATOM     33  O   UNL A   1      43.974  19.971  24.454  1.00  0.00    -0.460 OA
BRANCH  33  34
ATOM     34  C   UNL A   1      45.238  20.422  24.320  1.00  0.00     0.338 C 
ATOM     35  O   UNL A   1      46.240  19.749  24.148  1.00  0.00    -0.246 OA
BRANCH  34  36
ATOM     36  C   UNL A   1      45.224  21.875  24.501  1.00  0.00     0.060 A 
ATOM     37  C   UNL A   1      46.334  22.456  25.115  1.00  0.00     0.016 A 
ATOM     38  C   UNL A   1      44.009  22.560  24.344  1.00  0.00     0.016 A 
ATOM     39  C   UNL A   1      46.153  23.650  25.776  1.00  0.00     0.010 A 
ATOM     40  C   UNL A   1      43.824  23.737  25.024  1.00  0.00     0.010 A 
ATOM     41  C   UNL A   1      44.873  24.214  25.804  1.00  0.00    -0.014 A 
BRANCH  41  42
ATOM     42  C   UNL A   1      44.661  25.360  26.656  1.00  0.00     0.031 A 
ATOM     43  C   UNL A   1      45.666  26.421  26.469  1.00  0.00     0.074 A 
ATOM     44  C   UNL A   1      43.593  25.469  27.465  1.00  0.00     0.049 A 
ATOM     45  N   UNL A   1      46.596  26.771  27.290  1.00  0.00    -0.248 NA
ATOM     46  C   UNL A   1      45.756  27.045  25.139  1.00  0.00     0.031 C 
ATOM     47  C   UNL A   1      42.407  24.612  27.512  1.00  0.00     0.029 A 
ATOM     48  N   UNL A   1      43.290  26.466  28.337  1.00  0.00    -0.354 N 
ATOM     49  C   UNL A   1      47.243  27.832  26.673  1.00  0.00     0.074 A 
ATOM     50  C   UNL A   1      46.837  27.809  25.290  1.00  0.00     0.031 C 
ATOM     51  C   UNL A   1      41.425  25.258  28.180  1.00  0.00     0.029 A 
ATOM     52  C   UNL A   1      41.951  26.511  28.700  1.00  0.00     0.049 A 
ATOM     53  H   UNL A   1      43.960  27.100  28.682  1.00  0.00     0.167 HD
ATOM     54  C   UNL A   1      47.818  28.826  27.402  1.00  0.00     0.031 A 
ATOM     55  C   UNL A   1      41.315  27.553  29.294  1.00  0.00     0.031 A 
ATOM     56  C   UNL A   1      48.010  28.445  28.778  1.00  0.00     0.049 A 
ATOM     57  C   UNL A   1      42.355  28.415  29.915  1.00  0.00     0.074 A 
ATOM     58  C   UNL A   1      48.651  27.397  29.412  1.00  0.00     0.029 A 
ATOM     59  N   UNL A   1      47.155  28.988  29.710  1.00  0.00    -0.354 N 
ATOM     60  N   UNL A   1      43.067  28.053  30.945  1.00  0.00    -0.248 NA
ATOM     61  C   UNL A   1      42.920  29.499  29.122  1.00  0.00     0.031 C 
ATOM     62  C   UNL A   1      47.820  27.072  30.522  1.00  0.00     0.029 A 
ATOM     63  C   UNL A   1      46.756  27.977  30.544  1.00  0.00     0.049 A 
ATOM     64  H   UNL A   1      46.880  29.932  29.767  1.00  0.00     0.167 HD
ATOM     65  C   UNL A   1      44.342  28.540  30.686  1.00  0.00     0.074 A 
ATOM     66  C   UNL A   1      44.165  29.508  29.607  1.00  0.00     0.031 C 
ATOM     67  C   UNL A   1      45.453  27.909  31.170  1.00  0.00     0.031 A 
BRANCH  54  68
ATOM     68  C   UNL A   1      47.778  30.268  26.965  1.00  0.00    -0.014 A 
ATOM     69  C   UNL A   1      48.905  31.078  27.196  1.00  0.00     0.010 A 
ATOM     70  C   UNL A   1      46.578  30.922  26.608  1.00  0.00     0.010 A 
ATOM     71  C   UNL A   1      48.811  32.475  27.151  1.00  0.00     0.020 A 
ATOM     72  C   UNL A   1      46.486  32.309  26.511  1.00  0.00     0.020 A 
ATOM     73  C   UNL A   1      47.595  33.078  26.823  1.00  0.00     0.054 A 
BRANCH  73  74
ATOM     74  S   UNL A   1      47.450  34.878  26.885  1.00  0.00     0.124 S 
ATOM     75  O   UNL A   1      46.959  35.089  28.242  1.00  0.00    -0.237 OA
ATOM     76  O   UNL A   1      48.821  35.307  26.628  1.00  0.00    -0.237 OA
ATOM     77  O   UNL A   1      46.497  35.178  25.817  1.00  0.00    -0.744 OA
ENDBRANCH  73  74
ENDBRANCH  54  68
BRANCH  55  78
ATOM     78  C   UNL A   1      39.917  28.007  29.081  1.00  0.00    -0.014 A 
ATOM     79  C   UNL A   1      39.022  28.114  30.163  1.00  0.00     0.010 A 
ATOM     80  C   UNL A   1      39.534  28.600  27.860  1.00  0.00     0.010 A 
ATOM     81  C   UNL A   1      37.830  28.849  30.047  1.00  0.00     0.020 A 
ATOM     82  C   UNL A   1      38.341  29.320  27.732  1.00  0.00     0.020 A 
ATOM     83  C   UNL A   1      37.508  29.467  28.836  1.00  0.00     0.054 A 
BRANCH  83  84
ATOM     84  S   UNL A   1      36.074  30.577  28.747  1.00  0.00     0.124 S 
ATOM     85  O   UNL A   1      35.843  30.903  30.150  1.00  0.00    -0.237 OA
ATOM     86  O   UNL A   1      36.569  31.671  27.915  1.00  0.00    -0.237 OA
ATOM     87  O   UNL A   1      35.039  29.753  28.124  1.00  0.00    -0.744 OA
ENDBRANCH  83  84
ENDBRANCH  55  78
BRANCH  67  88
ATOM     88  C   UNL A   1      45.290  26.887  32.271  1.00  0.00    -0.014 A 
ATOM     89  C   UNL A   1      45.088  27.211  33.626  1.00  0.00     0.010 A 
ATOM     90  C   UNL A   1      45.201  25.536  31.886  1.00  0.00     0.010 A 
ATOM     91  C   UNL A   1      44.842  26.206  34.574  1.00  0.00     0.020 A 
ATOM     92  C   UNL A   1      44.935  24.533  32.819  1.00  0.00     0.020 A 
ATOM     93  C   UNL A   1      44.770  24.871  34.162  1.00  0.00     0.054 A 
BRANCH  93  94
ATOM     94  S   UNL A   1      44.423  23.577  35.386  1.00  0.00     0.124 S 
ATOM     95  O   UNL A   1      44.197  24.346  36.605  1.00  0.00    -0.237 OA
ATOM     96  O   UNL A   1      43.246  22.913  34.832  1.00  0.00    -0.237 OA
ATOM     97  O   UNL A   1      45.639  22.764  35.386  1.00  0.00    -0.744 OA
ENDBRANCH  93  94
ENDBRANCH  67  88
ENDBRANCH  41  42
ENDBRANCH  34  36
ENDBRANCH  33  34
ENDBRANCH  32  33
ENDBRANCH  31  32
ENDBRANCH  30  31
ENDBRANCH  29  30
ENDBRANCH   1  29
TORSDOF 24
ENDMDL
MODEL 3
REMARK VINA RESULT:      -9.7      1.791      2.590
REMARK SMILES CCOc1ccc(-n2nnc(-c3nc(C)c(C(=O)OCCOCCOCCOC(=O)c4ccc(-c5c6nc(c(-c7ccc(S(=O)(=O)[O-])cc7)c7ccc([nH]7)c(-c7ccc(S(=O)(=O)[O-])cc7)c7nc(c(-c8ccc(S(=O)(=O)[O-])cc8)c8ccc5[nH]8)C=C7)C=C6)cc4)s3)c2C)cc1
REMARK SMILES IDX 23 1 22 2 21 3 20 4 19 5 17 6 18 7 16 8 12 9 13 10 91 11
REMARK SMILES IDX 14 12 15 13 11 14 8 15 9 16 92 17 10 18 93 19 7 20 4 21 5 22
REMARK SMILES IDX 95 23 6 24 94 25 3 26 2 27 1 28 24 29 25 30 26 31 27 32
REMARK SMILES IDX 28 33 29 34 30 35 31 36 32 37 90 38 33 39 89 40 34 41 35 42
REMARK SMILES IDX 36 43 83 44 37 45 88 46 82 47 84 48 38 49 87 50 81 51 80 52
REMARK SMILES IDX 39 54 69 55 50 56 68 57 51 58 54 59 67 60 85 61 52 62 53 63
REMARK SMILES IDX 66 65 86 66 55 67 40 68 41 69 49 70 42 71 48 72 43 73 44 74
REMARK SMILES IDX 45 75 46 76 47 77 70 78 71 79 79 80 72 81 78 82 73 83 74 84
REMARK SMILES IDX 75 85 76 86 77 87 56 88 57 89 65 90 58 91 64 92 59 93 60 94
REMARK SMILES IDX 61 95 62 96 63 97
REMARK H PARENT 84 53 54 64
REMARK Flexibility Score: inf
ROOT
ATOM      1  C   UNL A   1      36.509  21.493  24.421  1.00  0.00     0.188 C 
ENDROOT
BRANCH   1   2
ATOM      2  O   UNL A   1      35.872  20.417  25.103  1.00  0.00    -0.376 OA
BRANCH   2   3
ATOM      3  C   UNL A   1      36.127  19.067  24.730  1.00  0.00     0.202 C 
BRANCH   3   4
ATOM      4  C   UNL A   1      34.962  18.152  24.318  1.00  0.00     0.261 C 
BRANCH   4   5
ATOM      5  O   UNL A   1      33.940  18.022  25.311  1.00  0.00    -0.459 OA
BRANCH   5   6
ATOM      6  C   UNL A   1      32.644  18.138  24.911  1.00  0.00     0.350 C 
ATOM      7  O   UNL A   1      31.743  17.366  25.220  1.00  0.00    -0.245 OA
BRANCH   6   8
ATOM      8  C   UNL A   1      32.468  19.364  24.171  1.00  0.00     0.135 A 
ATOM      9  C   UNL A   1      32.344  21.678  23.487  1.00  0.00     0.146 A 
ATOM     10  N   UNL A   1      32.183  20.912  22.429  1.00  0.00    -0.239 NA
ATOM     11  S   UNL A   1      32.357  20.851  24.991  1.00  0.00    -0.105 S 
ATOM     12  C   UNL A   1      32.283  19.572  22.810  1.00  0.00     0.064 A 
ATOM     13  C   UNL A   1      32.155  18.532  21.752  1.00  0.00     0.068 C 
BRANCH   9  14
ATOM     14  C   UNL A   1      32.684  23.130  23.453  1.00  0.00     0.145 A 
ATOM     15  N   UNL A   1      32.428  25.275  23.281  1.00  0.00    -0.217 N 
ATOM     16  N   UNL A   1      33.741  24.999  23.112  1.00  0.00    -0.061 NA
ATOM     17  C   UNL A   1      31.709  24.110  23.449  1.00  0.00     0.072 A 
ATOM     18  N   UNL A   1      33.918  23.695  23.335  1.00  0.00    -0.127 NA
ATOM     19  C   UNL A   1      30.227  23.980  23.514  1.00  0.00     0.069 C 
BRANCH  15  20
ATOM     20  C   UNL A   1      31.896  26.575  23.202  1.00  0.00     0.067 A 
ATOM     21  C   UNL A   1      30.682  28.968  22.500  1.00  0.00     0.119 A 
ATOM     22  C   UNL A   1      32.072  28.838  22.405  1.00  0.00     0.048 A 
ATOM     23  C   UNL A   1      29.907  27.913  22.969  1.00  0.00     0.048 A 
ATOM     24  C   UNL A   1      32.694  27.640  22.777  1.00  0.00     0.032 A 
ATOM     25  C   UNL A   1      30.516  26.732  23.359  1.00  0.00     0.032 A 
BRANCH  21  26
ATOM     26  O   UNL A   1      30.092  30.093  21.994  1.00  0.00    -0.494 OA
BRANCH  26  27
ATOM     27  C   UNL A   1      28.681  30.153  22.236  1.00  0.00     0.226 C 
ATOM     28  C   UNL A   1      28.323  30.948  23.484  1.00  0.00     0.049 C 
ENDBRANCH  26  27
ENDBRANCH  21  26
ENDBRANCH  15  20
ENDBRANCH   9  14
ENDBRANCH   6   8
ENDBRANCH   5   6
ENDBRANCH   4   5
ENDBRANCH   3   4
ENDBRANCH   2   3
ENDBRANCH   1   2
BRANCH   1  29
ATOM     29  C   UNL A   1      37.743  22.195  25.026  1.00  0.00     0.188 C 
BRANCH  29  30
ATOM     30  O   UNL A   1      38.388  21.454  26.043  1.00  0.00    -0.376 OA
BRANCH  30  31
ATOM     31  C   UNL A   1      39.649  21.919  26.505  1.00  0.00     0.202 C 
BRANCH  31  32
ATOM     32  C   UNL A   1      40.892  21.048  26.310  1.00  0.00     0.261 C 
BRANCH  32  33
ATOM     33  O   UNL A   1      42.112  21.596  26.778  1.00  0.00    -0.460 OA
BRANCH  33  34
ATOM     34  C   UNL A   1      43.020  21.877  25.822  1.00  0.00     0.338 C 
ATOM     35  O   UNL A   1      43.413  21.129  24.943  1.00  0.00    -0.246 OA
BRANCH  34  36
ATOM     36  C   UNL A   1      43.531  23.228  26.063  1.00  0.00     0.060 A 
ATOM     37  C   UNL A   1      44.407  23.401  27.136  1.00  0.00     0.016 A 
ATOM     38  C   UNL A   1      42.899  24.309  25.429  1.00  0.00     0.016 A 
ATOM     39  C   UNL A   1      44.473  24.645  27.719  1.00  0.00     0.010 A 
ATOM     40  C   UNL A   1      42.948  25.542  26.027  1.00  0.00     0.010 A 
ATOM     41  C   UNL A   1      43.661  25.667  27.214  1.00  0.00    -0.014 A 
BRANCH  41  42
ATOM     42  C   UNL A   1      43.602  26.907  27.953  1.00  0.00     0.031 A 
ATOM     43  C   UNL A   1      44.849  27.689  27.882  1.00  0.00     0.074 A 
ATOM     44  C   UNL A   1      42.480  27.332  28.559  1.00  0.00     0.049 A 
ATOM     45  N   UNL A   1      45.698  27.893  28.830  1.00  0.00    -0.248 NA
ATOM     46  C   UNL A   1      45.289  28.147  26.555  1.00  0.00     0.031 C 
ATOM     47  C   UNL A   1      41.130  26.775  28.450  1.00  0.00     0.029 A 
ATOM     48  N   UNL A   1      42.295  28.449  29.310  1.00  0.00    -0.354 N 
ATOM     49  C   UNL A   1      46.668  28.716  28.276  1.00  0.00     0.074 A 
ATOM     50  C   UNL A   1      46.486  28.655  26.848  1.00  0.00     0.031 C 
ATOM     51  C   UNL A   1      40.241  27.688  28.902  1.00  0.00     0.029 A 
ATOM     52  C   UNL A   1      40.967  28.831  29.434  1.00  0.00     0.049 A 
ATOM     53  H   UNL A   1      43.037  28.943  29.730  1.00  0.00     0.167 HD
ATOM     54  C   UNL A   1      47.345  29.617  29.037  1.00  0.00     0.031 A 
ATOM     55  C   UNL A   1      40.516  30.042  29.852  1.00  0.00     0.031 A 
ATOM     56  C   UNL A   1      47.227  29.334  30.445  1.00  0.00     0.049 A 
ATOM     57  C   UNL A   1      41.624  30.699  30.593  1.00  0.00     0.074 A 
ATOM     58  C   UNL A   1      47.491  28.232  31.236  1.00  0.00     0.029 A 
ATOM     59  N   UNL A   1      46.394  30.143  31.184  1.00  0.00    -0.354 N 
ATOM     60  N   UNL A   1      42.061  30.283  31.749  1.00  0.00    -0.248 NA
ATOM     61  C   UNL A   1      42.548  31.547  29.850  1.00  0.00     0.031 C 
ATOM     62  C   UNL A   1      46.446  28.211  32.203  1.00  0.00     0.029 A 
ATOM     63  C   UNL A   1      45.641  29.332  31.992  1.00  0.00     0.049 A 
ATOM     64  H   UNL A   1      46.348  31.125  31.140  1.00  0.00     0.167 HD
ATOM     65  C   UNL A   1      43.440  30.441  31.686  1.00  0.00     0.074 A 
ATOM     66  C   UNL A   1      43.669  31.318  30.541  1.00  0.00     0.031 C 
ATOM     67  C   UNL A   1      44.279  29.622  32.388  1.00  0.00     0.031 A 
BRANCH  54  68
ATOM     68  C   UNL A   1      47.720  30.983  28.520  1.00  0.00    -0.014 A 
ATOM     69  C   UNL A   1      46.697  31.915  28.264  1.00  0.00     0.010 A 
ATOM     70  C   UNL A   1      49.002  31.277  28.004  1.00  0.00     0.010 A 
ATOM     71  C   UNL A   1      46.930  33.039  27.463  1.00  0.00     0.020 A 
ATOM     72  C   UNL A   1      49.256  32.419  27.248  1.00  0.00     0.020 A 
ATOM     73  C   UNL A   1      48.207  33.272  26.949  1.00  0.00     0.054 A 
BRANCH  73  74
ATOM     74  S   UNL A   1      48.472  34.658  25.820  1.00  0.00     0.124 S 
ATOM     75  O   UNL A   1      48.628  35.772  26.749  1.00  0.00    -0.237 OA
ATOM     76  O   UNL A   1      49.679  34.248  25.107  1.00  0.00    -0.237 OA
ATOM     77  O   UNL A   1      47.254  34.676  25.013  1.00  0.00    -0.744 OA
ENDBRANCH  73  74
ENDBRANCH  54  68
BRANCH  55  78
ATOM     78  C   UNL A   1      39.318  30.781  29.377  1.00  0.00    -0.014 A 
ATOM     79  C   UNL A   1      38.261  30.104  28.738  1.00  0.00     0.010 A 
ATOM     80  C   UNL A   1      39.083  32.108  29.791  1.00  0.00     0.010 A 
ATOM     81  C   UNL A   1      36.999  30.705  28.591  1.00  0.00     0.020 A 
ATOM     82  C   UNL A   1      37.835  32.719  29.635  1.00  0.00     0.020 A 
ATOM     83  C   UNL A   1      36.788  32.003  29.062  1.00  0.00     0.054 A 
BRANCH  83  84
ATOM     84  S   UNL A   1      35.111  32.701  29.052  1.00  0.00     0.124 S 
ATOM     85  O   UNL A   1      34.507  32.080  30.226  1.00  0.00    -0.237 OA
ATOM     86  O   UNL A   1      35.363  34.136  29.154  1.00  0.00    -0.237 OA
ATOM     87  O   UNL A   1      34.564  32.263  27.769  1.00  0.00    -0.744 OA
ENDBRANCH  83  84
ENDBRANCH  55  78
BRANCH  67  88
ATOM     88  C   UNL A   1      43.708  28.772  33.500  1.00  0.00    -0.014 A 
ATOM     89  C   UNL A   1      43.561  29.208  34.830  1.00  0.00     0.010 A 
ATOM     90  C   UNL A   1      43.169  27.522  33.141  1.00  0.00     0.010 A 
ATOM     91  C   UNL A   1      42.927  28.396  35.783  1.00  0.00     0.020 A 
ATOM     92  C   UNL A   1      42.518  26.719  34.078  1.00  0.00     0.020 A 
ATOM     93  C   UNL A   1      42.412  27.154  35.399  1.00  0.00     0.054 A 
BRANCH  93  94
ATOM     94  S   UNL A   1      41.566  26.119  36.627  1.00  0.00     0.124 S 
ATOM     95  O   UNL A   1      42.679  25.535  37.369  1.00  0.00    -0.237 OA
ATOM     96  O   UNL A   1      40.756  27.086  37.364  1.00  0.00    -0.237 OA
ATOM     97  O   UNL A   1      40.801  25.172  35.816  1.00  0.00    -0.744 OA
ENDBRANCH  93  94
ENDBRANCH  67  88
ENDBRANCH  41  42
ENDBRANCH  34  36
ENDBRANCH  33  34
ENDBRANCH  32  33
ENDBRANCH  31  32
ENDBRANCH  30  31
ENDBRANCH  29  30
ENDBRANCH   1  29
TORSDOF 24
ENDMDL
